MODEL        1
REMARK 921   NORMALIZED FREE ENERGY PREDICTED BY IDOCK:   -8.36 KCAL/MOL
REMARK 922        TOTAL FREE ENERGY PREDICTED BY IDOCK:   -9.68 KCAL/MOL
REMARK 923 INTER-LIGAND FREE ENERGY PREDICTED BY IDOCK:   -9.34 KCAL/MOL
REMARK 924 INTRA-LIGAND FREE ENERGY PREDICTED BY IDOCK:   -0.34 KCAL/MOL
REMARK 927      BINDING AFFINITY PREDICTED BY RF-SCORE:    0.00 PKD
ROOT
HETATM    1  C   UNL     1      -8.217  14.844  67.346  1.00  0.00    -0.197 C  
HETATM    2  C   UNL     1      -6.789  14.171  67.210  1.00  0.00     0.165 C  
HETATM    3  C   UNL     1      -6.527  12.848  67.885  1.00  0.00    -0.127 A  
HETATM    4  C   UNL     1      -6.719  12.695  69.252  1.00  0.00    -0.054 A  
HETATM    5  C   UNL     1      -7.149  11.465  69.738  1.00  0.00     0.103 A  
HETATM    6  C   UNL     1      -7.217  10.368  68.882  1.00  0.00    -0.082 A  
HETATM    7  C   UNL     1      -6.525  10.444  67.678  1.00  0.00    -0.058 A  
HETATM    8  O   UNL     1      -8.073   9.376  69.297  1.00  0.00    -0.096 OA 
HETATM    9  C   UNL     1      -6.265  11.701  67.132  1.00  0.00    -0.133 A  
HETATM   10  C   UNL     1      -8.572   8.382  68.484  1.00  0.00    -0.136 A  
HETATM   11  C   UNL     1      -9.154   7.306  69.176  1.00  0.00    -0.137 A  
HETATM   12  C   UNL     1      -9.271   6.058  68.532  1.00  0.00    -0.114 A  
HETATM   13  C   UNL     1      -9.673   4.826  69.290  1.00  0.00    -0.266 C  
HETATM   14  C   UNL     1      -8.943   5.945  67.191  1.00  0.00    -0.113 A  
HETATM   15  C   UNL     1      -8.680   7.077  66.437  1.00  0.00    -0.142 A  
HETATM   16  C   UNL     1     -10.380   5.055  70.615  1.00  0.00    -0.208 C  
HETATM   17  C   UNL     1      -8.574   8.307  67.092  1.00  0.00    -0.123 A  
HETATM   18  C   UNL     1      -8.285  15.610  69.686  1.00  0.00    -0.068 C  
HETATM   19  N   UNL     1      -9.884   6.269  71.404  1.00  0.00    -0.173 N  
HETATM   20  O   UNL     1      -8.583   9.434  66.312  1.00  0.00    -0.126 OA 
HETATM   21  N   UNL     1      -8.232  16.008  68.281  1.00  0.00    -0.155 NA 
HETATM   22  C   UNL     1     -10.779   6.396  72.644  1.00  0.00    -0.234 C  
HETATM   23  C   UNL     1      -9.904   7.543  70.494  1.00  0.00    -0.183 C  
HETATM   24  C   UNL     1      -8.448   6.118  71.915  1.00  0.00    -0.129 C  
HETATM   25  C   UNL     1     -11.367   7.953  70.127  1.00  0.00    -0.099 C  
HETATM   26  H   UNL     1      -8.585   9.383  65.363  1.00  0.00     0.000 HD 
HETATM   27  C   UNL     1     -11.790   9.286  70.671  1.00  0.00    -0.246 A  
HETATM   28  C   UNL     1     -11.226  10.419  70.097  1.00  0.00    -0.393 A  
HETATM   29  C   UNL     1     -11.795  11.680  70.275  1.00  0.00    -0.326 A  
HETATM   30  C   UNL     1     -12.732  11.829  71.294  1.00  0.00    -0.316 A  
HETATM   31  O   UNL     1     -11.395  12.713  69.454  1.00  0.00    -0.254 OA 
HETATM   32  C   UNL     1     -11.016  12.315  68.082  1.00  0.00    -0.231 C  
HETATM   33  C   UNL     1     -13.274  10.700  71.955  1.00  0.00    -0.528 A  
HETATM   34  O   UNL     1     -13.101  13.066  71.733  1.00  0.00    -0.399 OA 
HETATM   35  C   UNL     1     -12.841   9.419  71.581  1.00  0.00    -0.461 A  
HETATM   36  H   UNL     1     -13.740  13.167  72.429  1.00  0.00     0.000 HD 
HETATM   37  C   UNL     1     -11.907  12.773  67.127  1.00  0.00    -0.350 C  
HETATM   38  C   UNL     1     -11.911  14.148  66.941  1.00  0.00    -0.479 C  
HETATM   39  C   UNL     1      -9.354  16.900  67.918  1.00  0.00    -0.238 C  
HETATM   40  C   UNL     1      -9.729  12.750  67.789  1.00  0.00    -0.207 C  
HETATM   41  C   UNL     1     -10.731  14.827  67.300  1.00  0.00    -0.294 C  
HETATM   42  C   UNL     1      -9.541  14.085  67.461  1.00  0.00    -0.228 C  
HETATM   43  C   UNL     1     -10.750  16.257  67.771  1.00  0.00    -0.325 C  
ENDROOT
BRANCH  15  44
HETATM   44  O   UNL     1      -8.482   7.116  65.082  1.00  0.00    -0.111 OA 
HETATM   45  C   UNL     1      -8.006   5.917  64.480  1.00  0.00    -0.126 C  
ENDBRANCH  15  44
BRANCH  37  46
HETATM   46  O   UNL     1     -12.058  11.865  66.089  1.00  0.00    -0.519 OA 
HETATM   47  C   UNL     1     -12.328  12.357  64.787  1.00  0.00    -0.423 C  
ENDBRANCH  37  46
TORSDOF 2
ENDMDL
MODEL        2
REMARK 921   NORMALIZED FREE ENERGY PREDICTED BY IDOCK:   -8.27 KCAL/MOL
REMARK 922        TOTAL FREE ENERGY PREDICTED BY IDOCK:   -9.58 KCAL/MOL
REMARK 923 INTER-LIGAND FREE ENERGY PREDICTED BY IDOCK:   -9.23 KCAL/MOL
REMARK 924 INTRA-LIGAND FREE ENERGY PREDICTED BY IDOCK:   -0.35 KCAL/MOL
REMARK 927      BINDING AFFINITY PREDICTED BY RF-SCORE:    0.00 PKD
ROOT
HETATM    1  C   UNL     1      -8.370  14.999  67.436  1.00  0.00    -0.190 C  
HETATM    2  C   UNL     1      -6.923  14.390  67.221  1.00  0.00     0.078 C  
HETATM    3  C   UNL     1      -6.596  13.037  67.800  1.00  0.00    -0.146 A  
HETATM    4  C   UNL     1      -6.745  12.787  69.159  1.00  0.00    -0.080 A  
HETATM    5  C   UNL     1      -7.118  11.514  69.572  1.00  0.00     0.016 A  
HETATM    6  C   UNL     1      -7.170  10.473  68.648  1.00  0.00    -0.087 A  
HETATM    7  C   UNL     1      -6.514  10.653  67.435  1.00  0.00    -0.059 A  
HETATM    8  O   UNL     1      -7.978   9.424  69.018  1.00  0.00    -0.087 OA 
HETATM    9  C   UNL     1      -6.314  11.952  66.967  1.00  0.00    -0.141 A  
HETATM   10  C   UNL     1      -8.464   8.468  68.154  1.00  0.00    -0.134 A  
HETATM   11  C   UNL     1      -8.988   7.328  68.788  1.00  0.00    -0.129 A  
HETATM   12  C   UNL     1      -9.078   6.121  68.066  1.00  0.00    -0.114 A  
HETATM   13  C   UNL     1      -9.415   4.828  68.750  1.00  0.00    -0.209 C  
HETATM   14  C   UNL     1      -8.782   6.108  66.712  1.00  0.00    -0.116 A  
HETATM   15  C   UNL     1      -8.580   7.295  66.028  1.00  0.00    -0.151 A  
HETATM   16  C   UNL     1     -10.094   4.944  70.105  1.00  0.00    -0.261 C  
HETATM   17  C   UNL     1      -8.501   8.484  66.760  1.00  0.00    -0.109 A  
HETATM   18  C   UNL     1      -8.402  15.608  69.822  1.00  0.00     0.069 C  
HETATM   19  N   UNL     1      -9.620   6.122  70.959  1.00  0.00    -0.174 N  
HETATM   20  O   UNL     1      -8.571   9.658  66.056  1.00  0.00    -0.128 OA 
HETATM   21  N   UNL     1      -8.401  16.098  68.446  1.00  0.00    -0.171 NA 
HETATM   22  C   UNL     1     -10.485   6.134  72.227  1.00  0.00    -0.198 C  
HETATM   23  C   UNL     1      -9.710   7.451  70.136  1.00  0.00    -0.175 C  
HETATM   24  C   UNL     1      -8.166   5.992  71.423  1.00  0.00    -0.123 C  
HETATM   25  C   UNL     1     -11.196   7.829  69.833  1.00  0.00    -0.070 C  
HETATM   26  H   UNL     1      -8.596   9.669  65.106  1.00  0.00     0.000 HD 
HETATM   27  C   UNL     1     -11.651   9.107  70.475  1.00  0.00    -0.238 A  
HETATM   28  C   UNL     1     -11.144  10.295  69.962  1.00  0.00    -0.373 A  
HETATM   29  C   UNL     1     -11.753  11.520  70.237  1.00  0.00    -0.289 A  
HETATM   30  C   UNL     1     -12.666  11.567  71.286  1.00  0.00    -0.364 A  
HETATM   31  O   UNL     1     -11.412  12.618  69.477  1.00  0.00    -0.266 OA 
HETATM   32  C   UNL     1     -11.056  12.325  68.072  1.00  0.00    -0.239 C  
HETATM   33  C   UNL     1     -13.149  10.378  71.885  1.00  0.00    -0.563 A  
HETATM   34  O   UNL     1     -13.067  12.759  71.815  1.00  0.00    -0.404 OA 
HETATM   35  C   UNL     1     -12.681   9.141  71.416  1.00  0.00    -0.383 A  
HETATM   36  H   UNL     1     -13.690  12.790  72.532  1.00  0.00     0.000 HD 
HETATM   37  C   UNL     1     -11.989  12.810  67.172  1.00  0.00    -0.284 C  
HETATM   38  C   UNL     1     -12.047  14.193  67.077  1.00  0.00    -0.449 C  
HETATM   39  C   UNL     1      -9.563  16.970  68.170  1.00  0.00    -0.266 C  
HETATM   40  C   UNL     1      -9.794  12.826  67.777  1.00  0.00    -0.220 C  
HETATM   41  C   UNL     1     -10.883  14.891  67.451  1.00  0.00    -0.304 C  
HETATM   42  C   UNL     1      -9.663  14.185  67.533  1.00  0.00    -0.234 C  
HETATM   43  C   UNL     1     -10.940  16.286  68.016  1.00  0.00    -0.328 C  
ENDROOT
BRANCH  15  44
HETATM   44  O   UNL     1      -8.420   7.430  64.674  1.00  0.00    -0.022 OA 
HETATM   45  C   UNL     1      -8.097   6.244  63.957  1.00  0.00    -0.058 C  
ENDBRANCH  15  44
BRANCH  37  46
HETATM   46  O   UNL     1     -12.135  11.967  66.080  1.00  0.00    -0.582 OA 
HETATM   47  C   UNL     1     -12.401  12.536  64.810  1.00  0.00    -0.474 C  
ENDBRANCH  37  46
TORSDOF 2
ENDMDL
MODEL        3
REMARK 921   NORMALIZED FREE ENERGY PREDICTED BY IDOCK:   -8.04 KCAL/MOL
REMARK 922        TOTAL FREE ENERGY PREDICTED BY IDOCK:   -9.32 KCAL/MOL
REMARK 923 INTER-LIGAND FREE ENERGY PREDICTED BY IDOCK:   -8.92 KCAL/MOL
REMARK 924 INTRA-LIGAND FREE ENERGY PREDICTED BY IDOCK:   -0.40 KCAL/MOL
REMARK 927      BINDING AFFINITY PREDICTED BY RF-SCORE:    0.00 PKD
ROOT
HETATM    1  C   UNL     1      -9.616  14.986  68.202  1.00  0.00    -0.207 C  
HETATM    2  C   UNL     1     -11.127  14.618  68.506  1.00  0.00    -0.273 C  
HETATM    3  C   UNL     1     -11.615  13.215  68.245  1.00  0.00    -0.370 A  
HETATM    4  C   UNL     1     -11.491  12.639  66.987  1.00  0.00    -0.406 A  
HETATM    5  C   UNL     1     -11.274  11.270  66.893  1.00  0.00    -0.300 A  
HETATM    6  C   UNL     1     -11.352  10.475  68.034  1.00  0.00    -0.246 A  
HETATM    7  C   UNL     1     -11.987  11.009  69.151  1.00  0.00    -0.394 A  
HETATM    8  O   UNL     1     -10.677   9.282  67.944  1.00  0.00    -0.242 OA 
HETATM    9  C   UNL     1     -12.029  12.396  69.298  1.00  0.00    -0.308 A  
HETATM   10  C   UNL     1     -10.315   8.504  69.022  1.00  0.00    -0.216 A  
HETATM   11  C   UNL     1      -9.930   7.194  68.687  1.00  0.00    -0.161 A  
HETATM   12  C   UNL     1      -9.991   6.188  69.671  1.00  0.00    -0.210 A  
HETATM   13  C   UNL     1      -9.811   4.740  69.317  1.00  0.00    -0.269 C  
HETATM   14  C   UNL     1     -10.291   6.527  70.981  1.00  0.00    -0.240 A  
HETATM   15  C   UNL     1     -10.351   7.856  71.364  1.00  0.00    -0.198 A  
HETATM   16  C   UNL     1      -9.117   4.455  67.995  1.00  0.00    -0.127 C  
HETATM   17  C   UNL     1     -10.282   8.841  70.374  1.00  0.00    -0.197 A  
HETATM   18  C   UNL     1      -9.501  15.011  65.742  1.00  0.00    -0.225 C  
HETATM   19  N   UNL     1      -9.441   5.448  66.876  1.00  0.00    -0.129 N  
HETATM   20  O   UNL     1     -10.072  10.131  70.788  1.00  0.00    -0.322 OA 
HETATM   21  N   UNL     1      -9.447  15.807  66.966  1.00  0.00    -0.218 NA 
HETATM   22  C   UNL     1      -8.576   5.061  65.669  1.00  0.00    -0.135 C  
HETATM   23  C   UNL     1      -9.194   6.912  67.370  1.00  0.00    -0.125 C  
HETATM   24  C   UNL     1     -10.898   5.384  66.408  1.00  0.00    -0.131 C  
HETATM   25  C   UNL     1      -7.674   7.173  67.626  1.00  0.00    -0.112 C  
HETATM   26  H   UNL     1     -10.049  10.361  71.710  1.00  0.00     0.000 HD 
HETATM   27  C   UNL     1      -7.064   8.204  66.720  1.00  0.00    -0.077 A  
HETATM   28  C   UNL     1      -7.425   9.530  66.926  1.00  0.00    -0.094 A  
HETATM   29  C   UNL     1      -6.670  10.576  66.395  1.00  0.00    -0.114 A  
HETATM   30  C   UNL     1      -5.754  10.268  65.394  1.00  0.00    -0.104 A  
HETATM   31  O   UNL     1      -6.878  11.854  66.868  1.00  0.00    -0.138 OA 
HETATM   32  C   UNL     1      -7.272  11.941  68.290  1.00  0.00    -0.089 C  
HETATM   33  C   UNL     1      -5.417   8.924  65.103  1.00  0.00    -0.038 A  
HETATM   34  O   UNL     1      -5.209  11.247  64.616  1.00  0.00    -0.491 OA 
HETATM   35  C   UNL     1      -6.033   7.895  65.830  1.00  0.00    -0.038 A  
HETATM   36  H   UNL     1      -4.584  11.037  63.932  1.00  0.00     0.000 HD 
HETATM   37  C   UNL     1      -6.292  12.511  69.084  1.00  0.00    -0.095 C  
HETATM   38  C   UNL     1      -6.066  13.861  68.857  1.00  0.00    -0.087 C  
HETATM   39  C   UNL     1      -8.189  16.576  67.070  1.00  0.00    -0.196 C  
HETATM   40  C   UNL     1      -8.466  12.642  68.420  1.00  0.00    -0.121 C  
HETATM   41  C   UNL     1      -7.135  14.584  68.294  1.00  0.00    -0.113 C  
HETATM   42  C   UNL     1      -8.432  14.026  68.338  1.00  0.00    -0.166 C  
HETATM   43  C   UNL     1      -6.907  15.791  67.423  1.00  0.00    -0.235 C  
ENDROOT
BRANCH  15  44
HETATM   44  O   UNL     1     -10.498   8.321  72.644  1.00  0.00    -0.320 OA 
HETATM   45  C   UNL     1     -10.658   7.336  73.658  1.00  0.00    -0.307 C  
ENDBRANCH  15  44
BRANCH  37  46
HETATM   46  O   UNL     1      -6.253  11.935  70.345  1.00  0.00    -0.208 OA 
HETATM   47  C   UNL     1      -6.242  10.522  70.450  1.00  0.00    -0.128 C  
ENDBRANCH  37  46
TORSDOF 2
ENDMDL
MODEL        4
REMARK 921   NORMALIZED FREE ENERGY PREDICTED BY IDOCK:   -7.73 KCAL/MOL
REMARK 922        TOTAL FREE ENERGY PREDICTED BY IDOCK:   -8.97 KCAL/MOL
REMARK 923 INTER-LIGAND FREE ENERGY PREDICTED BY IDOCK:   -8.69 KCAL/MOL
REMARK 924 INTRA-LIGAND FREE ENERGY PREDICTED BY IDOCK:   -0.28 KCAL/MOL
REMARK 927      BINDING AFFINITY PREDICTED BY RF-SCORE:    0.00 PKD
ROOT
HETATM    1  C   UNL     1      -6.615  16.607  67.214  1.00  0.00    -0.178 C  
HETATM    2  C   UNL     1      -5.390  15.602  67.248  1.00  0.00     0.175 C  
HETATM    3  C   UNL     1      -5.545  14.270  67.937  1.00  0.00    -0.101 A  
HETATM    4  C   UNL     1      -5.935  14.196  69.269  1.00  0.00    -0.097 A  
HETATM    5  C   UNL     1      -6.709  13.120  69.685  1.00  0.00     0.081 A  
HETATM    6  C   UNL     1      -6.940  12.056  68.817  1.00  0.00    -0.101 A  
HETATM    7  C   UNL     1      -6.109  11.934  67.709  1.00  0.00    -0.067 A  
HETATM    8  O   UNL     1      -8.057  11.312  69.114  1.00  0.00    -0.093 OA 
HETATM    9  C   UNL     1      -5.484  13.078  67.211  1.00  0.00     0.142 A  
HETATM   10  C   UNL     1      -8.682  10.454  68.236  1.00  0.00    -0.128 A  
HETATM   11  C   UNL     1      -9.591   9.568  68.841  1.00  0.00    -0.156 A  
HETATM   12  C   UNL     1      -9.931   8.374  68.175  1.00  0.00    -0.224 A  
HETATM   13  C   UNL     1     -10.712   7.294  68.865  1.00  0.00    -0.173 C  
HETATM   14  C   UNL     1      -9.479   8.156  66.883  1.00  0.00    -0.244 A  
HETATM   15  C   UNL     1      -8.856   9.172  66.178  1.00  0.00    -0.158 A  
HETATM   16  C   UNL     1     -11.498   7.717  70.095  1.00  0.00    -0.066 C  
HETATM   17  C   UNL     1      -8.532  10.353  66.853  1.00  0.00    -0.124 A  
HETATM   18  C   UNL     1      -6.777  17.415  69.534  1.00  0.00    -0.119 C  
HETATM   19  N   UNL     1     -10.819   8.789  70.951  1.00  0.00    -0.226 N  
HETATM   20  O   UNL     1      -8.169  11.431  66.089  1.00  0.00    -0.300 OA 
HETATM   21  N   UNL     1      -6.458  17.758  68.151  1.00  0.00    -0.180 NA 
HETATM   22  C   UNL     1     -11.799   9.156  72.072  1.00  0.00    -0.337 C  
HETATM   23  C   UNL     1     -10.414  10.009  70.058  1.00  0.00    -0.287 C  
HETATM   24  C   UNL     1      -9.537   8.301  71.633  1.00  0.00    -0.198 C  
HETATM   25  C   UNL     1     -11.676  10.757  69.517  1.00  0.00    -0.384 C  
HETATM   26  H   UNL     1      -8.068  11.362  65.147  1.00  0.00     0.000 HD 
HETATM   27  C   UNL     1     -11.821  12.165  70.018  1.00  0.00    -0.383 A  
HETATM   28  C   UNL     1     -10.931  13.113  69.529  1.00  0.00     0.024 A  
HETATM   29  C   UNL     1     -11.190  14.478  69.648  1.00  0.00    -0.253 A  
HETATM   30  C   UNL     1     -12.178  14.872  70.544  1.00  0.00    -0.329 A  
HETATM   31  O   UNL     1     -10.452  15.364  68.893  1.00  0.00    -0.222 OA 
HETATM   32  C   UNL     1     -10.017  14.857  67.574  1.00  0.00    -0.219 C  
HETATM   33  C   UNL     1     -13.057  13.925  71.123  1.00  0.00    -0.351 A  
HETATM   34  O   UNL     1     -12.283  16.172  70.947  1.00  0.00    -0.523 OA 
HETATM   35  C   UNL     1     -12.910  12.570  70.792  1.00  0.00    -0.099 A  
HETATM   36  H   UNL     1     -12.958  16.441  71.560  1.00  0.00     0.000 HD 
HETATM   37  C   UNL     1     -10.645  15.499  66.520  1.00  0.00    -0.307 C  
HETATM   38  C   UNL     1     -10.289  16.829  66.349  1.00  0.00    -0.309 C  
HETATM   39  C   UNL     1      -7.272  18.891  67.661  1.00  0.00    -0.219 C  
HETATM   40  C   UNL     1      -8.637  14.957  67.446  1.00  0.00    -0.208 C  
HETATM   41  C   UNL     1      -9.031  17.205  66.857  1.00  0.00    -0.253 C  
HETATM   42  C   UNL     1      -8.088  16.198  67.157  1.00  0.00    -0.223 C  
HETATM   43  C   UNL     1      -8.756  18.606  67.336  1.00  0.00    -0.281 C  
ENDROOT
BRANCH  15  44
HETATM   44  O   UNL     1      -8.491   9.133  64.859  1.00  0.00    -0.155 OA 
HETATM   45  C   UNL     1      -7.967   7.898  64.386  1.00  0.00    -0.132 C  
ENDBRANCH  15  44
BRANCH  37  46
HETATM   46  O   UNL     1     -10.887  14.634  65.463  1.00  0.00    -0.310 OA 
HETATM   47  C   UNL     1     -12.021  14.859  64.644  1.00  0.00    -0.401 C  
ENDBRANCH  37  46
TORSDOF 2
ENDMDL
MODEL        5
REMARK 921   NORMALIZED FREE ENERGY PREDICTED BY IDOCK:   -7.59 KCAL/MOL
REMARK 922        TOTAL FREE ENERGY PREDICTED BY IDOCK:   -8.81 KCAL/MOL
REMARK 923 INTER-LIGAND FREE ENERGY PREDICTED BY IDOCK:   -8.39 KCAL/MOL
REMARK 924 INTRA-LIGAND FREE ENERGY PREDICTED BY IDOCK:   -0.43 KCAL/MOL
REMARK 927      BINDING AFFINITY PREDICTED BY RF-SCORE:    0.00 PKD
ROOT
HETATM    1  C   UNL     1      -9.746  14.781  68.317  1.00  0.00    -0.218 C  
HETATM    2  C   UNL     1     -11.205  14.304  68.710  1.00  0.00    -0.286 C  
HETATM    3  C   UNL     1     -11.588  12.858  68.519  1.00  0.00    -0.358 A  
HETATM    4  C   UNL     1     -11.479  12.250  67.275  1.00  0.00    -0.426 A  
HETATM    5  C   UNL     1     -11.155  10.900  67.212  1.00  0.00    -0.350 A  
HETATM    6  C   UNL     1     -11.112  10.142  68.380  1.00  0.00    -0.218 A  
HETATM    7  C   UNL     1     -11.732  10.663  69.511  1.00  0.00    -0.356 A  
HETATM    8  O   UNL     1     -10.345   9.005  68.292  1.00  0.00    -0.198 OA 
HETATM    9  C   UNL     1     -11.882  12.046  69.617  1.00  0.00    -0.401 A  
HETATM   10  C   UNL     1      -9.868   8.297  69.373  1.00  0.00    -0.185 A  
HETATM   11  C   UNL     1      -9.394   7.011  69.060  1.00  0.00    -0.136 A  
HETATM   12  C   UNL     1      -9.324   6.039  70.077  1.00  0.00    -0.170 A  
HETATM   13  C   UNL     1      -9.043   4.599  69.759  1.00  0.00    -0.162 C  
HETATM   14  C   UNL     1      -9.586   6.399  71.389  1.00  0.00    -0.173 A  
HETATM   15  C   UNL     1      -9.736   7.732  71.733  1.00  0.00    -0.164 A  
HETATM   16  C   UNL     1      -8.394   4.324  68.412  1.00  0.00    -0.092 C  
HETATM   17  C   UNL     1      -9.797   8.684  70.711  1.00  0.00    -0.192 A  
HETATM   18  C   UNL     1      -9.754  14.729  65.855  1.00  0.00    -0.323 C  
HETATM   19  N   UNL     1      -8.852   5.247  67.281  1.00  0.00    -0.106 N  
HETATM   20  O   UNL     1      -9.674  10.000  71.073  1.00  0.00    -0.203 OA 
HETATM   21  N   UNL     1      -9.706  15.569  67.050  1.00  0.00    -0.221 NA 
HETATM   22  C   UNL     1      -8.019   4.890  66.044  1.00  0.00    -0.107 C  
HETATM   23  C   UNL     1      -8.702   6.743  67.717  1.00  0.00    -0.120 C  
HETATM   24  C   UNL     1     -10.320   5.050  66.891  1.00  0.00    -0.218 C  
HETATM   25  C   UNL     1      -7.198   7.135  67.885  1.00  0.00    -0.091 C  
HETATM   26  H   UNL     1      -9.625  10.263  71.985  1.00  0.00     0.000 HD 
HETATM   27  C   UNL     1      -6.720   8.179  66.917  1.00  0.00    -0.065 A  
HETATM   28  C   UNL     1      -7.178   9.478  67.100  1.00  0.00    -0.087 A  
HETATM   29  C   UNL     1      -6.540  10.562  66.498  1.00  0.00    -0.100 A  
HETATM   30  C   UNL     1      -5.652  10.294  65.461  1.00  0.00    -0.090 A  
HETATM   31  O   UNL     1      -6.828  11.835  66.942  1.00  0.00    -0.142 OA 
HETATM   32  C   UNL     1      -7.158  11.941  68.379  1.00  0.00    -0.086 C  
HETATM   33  C   UNL     1      -5.219   8.972  65.195  1.00  0.00    -0.037 A  
HETATM   34  O   UNL     1      -5.228  11.286  64.626  1.00  0.00    -0.491 OA 
HETATM   35  C   UNL     1      -5.713   7.923  65.985  1.00  0.00    -0.037 A  
HETATM   36  H   UNL     1      -4.621  11.103  63.918  1.00  0.00     0.000 HD 
HETATM   37  C   UNL     1      -6.190  12.615  69.102  1.00  0.00    -0.098 C  
HETATM   38  C   UNL     1      -6.088  13.970  68.822  1.00  0.00    -0.086 C  
HETATM   39  C   UNL     1      -8.512  16.441  67.064  1.00  0.00    -0.197 C  
HETATM   40  C   UNL     1      -8.398  12.547  68.549  1.00  0.00    -0.069 C  
HETATM   41  C   UNL     1      -7.239  14.584  68.293  1.00  0.00    -0.119 C  
HETATM   42  C   UNL     1      -8.482  13.925  68.421  1.00  0.00    -0.159 C  
HETATM   43  C   UNL     1      -7.154  15.774  67.375  1.00  0.00    -0.236 C  
ENDROOT
BRANCH  15  44
HETATM   44  O   UNL     1      -9.858   8.228  73.004  1.00  0.00    -0.266 OA 
HETATM   45  C   UNL     1      -8.808   7.909  73.909  1.00  0.00    -0.254 C  
ENDBRANCH  15  44
BRANCH  37  46
HETATM   46  O   UNL     1      -6.043  12.089  70.377  1.00  0.00    -0.178 OA 
HETATM   47  C   UNL     1      -5.846  10.693  70.521  1.00  0.00    -0.116 C  
ENDBRANCH  37  46
TORSDOF 2
ENDMDL
MODEL        6
REMARK 921   NORMALIZED FREE ENERGY PREDICTED BY IDOCK:   -7.45 KCAL/MOL
REMARK 922        TOTAL FREE ENERGY PREDICTED BY IDOCK:   -8.66 KCAL/MOL
REMARK 923 INTER-LIGAND FREE ENERGY PREDICTED BY IDOCK:   -8.31 KCAL/MOL
REMARK 924 INTRA-LIGAND FREE ENERGY PREDICTED BY IDOCK:   -0.35 KCAL/MOL
REMARK 927      BINDING AFFINITY PREDICTED BY RF-SCORE:    0.00 PKD
ROOT
HETATM    1  C   UNL     1      -7.101  16.921  66.785  1.00  0.00    -0.238 C  
HETATM    2  C   UNL     1      -5.676  16.265  67.008  1.00  0.00     0.003 C  
HETATM    3  C   UNL     1      -5.564  14.995  67.813  1.00  0.00    -0.088 A  
HETATM    4  C   UNL     1      -6.049  14.930  69.114  1.00  0.00    -0.103 A  
HETATM    5  C   UNL     1      -6.571  13.729  69.578  1.00  0.00    -0.081 A  
HETATM    6  C   UNL     1      -6.449  12.576  68.805  1.00  0.00    -0.084 A  
HETATM    7  C   UNL     1      -5.512  12.583  67.778  1.00  0.00    -0.103 A  
HETATM    8  O   UNL     1      -7.372  11.599  69.092  1.00  0.00    -0.102 OA 
HETATM    9  C   UNL     1      -5.142  13.805  67.216  1.00  0.00     0.511 A  
HETATM   10  C   UNL     1      -7.680  10.545  68.261  1.00  0.00    -0.101 A  
HETATM   11  C   UNL     1      -8.397   9.507  68.883  1.00  0.00    -0.121 A  
HETATM   12  C   UNL     1      -8.367   8.218  68.317  1.00  0.00    -0.132 A  
HETATM   13  C   UNL     1      -8.921   7.032  69.052  1.00  0.00    -0.133 C  
HETATM   14  C   UNL     1      -7.755   8.021  67.089  1.00  0.00    -0.101 A  
HETATM   15  C   UNL     1      -7.337   9.104  66.334  1.00  0.00    -0.092 A  
HETATM   16  C   UNL     1      -9.901   7.337  70.174  1.00  0.00    -0.179 C  
HETATM   17  C   UNL     1      -7.379  10.377  66.910  1.00  0.00    -0.106 A  
HETATM   18  C   UNL     1      -7.678  17.840  68.996  1.00  0.00    -0.124 C  
HETATM   19  N   UNL     1      -9.591   8.609  70.966  1.00  0.00    -0.191 N  
HETATM   20  O   UNL     1      -7.221  11.449  66.071  1.00  0.00    -0.369 OA 
HETATM   21  N   UNL     1      -7.322  18.145  67.612  1.00  0.00    -0.211 NA 
HETATM   22  C   UNL     1     -10.734   8.803  71.971  1.00  0.00    -0.347 C  
HETATM   23  C   UNL     1      -9.415   9.819  69.988  1.00  0.00    -0.238 C  
HETATM   24  C   UNL     1      -8.299   8.517  71.785  1.00  0.00    -0.163 C  
HETATM   25  C   UNL     1     -10.765  10.178  69.285  1.00  0.00    -0.259 C  
HETATM   26  H   UNL     1      -7.017  11.335  65.150  1.00  0.00     0.000 HD 
HETATM   27  C   UNL     1     -11.298  11.537  69.632  1.00  0.00    -0.329 A  
HETATM   28  C   UNL     1     -10.626  12.639  69.116  1.00  0.00     0.008 A  
HETATM   29  C   UNL     1     -11.223  13.899  69.080  1.00  0.00    -0.274 A  
HETATM   30  C   UNL     1     -12.359  14.099  69.858  1.00  0.00    -0.327 A  
HETATM   31  O   UNL     1     -10.657  14.881  68.296  1.00  0.00    -0.233 OA 
HETATM   32  C   UNL     1      -9.988  14.400  67.069  1.00  0.00    -0.257 C  
HETATM   33  C   UNL     1     -13.029  13.008  70.463  1.00  0.00     0.134 A  
HETATM   34  O   UNL     1     -12.818  15.357  70.121  1.00  0.00    -0.626 OA 
HETATM   35  C   UNL     1     -12.523  11.712  70.281  1.00  0.00    -0.261 A  
HETATM   36  H   UNL     1     -13.593  15.493  70.654  1.00  0.00     0.000 HD 
HETATM   37  C   UNL     1     -10.651  14.777  65.914  1.00  0.00    -0.314 C  
HETATM   38  C   UNL     1     -10.618  16.136  65.638  1.00  0.00    -0.377 C  
HETATM   39  C   UNL     1      -8.340  18.991  66.954  1.00  0.00    -0.277 C  
HETATM   40  C   UNL     1      -8.668  14.836  67.033  1.00  0.00    -0.258 C  
HETATM   41  C   UNL     1      -9.545  16.858  66.196  1.00  0.00    -0.280 C  
HETATM   42  C   UNL     1      -8.417  16.149  66.662  1.00  0.00    -0.315 C  
HETATM   43  C   UNL     1      -9.670  18.316  66.552  1.00  0.00    -0.343 C  
ENDROOT
BRANCH  15  44
HETATM   44  O   UNL     1      -6.850   9.056  65.055  1.00  0.00    -0.075 OA 
HETATM   45  C   UNL     1      -6.850   7.778  64.428  1.00  0.00    -0.059 C  
ENDBRANCH  15  44
BRANCH  37  46
HETATM   46  O   UNL     1     -10.570  13.800  64.934  1.00  0.00    -0.365 OA 
HETATM   47  C   UNL     1     -11.415  12.665  65.030  1.00  0.00    -0.329 C  
ENDBRANCH  37  46
TORSDOF 2
ENDMDL
MODEL        7
REMARK 921   NORMALIZED FREE ENERGY PREDICTED BY IDOCK:   -7.39 KCAL/MOL
REMARK 922        TOTAL FREE ENERGY PREDICTED BY IDOCK:   -8.59 KCAL/MOL
REMARK 923 INTER-LIGAND FREE ENERGY PREDICTED BY IDOCK:   -8.30 KCAL/MOL
REMARK 924 INTRA-LIGAND FREE ENERGY PREDICTED BY IDOCK:   -0.29 KCAL/MOL
REMARK 927      BINDING AFFINITY PREDICTED BY RF-SCORE:    0.00 PKD
ROOT
HETATM    1  C   UNL     1      -8.258  14.951  67.379  1.00  0.00    -0.197 C  
HETATM    2  C   UNL     1      -6.753  14.461  67.299  1.00  0.00     0.195 C  
HETATM    3  C   UNL     1      -6.358  13.172  67.974  1.00  0.00    -0.127 A  
HETATM    4  C   UNL     1      -6.587  12.977  69.330  1.00  0.00    -0.063 A  
HETATM    5  C   UNL     1      -6.882  11.697  69.786  1.00  0.00     0.050 A  
HETATM    6  C   UNL     1      -6.777  10.612  68.919  1.00  0.00    -0.062 A  
HETATM    7  C   UNL     1      -6.050  10.789  67.746  1.00  0.00    -0.047 A  
HETATM    8  O   UNL     1      -7.520   9.516  69.287  1.00  0.00    -0.072 OA 
HETATM    9  C   UNL     1      -5.925  12.077  67.223  1.00  0.00    -0.146 A  
HETATM   10  C   UNL     1      -7.857   8.480  68.445  1.00  0.00    -0.106 A  
HETATM   11  C   UNL     1      -8.330   7.330  69.102  1.00  0.00    -0.132 A  
HETATM   12  C   UNL     1      -8.264   6.087  68.443  1.00  0.00    -0.110 A  
HETATM   13  C   UNL     1      -8.541   4.804  69.172  1.00  0.00    -0.094 C  
HETATM   14  C   UNL     1      -7.868   6.034  67.116  1.00  0.00    -0.102 A  
HETATM   15  C   UNL     1      -7.715   7.200  66.384  1.00  0.00    -0.100 A  
HETATM   16  C   UNL     1      -9.327   4.926  70.467  1.00  0.00    -0.154 C  
HETATM   17  C   UNL     1      -7.791   8.425  67.053  1.00  0.00    -0.096 A  
HETATM   18  C   UNL     1      -8.520  15.670  69.720  1.00  0.00     0.066 C  
HETATM   19  N   UNL     1      -9.019   6.181  71.287  1.00  0.00    -0.139 N  
HETATM   20  O   UNL     1      -7.907   9.552  66.283  1.00  0.00    -0.099 OA 
HETATM   21  N   UNL     1      -8.457  16.091  68.322  1.00  0.00    -0.173 NA 
HETATM   22  C   UNL     1      -9.974   6.179  72.488  1.00  0.00    -0.172 C  
HETATM   23  C   UNL     1      -9.158   7.454  70.388  1.00  0.00    -0.157 C  
HETATM   24  C   UNL     1      -7.598   6.201  71.858  1.00  0.00    -0.096 C  
HETATM   25  C   UNL     1     -10.644   7.686  69.961  1.00  0.00    -0.240 C  
HETATM   26  H   UNL     1      -7.862   9.515  65.335  1.00  0.00     0.000 HD 
HETATM   27  C   UNL     1     -11.251   8.949  70.498  1.00  0.00    -0.287 A  
HETATM   28  C   UNL     1     -10.809  10.151  69.958  1.00  0.00    -0.361 A  
HETATM   29  C   UNL     1     -11.537  11.329  70.122  1.00  0.00    -0.305 A  
HETATM   30  C   UNL     1     -12.527  11.347  71.100  1.00  0.00    -0.360 A  
HETATM   31  O   UNL     1     -11.234  12.415  69.328  1.00  0.00    -0.242 OA 
HETATM   32  C   UNL     1     -10.751  12.086  67.970  1.00  0.00    -0.212 C  
HETATM   33  C   UNL     1     -12.952  10.151  71.727  1.00  0.00    -0.567 A  
HETATM   34  O   UNL     1     -13.065  12.523  71.534  1.00  0.00    -0.381 OA 
HETATM   35  C   UNL     1     -12.348   8.938  71.362  1.00  0.00    -0.368 A  
HETATM   36  H   UNL     1     -13.740  12.535  72.202  1.00  0.00     0.000 HD 
HETATM   37  C   UNL     1     -11.651  12.443  66.981  1.00  0.00    -0.365 C  
HETATM   38  C   UNL     1     -11.818  13.810  66.807  1.00  0.00    -0.454 C  
HETATM   39  C   UNL     1      -9.665  16.843  67.918  1.00  0.00    -0.254 C  
HETATM   40  C   UNL     1      -9.516  12.680  67.738  1.00  0.00    -0.198 C  
HETATM   41  C   UNL     1     -10.747  14.624  67.222  1.00  0.00    -0.290 C  
HETATM   42  C   UNL     1      -9.482  14.033  67.429  1.00  0.00    -0.225 C  
HETATM   43  C   UNL     1     -10.963  16.034  67.705  1.00  0.00    -0.284 C  
ENDROOT
BRANCH  15  44
HETATM   44  O   UNL     1      -7.467   7.281  65.040  1.00  0.00    -0.077 OA 
HETATM   45  C   UNL     1      -8.011   6.242  64.234  1.00  0.00    -0.108 C  
ENDBRANCH  15  44
BRANCH  37  46
HETATM   46  O   UNL     1     -11.644  11.538  65.930  1.00  0.00    -0.273 OA 
HETATM   47  C   UNL     1     -11.093  11.940  64.688  1.00  0.00    -0.317 C  
ENDBRANCH  37  46
TORSDOF 2
ENDMDL
MODEL        8
REMARK 921   NORMALIZED FREE ENERGY PREDICTED BY IDOCK:   -6.86 KCAL/MOL
REMARK 922        TOTAL FREE ENERGY PREDICTED BY IDOCK:   -8.00 KCAL/MOL
REMARK 923 INTER-LIGAND FREE ENERGY PREDICTED BY IDOCK:   -7.65 KCAL/MOL
REMARK 924 INTRA-LIGAND FREE ENERGY PREDICTED BY IDOCK:   -0.36 KCAL/MOL
REMARK 927      BINDING AFFINITY PREDICTED BY RF-SCORE:    0.00 PKD
ROOT
HETATM    1  C   UNL     1      -7.994   7.428  67.228  1.00  0.00    -0.115 C  
HETATM    2  C   UNL     1      -6.427   7.665  67.231  1.00  0.00    -0.058 C  
HETATM    3  C   UNL     1      -5.890   9.061  67.043  1.00  0.00    -0.046 A  
HETATM    4  C   UNL     1      -6.230   9.812  65.925  1.00  0.00    -0.072 A  
HETATM    5  C   UNL     1      -6.345  11.191  66.050  1.00  0.00    -0.004 A  
HETATM    6  C   UNL     1      -5.957  11.814  67.234  1.00  0.00    -0.124 A  
HETATM    7  C   UNL     1      -5.147  11.096  68.107  1.00  0.00    -0.039 A  
HETATM    8  O   UNL     1      -6.533  13.044  67.445  1.00  0.00    -0.166 OA 
HETATM    9  C   UNL     1      -5.192   9.702  68.069  1.00  0.00    -0.040 A  
HETATM   10  C   UNL     1      -6.589  13.684  68.663  1.00  0.00    -0.097 A  
HETATM   11  C   UNL     1      -6.923  15.048  68.587  1.00  0.00    -0.110 A  
HETATM   12  C   UNL     1      -6.568  15.902  69.649  1.00  0.00    -0.180 A  
HETATM   13  C   UNL     1      -6.696  17.393  69.525  1.00  0.00    -0.119 C  
HETATM   14  C   UNL     1      -6.025  15.368  70.807  1.00  0.00     0.101 A  
HETATM   15  C   UNL     1      -5.998  13.997  71.000  1.00  0.00    -0.172 A  
HETATM   16  C   UNL     1      -7.630  17.896  68.436  1.00  0.00    -0.282 C  
HETATM   17  C   UNL     1      -6.360  13.165  69.937  1.00  0.00    -0.038 A  
HETATM   18  C   UNL     1      -8.634   7.750  64.873  1.00  0.00     0.087 C  
HETATM   19  N   UNL     1      -7.638  17.052  67.159  1.00  0.00    -0.163 N  
HETATM   20  O   UNL     1      -6.586  11.844  70.226  1.00  0.00    -0.462 OA 
HETATM   21  N   UNL     1      -8.492   6.797  65.971  1.00  0.00    -0.137 NA 
HETATM   22  C   UNL     1      -8.705  17.650  66.233  1.00  0.00    -0.179 C  
HETATM   23  C   UNL     1      -7.897  15.550  67.513  1.00  0.00    -0.168 C  
HETATM   24  C   UNL     1      -6.315  17.099  66.390  1.00  0.00    -0.182 C  
HETATM   25  C   UNL     1      -9.345  15.341  68.066  1.00  0.00    -0.197 C  
HETATM   26  H   UNL     1      -6.430  11.490  71.094  1.00  0.00     0.000 HD 
HETATM   27  C   UNL     1     -10.219  14.482  67.200  1.00  0.00    -0.260 A  
HETATM   28  C   UNL     1      -9.936  13.122  67.156  1.00  0.00    -0.236 A  
HETATM   29  C   UNL     1     -10.873  12.203  66.681  1.00  0.00    -0.268 A  
HETATM   30  C   UNL     1     -11.952  12.697  65.955  1.00  0.00    -0.417 A  
HETATM   31  O   UNL     1     -10.678  10.862  66.935  1.00  0.00    -0.253 OA 
HETATM   32  C   UNL     1      -9.998  10.556  68.212  1.00  0.00    -0.159 C  
HETATM   33  C   UNL     1     -12.229  14.085  65.915  1.00  0.00    -0.481 A  
HETATM   34  O   UNL     1     -12.732  11.867  65.204  1.00  0.00    -0.168 OA 
HETATM   35  C   UNL     1     -11.386  14.968  66.607  1.00  0.00    -0.289 A  
HETATM   36  H   UNL     1     -13.469  12.205  64.708  1.00  0.00     0.000 HD 
HETATM   37  C   UNL     1     -10.831   9.938  69.128  1.00  0.00    -0.221 C  
HETATM   38  C   UNL     1     -11.214   8.647  68.792  1.00  0.00     0.403 C  
HETATM   39  C   UNL     1      -9.760   6.092  66.257  1.00  0.00    -0.078 C  
HETATM   40  C   UNL     1      -8.868   9.779  67.985  1.00  0.00    -0.119 C  
HETATM   41  C   UNL     1     -10.355   7.951  67.921  1.00  0.00    -0.281 C  
HETATM   42  C   UNL     1      -9.036   8.424  67.743  1.00  0.00    -0.142 C  
HETATM   43  C   UNL     1     -10.866   6.891  66.981  1.00  0.00    -0.436 C  
ENDROOT
BRANCH  15  44
HETATM   44  O   UNL     1      -5.621  13.352  72.147  1.00  0.00    -0.406 OA 
HETATM   45  C   UNL     1      -5.219  14.179  73.233  1.00  0.00    -0.306 C  
ENDBRANCH  15  44
BRANCH  37  46
HETATM   46  O   UNL     1     -10.550  10.334  70.427  1.00  0.00    -0.278 OA 
HETATM   47  C   UNL     1     -10.473   9.345  71.439  1.00  0.00    -0.288 C  
ENDBRANCH  37  46
TORSDOF 2
ENDMDL
MODEL        9
REMARK 921   NORMALIZED FREE ENERGY PREDICTED BY IDOCK:   -6.79 KCAL/MOL
REMARK 922        TOTAL FREE ENERGY PREDICTED BY IDOCK:   -7.93 KCAL/MOL
REMARK 923 INTER-LIGAND FREE ENERGY PREDICTED BY IDOCK:   -7.57 KCAL/MOL
REMARK 924 INTRA-LIGAND FREE ENERGY PREDICTED BY IDOCK:   -0.35 KCAL/MOL
REMARK 927      BINDING AFFINITY PREDICTED BY RF-SCORE:    0.00 PKD
ROOT
HETATM    1  C   UNL     1     -10.597  14.171  68.231  1.00  0.00    -0.251 C  
HETATM    2  C   UNL     1     -11.719  13.507  69.132  1.00  0.00    -0.374 C  
HETATM    3  C   UNL     1     -11.818  12.004  69.204  1.00  0.00    -0.369 A  
HETATM    4  C   UNL     1     -11.974  11.244  68.052  1.00  0.00    -0.132 A  
HETATM    5  C   UNL     1     -11.400   9.979  67.997  1.00  0.00    -0.069 A  
HETATM    6  C   UNL     1     -10.830   9.427  69.142  1.00  0.00    -0.155 A  
HETATM    7  C   UNL     1     -11.163   9.994  70.368  1.00  0.00    -0.393 A  
HETATM    8  O   UNL     1      -9.901   8.444  68.897  1.00  0.00    -0.171 OA 
HETATM    9  C   UNL     1     -11.569  11.328  70.401  1.00  0.00    -0.319 A  
HETATM   10  C   UNL     1      -8.968   8.004  69.810  1.00  0.00    -0.145 A  
HETATM   11  C   UNL     1      -8.348   6.790  69.465  1.00  0.00    -0.132 A  
HETATM   12  C   UNL     1      -7.753   6.012  70.477  1.00  0.00    -0.101 A  
HETATM   13  C   UNL     1      -7.279   4.613  70.205  1.00  0.00    -0.050 C  
HETATM   14  C   UNL     1      -7.663   6.513  71.765  1.00  0.00    -0.095 A  
HETATM   15  C   UNL     1      -7.984   7.835  72.026  1.00  0.00    -0.105 A  
HETATM   16  C   UNL     1      -7.041   4.258  68.746  1.00  0.00    -0.052 C  
HETATM   17  C   UNL     1      -8.567   8.595  71.008  1.00  0.00    -0.173 A  
HETATM   18  C   UNL     1     -11.363  13.746  65.930  1.00  0.00    -0.307 C  
HETATM   19  N   UNL     1      -8.019   4.903  67.763  1.00  0.00    -0.094 N  
HETATM   20  O   UNL     1      -8.627   9.951  71.195  1.00  0.00    -0.214 OA 
HETATM   21  N   UNL     1     -11.128  14.752  66.963  1.00  0.00    -0.325 NA 
HETATM   22  C   UNL     1      -7.558   4.516  66.351  1.00  0.00    -0.090 C  
HETATM   23  C   UNL     1      -8.070   6.450  67.994  1.00  0.00    -0.116 C  
HETATM   24  C   UNL     1      -9.456   4.391  67.909  1.00  0.00    -0.161 C  
HETATM   25  C   UNL     1      -6.712   7.123  67.612  1.00  0.00    -0.064 C  
HETATM   26  H   UNL     1      -8.354  10.354  72.011  1.00  0.00     0.000 HD 
HETATM   27  C   UNL     1      -6.800   8.077  66.455  1.00  0.00    -0.067 A  
HETATM   28  C   UNL     1      -7.449   9.286  66.672  1.00  0.00    -0.093 A  
HETATM   29  C   UNL     1      -7.283  10.363  65.801  1.00  0.00    -0.143 A  
HETATM   30  C   UNL     1      -6.728  10.103  64.551  1.00  0.00    -0.117 A  
HETATM   31  O   UNL     1      -7.688  11.616  66.207  1.00  0.00    -0.019 OA 
HETATM   32  C   UNL     1      -7.567  11.878  67.657  1.00  0.00    -0.136 C  
HETATM   33  C   UNL     1      -6.124   8.855  64.268  1.00  0.00    -0.071 A  
HETATM   34  O   UNL     1      -6.814  11.017  63.542  1.00  0.00    -0.201 OA 
HETATM   35  C   UNL     1      -6.105   7.866  65.263  1.00  0.00    -0.038 A  
HETATM   36  H   UNL     1      -6.435  10.839  62.689  1.00  0.00     0.000 HD 
HETATM   37  C   UNL     1      -6.592  12.815  67.951  1.00  0.00    -0.118 C  
HETATM   38  C   UNL     1      -6.880  14.109  67.540  1.00  0.00    -0.151 C  
HETATM   39  C   UNL     1     -10.209  15.814  66.500  1.00  0.00    -0.286 C  
HETATM   40  C   UNL     1      -8.792  12.273  68.183  1.00  0.00    -0.187 C  
HETATM   41  C   UNL     1      -8.244  14.421  67.381  1.00  0.00    -0.215 C  
HETATM   42  C   UNL     1      -9.209  13.579  67.975  1.00  0.00    -0.209 C  
HETATM   43  C   UNL     1      -8.711  15.454  66.390  1.00  0.00    -0.307 C  
ENDROOT
BRANCH  15  44
HETATM   44  O   UNL     1      -7.808   8.488  73.216  1.00  0.00    -0.352 OA 
HETATM   45  C   UNL     1      -7.816   7.679  74.387  1.00  0.00    -0.188 C  
ENDBRANCH  15  44
BRANCH  37  46
HETATM   46  O   UNL     1      -5.943  12.523  69.142  1.00  0.00    -0.074 OA 
HETATM   47  C   UNL     1      -5.820  13.542  70.119  1.00  0.00    -0.148 C  
ENDBRANCH  37  46
TORSDOF 2
ENDMDL
MODEL       10
REMARK 921   NORMALIZED FREE ENERGY PREDICTED BY IDOCK:   -6.57 KCAL/MOL
REMARK 922        TOTAL FREE ENERGY PREDICTED BY IDOCK:   -7.68 KCAL/MOL
REMARK 923 INTER-LIGAND FREE ENERGY PREDICTED BY IDOCK:   -7.97 KCAL/MOL
REMARK 924 INTRA-LIGAND FREE ENERGY PREDICTED BY IDOCK:    0.29 KCAL/MOL
REMARK 927      BINDING AFFINITY PREDICTED BY RF-SCORE:    0.00 PKD
ROOT
HETATM    1  C   UNL     1      -6.740   5.317  68.316  1.00  0.00    -0.054 C  
HETATM    2  C   UNL     1      -6.283   5.914  69.711  1.00  0.00    -0.027 C  
HETATM    3  C   UNL     1      -6.514   7.375  70.002  1.00  0.00    -0.038 A  
HETATM    4  C   UNL     1      -6.012   8.359  69.159  1.00  0.00    -0.042 A  
HETATM    5  C   UNL     1      -6.731   9.537  68.997  1.00  0.00    -0.050 A  
HETATM    6  C   UNL     1      -7.842   9.786  69.798  1.00  0.00    -0.156 A  
HETATM    7  C   UNL     1      -7.985   9.032  70.958  1.00  0.00    -0.186 A  
HETATM    8  O   UNL     1      -8.735  10.687  69.268  1.00  0.00    -0.149 OA 
HETATM    9  C   UNL     1      -7.390   7.771  71.015  1.00  0.00    -0.072 A  
HETATM   10  C   UNL     1     -10.040  10.832  69.683  1.00  0.00    -0.011 A  
HETATM   11  C   UNL     1     -10.662  12.012  69.237  1.00  0.00    -0.063 A  
HETATM   12  C   UNL     1     -11.780  12.505  69.939  1.00  0.00    -0.327 A  
HETATM   13  C   UNL     1     -12.340  13.867  69.649  1.00  0.00    -0.301 C  
HETATM   14  C   UNL     1     -12.333  11.755  70.963  1.00  0.00    -0.386 A  
HETATM   15  C   UNL     1     -11.916  10.452  71.181  1.00  0.00    -0.362 A  
HETATM   16  C   UNL     1     -11.971  14.472  68.304  1.00  0.00    -0.268 C  
HETATM   17  C   UNL     1     -10.809   9.977  70.471  1.00  0.00    -0.314 A  
HETATM   18  C   UNL     1      -5.131   6.267  66.713  1.00  0.00    -0.005 C  
HETATM   19  N   UNL     1     -10.555  14.147  67.824  1.00  0.00    -0.241 N  
HETATM   20  O   UNL     1     -10.582   8.625  70.498  1.00  0.00    -0.205 OA 
HETATM   21  N   UNL     1      -5.603   5.058  67.384  1.00  0.00    -0.013 NA 
HETATM   22  C   UNL     1     -10.408  14.748  66.420  1.00  0.00    -0.293 C  
HETATM   23  C   UNL     1     -10.319  12.600  67.862  1.00  0.00    -0.218 C  
HETATM   24  C   UNL     1      -9.459  14.779  68.687  1.00  0.00    -0.213 C  
HETATM   25  C   UNL     1     -11.211  11.866  66.809  1.00  0.00    -0.384 C  
HETATM   26  H   UNL     1     -11.107   8.043  71.035  1.00  0.00     0.000 HD 
HETATM   27  C   UNL     1     -10.440  11.173  65.723  1.00  0.00    -0.305 A  
HETATM   28  C   UNL     1      -9.737  10.025  66.070  1.00  0.00    -0.301 A  
HETATM   29  C   UNL     1      -9.292   9.128  65.099  1.00  0.00    -0.110 A  
HETATM   30  C   UNL     1      -9.275   9.563  63.777  1.00  0.00    -0.023 A  
HETATM   31  O   UNL     1      -8.878   7.873  65.491  1.00  0.00    -0.130 OA 
HETATM   32  C   UNL     1      -9.577   7.321  66.671  1.00  0.00    -0.178 C  
HETATM   33  C   UNL     1      -9.916  10.767  63.397  1.00  0.00    -0.385 A  
HETATM   34  O   UNL     1      -8.579   8.880  62.823  1.00  0.00    -0.273 OA 
HETATM   35  C   UNL     1     -10.562  11.533  64.379  1.00  0.00    -0.392 A  
HETATM   36  H   UNL     1      -8.567   9.178  61.920  1.00  0.00     0.000 HD 
HETATM   37  C   UNL     1     -10.384   6.241  66.359  1.00  0.00    -0.005 C  
HETATM   38  C   UNL     1      -9.703   5.093  65.977  1.00  0.00    -0.182 C  
HETATM   39  C   UNL     1      -6.001   4.011  66.420  1.00  0.00    -0.027 C  
HETATM   40  C   UNL     1      -8.662   6.972  67.658  1.00  0.00    -0.121 C  
HETATM   41  C   UNL     1      -8.378   4.974  66.438  1.00  0.00    -0.108 C  
HETATM   42  C   UNL     1      -7.956   5.787  67.513  1.00  0.00    -0.102 C  
HETATM   43  C   UNL     1      -7.333   4.214  65.665  1.00  0.00    -0.076 C  
ENDROOT
BRANCH  15  44
HETATM   44  O   UNL     1     -12.473   9.563  72.061  1.00  0.00    -0.371 OA 
HETATM   45  C   UNL     1     -13.763   9.065  71.722  1.00  0.00    -0.419 C  
ENDBRANCH  15  44
BRANCH  37  46
HETATM   46  O   UNL     1     -11.535   6.219  67.131  1.00  0.00    -0.130 OA 
HETATM   47  C   UNL     1     -11.410   6.120  68.539  1.00  0.00     0.046 C  
ENDBRANCH  37  46
TORSDOF 2
ENDMDL
MODEL       11
REMARK 921   NORMALIZED FREE ENERGY PREDICTED BY IDOCK:   -5.62 KCAL/MOL
REMARK 922        TOTAL FREE ENERGY PREDICTED BY IDOCK:   -6.62 KCAL/MOL
REMARK 923 INTER-LIGAND FREE ENERGY PREDICTED BY IDOCK:   -6.24 KCAL/MOL
REMARK 924 INTRA-LIGAND FREE ENERGY PREDICTED BY IDOCK:   -0.38 KCAL/MOL
REMARK 927      BINDING AFFINITY PREDICTED BY RF-SCORE:    0.00 PKD
ROOT
HETATM    1  C   UNL     1      -8.604   7.308  70.784  1.00  0.00    -0.144 C  
HETATM    2  C   UNL     1     -10.126   7.222  70.351  1.00  0.00    -0.196 C  
HETATM    3  C   UNL     1     -10.846   8.475  69.923  1.00  0.00    -0.205 A  
HETATM    4  C   UNL     1     -10.912   9.582  70.761  1.00  0.00    -0.389 A  
HETATM    5  C   UNL     1     -10.920  10.853  70.198  1.00  0.00    -0.153 A  
HETATM    6  C   UNL     1     -11.034  10.998  68.817  1.00  0.00    -0.221 A  
HETATM    7  C   UNL     1     -11.488   9.905  68.087  1.00  0.00     0.153 A  
HETATM    8  O   UNL     1     -10.563  12.194  68.331  1.00  0.00    -0.212 OA 
HETATM    9  C   UNL     1     -11.301   8.625  68.611  1.00  0.00     0.667 A  
HETATM   10  C   UNL     1     -10.245  12.432  67.012  1.00  0.00    -0.220 A  
HETATM   11  C   UNL     1     -10.097  13.792  66.688  1.00  0.00    -0.277 A  
HETATM   12  C   UNL     1     -10.239  14.197  65.346  1.00  0.00    -0.380 A  
HETATM   13  C   UNL     1     -10.316  15.650  64.976  1.00  0.00    -0.290 C  
HETATM   14  C   UNL     1     -10.380  13.242  64.352  1.00  0.00    -0.372 A  
HETATM   15  C   UNL     1     -10.200  11.900  64.641  1.00  0.00    -0.278 A  
HETATM   16  C   UNL     1      -9.780  16.633  66.005  1.00  0.00    -0.278 C  
HETATM   17  C   UNL     1     -10.054  11.517  65.977  1.00  0.00    -0.232 A  
HETATM   18  C   UNL     1      -8.677   8.449  72.965  1.00  0.00    -0.159 C  
HETATM   19  N   UNL     1     -10.030  16.235  67.461  1.00  0.00    -0.244 N  
HETATM   20  O   UNL     1      -9.613  10.242  66.219  1.00  0.00    -0.172 OA 
HETATM   21  N   UNL     1      -8.404   7.199  72.259  1.00  0.00    -0.109 NA 
HETATM   22  C   UNL     1      -9.333  17.282  68.339  1.00  0.00    -0.275 C  
HETATM   23  C   UNL     1      -9.519  14.777  67.713  1.00  0.00    -0.204 C  
HETATM   24  C   UNL     1     -11.511  16.253  67.852  1.00  0.00    -0.056 C  
HETATM   25  C   UNL     1      -7.961  14.698  67.602  1.00  0.00    -0.193 C  
HETATM   26  H   UNL     1      -9.483   9.618  65.513  1.00  0.00     0.000 HD 
HETATM   27  C   UNL     1      -7.269  14.330  68.883  1.00  0.00    -0.125 A  
HETATM   28  C   UNL     1      -7.401  13.020  69.328  1.00  0.00     0.241 A  
HETATM   29  C   UNL     1      -6.535  12.491  70.285  1.00  0.00     0.313 A  
HETATM   30  C   UNL     1      -5.759  13.383  71.018  1.00  0.00    -0.165 A  
HETATM   31  O   UNL     1      -6.502  11.125  70.470  1.00  0.00    -0.306 OA 
HETATM   32  C   UNL     1      -6.767  10.320  69.259  1.00  0.00    -0.063 C  
HETATM   33  C   UNL     1      -5.660  14.744  70.640  1.00  0.00    -0.147 A  
HETATM   34  O   UNL     1      -5.129  12.990  72.163  1.00  0.00    -0.283 OA 
HETATM   35  C   UNL     1      -6.372  15.192  69.517  1.00  0.00    -0.139 A  
HETATM   36  H   UNL     1      -4.599  13.600  72.663  1.00  0.00     0.000 HD 
HETATM   37  C   UNL     1      -5.650   9.628  68.822  1.00  0.00    -0.036 C  
HETATM   38  C   UNL     1      -5.234   8.601  69.657  1.00  0.00    -0.030 C  
HETATM   39  C   UNL     1      -7.037   6.703  72.524  1.00  0.00    -0.073 C  
HETATM   40  C   UNL     1      -7.822   9.443  69.481  1.00  0.00    -0.091 C  
HETATM   41  C   UNL     1      -6.217   8.048  70.499  1.00  0.00    -0.036 C  
HETATM   42  C   UNL     1      -7.577   8.285  70.205  1.00  0.00    -0.072 C  
HETATM   43  C   UNL     1      -5.870   7.445  71.835  1.00  0.00    -0.036 C  
ENDROOT
BRANCH  15  44
HETATM   44  O   UNL     1     -10.173  10.876  63.732  1.00  0.00    -0.331 OA 
HETATM   45  C   UNL     1      -9.218  10.989  62.683  1.00  0.00    -0.333 C  
ENDBRANCH  15  44
BRANCH  37  46
HETATM   46  O   UNL     1      -5.605   9.549  67.438  1.00  0.00    -0.040 OA 
HETATM   47  C   UNL     1      -5.217  10.695  66.701  1.00  0.00    -0.052 C  
ENDBRANCH  37  46
TORSDOF 2
ENDMDL
MODEL       12
REMARK 921   NORMALIZED FREE ENERGY PREDICTED BY IDOCK:   -5.59 KCAL/MOL
REMARK 922        TOTAL FREE ENERGY PREDICTED BY IDOCK:   -6.59 KCAL/MOL
REMARK 923 INTER-LIGAND FREE ENERGY PREDICTED BY IDOCK:   -6.20 KCAL/MOL
REMARK 924 INTRA-LIGAND FREE ENERGY PREDICTED BY IDOCK:   -0.39 KCAL/MOL
REMARK 927      BINDING AFFINITY PREDICTED BY RF-SCORE:    0.00 PKD
ROOT
HETATM    1  C   UNL     1     -11.980   6.683  71.241  1.00  0.00    -0.355 C  
HETATM    2  C   UNL     1     -13.248   7.629  71.343  1.00  0.00    -0.337 C  
HETATM    3  C   UNL     1     -13.077   9.117  71.172  1.00  0.00    -0.216 A  
HETATM    4  C   UNL     1     -12.197   9.831  71.976  1.00  0.00    -0.271 A  
HETATM    5  C   UNL     1     -11.536  10.930  71.440  1.00  0.00     0.517 A  
HETATM    6  C   UNL     1     -11.886  11.400  70.176  1.00  0.00    -0.355 A  
HETATM    7  C   UNL     1     -13.105  10.988  69.648  1.00  0.00     0.728 A  
HETATM    8  O   UNL     1     -10.907  12.135  69.551  1.00  0.00    -0.054 OA 
HETATM    9  C   UNL     1     -13.652   9.782  70.087  1.00  0.00     0.907 A  
HETATM   10  C   UNL     1     -10.869  12.401  68.201  1.00  0.00    -0.221 A  
HETATM   11  C   UNL     1      -9.976  13.425  67.837  1.00  0.00    -0.236 A  
HETATM   12  C   UNL     1     -10.170  14.103  66.617  1.00  0.00    -0.270 A  
HETATM   13  C   UNL     1      -9.392  15.343  66.284  1.00  0.00    -0.351 C  
HETATM   14  C   UNL     1     -11.143  13.663  65.734  1.00  0.00    -0.292 A  
HETATM   15  C   UNL     1     -11.797  12.462  65.955  1.00  0.00    -0.395 A  
HETATM   16  C   UNL     1      -8.106  15.558  67.067  1.00  0.00    -0.237 C  
HETATM   17  C   UNL     1     -11.588  11.800  67.168  1.00  0.00    -0.266 A  
HETATM   18  C   UNL     1     -10.732   7.147  73.313  1.00  0.00    -0.361 C  
HETATM   19  N   UNL     1      -8.161  15.098  68.526  1.00  0.00    -0.141 N  
HETATM   20  O   UNL     1     -12.023  10.503  67.257  1.00  0.00    -0.041 OA 
HETATM   21  N   UNL     1     -11.520   6.170  72.565  1.00  0.00    -0.288 NA 
HETATM   22  C   UNL     1      -6.758  15.297  69.112  1.00  0.00    -0.135 C  
HETATM   23  C   UNL     1      -8.660  13.617  68.602  1.00  0.00    -0.031 C  
HETATM   24  C   UNL     1      -9.117  15.927  69.390  1.00  0.00    -0.222 C  
HETATM   25  C   UNL     1      -7.615  12.636  67.977  1.00  0.00    -0.132 C  
HETATM   26  H   UNL     1     -12.513  10.093  66.553  1.00  0.00     0.000 HD 
HETATM   27  C   UNL     1      -7.016  11.667  68.954  1.00  0.00    -0.109 A  
HETATM   28  C   UNL     1      -7.833  10.647  69.426  1.00  0.00    -0.126 A  
HETATM   29  C   UNL     1      -7.297   9.516  70.042  1.00  0.00    -0.115 A  
HETATM   30  C   UNL     1      -5.974   9.578  70.467  1.00  0.00    -0.060 A  
HETATM   31  O   UNL     1      -8.100   8.409  70.215  1.00  0.00    -0.098 OA 
HETATM   32  C   UNL     1      -9.123   8.204  69.168  1.00  0.00    -0.148 C  
HETATM   33  C   UNL     1      -5.129  10.642  70.068  1.00  0.00    -0.040 A  
HETATM   34  O   UNL     1      -5.472   8.655  71.337  1.00  0.00    -0.033 OA 
HETATM   35  C   UNL     1      -5.650  11.653  69.245  1.00  0.00    -0.054 A  
HETATM   36  H   UNL     1      -4.568   8.698  71.627  1.00  0.00     0.000 HD 
HETATM   37  C   UNL     1      -8.874   7.089  68.387  1.00  0.00    -0.123 C  
HETATM   38  C   UNL     1      -9.013   5.873  69.041  1.00  0.00    -0.122 C  
HETATM   39  C   UNL     1     -10.781   4.905  72.359  1.00  0.00    -0.175 C  
HETATM   40  C   UNL     1     -10.389   8.122  69.736  1.00  0.00    -0.216 C  
HETATM   41  C   UNL     1      -9.857   5.867  70.168  1.00  0.00    -0.226 C  
HETATM   42  C   UNL     1     -10.764   6.934  70.345  1.00  0.00    -0.278 C  
HETATM   43  C   UNL     1      -9.644   4.914  71.315  1.00  0.00    -0.229 C  
ENDROOT
BRANCH  15  44
HETATM   44  O   UNL     1     -12.671  11.850  65.097  1.00  0.00    -0.168 OA 
HETATM   45  C   UNL     1     -12.496  12.130  63.713  1.00  0.00    -0.514 C  
ENDBRANCH  15  44
BRANCH  37  46
HETATM   46  O   UNL     1      -9.254   7.290  67.069  1.00  0.00    -0.134 OA 
HETATM   47  C   UNL     1      -9.054   8.567  66.488  1.00  0.00    -0.176 C  
ENDBRANCH  37  46
TORSDOF 2
ENDMDL
MODEL       13
REMARK 921   NORMALIZED FREE ENERGY PREDICTED BY IDOCK:   -5.55 KCAL/MOL
REMARK 922        TOTAL FREE ENERGY PREDICTED BY IDOCK:   -6.54 KCAL/MOL
REMARK 923 INTER-LIGAND FREE ENERGY PREDICTED BY IDOCK:   -6.30 KCAL/MOL
REMARK 924 INTRA-LIGAND FREE ENERGY PREDICTED BY IDOCK:   -0.24 KCAL/MOL
REMARK 927      BINDING AFFINITY PREDICTED BY RF-SCORE:    0.00 PKD
ROOT
HETATM    1  C   UNL     1      -8.996   3.716  72.031  1.00  0.00    -0.105 C  
HETATM    2  C   UNL     1      -9.235   4.703  73.247  1.00  0.00    -0.121 C  
HETATM    3  C   UNL     1      -8.855   6.155  73.108  1.00  0.00    -0.130 A  
HETATM    4  C   UNL     1      -7.559   6.524  72.769  1.00  0.00    -0.097 A  
HETATM    5  C   UNL     1      -7.363   7.666  72.002  1.00  0.00    -0.072 A  
HETATM    6  C   UNL     1      -8.437   8.510  71.729  1.00  0.00    -0.175 A  
HETATM    7  C   UNL     1      -9.577   8.381  72.516  1.00  0.00    -0.358 A  
HETATM    8  O   UNL     1      -8.270   9.302  70.619  1.00  0.00    -0.166 OA 
HETATM    9  C   UNL     1      -9.831   7.154  73.131  1.00  0.00    -0.251 A  
HETATM   10  C   UNL     1      -9.291   9.942  69.953  1.00  0.00    -0.216 A  
HETATM   11  C   UNL     1      -8.864  10.942  69.061  1.00  0.00    -0.105 A  
HETATM   12  C   UNL     1      -9.766  11.957  68.685  1.00  0.00    -0.116 A  
HETATM   13  C   UNL     1      -9.304  13.165  67.922  1.00  0.00    -0.215 C  
HETATM   14  C   UNL     1     -11.091  11.881  69.084  1.00  0.00    -0.285 A  
HETATM   15  C   UNL     1     -11.575  10.732  69.688  1.00  0.00    -0.316 A  
HETATM   16  C   UNL     1      -7.980  13.027  67.188  1.00  0.00    -0.087 C  
HETATM   17  C   UNL     1     -10.667   9.732  70.048  1.00  0.00    -0.283 A  
HETATM   18  C   UNL     1      -6.549   3.447  71.965  1.00  0.00    -0.015 C  
HETATM   19  N   UNL     1      -6.934  12.173  67.909  1.00  0.00    -0.089 N  
HETATM   20  O   UNL     1     -11.185   8.510  70.390  1.00  0.00    -0.252 OA 
HETATM   21  N   UNL     1      -7.832   2.803  72.233  1.00  0.00    -0.053 NA 
HETATM   22  C   UNL     1      -5.721  12.066  66.976  1.00  0.00    -0.123 C  
HETATM   23  C   UNL     1      -7.548  10.784  68.289  1.00  0.00    -0.098 C  
HETATM   24  C   UNL     1      -6.429  12.800  69.212  1.00  0.00    -0.105 C  
HETATM   25  C   UNL     1      -7.857   9.935  67.014  1.00  0.00    -0.102 C  
HETATM   26  H   UNL     1     -12.122   8.367  70.455  1.00  0.00     0.000 HD 
HETATM   27  C   UNL     1      -7.049   8.675  66.900  1.00  0.00    -0.075 A  
HETATM   28  C   UNL     1      -7.350   7.641  67.778  1.00  0.00    -0.099 A  
HETATM   29  C   UNL     1      -6.919   6.337  67.535  1.00  0.00    -0.068 A  
HETATM   30  C   UNL     1      -5.919   6.153  66.586  1.00  0.00    -0.025 A  
HETATM   31  O   UNL     1      -7.486   5.304  68.251  1.00  0.00    -0.074 OA 
HETATM   32  C   UNL     1      -8.901   5.504  68.630  1.00  0.00    -0.107 C  
HETATM   33  C   UNL     1      -5.532   7.206  65.722  1.00  0.00    -0.028 A  
HETATM   34  O   UNL     1      -5.232   4.977  66.508  1.00  0.00    -0.008 OA 
HETATM   35  C   UNL     1      -6.162   8.454  65.845  1.00  0.00    -0.052 A  
HETATM   36  H   UNL     1      -4.549   4.852  65.859  1.00  0.00     0.000 HD 
HETATM   37  C   UNL     1      -9.759   4.643  67.967  1.00  0.00    -0.140 C  
HETATM   38  C   UNL     1      -9.643   3.308  68.327  1.00  0.00    -0.141 C  
HETATM   39  C   UNL     1      -8.025   1.590  71.410  1.00  0.00    -0.040 C  
HETATM   40  C   UNL     1      -9.058   5.377  70.005  1.00  0.00    -0.160 C  
HETATM   41  C   UNL     1      -9.114   3.054  69.607  1.00  0.00    -0.197 C  
HETATM   42  C   UNL     1      -9.084   4.103  70.552  1.00  0.00    -0.176 C  
HETATM   43  C   UNL     1      -8.345   1.796  69.913  1.00  0.00    -0.071 C  
ENDROOT
BRANCH  15  44
HETATM   44  O   UNL     1     -12.883  10.476  70.002  1.00  0.00    -0.218 OA 
HETATM   45  C   UNL     1     -13.255  10.666  71.362  1.00  0.00    -0.323 C  
ENDBRANCH  15  44
BRANCH  37  46
HETATM   46  O   UNL     1     -10.972   5.250  67.678  1.00  0.00     0.044 OA 
HETATM   47  C   UNL     1     -10.970   6.580  67.188  1.00  0.00    -0.408 C  
ENDBRANCH  37  46
TORSDOF 2
ENDMDL
MODEL       14
REMARK 921   NORMALIZED FREE ENERGY PREDICTED BY IDOCK:   -5.54 KCAL/MOL
REMARK 922        TOTAL FREE ENERGY PREDICTED BY IDOCK:   -6.52 KCAL/MOL
REMARK 923 INTER-LIGAND FREE ENERGY PREDICTED BY IDOCK:   -6.22 KCAL/MOL
REMARK 924 INTRA-LIGAND FREE ENERGY PREDICTED BY IDOCK:   -0.30 KCAL/MOL
REMARK 927      BINDING AFFINITY PREDICTED BY RF-SCORE:    0.00 PKD
ROOT
HETATM    1  C   UNL     1      -7.751   6.657  73.541  1.00  0.00    -0.090 C  
HETATM    2  C   UNL     1      -6.724   7.861  73.465  1.00  0.00    -0.107 C  
HETATM    3  C   UNL     1      -6.270   8.363  72.117  1.00  0.00    -0.066 A  
HETATM    4  C   UNL     1      -5.681   7.504  71.198  1.00  0.00    -0.035 A  
HETATM    5  C   UNL     1      -5.893   7.722  69.842  1.00  0.00    -0.023 A  
HETATM    6  C   UNL     1      -6.543   8.879  69.419  1.00  0.00    -0.045 A  
HETATM    7  C   UNL     1      -6.639   9.933  70.322  1.00  0.00    -0.116 A  
HETATM    8  O   UNL     1      -7.120   8.786  68.175  1.00  0.00    -0.076 OA 
HETATM    9  C   UNL     1      -6.597   9.651  71.688  1.00  0.00     0.297 A  
HETATM   10  C   UNL     1      -8.090   9.639  67.696  1.00  0.00    -0.113 A  
HETATM   11  C   UNL     1      -8.296   9.559  66.307  1.00  0.00    -0.117 A  
HETATM   12  C   UNL     1      -8.883  10.650  65.637  1.00  0.00    -0.201 A  
HETATM   13  C   UNL     1      -8.920  10.714  64.138  1.00  0.00    -0.214 C  
HETATM   14  C   UNL     1      -9.374  11.720  66.367  1.00  0.00    -0.229 A  
HETATM   15  C   UNL     1      -9.459  11.646  67.748  1.00  0.00    -0.178 A  
HETATM   16  C   UNL     1      -8.738   9.394  63.406  1.00  0.00    -0.204 C  
HETATM   17  C   UNL     1      -8.877  10.552  68.396  1.00  0.00    -0.140 A  
HETATM   18  C   UNL     1      -6.420   4.703  72.855  1.00  0.00    -0.042 C  
HETATM   19  N   UNL     1      -7.761   8.423  64.073  1.00  0.00    -0.131 N  
HETATM   20  O   UNL     1      -9.201  10.360  69.713  1.00  0.00    -0.393 OA 
HETATM   21  N   UNL     1      -7.119   5.368  73.951  1.00  0.00    -0.085 NA 
HETATM   22  C   UNL     1      -7.791   7.124  63.257  1.00  0.00    -0.114 C  
HETATM   23  C   UNL     1      -8.151   8.219  65.575  1.00  0.00    -0.128 C  
HETATM   24  C   UNL     1      -6.310   8.914  64.060  1.00  0.00    -0.076 C  
HETATM   25  C   UNL     1      -9.517   7.469  65.708  1.00  0.00     0.213 C  
HETATM   26  H   UNL     1      -9.738  10.983  70.190  1.00  0.00     0.000 HD 
HETATM   27  C   UNL     1      -9.419   6.119  66.356  1.00  0.00    -0.172 A  
HETATM   28  C   UNL     1      -9.157   6.081  67.720  1.00  0.00    -0.109 A  
HETATM   29  C   UNL     1      -9.393   4.929  68.471  1.00  0.00    -0.131 A  
HETATM   30  C   UNL     1      -9.578   3.735  67.781  1.00  0.00    -0.138 A  
HETATM   31  O   UNL     1      -9.413   5.024  69.846  1.00  0.00    -0.135 OA 
HETATM   32  C   UNL     1      -9.910   6.310  70.381  1.00  0.00    -0.176 C  
HETATM   33  C   UNL     1      -9.774   3.726  66.379  1.00  0.00    -0.142 A  
HETATM   34  O   UNL     1      -9.506   2.534  68.425  1.00  0.00    -0.203 OA 
HETATM   35  C   UNL     1      -9.762   4.944  65.682  1.00  0.00    -0.161 A  
HETATM   36  H   UNL     1      -9.632   1.719  67.953  1.00  0.00     0.000 HD 
HETATM   37  C   UNL     1     -11.128   6.186  71.026  1.00  0.00    -0.297 C  
HETATM   38  C   UNL     1     -11.091   5.476  72.218  1.00  0.00    -0.297 C  
HETATM   39  C   UNL     1      -8.150   4.499  74.557  1.00  0.00    -0.091 C  
HETATM   40  C   UNL     1      -8.969   6.877  71.231  1.00  0.00    -0.142 C  
HETATM   41  C   UNL     1      -9.848   5.437  72.878  1.00  0.00    -0.180 C  
HETATM   42  C   UNL     1      -8.857   6.377  72.520  1.00  0.00    -0.133 C  
HETATM   43  C   UNL     1      -9.449   4.276  73.751  1.00  0.00    -0.123 C  
ENDROOT
BRANCH  15  44
HETATM   44  O   UNL     1     -10.050  12.568  68.571  1.00  0.00    -0.221 OA 
HETATM   45  C   UNL     1     -11.433  12.817  68.349  1.00  0.00    -0.311 C  
ENDBRANCH  15  44
BRANCH  37  46
HETATM   46  O   UNL     1     -11.928   7.302  70.831  1.00  0.00    -0.316 OA 
HETATM   47  C   UNL     1     -12.168   8.169  71.926  1.00  0.00    -0.331 C  
ENDBRANCH  37  46
TORSDOF 2
ENDMDL
MODEL       15
REMARK 921   NORMALIZED FREE ENERGY PREDICTED BY IDOCK:   -5.29 KCAL/MOL
REMARK 922        TOTAL FREE ENERGY PREDICTED BY IDOCK:   -6.25 KCAL/MOL
REMARK 923 INTER-LIGAND FREE ENERGY PREDICTED BY IDOCK:   -5.99 KCAL/MOL
REMARK 924 INTRA-LIGAND FREE ENERGY PREDICTED BY IDOCK:   -0.26 KCAL/MOL
REMARK 927      BINDING AFFINITY PREDICTED BY RF-SCORE:    0.00 PKD
ROOT
HETATM    1  C   UNL     1      -7.631   4.831  70.751  1.00  0.00    -0.065 C  
HETATM    2  C   UNL     1      -6.630   5.054  69.542  1.00  0.00    -0.040 C  
HETATM    3  C   UNL     1      -6.890   6.171  68.563  1.00  0.00    -0.074 A  
HETATM    4  C   UNL     1      -8.095   6.253  67.876  1.00  0.00    -0.114 A  
HETATM    5  C   UNL     1      -8.607   7.506  67.562  1.00  0.00    -0.122 A  
HETATM    6  C   UNL     1      -7.836   8.645  67.784  1.00  0.00    -0.103 A  
HETATM    7  C   UNL     1      -6.469   8.473  67.973  1.00  0.00    -0.057 A  
HETATM    8  O   UNL     1      -8.560   9.807  67.904  1.00  0.00    -0.124 OA 
HETATM    9  C   UNL     1      -6.008   7.250  68.460  1.00  0.00    -0.027 A  
HETATM   10  C   UNL     1      -8.082  10.973  68.460  1.00  0.00    -0.140 A  
HETATM   11  C   UNL     1      -8.866  12.108  68.187  1.00  0.00    -0.187 A  
HETATM   12  C   UNL     1      -8.278  13.385  68.279  1.00  0.00    -0.160 A  
HETATM   13  C   UNL     1      -8.995  14.609  67.786  1.00  0.00    -0.181 C  
HETATM   14  C   UNL     1      -6.989  13.514  68.769  1.00  0.00    -0.102 A  
HETATM   15  C   UNL     1      -6.344  12.428  69.337  1.00  0.00    -0.119 A  
HETATM   16  C   UNL     1     -10.502  14.485  67.628  1.00  0.00    -0.246 C  
HETATM   17  C   UNL     1      -6.944  11.169  69.242  1.00  0.00    -0.118 A  
HETATM   18  C   UNL     1      -9.651   3.915  69.680  1.00  0.00    -0.189 C  
HETATM   19  N   UNL     1     -10.985  13.112  67.154  1.00  0.00    -0.264 N  
HETATM   20  O   UNL     1      -6.434  10.171  70.031  1.00  0.00    -0.075 OA 
HETATM   21  N   UNL     1      -8.521   3.647  70.567  1.00  0.00    -0.067 NA 
HETATM   22  C   UNL     1     -12.519  13.150  67.158  1.00  0.00     0.215 C  
HETATM   23  C   UNL     1     -10.391  11.990  68.068  1.00  0.00    -0.195 C  
HETATM   24  C   UNL     1     -10.560  12.779  65.720  1.00  0.00    -0.273 C  
HETATM   25  C   UNL     1     -10.975  12.072  69.516  1.00  0.00    -0.056 C  
HETATM   26  H   UNL     1      -5.659  10.305  70.564  1.00  0.00     0.000 HD 
HETATM   27  C   UNL     1     -11.800  10.884  69.918  1.00  0.00    -0.427 A  
HETATM   28  C   UNL     1     -11.129   9.690  70.154  1.00  0.00    -0.314 A  
HETATM   29  C   UNL     1     -11.732   8.647  70.856  1.00  0.00    -0.252 A  
HETATM   30  C   UNL     1     -13.112   8.696  71.027  1.00  0.00     0.078 A  
HETATM   31  O   UNL     1     -10.944   7.620  71.329  1.00  0.00    -0.235 OA 
HETATM   32  C   UNL     1      -9.570   8.006  71.714  1.00  0.00    -0.176 C  
HETATM   33  C   UNL     1     -13.842   9.871  70.726  1.00  0.00     0.290 A  
HETATM   34  O   UNL     1     -13.811   7.592  71.420  1.00  0.00    -0.496 OA 
HETATM   35  C   UNL     1     -13.156  10.992  70.234  1.00  0.00     0.087 A  
HETATM   36  H   UNL     1     -14.753   7.626  71.535  1.00  0.00     0.000 HD 
HETATM   37  C   UNL     1      -9.353   7.925  73.079  1.00  0.00    -0.265 C  
HETATM   38  C   UNL     1      -9.349   6.636  73.595  1.00  0.00    -0.173 C  
HETATM   39  C   UNL     1      -8.963   3.168  71.894  1.00  0.00    -0.092 C  
HETATM   40  C   UNL     1      -8.639   7.234  71.030  1.00  0.00    -0.128 C  
HETATM   41  C   UNL     1      -9.034   5.605  72.689  1.00  0.00    -0.132 C  
HETATM   42  C   UNL     1      -8.405   5.939  71.470  1.00  0.00    -0.127 C  
HETATM   43  C   UNL     1      -9.578   4.211  72.853  1.00  0.00    -0.166 C  
ENDROOT
BRANCH  15  44
HETATM   44  O   UNL     1      -5.134  12.453  69.979  1.00  0.00    -0.077 OA 
HETATM   45  C   UNL     1      -5.154  12.846  71.346  1.00  0.00    -0.170 C  
ENDBRANCH  15  44
BRANCH  37  46
HETATM   46  O   UNL     1      -8.502   8.924  73.524  1.00  0.00    -0.237 OA 
HETATM   47  C   UNL     1      -7.299   8.555  74.176  1.00  0.00    -0.097 C  
ENDBRANCH  37  46
TORSDOF 2
ENDMDL
MODEL       16
REMARK 921   NORMALIZED FREE ENERGY PREDICTED BY IDOCK:   -4.92 KCAL/MOL
REMARK 922        TOTAL FREE ENERGY PREDICTED BY IDOCK:   -5.84 KCAL/MOL
REMARK 923 INTER-LIGAND FREE ENERGY PREDICTED BY IDOCK:   -5.45 KCAL/MOL
REMARK 924 INTRA-LIGAND FREE ENERGY PREDICTED BY IDOCK:   -0.39 KCAL/MOL
REMARK 927      BINDING AFFINITY PREDICTED BY RF-SCORE:    0.00 PKD
ROOT
HETATM    1  C   UNL     1      -9.481   5.334  71.264  1.00  0.00    -0.151 C  
HETATM    2  C   UNL     1      -9.418   4.454  69.948  1.00  0.00    -0.253 C  
HETATM    3  C   UNL     1      -9.840   5.058  68.633  1.00  0.00    -0.227 A  
HETATM    4  C   UNL     1     -11.106   5.610  68.475  1.00  0.00     0.122 A  
HETATM    5  C   UNL     1     -11.264   6.699  67.627  1.00  0.00    -0.260 A  
HETATM    6  C   UNL     1     -10.203   7.114  66.825  1.00  0.00    -0.219 A  
HETATM    7  C   UNL     1      -9.151   6.223  66.634  1.00  0.00    -0.152 A  
HETATM    8  O   UNL     1     -10.280   8.421  66.410  1.00  0.00    -0.265 OA 
HETATM    9  C   UNL     1      -8.916   5.247  67.603  1.00  0.00    -0.109 A  
HETATM   10  C   UNL     1      -9.219   9.152  65.923  1.00  0.00    -0.227 A  
HETATM   11  C   UNL     1      -9.587  10.338  65.264  1.00  0.00    -0.324 A  
HETATM   12  C   UNL     1      -8.693  10.917  64.342  1.00  0.00    -0.014 A  
HETATM   13  C   UNL     1      -9.118  12.047  63.450  1.00  0.00     0.513 C  
HETATM   14  C   UNL     1      -7.418  10.393  64.201  1.00  0.00     0.005 A  
HETATM   15  C   UNL     1      -6.955   9.430  65.082  1.00  0.00    -0.092 A  
HETATM   16  C   UNL     1     -10.347  12.825  63.893  1.00  0.00    -0.324 C  
HETATM   17  C   UNL     1      -7.855   8.871  65.995  1.00  0.00    -0.102 A  
HETATM   18  C   UNL     1     -11.892   5.542  71.718  1.00  0.00     0.425 C  
HETATM   19  N   UNL     1     -11.429  11.980  64.570  1.00  0.00    -0.327 N  
HETATM   20  O   UNL     1      -7.327   8.132  67.021  1.00  0.00    -0.085 OA 
HETATM   21  N   UNL     1     -10.620   4.974  72.159  1.00  0.00    -0.213 NA 
HETATM   22  C   UNL     1     -12.527  12.945  65.036  1.00  0.00    -0.492 C  
HETATM   23  C   UNL     1     -10.804  11.145  65.737  1.00  0.00    -0.151 C  
HETATM   24  C   UNL     1     -12.099  10.978  63.625  1.00  0.00     1.280 C  
HETATM   25  C   UNL     1     -10.321  12.072  66.900  1.00  0.00    -0.238 C  
HETATM   26  H   UNL     1      -6.397   7.941  67.070  1.00  0.00     0.000 HD 
HETATM   27  C   UNL     1     -11.058  11.876  68.193  1.00  0.00    -0.294 A  
HETATM   28  C   UNL     1     -10.813  10.703  68.897  1.00  0.00    -0.272 A  
HETATM   29  C   UNL     1     -11.160  10.581  70.243  1.00  0.00    -0.285 A  
HETATM   30  C   UNL     1     -12.041  11.519  70.770  1.00  0.00    -0.309 A  
HETATM   31  O   UNL     1     -10.632   9.539  70.974  1.00  0.00    -0.297 OA 
HETATM   32  C   UNL     1      -9.277   9.109  70.570  1.00  0.00    -0.241 C  
HETATM   33  C   UNL     1     -12.375  12.692  70.050  1.00  0.00    -0.164 A  
HETATM   34  O   UNL     1     -12.666  11.303  71.964  1.00  0.00    -0.269 OA 
HETATM   35  C   UNL     1     -11.814  12.892  68.779  1.00  0.00    -0.353 A  
HETATM   36  H   UNL     1     -13.268  11.944  72.324  1.00  0.00     0.000 HD 
HETATM   37  C   UNL     1      -8.316   9.401  71.523  1.00  0.00     0.522 C  
HETATM   38  C   UNL     1      -8.415   8.668  72.697  1.00  0.00    -0.064 C  
HETATM   39  C   UNL     1     -10.288   5.374  73.543  1.00  0.00    -0.224 C  
HETATM   40  C   UNL     1      -9.267   7.751  70.274  1.00  0.00    -0.156 C  
HETATM   41  C   UNL     1      -9.070   7.425  72.601  1.00  0.00    -0.181 C  
HETATM   42  C   UNL     1      -9.247   6.846  71.325  1.00  0.00    -0.157 C  
HETATM   43  C   UNL     1      -9.815   6.827  73.765  1.00  0.00    -0.289 C  
ENDROOT
BRANCH  15  44
HETATM   44  O   UNL     1      -5.680   8.935  65.140  1.00  0.00    -0.050 OA 
HETATM   45  C   UNL     1      -5.333   7.969  64.154  1.00  0.00    -0.041 C  
ENDBRANCH  15  44
BRANCH  37  46
HETATM   46  O   UNL     1      -7.105   9.746  70.943  1.00  0.00    -0.296 OA 
HETATM   47  C   UNL     1      -7.113  10.531  69.763  1.00  0.00    -0.150 C  
ENDBRANCH  37  46
TORSDOF 2
ENDMDL
MODEL       17
REMARK 921   NORMALIZED FREE ENERGY PREDICTED BY IDOCK:   -4.89 KCAL/MOL
REMARK 922        TOTAL FREE ENERGY PREDICTED BY IDOCK:   -5.80 KCAL/MOL
REMARK 923 INTER-LIGAND FREE ENERGY PREDICTED BY IDOCK:   -5.89 KCAL/MOL
REMARK 924 INTRA-LIGAND FREE ENERGY PREDICTED BY IDOCK:    0.09 KCAL/MOL
REMARK 927      BINDING AFFINITY PREDICTED BY RF-SCORE:    0.00 PKD
ROOT
HETATM    1  C   UNL     1      -7.388   4.370  70.648  1.00  0.00    -0.048 C  
HETATM    2  C   UNL     1      -7.528   5.095  72.051  1.00  0.00    -0.092 C  
HETATM    3  C   UNL     1      -7.690   6.593  72.097  1.00  0.00    -0.096 A  
HETATM    4  C   UNL     1      -6.755   7.431  71.502  1.00  0.00    -0.050 A  
HETATM    5  C   UNL     1      -7.183   8.630  70.945  1.00  0.00    -0.073 A  
HETATM    6  C   UNL     1      -8.496   9.053  71.136  1.00  0.00    -0.177 A  
HETATM    7  C   UNL     1      -9.226   8.454  72.158  1.00  0.00    -0.313 A  
HETATM    8  O   UNL     1      -8.949   9.946  70.195  1.00  0.00    -0.216 OA 
HETATM    9  C   UNL     1      -8.871   7.170  72.571  1.00  0.00    -0.141 A  
HETATM   10  C   UNL     1     -10.276  10.233  69.962  1.00  0.00    -0.162 A  
HETATM   11  C   UNL     1     -10.492  11.393  69.197  1.00  0.00    -0.159 A  
HETATM   12  C   UNL     1     -11.737  12.046  69.279  1.00  0.00    -0.389 A  
HETATM   13  C   UNL     1     -11.947  13.401  68.667  1.00  0.00    -0.362 C  
HETATM   14  C   UNL     1     -12.772  11.465  69.994  1.00  0.00    -0.015 A  
HETATM   15  C   UNL     1     -12.651  10.171  70.473  1.00  0.00    -0.213 A  
HETATM   16  C   UNL     1     -10.952  13.813  67.593  1.00  0.00    -0.264 C  
HETATM   17  C   UNL     1     -11.409   9.536  70.378  1.00  0.00    -0.264 A  
HETATM   18  C   UNL     1      -5.136   5.004  69.881  1.00  0.00     0.000 C  
HETATM   19  N   UNL     1      -9.519  13.331  67.831  1.00  0.00    -0.207 N  
HETATM   20  O   UNL     1     -11.379   8.184  70.605  1.00  0.00    -0.268 OA 
HETATM   21  N   UNL     1      -5.996   3.921  70.354  1.00  0.00    -0.017 NA 
HETATM   22  C   UNL     1      -8.696  13.748  66.605  1.00  0.00    -0.002 C  
HETATM   23  C   UNL     1      -9.509  11.787  68.087  1.00  0.00    -0.193 C  
HETATM   24  C   UNL     1      -8.852  13.981  69.047  1.00  0.00     0.177 C  
HETATM   25  C   UNL     1      -9.923  10.998  66.802  1.00  0.00    -0.240 C  
HETATM   26  H   UNL     1     -12.151   7.709  70.889  1.00  0.00     0.000 HD 
HETATM   27  C   UNL     1      -8.838  10.127  66.236  1.00  0.00    -0.163 A  
HETATM   28  C   UNL     1      -8.503   8.982  66.947  1.00  0.00    -0.120 A  
HETATM   29  C   UNL     1      -7.783   7.945  66.352  1.00  0.00    -0.096 A  
HETATM   30  C   UNL     1      -7.131   8.217  65.153  1.00  0.00    -0.067 A  
HETATM   31  O   UNL     1      -7.737   6.720  66.981  1.00  0.00    -0.097 OA 
HETATM   32  C   UNL     1      -8.946   6.364  67.755  1.00  0.00    -0.113 C  
HETATM   33  C   UNL     1      -7.391   9.410  64.437  1.00  0.00    -0.109 A  
HETATM   34  O   UNL     1      -6.171   7.377  64.670  1.00  0.00    -0.037 OA 
HETATM   35  C   UNL     1      -8.309  10.332  64.961  1.00  0.00    -0.169 A  
HETATM   36  H   UNL     1      -5.726   7.563  63.852  1.00  0.00     0.000 HD 
HETATM   37  C   UNL     1      -9.652   5.315  67.193  1.00  0.00    -0.141 C  
HETATM   38  C   UNL     1      -9.013   4.084  67.246  1.00  0.00    -0.148 C  
HETATM   39  C   UNL     1      -6.046   2.798  69.394  1.00  0.00    -0.024 C  
HETATM   40  C   UNL     1      -8.610   6.070  69.071  1.00  0.00    -0.120 C  
HETATM   41  C   UNL     1      -8.054   3.926  68.264  1.00  0.00    -0.078 C  
HETATM   42  C   UNL     1      -8.058   4.828  69.350  1.00  0.00    -0.070 C  
HETATM   43  C   UNL     1      -6.873   3.005  68.106  1.00  0.00    -0.048 C  
ENDROOT
BRANCH  15  44
HETATM   44  O   UNL     1     -13.641   9.436  71.069  1.00  0.00    -0.259 OA 
HETATM   45  C   UNL     1     -13.530   9.252  72.476  1.00  0.00    -0.404 C  
ENDBRANCH  15  44
BRANCH  37  46
HETATM   46  O   UNL     1     -11.020   5.469  67.360  1.00  0.00    -0.139 OA 
HETATM   47  C   UNL     1     -11.531   6.758  67.653  1.00  0.00     0.299 C  
ENDBRANCH  37  46
TORSDOF 2
ENDMDL
MODEL       18
REMARK 921   NORMALIZED FREE ENERGY PREDICTED BY IDOCK:   -4.84 KCAL/MOL
REMARK 922        TOTAL FREE ENERGY PREDICTED BY IDOCK:   -5.74 KCAL/MOL
REMARK 923 INTER-LIGAND FREE ENERGY PREDICTED BY IDOCK:   -5.66 KCAL/MOL
REMARK 924 INTRA-LIGAND FREE ENERGY PREDICTED BY IDOCK:   -0.08 KCAL/MOL
REMARK 927      BINDING AFFINITY PREDICTED BY RF-SCORE:    0.00 PKD
ROOT
HETATM    1  C   UNL     1      -8.511   6.099  68.062  1.00  0.00    -0.116 C  
HETATM    2  C   UNL     1      -7.896   6.737  66.748  1.00  0.00    -0.107 C  
HETATM    3  C   UNL     1      -8.308   8.128  66.338  1.00  0.00    -0.115 A  
HETATM    4  C   UNL     1      -9.646   8.447  66.139  1.00  0.00    -0.246 A  
HETATM    5  C   UNL     1     -10.085   9.729  66.444  1.00  0.00    -0.313 A  
HETATM    6  C   UNL     1      -9.161  10.716  66.779  1.00  0.00    -0.156 A  
HETATM    7  C   UNL     1      -7.828  10.490  66.455  1.00  0.00    -0.138 A  
HETATM    8  O   UNL     1      -9.682  11.760  67.506  1.00  0.00    -0.177 OA 
HETATM    9  C   UNL     1      -7.382   9.174  66.329  1.00  0.00    -0.092 A  
HETATM   10  C   UNL     1      -8.934  12.654  68.240  1.00  0.00    -0.176 A  
HETATM   11  C   UNL     1      -9.631  13.811  68.629  1.00  0.00    -0.121 A  
HETATM   12  C   UNL     1      -8.905  14.973  68.954  1.00  0.00    -0.201 A  
HETATM   13  C   UNL     1      -9.595  16.291  69.155  1.00  0.00    -0.251 C  
HETATM   14  C   UNL     1      -7.522  14.921  69.022  1.00  0.00    -0.144 A  
HETATM   15  C   UNL     1      -6.863  13.705  68.955  1.00  0.00    -0.110 A  
HETATM   16  C   UNL     1     -11.084  16.230  69.452  1.00  0.00    -0.328 C  
HETATM   17  C   UNL     1      -7.601  12.561  68.638  1.00  0.00    -0.080 A  
HETATM   18  C   UNL     1     -10.846   5.620  67.445  1.00  0.00    -0.109 C  
HETATM   19  N   UNL     1     -11.836  15.114  68.723  1.00  0.00    -0.324 N  
HETATM   20  O   UNL     1      -6.994  11.349  68.840  1.00  0.00    -0.082 OA 
HETATM   21  N   UNL     1      -9.542   5.056  67.783  1.00  0.00    -0.139 NA 
HETATM   22  C   UNL     1     -13.285  15.146  69.226  1.00  0.00     1.352 C  
HETATM   23  C   UNL     1     -11.126  13.741  68.968  1.00  0.00    -0.259 C  
HETATM   24  C   UNL     1     -11.896  15.311  67.205  1.00  0.00     0.038 C  
HETATM   25  C   UNL     1     -11.241  13.304  70.465  1.00  0.00     0.836 C  
HETATM   26  H   UNL     1      -6.085  11.286  69.112  1.00  0.00     0.000 HD 
HETATM   27  C   UNL     1     -12.036  12.050  70.683  1.00  0.00    -0.369 A  
HETATM   28  C   UNL     1     -11.463  10.851  70.277  1.00  0.00    -0.391 A  
HETATM   29  C   UNL     1     -11.943   9.626  70.741  1.00  0.00    -0.277 A  
HETATM   30  C   UNL     1     -13.195   9.610  71.346  1.00  0.00    -0.389 A  
HETATM   31  O   UNL     1     -11.169   8.498  70.564  1.00  0.00    -0.258 OA 
HETATM   32  C   UNL     1      -9.709   8.725  70.600  1.00  0.00    -0.197 C  
HETATM   33  C   UNL     1     -13.846  10.814  71.707  1.00  0.00     0.255 A  
HETATM   34  O   UNL     1     -13.864   8.437  71.545  1.00  0.00    -0.434 OA 
HETATM   35  C   UNL     1     -13.216  12.037  71.429  1.00  0.00    -0.170 A  
HETATM   36  H   UNL     1     -14.720   8.427  71.958  1.00  0.00     0.000 HD 
HETATM   37  C   UNL     1      -9.107   8.165  71.713  1.00  0.00    -0.174 C  
HETATM   38  C   UNL     1      -9.093   6.777  71.736  1.00  0.00    -0.140 C  
HETATM   39  C   UNL     1      -9.620   4.137  68.939  1.00  0.00    -0.152 C  
HETATM   40  C   UNL     1      -9.116   8.245  69.438  1.00  0.00    -0.154 C  
HETATM   41  C   UNL     1      -9.179   6.135  70.486  1.00  0.00    -0.166 C  
HETATM   42  C   UNL     1      -8.907   6.879  69.318  1.00  0.00    -0.138 C  
HETATM   43  C   UNL     1      -9.802   4.772  70.335  1.00  0.00    -0.309 C  
ENDROOT
BRANCH  15  44
HETATM   44  O   UNL     1      -5.522  13.502  69.149  1.00  0.00    -0.073 OA 
HETATM   45  C   UNL     1      -5.129  13.089  70.452  1.00  0.00    -0.103 C  
ENDBRANCH  15  44
BRANCH  37  46
HETATM   46  O   UNL     1      -8.056   8.943  72.174  1.00  0.00    -0.369 OA 
HETATM   47  C   UNL     1      -6.926   8.298  72.738  1.00  0.00    -0.097 C  
ENDBRANCH  37  46
TORSDOF 2
ENDMDL
MODEL       19
REMARK 921   NORMALIZED FREE ENERGY PREDICTED BY IDOCK:   -4.70 KCAL/MOL
REMARK 922        TOTAL FREE ENERGY PREDICTED BY IDOCK:   -5.60 KCAL/MOL
REMARK 923 INTER-LIGAND FREE ENERGY PREDICTED BY IDOCK:   -5.21 KCAL/MOL
REMARK 924 INTRA-LIGAND FREE ENERGY PREDICTED BY IDOCK:   -0.38 KCAL/MOL
REMARK 927      BINDING AFFINITY PREDICTED BY RF-SCORE:    0.00 PKD
ROOT
HETATM    1  C   UNL     1      -6.720   5.036  66.167  1.00  0.00    -0.053 C  
HETATM    2  C   UNL     1      -7.575   5.725  65.024  1.00  0.00    -0.087 C  
HETATM    3  C   UNL     1      -8.849   6.445  65.384  1.00  0.00     0.026 A  
HETATM    4  C   UNL     1      -9.869   5.792  66.067  1.00  0.00    -0.019 A  
HETATM    5  C   UNL     1     -10.652   6.515  66.959  1.00  0.00    -0.402 A  
HETATM    6  C   UNL     1     -10.520   7.900  67.031  1.00  0.00    -0.349 A  
HETATM    7  C   UNL     1      -9.881   8.545  65.978  1.00  0.00    -0.135 A  
HETATM    8  O   UNL     1     -10.947   8.450  68.216  1.00  0.00     0.016 OA 
HETATM    9  C   UNL     1      -8.964   7.826  65.210  1.00  0.00     0.162 A  
HETATM   10  C   UNL     1     -10.608   9.709  68.662  1.00  0.00    -0.217 A  
HETATM   11  C   UNL     1     -11.405  10.183  69.719  1.00  0.00    -0.312 A  
HETATM   12  C   UNL     1     -11.485  11.570  69.949  1.00  0.00    -0.340 A  
HETATM   13  C   UNL     1     -12.486  12.143  70.910  1.00  0.00    -0.374 C  
HETATM   14  C   UNL     1     -10.676  12.433  69.228  1.00  0.00     0.004 A  
HETATM   15  C   UNL     1      -9.666  11.936  68.421  1.00  0.00    -0.201 A  
HETATM   16  C   UNL     1     -13.060  11.178  71.935  1.00  0.00    -0.408 C  
HETATM   17  C   UNL     1      -9.597  10.556  68.209  1.00  0.00    -0.158 A  
HETATM   18  C   UNL     1      -8.071   3.082  66.814  1.00  0.00    -0.081 C  
HETATM   19  N   UNL     1     -13.271   9.751  71.422  1.00  0.00    -0.388 N  
HETATM   20  O   UNL     1      -8.451  10.066  67.639  1.00  0.00    -0.115 OA 
HETATM   21  N   UNL     1      -6.841   3.548  66.177  1.00  0.00    -0.052 NA 
HETATM   22  C   UNL     1     -13.749   8.912  72.614  1.00  0.00    -0.338 C  
HETATM   23  C   UNL     1     -11.950   9.214  70.777  1.00  0.00    -0.191 C  
HETATM   24  C   UNL     1     -14.358   9.645  70.348  1.00  0.00     1.419 C  
HETATM   25  C   UNL     1     -10.832   9.025  71.852  1.00  0.00    -0.413 C  
HETATM   26  H   UNL     1      -7.762  10.644  67.331  1.00  0.00     0.000 HD 
HETATM   27  C   UNL     1     -10.398   7.601  72.049  1.00  0.00    -0.252 A  
HETATM   28  C   UNL     1      -9.654   7.013  71.033  1.00  0.00    -0.170 A  
HETATM   29  C   UNL     1      -8.916   5.851  71.256  1.00  0.00    -0.140 A  
HETATM   30  C   UNL     1      -9.199   5.117  72.404  1.00  0.00    -0.133 A  
HETATM   31  O   UNL     1      -7.965   5.478  70.331  1.00  0.00    -0.097 OA 
HETATM   32  C   UNL     1      -7.295   6.595  69.632  1.00  0.00    -0.083 C  
HETATM   33  C   UNL     1     -10.015   5.652  73.429  1.00  0.00    -0.186 A  
HETATM   34  O   UNL     1      -8.757   3.833  72.543  1.00  0.00    -0.092 OA 
HETATM   35  C   UNL     1     -10.556   6.937  73.267  1.00  0.00    -0.353 A  
HETATM   36  H   UNL     1      -8.951   3.332  73.327  1.00  0.00     0.000 HD 
HETATM   37  C   UNL     1      -5.962   6.722  69.980  1.00  0.00    -0.023 C  
HETATM   38  C   UNL     1      -5.142   5.693  69.539  1.00  0.00    -0.004 C  
HETATM   39  C   UNL     1      -5.637   2.973  66.814  1.00  0.00    -0.021 C  
HETATM   40  C   UNL     1      -7.424   6.453  68.255  1.00  0.00    -0.091 C  
HETATM   41  C   UNL     1      -5.593   4.977  68.414  1.00  0.00    -0.016 C  
HETATM   42  C   UNL     1      -6.601   5.545  67.605  1.00  0.00    -0.053 C  
HETATM   43  C   UNL     1      -5.233   3.531  68.196  1.00  0.00    -0.012 C  
ENDROOT
BRANCH  15  44
HETATM   44  O   UNL     1      -8.715  12.676  67.770  1.00  0.00    -0.159 OA 
HETATM   45  C   UNL     1      -9.194  13.632  66.831  1.00  0.00    -0.250 C  
ENDBRANCH  15  44
BRANCH  37  46
HETATM   46  O   UNL     1      -5.563   8.050  70.012  1.00  0.00    -0.023 OA 
HETATM   47  C   UNL     1      -6.093   8.897  71.018  1.00  0.00    -0.049 C  
ENDBRANCH  37  46
TORSDOF 2
ENDMDL
MODEL       20
REMARK 921   NORMALIZED FREE ENERGY PREDICTED BY IDOCK:   -4.63 KCAL/MOL
REMARK 922        TOTAL FREE ENERGY PREDICTED BY IDOCK:   -5.51 KCAL/MOL
REMARK 923 INTER-LIGAND FREE ENERGY PREDICTED BY IDOCK:   -5.13 KCAL/MOL
REMARK 924 INTRA-LIGAND FREE ENERGY PREDICTED BY IDOCK:   -0.38 KCAL/MOL
REMARK 927      BINDING AFFINITY PREDICTED BY RF-SCORE:    0.00 PKD
ROOT
HETATM    1  C   UNL     1      -7.607  11.092  66.671  1.00  0.00    -0.147 C  
HETATM    2  C   UNL     1      -6.085  10.652  66.636  1.00  0.00    -0.081 C  
HETATM    3  C   UNL     1      -5.581   9.650  67.643  1.00  0.00    -0.036 A  
HETATM    4  C   UNL     1      -5.719   9.877  69.007  1.00  0.00    -0.035 A  
HETATM    5  C   UNL     1      -5.916   8.793  69.854  1.00  0.00    -0.031 A  
HETATM    6  C   UNL     1      -5.804   7.497  69.357  1.00  0.00    -0.026 A  
HETATM    7  C   UNL     1      -5.158   7.326  68.137  1.00  0.00    -0.023 A  
HETATM    8  O   UNL     1      -6.463   6.545  70.097  1.00  0.00    -0.038 OA 
HETATM    9  C   UNL     1      -5.134   8.391  67.236  1.00  0.00    -0.033 A  
HETATM   10  C   UNL     1      -6.793   5.288  69.641  1.00  0.00    -0.056 A  
HETATM   11  C   UNL     1      -7.164   4.383  70.652  1.00  0.00    -0.045 A  
HETATM   12  C   UNL     1      -7.069   3.000  70.404  1.00  0.00    -0.034 A  
HETATM   13  C   UNL     1      -7.233   1.998  71.509  1.00  0.00    -0.032 C  
HETATM   14  C   UNL     1      -6.750   2.551  69.132  1.00  0.00    -0.033 A  
HETATM   15  C   UNL     1      -6.704   3.437  68.068  1.00  0.00    -0.045 A  
HETATM   16  C   UNL     1      -7.947   2.489  72.759  1.00  0.00    -0.054 C  
HETATM   17  C   UNL     1      -6.806   4.806  68.332  1.00  0.00    -0.055 A  
HETATM   18  C   UNL     1      -7.768  12.493  68.690  1.00  0.00    -0.063 C  
HETATM   19  N   UNL     1      -7.659   3.946  73.128  1.00  0.00    -0.073 N  
HETATM   20  O   UNL     1      -7.029   5.635  67.264  1.00  0.00    -0.062 OA 
HETATM   21  N   UNL     1      -7.811  12.461  67.230  1.00  0.00    -0.171 NA 
HETATM   22  C   UNL     1      -8.540   4.285  74.338  1.00  0.00    -0.095 C  
HETATM   23  C   UNL     1      -7.920   4.873  71.894  1.00  0.00    -0.109 C  
HETATM   24  C   UNL     1      -6.210   4.190  73.561  1.00  0.00    -0.031 C  
HETATM   25  C   UNL     1      -9.439   4.911  71.526  1.00  0.00    -0.208 C  
HETATM   26  H   UNL     1      -7.038   5.306  66.372  1.00  0.00     0.000 HD 
HETATM   27  C   UNL     1     -10.081   6.258  71.692  1.00  0.00    -0.214 A  
HETATM   28  C   UNL     1      -9.737   7.247  70.779  1.00  0.00    -0.171 A  
HETATM   29  C   UNL     1     -10.517   8.393  70.625  1.00  0.00    -0.200 A  
HETATM   30  C   UNL     1     -11.446   8.680  71.620  1.00  0.00    -0.305 A  
HETATM   31  O   UNL     1     -10.320   9.188  69.517  1.00  0.00    -0.202 OA 
HETATM   32  C   UNL     1      -9.901   8.471  68.294  1.00  0.00    -0.169 C  
HETATM   33  C   UNL     1     -11.769   7.724  72.614  1.00  0.00    -0.364 A  
HETATM   34  O   UNL     1     -12.021   9.914  71.709  1.00  0.00    -0.381 OA 
HETATM   35  C   UNL     1     -11.123   6.479  72.595  1.00  0.00    -0.291 A  
HETATM   36  H   UNL     1     -12.655  10.110  72.389  1.00  0.00     0.000 HD 
HETATM   37  C   UNL     1     -10.876   8.473  67.311  1.00  0.00    -0.006 C  
HETATM   38  C   UNL     1     -11.127   9.712  66.738  1.00  0.00     0.295 C  
HETATM   39  C   UNL     1      -9.079  13.010  66.704  1.00  0.00    -0.176 C  
HETATM   40  C   UNL     1      -8.716   9.004  67.800  1.00  0.00    -0.125 C  
HETATM   41  C   UNL     1     -10.079  10.650  66.804  1.00  0.00    -0.272 C  
HETATM   42  C   UNL     1      -8.774  10.195  67.090  1.00  0.00    -0.131 C  
HETATM   43  C   UNL     1     -10.342  12.133  66.845  1.00  0.00    -0.235 C  
ENDROOT
BRANCH  15  44
HETATM   44  O   UNL     1      -6.541   3.106  66.749  1.00  0.00    -0.036 OA 
HETATM   45  C   UNL     1      -5.591   2.084  66.469  1.00  0.00    -0.017 C  
ENDBRANCH  15  44
BRANCH  37  46
HETATM   46  O   UNL     1     -10.882   7.288  66.591  1.00  0.00    -0.220 OA 
HETATM   47  C   UNL     1     -10.621   6.074  67.274  1.00  0.00    -0.294 C  
ENDBRANCH  37  46
TORSDOF 2
ENDMDL
MODEL       21
REMARK 921   NORMALIZED FREE ENERGY PREDICTED BY IDOCK:   -4.28 KCAL/MOL
REMARK 922        TOTAL FREE ENERGY PREDICTED BY IDOCK:   -5.12 KCAL/MOL
REMARK 923 INTER-LIGAND FREE ENERGY PREDICTED BY IDOCK:   -4.92 KCAL/MOL
REMARK 924 INTRA-LIGAND FREE ENERGY PREDICTED BY IDOCK:   -0.20 KCAL/MOL
REMARK 927      BINDING AFFINITY PREDICTED BY RF-SCORE:    0.00 PKD
ROOT
HETATM    1  C   UNL     1      -9.996   6.242  71.758  1.00  0.00    -0.171 C  
HETATM    2  C   UNL     1     -10.834   5.279  70.819  1.00  0.00    -0.117 C  
HETATM    3  C   UNL     1     -10.780   5.470  69.325  1.00  0.00    -0.288 A  
HETATM    4  C   UNL     1     -11.112   6.691  68.749  1.00  0.00    -0.297 A  
HETATM    5  C   UNL     1     -10.453   7.091  67.593  1.00  0.00    -0.301 A  
HETATM    6  C   UNL     1      -9.602   6.204  66.938  1.00  0.00    -0.142 A  
HETATM    7  C   UNL     1      -9.714   4.853  67.250  1.00  0.00    -0.194 A  
HETATM    8  O   UNL     1      -8.664   6.804  66.133  1.00  0.00    -0.140 OA 
HETATM    9  C   UNL     1     -10.221   4.493  68.499  1.00  0.00     0.079 A  
HETATM   10  C   UNL     1      -7.521   6.190  65.671  1.00  0.00    -0.082 A  
HETATM   11  C   UNL     1      -6.883   6.870  64.619  1.00  0.00    -0.046 A  
HETATM   12  C   UNL     1      -6.017   6.157  63.766  1.00  0.00    -0.022 A  
HETATM   13  C   UNL     1      -5.490   6.772  62.502  1.00  0.00    -0.032 C  
HETATM   14  C   UNL     1      -5.698   4.841  64.057  1.00  0.00    -0.017 A  
HETATM   15  C   UNL     1      -6.072   4.281  65.267  1.00  0.00    -0.023 A  
HETATM   16  C   UNL     1      -5.540   8.289  62.423  1.00  0.00    -0.071 C  
HETATM   17  C   UNL     1      -6.926   5.005  66.104  1.00  0.00    -0.070 A  
HETATM   18  C   UNL     1     -11.198   8.387  71.622  1.00  0.00    -0.278 C  
HETATM   19  N   UNL     1      -6.761   8.925  63.092  1.00  0.00    -0.090 N  
HETATM   20  O   UNL     1      -7.065   4.561  67.393  1.00  0.00    -0.062 OA 
HETATM   21  N   UNL     1     -10.837   7.251  72.467  1.00  0.00    -0.253 NA 
HETATM   22  C   UNL     1      -6.581  10.446  63.002  1.00  0.00    -0.099 C  
HETATM   23  C   UNL     1      -6.899   8.403  64.561  1.00  0.00    -0.069 C  
HETATM   24  C   UNL     1      -8.081   8.598  62.385  1.00  0.00    -0.167 C  
HETATM   25  C   UNL     1      -5.721   8.912  65.454  1.00  0.00    -0.047 C  
HETATM   26  H   UNL     1      -6.660   3.753  67.688  1.00  0.00     0.000 HD 
HETATM   27  C   UNL     1      -6.141   9.831  66.565  1.00  0.00    -0.060 A  
HETATM   28  C   UNL     1      -6.833   9.270  67.631  1.00  0.00    -0.076 A  
HETATM   29  C   UNL     1      -6.956   9.941  68.848  1.00  0.00    -0.062 A  
HETATM   30  C   UNL     1      -6.661  11.300  68.869  1.00  0.00    -0.081 A  
HETATM   31  O   UNL     1      -7.374   9.237  69.957  1.00  0.00    -0.063 OA 
HETATM   32  C   UNL     1      -6.968   7.816  69.991  1.00  0.00    -0.050 C  
HETATM   33  C   UNL     1      -6.023  11.924  67.770  1.00  0.00    -0.063 A  
HETATM   34  O   UNL     1      -7.043  12.086  69.917  1.00  0.00    -0.317 OA 
HETATM   35  C   UNL     1      -5.702  11.154  66.642  1.00  0.00    -0.118 A  
HETATM   36  H   UNL     1      -6.842  13.014  69.930  1.00  0.00     0.000 HD 
HETATM   37  C   UNL     1      -6.040   7.548  70.982  1.00  0.00    -0.035 C  
HETATM   38  C   UNL     1      -6.524   7.647  72.279  1.00  0.00    -0.055 C  
HETATM   39  C   UNL     1     -10.138   7.679  73.698  1.00  0.00    -0.209 C  
HETATM   40  C   UNL     1      -8.081   6.996  70.136  1.00  0.00    -0.130 C  
HETATM   41  C   UNL     1      -7.913   7.475  72.439  1.00  0.00    -0.118 C  
HETATM   42  C   UNL     1      -8.648   6.871  71.396  1.00  0.00    -0.119 C  
HETATM   43  C   UNL     1      -8.673   8.145  73.553  1.00  0.00    -0.317 C  
ENDROOT
BRANCH  15  44
HETATM   44  O   UNL     1      -5.703   3.047  65.734  1.00  0.00    -0.017 OA 
HETATM   45  C   UNL     1      -5.896   1.953  64.845  1.00  0.00    -0.013 C  
ENDBRANCH  15  44
BRANCH  37  46
HETATM   46  O   UNL     1      -5.127   6.584  70.584  1.00  0.00    -0.014 OA 
HETATM   47  C   UNL     1      -5.314   5.247  71.015  1.00  0.00    -0.005 C  
ENDBRANCH  37  46
TORSDOF 2
ENDMDL
MODEL       22
REMARK 921   NORMALIZED FREE ENERGY PREDICTED BY IDOCK:   -3.96 KCAL/MOL
REMARK 922        TOTAL FREE ENERGY PREDICTED BY IDOCK:   -4.77 KCAL/MOL
REMARK 923 INTER-LIGAND FREE ENERGY PREDICTED BY IDOCK:   -4.37 KCAL/MOL
REMARK 924 INTRA-LIGAND FREE ENERGY PREDICTED BY IDOCK:   -0.40 KCAL/MOL
REMARK 927      BINDING AFFINITY PREDICTED BY RF-SCORE:    0.00 PKD
ROOT
HETATM    1  C   UNL     1      -8.894   5.960  64.389  1.00  0.00     0.315 C  
HETATM    2  C   UNL     1      -9.071   4.538  65.065  1.00  0.00    -0.152 C  
HETATM    3  C   UNL     1      -8.627   4.336  66.492  1.00  0.00    -0.112 A  
HETATM    4  C   UNL     1      -7.320   4.608  66.878  1.00  0.00    -0.081 A  
HETATM    5  C   UNL     1      -7.083   5.085  68.161  1.00  0.00    -0.062 A  
HETATM    6  C   UNL     1      -8.121   5.123  69.089  1.00  0.00    -0.084 A  
HETATM    7  C   UNL     1      -9.255   4.362  68.822  1.00  0.00    -0.193 A  
HETATM    8  O   UNL     1      -7.934   6.016  70.117  1.00  0.00    -0.102 OA 
HETATM    9  C   UNL     1      -9.555   4.051  67.495  1.00  0.00    -0.216 A  
HETATM   10  C   UNL     1      -8.935   6.484  70.939  1.00  0.00    -0.147 A  
HETATM   11  C   UNL     1      -8.475   7.123  72.105  1.00  0.00    -0.118 A  
HETATM   12  C   UNL     1      -9.335   7.222  73.216  1.00  0.00    -0.226 A  
HETATM   13  C   UNL     1      -8.829   7.687  74.551  1.00  0.00    -0.071 C  
HETATM   14  C   UNL     1     -10.656   6.821  73.101  1.00  0.00    -0.315 A  
HETATM   15  C   UNL     1     -11.183   6.497  71.862  1.00  0.00    -0.272 A  
HETATM   16  C   UNL     1      -7.523   8.465  74.540  1.00  0.00    -0.214 C  
HETATM   17  C   UNL     1     -10.317   6.408  70.768  1.00  0.00    -0.201 A  
HETATM   18  C   UNL     1      -6.463   6.149  64.044  1.00  0.00    -0.030 C  
HETATM   19  N   UNL     1      -6.507   7.995  73.496  1.00  0.00    -0.089 N  
HETATM   20  O   UNL     1     -10.885   6.355  69.522  1.00  0.00    -0.252 OA 
HETATM   21  N   UNL     1      -7.771   6.010  63.407  1.00  0.00    -0.090 NA 
HETATM   22  C   UNL     1      -5.314   8.956  73.566  1.00  0.00    -0.099 C  
HETATM   23  C   UNL     1      -7.178   7.942  72.083  1.00  0.00    -0.081 C  
HETATM   24  C   UNL     1      -5.956   6.592  73.772  1.00  0.00    -0.063 C  
HETATM   25  C   UNL     1      -7.544   9.375  71.577  1.00  0.00     0.339 C  
HETATM   26  H   UNL     1     -11.827   6.303  69.406  1.00  0.00     0.000 HD 
HETATM   27  C   UNL     1      -6.796   9.806  70.349  1.00  0.00    -0.135 A  
HETATM   28  C   UNL     1      -7.131   9.193  69.148  1.00  0.00    -0.062 A  
HETATM   29  C   UNL     1      -6.763   9.750  67.923  1.00  0.00    -0.065 A  
HETATM   30  C   UNL     1      -5.786  10.740  67.931  1.00  0.00    -0.042 A  
HETATM   31  O   UNL     1      -7.367   9.288  66.773  1.00  0.00    -0.085 OA 
HETATM   32  C   UNL     1      -8.766   8.838  66.934  1.00  0.00    -0.127 C  
HETATM   33  C   UNL     1      -5.364  11.338  69.144  1.00  0.00    -0.040 A  
HETATM   34  O   UNL     1      -5.155  11.114  66.781  1.00  0.00    -0.059 OA 
HETATM   35  C   UNL     1      -5.935  10.905  70.351  1.00  0.00    -0.134 A  
HETATM   36  H   UNL     1      -4.487  11.790  66.787  1.00  0.00     0.000 HD 
HETATM   37  C   UNL     1      -9.671   9.665  66.293  1.00  0.00    -0.240 C  
HETATM   38  C   UNL     1      -9.611   9.637  64.907  1.00  0.00    -0.244 C  
HETATM   39  C   UNL     1      -8.030   7.094  62.436  1.00  0.00    -0.131 C  
HETATM   40  C   UNL     1      -8.908   7.529  66.488  1.00  0.00    -0.167 C  
HETATM   41  C   UNL     1      -9.076   8.468  64.332  1.00  0.00     0.508 C  
HETATM   42  C   UNL     1      -8.985   7.301  65.122  1.00  0.00     0.351 C  
HETATM   43  C   UNL     1      -8.362   8.490  63.007  1.00  0.00    -0.127 C  
ENDROOT
BRANCH  15  44
HETATM   44  O   UNL     1     -12.497   6.221  71.591  1.00  0.00    -0.195 OA 
HETATM   45  C   UNL     1     -13.420   7.284  71.801  1.00  0.00    -0.300 C  
ENDBRANCH  15  44
BRANCH  37  46
HETATM   46  O   UNL     1     -10.859   9.772  67.000  1.00  0.00    -0.203 OA 
HETATM   47  C   UNL     1     -10.833  10.345  68.296  1.00  0.00    -0.254 C  
ENDBRANCH  37  46
TORSDOF 2
ENDMDL
MODEL       23
REMARK 921   NORMALIZED FREE ENERGY PREDICTED BY IDOCK:   -3.89 KCAL/MOL
REMARK 922        TOTAL FREE ENERGY PREDICTED BY IDOCK:   -4.69 KCAL/MOL
REMARK 923 INTER-LIGAND FREE ENERGY PREDICTED BY IDOCK:   -4.31 KCAL/MOL
REMARK 924 INTRA-LIGAND FREE ENERGY PREDICTED BY IDOCK:   -0.38 KCAL/MOL
REMARK 927      BINDING AFFINITY PREDICTED BY RF-SCORE:    0.00 PKD
ROOT
HETATM    1  C   UNL     1      -7.416  10.840  63.402  1.00  0.00     0.257 C  
HETATM    2  C   UNL     1      -8.682  11.674  62.939  1.00  0.00     0.279 C  
HETATM    3  C   UNL     1      -9.926  11.664  63.790  1.00  0.00    -0.378 A  
HETATM    4  C   UNL     1     -10.552  10.470  64.125  1.00  0.00     0.157 A  
HETATM    5  C   UNL     1     -11.188  10.365  65.356  1.00  0.00     0.915 A  
HETATM    6  C   UNL     1     -11.336  11.495  66.158  1.00  0.00    -0.131 A  
HETATM    7  C   UNL     1     -11.168  12.739  65.559  1.00  0.00    -0.329 A  
HETATM    8  O   UNL     1     -11.520  11.225  67.493  1.00  0.00    -0.428 OA 
HETATM    9  C   UNL     1     -10.373  12.831  64.416  1.00  0.00    -0.388 A  
HETATM   10  C   UNL     1     -11.342  12.138  68.508  1.00  0.00    -0.275 A  
HETATM   11  C   UNL     1     -11.892  11.747  69.742  1.00  0.00    -0.420 A  
HETATM   12  C   UNL     1     -12.195  12.733  70.702  1.00  0.00    -0.374 A  
HETATM   13  C   UNL     1     -12.984  12.402  71.935  1.00  0.00    -0.407 C  
HETATM   14  C   UNL     1     -11.821  14.048  70.476  1.00  0.00    -0.339 A  
HETATM   15  C   UNL     1     -10.997  14.368  69.410  1.00  0.00    -0.231 A  
HETATM   16  C   UNL     1     -13.031  10.934  72.326  1.00  0.00     0.064 C  
HETATM   17  C   UNL     1     -10.701  13.376  68.471  1.00  0.00    -0.262 A  
HETATM   18  C   UNL     1      -8.088   8.500  63.037  1.00  0.00    -0.174 C  
HETATM   19  N   UNL     1     -13.072   9.959  71.148  1.00  0.00    -0.378 N  
HETATM   20  O   UNL     1      -9.684  13.632  67.589  1.00  0.00    -0.218 OA 
HETATM   21  N   UNL     1      -7.214   9.590  62.612  1.00  0.00    -0.100 NA 
HETATM   22  C   UNL     1     -13.009   8.542  71.734  1.00  0.00    -0.352 C  
HETATM   23  C   UNL     1     -11.903  10.269  70.155  1.00  0.00    -0.263 C  
HETATM   24  C   UNL     1     -14.369  10.038  70.336  1.00  0.00     1.915 C  
HETATM   25  C   UNL     1     -10.514   9.960  70.803  1.00  0.00    -0.253 C  
HETATM   26  H   UNL     1      -9.247  14.476  67.564  1.00  0.00     0.000 HD 
HETATM   27  C   UNL     1      -9.753   8.853  70.132  1.00  0.00    -0.199 A  
HETATM   28  C   UNL     1      -9.217   9.115  68.877  1.00  0.00    -0.139 A  
HETATM   29  C   UNL     1      -8.219   8.306  68.334  1.00  0.00    -0.132 A  
HETATM   30  C   UNL     1      -8.008   7.060  68.917  1.00  0.00    -0.120 A  
HETATM   31  O   UNL     1      -7.509   8.765  67.245  1.00  0.00    -0.087 OA 
HETATM   32  C   UNL     1      -7.312  10.230  67.195  1.00  0.00    -0.091 C  
HETATM   33  C   UNL     1      -8.598   6.729  70.160  1.00  0.00    -0.140 A  
HETATM   34  O   UNL     1      -7.285   6.098  68.275  1.00  0.00    -0.079 OA 
HETATM   35  C   UNL     1      -9.420   7.671  70.797  1.00  0.00    -0.162 A  
HETATM   36  H   UNL     1      -7.141   5.247  68.673  1.00  0.00     0.000 HD 
HETATM   37  C   UNL     1      -5.993  10.600  67.386  1.00  0.00    -0.052 C  
HETATM   38  C   UNL     1      -5.131  10.249  66.356  1.00  0.00    -0.042 C  
HETATM   39  C   UNL     1      -5.786   9.209  62.674  1.00  0.00    -0.089 C  
HETATM   40  C   UNL     1      -7.789  10.742  65.994  1.00  0.00    -0.149 C  
HETATM   41  C   UNL     1      -5.718  10.069  65.089  1.00  0.00    -0.091 C  
HETATM   42  C   UNL     1      -7.009  10.592  64.856  1.00  0.00     0.025 C  
HETATM   43  C   UNL     1      -5.138   9.121  64.073  1.00  0.00    -0.058 C  
ENDROOT
BRANCH  15  44
HETATM   44  O   UNL     1     -10.444  15.596  69.158  1.00  0.00    -0.211 OA 
HETATM   45  C   UNL     1     -11.307  16.569  68.579  1.00  0.00    -0.231 C  
ENDBRANCH  15  44
BRANCH  37  46
HETATM   46  O   UNL     1      -5.890  11.790  68.090  1.00  0.00    -0.046 OA 
HETATM   47  C   UNL     1      -6.271  11.811  69.455  1.00  0.00    -0.103 C  
ENDBRANCH  37  46
TORSDOF 2
ENDMDL
MODEL       24
REMARK 921   NORMALIZED FREE ENERGY PREDICTED BY IDOCK:   -3.79 KCAL/MOL
REMARK 922        TOTAL FREE ENERGY PREDICTED BY IDOCK:   -4.57 KCAL/MOL
REMARK 923 INTER-LIGAND FREE ENERGY PREDICTED BY IDOCK:   -4.28 KCAL/MOL
REMARK 924 INTRA-LIGAND FREE ENERGY PREDICTED BY IDOCK:   -0.30 KCAL/MOL
REMARK 927      BINDING AFFINITY PREDICTED BY RF-SCORE:    0.00 PKD
ROOT
HETATM    1  C   UNL     1      -7.300   8.945  72.203  1.00  0.00     0.144 C  
HETATM    2  C   UNL     1      -6.151   9.633  71.355  1.00  0.00     0.001 C  
HETATM    3  C   UNL     1      -5.632   8.946  70.117  1.00  0.00    -0.027 A  
HETATM    4  C   UNL     1      -5.125   7.654  70.177  1.00  0.00    -0.023 A  
HETATM    5  C   UNL     1      -5.298   6.812  69.086  1.00  0.00    -0.014 A  
HETATM    6  C   UNL     1      -5.819   7.317  67.896  1.00  0.00    -0.030 A  
HETATM    7  C   UNL     1      -5.813   8.698  67.724  1.00  0.00    -0.043 A  
HETATM    8  O   UNL     1      -6.387   6.372  67.077  1.00  0.00    -0.038 OA 
HETATM    9  C   UNL     1      -5.817   9.514  68.855  1.00  0.00    -0.039 A  
HETATM   10  C   UNL     1      -7.257   6.650  66.046  1.00  0.00    -0.071 A  
HETATM   11  C   UNL     1      -7.454   5.584  65.151  1.00  0.00    -0.074 A  
HETATM   12  C   UNL     1      -7.916   5.858  63.848  1.00  0.00    -0.119 A  
HETATM   13  C   UNL     1      -7.929   4.796  62.788  1.00  0.00    -0.074 C  
HETATM   14  C   UNL     1      -8.301   7.147  63.514  1.00  0.00     0.203 A  
HETATM   15  C   UNL     1      -8.410   8.121  64.492  1.00  0.00    -0.058 A  
HETATM   16  C   UNL     1      -7.877   3.358  63.279  1.00  0.00    -0.068 C  
HETATM   17  C   UNL     1      -7.952   7.830  65.780  1.00  0.00    -0.114 A  
HETATM   18  C   UNL     1      -6.172   7.043  73.287  1.00  0.00    -0.058 C  
HETATM   19  N   UNL     1      -7.015   3.138  64.524  1.00  0.00    -0.051 N  
HETATM   20  O   UNL     1      -8.310   8.694  66.782  1.00  0.00    -0.106 OA 
HETATM   21  N   UNL     1      -6.811   8.343  73.478  1.00  0.00    -0.201 NA 
HETATM   22  C   UNL     1      -7.171   1.665  64.924  1.00  0.00    -0.049 C  
HETATM   23  C   UNL     1      -7.441   4.134  65.653  1.00  0.00    -0.081 C  
HETATM   24  C   UNL     1      -5.521   3.368  64.278  1.00  0.00    -0.009 C  
HETATM   25  C   UNL     1      -8.880   3.814  66.176  1.00  0.00    -0.127 C  
HETATM   26  H   UNL     1      -8.784   9.497  66.601  1.00  0.00     0.000 HD 
HETATM   27  C   UNL     1      -8.932   3.380  67.612  1.00  0.00    -0.174 A  
HETATM   28  C   UNL     1      -8.691   4.346  68.581  1.00  0.00    -0.119 A  
HETATM   29  C   UNL     1      -9.054   4.142  69.913  1.00  0.00    -0.113 A  
HETATM   30  C   UNL     1      -9.356   2.843  70.308  1.00  0.00    -0.149 A  
HETATM   31  O   UNL     1      -9.081   5.222  70.768  1.00  0.00    -0.132 OA 
HETATM   32  C   UNL     1      -9.446   6.511  70.144  1.00  0.00    -0.157 C  
HETATM   33  C   UNL     1      -9.535   1.813  69.353  1.00  0.00    -0.129 A  
HETATM   34  O   UNL     1      -9.417   2.507  71.629  1.00  0.00    -0.112 OA 
HETATM   35  C   UNL     1      -9.388   2.115  67.991  1.00  0.00    -0.244 A  
HETATM   36  H   UNL     1      -9.622   1.619  71.899  1.00  0.00     0.000 HD 
HETATM   37  C   UNL     1     -10.678   6.980  70.566  1.00  0.00    -0.238 C  
HETATM   38  C   UNL     1     -10.729   7.381  71.893  1.00  0.00    -0.247 C  
HETATM   39  C   UNL     1      -7.934   8.270  74.437  1.00  0.00    -0.231 C  
HETATM   40  C   UNL     1      -8.461   7.462  70.381  1.00  0.00    -0.142 C  
HETATM   41  C   UNL     1      -9.505   7.765  72.473  1.00  0.00    -0.239 C  
HETATM   42  C   UNL     1      -8.417   8.071  71.626  1.00  0.00    -0.155 C  
HETATM   43  C   UNL     1      -9.240   7.606  73.946  1.00  0.00    -0.303 C  
ENDROOT
BRANCH  15  44
HETATM   44  O   UNL     1      -8.909   9.384  64.320  1.00  0.00    -0.208 OA 
HETATM   45  C   UNL     1      -8.513  10.063  63.134  1.00  0.00    -0.181 C  
ENDBRANCH  15  44
BRANCH  37  46
HETATM   46  O   UNL     1     -11.355   7.635  69.547  1.00  0.00    -0.005 OA 
HETATM   47  C   UNL     1     -11.094   7.262  68.205  1.00  0.00     0.125 C  
ENDBRANCH  37  46
TORSDOF 2
ENDMDL
MODEL       25
REMARK 921   NORMALIZED FREE ENERGY PREDICTED BY IDOCK:   -3.74 KCAL/MOL
REMARK 922        TOTAL FREE ENERGY PREDICTED BY IDOCK:   -4.52 KCAL/MOL
REMARK 923 INTER-LIGAND FREE ENERGY PREDICTED BY IDOCK:   -4.83 KCAL/MOL
REMARK 924 INTRA-LIGAND FREE ENERGY PREDICTED BY IDOCK:    0.31 KCAL/MOL
REMARK 927      BINDING AFFINITY PREDICTED BY RF-SCORE:    0.00 PKD
ROOT
HETATM    1  C   UNL     1      -7.035   5.557  69.736  1.00  0.00    -0.062 C  
HETATM    2  C   UNL     1      -6.702   6.532  70.941  1.00  0.00    -0.054 C  
HETATM    3  C   UNL     1      -6.839   8.021  70.748  1.00  0.00    -0.037 A  
HETATM    4  C   UNL     1      -6.154   8.675  69.732  1.00  0.00    -0.035 A  
HETATM    5  C   UNL     1      -6.742   9.778  69.125  1.00  0.00    -0.053 A  
HETATM    6  C   UNL     1      -7.918  10.312  69.649  1.00  0.00    -0.154 A  
HETATM    7  C   UNL     1      -8.267   9.956  70.947  1.00  0.00     0.668 A  
HETATM    8  O   UNL     1      -8.657  11.047  68.753  1.00  0.00    -0.152 OA 
HETATM    9  C   UNL     1      -7.795   8.748  71.461  1.00  0.00    -0.147 A  
HETATM   10  C   UNL     1      -9.985  11.371  68.914  1.00  0.00    -0.131 A  
HETATM   11  C   UNL     1     -10.443  12.385  68.054  1.00  0.00    -0.227 A  
HETATM   12  C   UNL     1     -11.590  13.120  68.409  1.00  0.00    -0.372 A  
HETATM   13  C   UNL     1     -11.991  14.352  67.650  1.00  0.00    -0.378 C  
HETATM   14  C   UNL     1     -12.329  12.746  69.520  1.00  0.00    -0.016 A  
HETATM   15  C   UNL     1     -12.056  11.555  70.173  1.00  0.00    -0.351 A  
HETATM   16  C   UNL     1     -11.408  14.498  66.254  1.00  0.00    -0.352 C  
HETATM   17  C   UNL     1     -10.917  10.835  69.803  1.00  0.00    -0.252 A  
HETATM   18  C   UNL     1      -5.165   5.896  68.171  1.00  0.00    -0.004 C  
HETATM   19  N   UNL     1      -9.978  13.977  66.100  1.00  0.00    -0.303 N  
HETATM   20  O   UNL     1     -10.813   9.548  70.262  1.00  0.00    -0.232 OA 
HETATM   21  N   UNL     1      -5.819   4.974  69.096  1.00  0.00    -0.016 NA 
HETATM   22  C   UNL     1      -9.608  14.112  64.617  1.00  0.00     1.032 C  
HETATM   23  C   UNL     1      -9.884  12.508  66.630  1.00  0.00    -0.241 C  
HETATM   24  C   UNL     1      -8.945  14.792  66.884  1.00  0.00    -0.253 C  
HETATM   25  C   UNL     1     -10.700  11.527  65.726  1.00  0.00    -0.325 C  
HETATM   26  H   UNL     1     -11.448   9.182  70.867  1.00  0.00     0.000 HD 
HETATM   27  C   UNL     1      -9.865  10.501  65.017  1.00  0.00    -0.369 A  
HETATM   28  C   UNL     1      -9.313   9.484  65.786  1.00  0.00    -0.293 A  
HETATM   29  C   UNL     1      -8.832   8.313  65.200  1.00  0.00     0.020 A  
HETATM   30  C   UNL     1      -8.615   8.320  63.826  1.00  0.00     0.186 A  
HETATM   31  O   UNL     1      -8.580   7.221  66.003  1.00  0.00    -0.141 OA 
HETATM   32  C   UNL     1      -9.464   7.089  67.181  1.00  0.00    -0.145 C  
HETATM   33  C   UNL     1      -9.098   9.378  63.018  1.00  0.00    -0.083 A  
HETATM   34  O   UNL     1      -7.869   7.347  63.227  1.00  0.00    -0.129 OA 
HETATM   35  C   UNL     1      -9.790  10.437  63.625  1.00  0.00    -0.288 A  
HETATM   36  H   UNL     1      -7.721   7.353  62.289  1.00  0.00     0.000 HD 
HETATM   37  C   UNL     1     -10.317   6.003  67.092  1.00  0.00    -0.230 C  
HETATM   38  C   UNL     1      -9.697   4.764  67.170  1.00  0.00    -0.207 C  
HETATM   39  C   UNL     1      -6.186   3.701  68.440  1.00  0.00    -0.032 C  
HETATM   40  C   UNL     1      -8.710   7.018  68.347  1.00  0.00    -0.125 C  
HETATM   41  C   UNL     1      -8.454   4.732  67.831  1.00  0.00    -0.103 C  
HETATM   42  C   UNL     1      -8.098   5.814  68.664  1.00  0.00    -0.101 C  
HETATM   43  C   UNL     1      -7.393   3.724  67.476  1.00  0.00    -0.067 C  
ENDROOT
BRANCH  15  44
HETATM   44  O   UNL     1     -12.793  11.004  71.188  1.00  0.00    -0.377 OA 
HETATM   45  C   UNL     1     -13.171  11.884  72.241  1.00  0.00    -0.085 C  
ENDBRANCH  15  44
BRANCH  37  46
HETATM   46  O   UNL     1     -11.552   6.272  67.662  1.00  0.00     0.111 OA 
HETATM   47  C   UNL     1     -11.608   6.622  69.035  1.00  0.00     0.076 C  
ENDBRANCH  37  46
TORSDOF 2
ENDMDL
MODEL       26
REMARK 921   NORMALIZED FREE ENERGY PREDICTED BY IDOCK:   -3.68 KCAL/MOL
REMARK 922        TOTAL FREE ENERGY PREDICTED BY IDOCK:   -4.46 KCAL/MOL
REMARK 923 INTER-LIGAND FREE ENERGY PREDICTED BY IDOCK:   -4.19 KCAL/MOL
REMARK 924 INTRA-LIGAND FREE ENERGY PREDICTED BY IDOCK:   -0.27 KCAL/MOL
REMARK 927      BINDING AFFINITY PREDICTED BY RF-SCORE:    0.00 PKD
ROOT
HETATM    1  C   UNL     1     -10.169  11.770  68.804  1.00  0.00    -0.160 C  
HETATM    2  C   UNL     1     -11.092  10.922  69.774  1.00  0.00    -0.328 C  
HETATM    3  C   UNL     1     -10.974   9.419  69.781  1.00  0.00    -0.234 A  
HETATM    4  C   UNL     1     -11.140   8.685  68.614  1.00  0.00     0.259 A  
HETATM    5  C   UNL     1     -10.407   7.517  68.443  1.00  0.00    -0.226 A  
HETATM    6  C   UNL     1      -9.653   7.012  69.500  1.00  0.00    -0.153 A  
HETATM    7  C   UNL     1      -9.935   7.483  70.778  1.00  0.00    -0.182 A  
HETATM    8  O   UNL     1      -8.627   6.180  69.120  1.00  0.00    -0.118 OA 
HETATM    9  C   UNL     1     -10.515   8.744  70.915  1.00  0.00    -0.278 A  
HETATM   10  C   UNL     1      -7.554   5.845  69.916  1.00  0.00    -0.080 A  
HETATM   11  C   UNL     1      -6.811   4.745  69.454  1.00  0.00    -0.049 A  
HETATM   12  C   UNL     1      -6.015   4.024  70.366  1.00  0.00    -0.018 A  
HETATM   13  C   UNL     1      -5.383   2.717  69.982  1.00  0.00    -0.012 C  
HETATM   14  C   UNL     1      -5.865   4.487  71.663  1.00  0.00    -0.013 A  
HETATM   15  C   UNL     1      -6.337   5.740  72.017  1.00  0.00    -0.045 A  
HETATM   16  C   UNL     1      -5.247   2.450  68.492  1.00  0.00    -0.012 C  
HETATM   17  C   UNL     1      -7.119   6.445  71.098  1.00  0.00    -0.077 A  
HETATM   18  C   UNL     1     -11.099  11.321  66.568  1.00  0.00    -0.216 C  
HETATM   19  N   UNL     1      -6.400   2.983  67.639  1.00  0.00    -0.035 N  
HETATM   20  O   UNL     1      -7.346   7.772  71.356  1.00  0.00    -0.064 OA 
HETATM   21  N   UNL     1     -10.901  12.314  67.622  1.00  0.00    -0.218 NA 
HETATM   22  C   UNL     1      -6.036   2.715  66.173  1.00  0.00    -0.023 C  
HETATM   23  C   UNL     1      -6.640   4.498  67.950  1.00  0.00    -0.046 C  
HETATM   24  C   UNL     1      -7.730   2.268  67.896  1.00  0.00    -0.059 C  
HETATM   25  C   UNL     1      -5.433   5.371  67.472  1.00  0.00    -0.012 C  
HETATM   26  H   UNL     1      -7.049   8.180  72.161  1.00  0.00     0.000 HD 
HETATM   27  C   UNL     1      -5.769   6.342  66.378  1.00  0.00    -0.014 A  
HETATM   28  C   UNL     1      -6.553   7.439  66.714  1.00  0.00    -0.057 A  
HETATM   29  C   UNL     1      -6.626   8.558  65.884  1.00  0.00    -0.053 A  
HETATM   30  C   UNL     1      -6.170   8.424  64.577  1.00  0.00    -0.065 A  
HETATM   31  O   UNL     1      -7.157   9.726  66.388  1.00  0.00    -0.090 OA 
HETATM   32  C   UNL     1      -6.926   9.952  67.831  1.00  0.00    -0.081 C  
HETATM   33  C   UNL     1      -5.432   7.284  64.176  1.00  0.00    -0.033 A  
HETATM   34  O   UNL     1      -6.483   9.350  63.625  1.00  0.00    -0.090 OA 
HETATM   35  C   UNL     1      -5.176   6.274  65.115  1.00  0.00    -0.014 A  
HETATM   36  H   UNL     1      -6.172   9.258  62.732  1.00  0.00     0.000 HD 
HETATM   37  C   UNL     1      -6.065  11.007  68.076  1.00  0.00    -0.049 C  
HETATM   38  C   UNL     1      -6.568  12.260  67.758  1.00  0.00    -0.108 C  
HETATM   39  C   UNL     1     -10.189  13.511  67.126  1.00  0.00    -0.247 C  
HETATM   40  C   UNL     1      -8.133  10.150  68.490  1.00  0.00    -0.106 C  
HETATM   41  C   UNL     1      -7.971  12.381  67.745  1.00  0.00    -0.156 C  
HETATM   42  C   UNL     1      -8.746  11.391  68.387  1.00  0.00    -0.157 C  
HETATM   43  C   UNL     1      -8.674  13.371  66.855  1.00  0.00    -0.154 C  
ENDROOT
BRANCH  15  44
HETATM   44  O   UNL     1      -6.132   6.370  73.216  1.00  0.00    -0.056 OA 
HETATM   45  C   UNL     1      -6.739   5.770  74.355  1.00  0.00    -0.076 C  
ENDBRANCH  15  44
BRANCH  37  46
HETATM   46  O   UNL     1      -5.264  10.769  69.183  1.00  0.00    -0.042 OA 
HETATM   47  C   UNL     1      -5.538  11.466  70.386  1.00  0.00    -0.139 C  
ENDBRANCH  37  46
TORSDOF 2
ENDMDL
MODEL       27
REMARK 921   NORMALIZED FREE ENERGY PREDICTED BY IDOCK:   -3.58 KCAL/MOL
REMARK 922        TOTAL FREE ENERGY PREDICTED BY IDOCK:   -4.34 KCAL/MOL
REMARK 923 INTER-LIGAND FREE ENERGY PREDICTED BY IDOCK:   -3.96 KCAL/MOL
REMARK 924 INTRA-LIGAND FREE ENERGY PREDICTED BY IDOCK:   -0.38 KCAL/MOL
REMARK 927      BINDING AFFINITY PREDICTED BY RF-SCORE:    0.00 PKD
ROOT
HETATM    1  C   UNL     1      -9.408  11.730  65.515  1.00  0.00    -0.118 C  
HETATM    2  C   UNL     1      -9.914  12.243  66.927  1.00  0.00    -0.223 C  
HETATM    3  C   UNL     1     -10.163  11.247  68.031  1.00  0.00    -0.201 A  
HETATM    4  C   UNL     1     -11.041  10.185  67.849  1.00  0.00    -0.303 A  
HETATM    5  C   UNL     1     -10.778   8.979  68.486  1.00  0.00    -0.140 A  
HETATM    6  C   UNL     1      -9.748   8.898  69.421  1.00  0.00    -0.169 A  
HETATM    7  C   UNL     1      -9.257  10.089  69.945  1.00  0.00    -0.195 A  
HETATM    8  O   UNL     1      -9.263   7.629  69.625  1.00  0.00    -0.147 OA 
HETATM    9  C   UNL     1      -9.384  11.256  69.190  1.00  0.00     0.082 A  
HETATM   10  C   UNL     1      -8.051   7.339  70.211  1.00  0.00    -0.121 A  
HETATM   11  C   UNL     1      -7.906   5.998  70.609  1.00  0.00    -0.106 A  
HETATM   12  C   UNL     1      -6.962   5.676  71.603  1.00  0.00    -0.068 A  
HETATM   13  C   UNL     1      -6.921   4.309  72.223  1.00  0.00    -0.058 C  
HETATM   14  C   UNL     1      -6.098   6.652  72.073  1.00  0.00    -0.038 A  
HETATM   15  C   UNL     1      -6.031   7.886  71.448  1.00  0.00    -0.034 A  
HETATM   16  C   UNL     1      -7.591   3.195  71.434  1.00  0.00    -0.044 C  
HETATM   17  C   UNL     1      -6.972   8.187  70.458  1.00  0.00    -0.037 A  
HETATM   18  C   UNL     1     -11.380  10.610  64.556  1.00  0.00     1.211 C  
HETATM   19  N   UNL     1      -8.852   3.617  70.676  1.00  0.00    -0.074 N  
HETATM   20  O   UNL     1      -6.727   9.285  69.675  1.00  0.00    -0.044 OA 
HETATM   21  N   UNL     1     -10.470  11.750  64.467  1.00  0.00    -0.285 NA 
HETATM   22  C   UNL     1      -9.318   2.400  69.867  1.00  0.00    -0.104 C  
HETATM   23  C   UNL     1      -8.548   4.871  69.790  1.00  0.00    -0.086 C  
HETATM   24  C   UNL     1     -10.015   4.002  71.596  1.00  0.00    -0.162 C  
HETATM   25  C   UNL     1      -7.559   4.518  68.632  1.00  0.00    -0.064 C  
HETATM   26  H   UNL     1      -5.991   9.862  69.843  1.00  0.00     0.000 HD 
HETATM   27  C   UNL     1      -8.145   4.653  67.256  1.00  0.00    -0.102 A  
HETATM   28  C   UNL     1      -8.386   5.939  66.787  1.00  0.00    -0.109 A  
HETATM   29  C   UNL     1      -8.588   6.188  65.430  1.00  0.00    -0.106 A  
HETATM   30  C   UNL     1      -8.869   5.101  64.608  1.00  0.00    -0.080 A  
HETATM   31  O   UNL     1      -8.518   7.487  64.974  1.00  0.00    -0.103 OA 
HETATM   32  C   UNL     1      -7.572   8.359  65.702  1.00  0.00    -0.089 C  
HETATM   33  C   UNL     1      -8.707   3.774  65.075  1.00  0.00    -0.115 A  
HETATM   34  O   UNL     1      -9.377   5.281  63.355  1.00  0.00    -0.330 OA 
HETATM   35  C   UNL     1      -8.273   3.564  66.392  1.00  0.00    -0.100 A  
HETATM   36  H   UNL     1      -9.569   4.538  62.794  1.00  0.00     0.000 HD 
HETATM   37  C   UNL     1      -6.480   8.723  64.933  1.00  0.00    -0.065 C  
HETATM   38  C   UNL     1      -6.765   9.577  63.878  1.00  0.00    -0.105 C  
HETATM   39  C   UNL     1      -9.830  11.842  63.137  1.00  0.00    -0.336 C  
HETATM   40  C   UNL     1      -8.223   9.489  66.181  1.00  0.00    -0.115 C  
HETATM   41  C   UNL     1      -7.925  10.364  64.012  1.00  0.00    -0.073 C  
HETATM   42  C   UNL     1      -8.499  10.519  65.292  1.00  0.00    -0.175 C  
HETATM   43  C   UNL     1      -8.718  10.820  62.815  1.00  0.00    -0.268 C  
ENDROOT
BRANCH  15  44
HETATM   44  O   UNL     1      -5.130   8.881  71.721  1.00  0.00    -0.034 OA 
HETATM   45  C   UNL     1      -5.207   9.463  73.017  1.00  0.00    -0.068 C  
ENDBRANCH  15  44
BRANCH  37  46
HETATM   46  O   UNL     1      -5.324   8.815  65.694  1.00  0.00    -0.034 OA 
HETATM   47  C   UNL     1      -5.144   7.915  66.774  1.00  0.00    -0.027 C  
ENDBRANCH  37  46
TORSDOF 2
ENDMDL
MODEL       28
REMARK 921   NORMALIZED FREE ENERGY PREDICTED BY IDOCK:   -3.16 KCAL/MOL
REMARK 922        TOTAL FREE ENERGY PREDICTED BY IDOCK:   -3.87 KCAL/MOL
REMARK 923 INTER-LIGAND FREE ENERGY PREDICTED BY IDOCK:   -3.59 KCAL/MOL
REMARK 924 INTRA-LIGAND FREE ENERGY PREDICTED BY IDOCK:   -0.28 KCAL/MOL
REMARK 927      BINDING AFFINITY PREDICTED BY RF-SCORE:    0.00 PKD
ROOT
HETATM    1  C   UNL     1     -12.157  11.986  68.981  1.00  0.00    -0.166 C  
HETATM    2  C   UNL     1     -11.703  12.021  67.463  1.00  0.00    -0.351 C  
HETATM    3  C   UNL     1     -10.581  11.125  67.005  1.00  0.00    -0.295 A  
HETATM    4  C   UNL     1      -9.333  11.176  67.615  1.00  0.00    -0.169 A  
HETATM    5  C   UNL     1      -8.584  10.010  67.714  1.00  0.00    -0.118 A  
HETATM    6  C   UNL     1      -9.010   8.855  67.061  1.00  0.00    -0.127 A  
HETATM    7  C   UNL     1      -9.960   8.995  66.055  1.00  0.00    -0.246 A  
HETATM    8  O   UNL     1      -8.509   7.688  67.585  1.00  0.00    -0.117 OA 
HETATM    9  C   UNL     1     -10.815  10.097  66.089  1.00  0.00     0.097 A  
HETATM   10  C   UNL     1      -9.037   6.437  67.355  1.00  0.00    -0.111 A  
HETATM   11  C   UNL     1      -8.188   5.375  67.716  1.00  0.00    -0.100 A  
HETATM   12  C   UNL     1      -8.383   4.110  67.127  1.00  0.00    -0.100 A  
HETATM   13  C   UNL     1      -7.379   3.008  67.301  1.00  0.00    -0.062 C  
HETATM   14  C   UNL     1      -9.484   3.894  66.315  1.00  0.00    -0.198 A  
HETATM   15  C   UNL     1     -10.485   4.847  66.224  1.00  0.00    -0.304 A  
HETATM   16  C   UNL     1      -6.425   3.150  68.476  1.00  0.00    -0.033 C  
HETATM   17  C   UNL     1     -10.278   6.094  66.820  1.00  0.00    -0.206 A  
HETATM   18  C   UNL     1     -10.304  13.086  70.174  1.00  0.00     2.173 C  
HETATM   19  N   UNL     1      -5.994   4.587  68.780  1.00  0.00    -0.025 N  
HETATM   20  O   UNL     1     -11.368   6.914  66.952  1.00  0.00    -0.681 OA 
HETATM   21  N   UNL     1     -11.702  13.176  69.759  1.00  0.00    -0.298 NA 
HETATM   22  C   UNL     1      -5.129   4.538  70.047  1.00  0.00     0.000 C  
HETATM   23  C   UNL     1      -7.254   5.504  68.927  1.00  0.00    -0.066 C  
HETATM   24  C   UNL     1      -5.126   5.208  67.682  1.00  0.00    -0.004 C  
HETATM   25  C   UNL     1      -8.085   5.123  70.195  1.00  0.00    -0.083 C  
HETATM   26  H   UNL     1     -12.214   6.680  66.587  1.00  0.00     0.000 HD 
HETATM   27  C   UNL     1      -8.143   6.199  71.241  1.00  0.00    -0.118 A  
HETATM   28  C   UNL     1      -8.908   7.325  70.959  1.00  0.00    -0.144 A  
HETATM   29  C   UNL     1      -9.309   8.198  71.970  1.00  0.00    -0.203 A  
HETATM   30  C   UNL     1      -8.663   8.105  73.199  1.00  0.00    -0.240 A  
HETATM   31  O   UNL     1     -10.305   9.113  71.702  1.00  0.00    -0.334 OA 
HETATM   32  C   UNL     1     -11.326   8.667  70.731  1.00  0.00    -0.263 C  
HETATM   33  C   UNL     1      -7.816   7.010  73.496  1.00  0.00    -0.106 A  
HETATM   34  O   UNL     1      -8.771   9.101  74.126  1.00  0.00     0.371 OA 
HETATM   35  C   UNL     1      -7.619   6.019  72.523  1.00  0.00    -0.099 A  
HETATM   36  H   UNL     1      -8.329   9.037  74.965  1.00  0.00     0.000 HD 
HETATM   37  C   UNL     1     -12.567   8.470  71.311  1.00  0.00    -0.226 C  
HETATM   38  C   UNL     1     -13.199   9.626  71.746  1.00  0.00    -0.520 C  
HETATM   39  C   UNL     1     -12.608  13.371  70.911  1.00  0.00    -0.327 C  
HETATM   40  C   UNL     1     -11.422   9.569  69.678  1.00  0.00     0.011 C  
HETATM   41  C   UNL     1     -12.811  10.822  71.113  1.00  0.00    -0.513 C  
HETATM   42  C   UNL     1     -12.123  10.749  69.882  1.00  0.00    -0.410 C  
HETATM   43  C   UNL     1     -12.868  12.150  71.821  1.00  0.00    -0.367 C  
ENDROOT
BRANCH  15  44
HETATM   44  O   UNL     1     -11.682   4.700  65.573  1.00  0.00     0.445 OA 
HETATM   45  C   UNL     1     -11.620   4.174  64.252  1.00  0.00     1.168 C  
ENDBRANCH  15  44
BRANCH  37  46
HETATM   46  O   UNL     1     -13.242   7.407  70.731  1.00  0.00    -0.074 OA 
HETATM   47  C   UNL     1     -14.276   6.774  71.465  1.00  0.00    -0.047 C  
ENDBRANCH  37  46
TORSDOF 2
ENDMDL
MODEL       29
REMARK 921   NORMALIZED FREE ENERGY PREDICTED BY IDOCK:   -2.83 KCAL/MOL
REMARK 922        TOTAL FREE ENERGY PREDICTED BY IDOCK:   -3.51 KCAL/MOL
REMARK 923 INTER-LIGAND FREE ENERGY PREDICTED BY IDOCK:   -3.67 KCAL/MOL
REMARK 924 INTRA-LIGAND FREE ENERGY PREDICTED BY IDOCK:    0.16 KCAL/MOL
REMARK 927      BINDING AFFINITY PREDICTED BY RF-SCORE:    0.00 PKD
ROOT
HETATM    1  C   UNL     1      -9.374  11.853  64.604  1.00  0.00     0.182 C  
HETATM    2  C   UNL     1      -9.672  12.948  65.710  1.00  0.00    -0.155 C  
HETATM    3  C   UNL     1     -10.012  12.511  67.112  1.00  0.00    -0.217 A  
HETATM    4  C   UNL     1     -11.077  11.652  67.353  1.00  0.00    -0.337 A  
HETATM    5  C   UNL     1     -10.988  10.748  68.405  1.00  0.00    -0.299 A  
HETATM    6  C   UNL     1      -9.923  10.827  69.298  1.00  0.00    -0.159 A  
HETATM    7  C   UNL     1      -9.187  12.008  69.323  1.00  0.00     0.722 A  
HETATM    8  O   UNL     1      -9.659   9.660  69.974  1.00  0.00    -0.214 OA 
HETATM    9  C   UNL     1      -9.160  12.805  68.178  1.00  0.00    -0.203 A  
HETATM   10  C   UNL     1      -8.478   9.383  70.626  1.00  0.00    -0.193 A  
HETATM   11  C   UNL     1      -8.546   8.290  71.508  1.00  0.00    -0.197 A  
HETATM   12  C   UNL     1      -7.604   8.189  72.550  1.00  0.00    -0.157 A  
HETATM   13  C   UNL     1      -7.762   7.177  73.648  1.00  0.00    -0.116 C  
HETATM   14  C   UNL     1      -6.546   9.083  72.608  1.00  0.00     0.175 A  
HETATM   15  C   UNL     1      -6.306   9.951  71.556  1.00  0.00     0.277 A  
HETATM   16  C   UNL     1      -8.679   6.002  73.348  1.00  0.00    -0.126 C  
HETATM   17  C   UNL     1      -7.248  10.034  70.527  1.00  0.00    -0.033 A  
HETATM   18  C   UNL     1     -11.582  10.861  64.150  1.00  0.00     1.072 C  
HETATM   19  N   UNL     1      -9.897   6.344  72.487  1.00  0.00    -0.166 N  
HETATM   20  O   UNL     1      -6.870  10.685  69.382  1.00  0.00    -0.070 OA 
HETATM   21  N   UNL     1     -10.492  11.682  63.629  1.00  0.00    -0.384 NA 
HETATM   22  C   UNL     1     -10.633   5.027  72.208  1.00  0.00    -0.206 C  
HETATM   23  C   UNL     1      -9.441   7.086  71.186  1.00  0.00    -0.165 C  
HETATM   24  C   UNL     1     -10.899   7.265  73.188  1.00  0.00    -0.357 C  
HETATM   25  C   UNL     1      -8.621   6.137  70.252  1.00  0.00    -0.140 C  
HETATM   26  H   UNL     1      -6.032  11.128  69.315  1.00  0.00     0.000 HD 
HETATM   27  C   UNL     1      -9.275   5.855  68.931  1.00  0.00    -0.126 A  
HETATM   28  C   UNL     1      -9.316   6.890  68.004  1.00  0.00    -0.123 A  
HETATM   29  C   UNL     1      -9.572   6.643  66.655  1.00  0.00    -0.163 A  
HETATM   30  C   UNL     1     -10.104   5.403  66.314  1.00  0.00    -0.174 A  
HETATM   31  O   UNL     1      -9.304   7.634  65.735  1.00  0.00    -0.015 OA 
HETATM   32  C   UNL     1      -8.164   8.513  66.071  1.00  0.00    -0.118 C  
HETATM   33  C   UNL     1     -10.149   4.346  67.255  1.00  0.00    -0.101 A  
HETATM   34  O   UNL     1     -10.664   5.193  65.088  1.00  0.00    -0.281 OA 
HETATM   35  C   UNL     1      -9.661   4.568  68.552  1.00  0.00    -0.212 A  
HETATM   36  H   UNL     1     -11.028   4.346  64.856  1.00  0.00     0.000 HD 
HETATM   37  C   UNL     1      -7.086   8.340  65.221  1.00  0.00    -0.074 C  
HETATM   38  C   UNL     1      -7.292   8.772  63.918  1.00  0.00    -0.099 C  
HETATM   39  C   UNL     1      -9.948  11.140  62.365  1.00  0.00     0.294 C  
HETATM   40  C   UNL     1      -8.565   9.844  66.079  1.00  0.00    -0.147 C  
HETATM   41  C   UNL     1      -8.279   9.760  63.740  1.00  0.00    -0.162 C  
HETATM   42  C   UNL     1      -8.717  10.495  64.863  1.00  0.00    -0.192 C  
HETATM   43  C   UNL     1      -9.064   9.877  62.461  1.00  0.00    -0.303 C  
ENDROOT
BRANCH  15  44
HETATM   44  O   UNL     1      -5.223  10.780  71.425  1.00  0.00    -0.138 OA 
HETATM   45  C   UNL     1      -5.504  12.168  71.294  1.00  0.00     0.018 C  
ENDBRANCH  15  44
BRANCH  37  46
HETATM   46  O   UNL     1      -5.878   8.486  65.887  1.00  0.00    -0.046 OA 
HETATM   47  C   UNL     1      -5.776   8.023  67.223  1.00  0.00    -0.038 C  
ENDBRANCH  37  46
TORSDOF 2
ENDMDL
MODEL       30
REMARK 921   NORMALIZED FREE ENERGY PREDICTED BY IDOCK:   -2.66 KCAL/MOL
REMARK 922        TOTAL FREE ENERGY PREDICTED BY IDOCK:   -3.31 KCAL/MOL
REMARK 923 INTER-LIGAND FREE ENERGY PREDICTED BY IDOCK:   -2.92 KCAL/MOL
REMARK 924 INTRA-LIGAND FREE ENERGY PREDICTED BY IDOCK:   -0.39 KCAL/MOL
REMARK 927      BINDING AFFINITY PREDICTED BY RF-SCORE:    0.00 PKD
ROOT
HETATM    1  C   UNL     1      -8.953   6.310  72.288  1.00  0.00    -0.136 C  
HETATM    2  C   UNL     1     -10.218   5.654  71.595  1.00  0.00    -0.261 C  
HETATM    3  C   UNL     1     -10.823   6.315  70.382  1.00  0.00    -0.360 A  
HETATM    4  C   UNL     1     -11.251   7.637  70.428  1.00  0.00    -0.258 A  
HETATM    5  C   UNL     1     -11.145   8.419  69.285  1.00  0.00     0.142 A  
HETATM    6  C   UNL     1     -10.778   7.832  68.076  1.00  0.00    -0.066 A  
HETATM    7  C   UNL     1     -10.875   6.448  67.973  1.00  0.00    -0.396 A  
HETATM    8  O   UNL     1     -10.246   8.706  67.158  1.00  0.00    -0.230 OA 
HETATM    9  C   UNL     1     -10.799   5.683  69.137  1.00  0.00    -0.281 A  
HETATM   10  C   UNL     1      -9.503   8.332  66.060  1.00  0.00    -0.119 A  
HETATM   11  C   UNL     1      -9.341   9.344  65.098  1.00  0.00    -0.288 A  
HETATM   12  C   UNL     1      -9.030   8.987  63.771  1.00  0.00     0.099 A  
HETATM   13  C   UNL     1      -9.069   9.999  62.663  1.00  0.00    -0.304 C  
HETATM   14  C   UNL     1      -8.752   7.665  63.464  1.00  0.00     0.640 A  
HETATM   15  C   UNL     1      -8.596   6.729  64.474  1.00  0.00     0.307 A  
HETATM   16  C   UNL     1      -8.992  11.458  63.086  1.00  0.00    -0.068 C  
HETATM   17  C   UNL     1      -8.903   7.103  65.785  1.00  0.00    -0.064 A  
HETATM   18  C   UNL     1      -9.859   8.321  73.384  1.00  0.00     0.179 C  
HETATM   19  N   UNL     1      -9.709  11.782  64.398  1.00  0.00    -0.189 N  
HETATM   20  O   UNL     1      -8.491   6.264  66.788  1.00  0.00    -0.109 OA 
HETATM   21  N   UNL     1      -9.276   6.995  73.575  1.00  0.00    -0.149 NA 
HETATM   22  C   UNL     1      -9.433  13.259  64.707  1.00  0.00     0.623 C  
HETATM   23  C   UNL     1      -9.223  10.813  65.527  1.00  0.00    -0.202 C  
HETATM   24  C   UNL     1     -11.231  11.630  64.315  1.00  0.00    -0.319 C  
HETATM   25  C   UNL     1      -7.724  11.071  65.887  1.00  0.00    -0.012 C  
HETATM   26  H   UNL     1      -8.082   5.427  66.600  1.00  0.00     0.000 HD 
HETATM   27  C   UNL     1      -7.502  11.564  67.288  1.00  0.00    -0.139 A  
HETATM   28  C   UNL     1      -7.694  10.657  68.323  1.00  0.00    -0.107 A  
HETATM   29  C   UNL     1      -7.185  10.897  69.599  1.00  0.00    -0.095 A  
HETATM   30  C   UNL     1      -6.775  12.192  69.898  1.00  0.00     0.179 A  
HETATM   31  O   UNL     1      -7.130   9.855  70.501  1.00  0.00    -0.167 OA 
HETATM   32  C   UNL     1      -6.900   8.521  69.907  1.00  0.00    -0.042 C  
HETATM   33  C   UNL     1      -6.639  13.167  68.880  1.00  0.00    -0.104 A  
HETATM   34  O   UNL     1      -6.561  12.581  71.188  1.00  0.00     0.344 OA 
HETATM   35  C   UNL     1      -6.942  12.814  67.556  1.00  0.00    -0.149 A  
HETATM   36  H   UNL     1      -6.281  13.466  71.392  1.00  0.00     0.000 HD 
HETATM   37  C   UNL     1      -5.659   8.000  70.226  1.00  0.00    -0.022 C  
HETATM   38  C   UNL     1      -5.494   7.654  71.560  1.00  0.00    -0.035 C  
HETATM   39  C   UNL     1      -8.057   7.043  74.411  1.00  0.00    -0.140 C  
HETATM   40  C   UNL     1      -7.906   7.641  70.288  1.00  0.00    -0.092 C  
HETATM   41  C   UNL     1      -6.671   7.369  72.278  1.00  0.00    -0.058 C  
HETATM   42  C   UNL     1      -7.855   7.091  71.560  1.00  0.00    -0.098 C  
HETATM   43  C   UNL     1      -6.775   7.607  73.761  1.00  0.00    -0.095 C  
ENDROOT
BRANCH  15  44
HETATM   44  O   UNL     1      -8.186   5.432  64.315  1.00  0.00    -0.122 OA 
HETATM   45  C   UNL     1      -9.000   4.610  63.487  1.00  0.00    -0.108 C  
ENDBRANCH  15  44
BRANCH  37  46
HETATM   46  O   UNL     1      -5.127   7.262  69.180  1.00  0.00    -0.014 OA 
HETATM   47  C   UNL     1      -5.347   7.705  67.851  1.00  0.00    -0.031 C  
ENDBRANCH  37  46
TORSDOF 2
ENDMDL
MODEL       31
REMARK 921   NORMALIZED FREE ENERGY PREDICTED BY IDOCK:   -2.65 KCAL/MOL
REMARK 922        TOTAL FREE ENERGY PREDICTED BY IDOCK:   -3.30 KCAL/MOL
REMARK 923 INTER-LIGAND FREE ENERGY PREDICTED BY IDOCK:   -2.96 KCAL/MOL
REMARK 924 INTRA-LIGAND FREE ENERGY PREDICTED BY IDOCK:   -0.33 KCAL/MOL
REMARK 927      BINDING AFFINITY PREDICTED BY RF-SCORE:    0.00 PKD
ROOT
HETATM    1  C   UNL     1     -11.568  16.200  66.193  1.00  0.00     0.740 C  
HETATM    2  C   UNL     1     -12.290  15.088  65.324  1.00  0.00     0.108 C  
HETATM    3  C   UNL     1     -11.762  13.676  65.341  1.00  0.00    -0.347 A  
HETATM    4  C   UNL     1     -10.441  13.404  65.004  1.00  0.00    -0.378 A  
HETATM    5  C   UNL     1      -9.788  12.353  65.636  1.00  0.00    -0.235 A  
HETATM    6  C   UNL     1     -10.504  11.490  66.463  1.00  0.00    -0.244 A  
HETATM    7  C   UNL     1     -11.890  11.487  66.350  1.00  0.00     0.322 A  
HETATM    8  O   UNL     1      -9.737  10.819  67.385  1.00  0.00    -0.168 OA 
HETATM    9  C   UNL     1     -12.525  12.634  65.872  1.00  0.00    -0.064 A  
HETATM   10  C   UNL     1     -10.230  10.199  68.511  1.00  0.00    -0.174 A  
HETATM   11  C   UNL     1      -9.328   9.312  69.127  1.00  0.00    -0.157 A  
HETATM   12  C   UNL     1      -9.829   8.297  69.965  1.00  0.00    -0.182 A  
HETATM   13  C   UNL     1      -8.942   7.193  70.464  1.00  0.00    -0.155 C  
HETATM   14  C   UNL     1     -11.177   8.271  70.282  1.00  0.00    -0.176 A  
HETATM   15  C   UNL     1     -11.998   9.330  69.935  1.00  0.00     0.422 A  
HETATM   16  C   UNL     1      -7.447   7.464  70.423  1.00  0.00    -0.085 C  
HETATM   17  C   UNL     1     -11.483  10.333  69.108  1.00  0.00    -0.147 A  
HETATM   18  C   UNL     1      -9.447  16.590  65.004  1.00  0.00     1.571 C  
HETATM   19  N   UNL     1      -6.979   8.292  69.225  1.00  0.00    -0.057 N  
HETATM   20  O   UNL     1     -12.211  11.490  68.999  1.00  0.00    -0.368 OA 
HETATM   21  N   UNL     1     -10.747  17.143  65.378  1.00  0.00    -0.560 NA 
HETATM   22  C   UNL     1      -5.478   8.548  69.413  1.00  0.00    -0.031 C  
HETATM   23  C   UNL     1      -7.822   9.607  69.121  1.00  0.00    -0.090 C  
HETATM   24  C   UNL     1      -7.134   7.566  67.885  1.00  0.00    -0.085 C  
HETATM   25  C   UNL     1      -7.533  10.561  70.325  1.00  0.00     0.278 C  
HETATM   26  H   UNL     1     -13.065  11.581  69.406  1.00  0.00     0.000 HD 
HETATM   27  C   UNL     1      -6.892  11.863  69.941  1.00  0.00     0.234 A  
HETATM   28  C   UNL     1      -7.681  12.791  69.271  1.00  0.00     0.462 A  
HETATM   29  C   UNL     1      -7.306  14.132  69.185  1.00  0.00    -0.067 A  
HETATM   30  C   UNL     1      -5.987  14.455  69.490  1.00  0.00    -0.104 A  
HETATM   31  O   UNL     1      -8.244  15.061  68.790  1.00  0.00    -0.149 OA 
HETATM   32  C   UNL     1      -9.636  14.759  69.187  1.00  0.00    -0.131 C  
HETATM   33  C   UNL     1      -5.129  13.511  70.105  1.00  0.00    -0.094 A  
HETATM   34  O   UNL     1      -5.462  15.664  69.141  1.00  0.00    -0.100 OA 
HETATM   35  C   UNL     1      -5.622  12.228  70.391  1.00  0.00    -0.162 A  
HETATM   36  H   UNL     1      -4.561  15.884  69.349  1.00  0.00     0.000 HD 
HETATM   37  C   UNL     1     -10.124  15.638  70.137  1.00  0.00    -0.131 C  
HETATM   38  C   UNL     1     -10.324  16.935  69.688  1.00  0.00    -0.111 C  
HETATM   39  C   UNL     1     -10.612  18.420  66.112  1.00  0.00    -0.315 C  
HETATM   40  C   UNL     1     -10.465  14.743  68.072  1.00  0.00    -0.246 C  
HETATM   41  C   UNL     1     -10.526  17.088  68.303  1.00  0.00    -0.363 C  
HETATM   42  C   UNL     1     -10.875  15.955  67.536  1.00  0.00    -0.305 C  
HETATM   43  C   UNL     1     -10.127  18.346  67.576  1.00  0.00    -0.373 C  
ENDROOT
BRANCH  15  44
HETATM   44  O   UNL     1     -13.306   9.493  70.307  1.00  0.00     0.351 OA 
HETATM   45  C   UNL     1     -13.661   9.002  71.594  1.00  0.00    -0.387 C  
ENDBRANCH  15  44
BRANCH  37  46
HETATM   46  O   UNL     1     -10.973  15.006  71.033  1.00  0.00    -0.230 OA 
HETATM   47  C   UNL     1     -11.765  15.800  71.899  1.00  0.00    -0.483 C  
ENDBRANCH  37  46
TORSDOF 2
ENDMDL
MODEL       32
REMARK 921   NORMALIZED FREE ENERGY PREDICTED BY IDOCK:   -2.34 KCAL/MOL
REMARK 922        TOTAL FREE ENERGY PREDICTED BY IDOCK:   -2.96 KCAL/MOL
REMARK 923 INTER-LIGAND FREE ENERGY PREDICTED BY IDOCK:   -2.55 KCAL/MOL
REMARK 924 INTRA-LIGAND FREE ENERGY PREDICTED BY IDOCK:   -0.41 KCAL/MOL
REMARK 927      BINDING AFFINITY PREDICTED BY RF-SCORE:    0.00 PKD
ROOT
HETATM    1  C   UNL     1      -6.145   5.839  66.935  1.00  0.00    -0.026 C  
HETATM    2  C   UNL     1      -6.062   6.545  65.519  1.00  0.00    -0.034 C  
HETATM    3  C   UNL     1      -6.982   7.700  65.213  1.00  0.00    -0.058 A  
HETATM    4  C   UNL     1      -8.361   7.560  65.315  1.00  0.00    -0.112 A  
HETATM    5  C   UNL     1      -9.120   8.654  65.712  1.00  0.00    -0.242 A  
HETATM    6  C   UNL     1      -8.521   9.906  65.836  1.00  0.00    -0.130 A  
HETATM    7  C   UNL     1      -7.286  10.094  65.224  1.00  0.00    -0.141 A  
HETATM    8  O   UNL     1      -9.190  10.777  66.661  1.00  0.00    -0.162 OA 
HETATM    9  C   UNL     1      -6.472   8.983  65.001  1.00  0.00    -0.065 A  
HETATM   10  C   UNL     1      -8.638  11.912  67.213  1.00  0.00    -0.170 A  
HETATM   11  C   UNL     1      -9.577  12.812  67.748  1.00  0.00    -0.204 A  
HETATM   12  C   UNL     1      -9.219  14.165  67.906  1.00  0.00    -0.196 A  
HETATM   13  C   UNL     1     -10.243  15.205  68.257  1.00  0.00    -0.223 C  
HETATM   14  C   UNL     1      -7.913  14.561  67.667  1.00  0.00    -0.190 A  
HETATM   15  C   UNL     1      -6.923  13.617  67.454  1.00  0.00    -0.057 A  
HETATM   16  C   UNL     1     -11.534  14.693  68.876  1.00  0.00    -0.298 C  
HETATM   17  C   UNL     1      -7.295  12.278  67.306  1.00  0.00    -0.140 A  
HETATM   18  C   UNL     1      -8.271   4.598  66.850  1.00  0.00    -0.106 C  
HETATM   19  N   UNL     1     -12.015  13.347  68.329  1.00  0.00    -0.346 N  
HETATM   20  O   UNL     1      -6.298  11.340  67.367  1.00  0.00    -0.063 OA 
HETATM   21  N   UNL     1      -6.813   4.505  66.890  1.00  0.00    -0.051 NA 
HETATM   22  C   UNL     1     -13.256  12.951  69.141  1.00  0.00     2.605 C  
HETATM   23  C   UNL     1     -10.861  12.293  68.409  1.00  0.00    -0.230 C  
HETATM   24  C   UNL     1     -12.453  13.407  66.863  1.00  0.00    -0.058 C  
HETATM   25  C   UNL     1     -10.511  11.950  69.894  1.00  0.00     0.932 C  
HETATM   26  H   UNL     1      -5.383  11.589  67.431  1.00  0.00     0.000 HD 
HETATM   27  C   UNL     1     -10.788  10.526  70.280  1.00  0.00    -0.241 A  
HETATM   28  C   UNL     1      -9.953   9.546  69.756  1.00  0.00    -0.234 A  
HETATM   29  C   UNL     1      -9.898   8.268  70.313  1.00  0.00    -0.184 A  
HETATM   30  C   UNL     1     -10.921   7.897  71.180  1.00  0.00    -0.239 A  
HETATM   31  O   UNL     1      -8.854   7.437  69.968  1.00  0.00    -0.140 OA 
HETATM   32  C   UNL     1      -7.575   8.119  69.679  1.00  0.00    -0.099 C  
HETATM   33  C   UNL     1     -11.838   8.854  71.677  1.00  0.00    -0.415 A  
HETATM   34  O   UNL     1     -11.113   6.590  71.520  1.00  0.00    -0.245 OA 
HETATM   35  C   UNL     1     -11.715  10.191  71.269  1.00  0.00    -0.426 A  
HETATM   36  H   UNL     1     -11.812   6.336  72.112  1.00  0.00     0.000 HD 
HETATM   37  C   UNL     1      -6.604   7.860  70.631  1.00  0.00    -0.037 C  
HETATM   38  C   UNL     1      -6.134   6.555  70.648  1.00  0.00    -0.031 C  
HETATM   39  C   UNL     1      -6.343   3.693  68.033  1.00  0.00    -0.037 C  
HETATM   40  C   UNL     1      -7.115   7.773  68.414  1.00  0.00    -0.077 C  
HETATM   41  C   UNL     1      -6.265   5.832  69.448  1.00  0.00    -0.032 C  
HETATM   42  C   UNL     1      -6.502   6.539  68.249  1.00  0.00    -0.049 C  
HETATM   43  C   UNL     1      -6.425   4.334  69.436  1.00  0.00    -0.033 C  
ENDROOT
BRANCH  15  44
HETATM   44  O   UNL     1      -5.580  13.866  67.346  1.00  0.00    -0.351 OA 
HETATM   45  C   UNL     1      -5.141  15.152  67.770  1.00  0.00    -0.037 C  
ENDBRANCH  15  44
BRANCH  37  46
HETATM   46  O   UNL     1      -5.793   8.963  70.850  1.00  0.00    -0.033 OA 
HETATM   47  C   UNL     1      -6.399  10.204  71.169  1.00  0.00     0.155 C  
ENDBRANCH  37  46
TORSDOF 2
ENDMDL
MODEL       33
REMARK 921   NORMALIZED FREE ENERGY PREDICTED BY IDOCK:   -2.12 KCAL/MOL
REMARK 922        TOTAL FREE ENERGY PREDICTED BY IDOCK:   -2.71 KCAL/MOL
REMARK 923 INTER-LIGAND FREE ENERGY PREDICTED BY IDOCK:   -2.30 KCAL/MOL
REMARK 924 INTRA-LIGAND FREE ENERGY PREDICTED BY IDOCK:   -0.41 KCAL/MOL
REMARK 927      BINDING AFFINITY PREDICTED BY RF-SCORE:    0.00 PKD
ROOT
HETATM    1  C   UNL     1      -8.840   2.698  65.663  1.00  0.00    -0.134 C  
HETATM    2  C   UNL     1      -8.963   1.637  66.834  1.00  0.00    -0.126 C  
HETATM    3  C   UNL     1      -8.481   2.001  68.215  1.00  0.00    -0.085 A  
HETATM    4  C   UNL     1      -7.173   2.420  68.427  1.00  0.00    -0.048 A  
HETATM    5  C   UNL     1      -6.919   3.354  69.425  1.00  0.00    -0.041 A  
HETATM    6  C   UNL     1      -7.936   3.725  70.302  1.00  0.00    -0.047 A  
HETATM    7  C   UNL     1      -9.055   2.901  70.380  1.00  0.00    -0.192 A  
HETATM    8  O   UNL     1      -7.750   4.945  70.906  1.00  0.00    -0.074 OA 
HETATM    9  C   UNL     1      -9.378   2.104  69.281  1.00  0.00    -0.176 A  
HETATM   10  C   UNL     1      -8.743   5.675  71.520  1.00  0.00    -0.132 A  
HETATM   11  C   UNL     1      -8.274   6.716  72.341  1.00  0.00    -0.103 A  
HETATM   12  C   UNL     1      -9.110   7.217  73.358  1.00  0.00    -0.213 A  
HETATM   13  C   UNL     1      -8.586   8.163  74.399  1.00  0.00    -0.019 C  
HETATM   14  C   UNL     1     -10.422   6.781  73.445  1.00  0.00    -0.335 A  
HETATM   15  C   UNL     1     -10.969   6.001  72.440  1.00  0.00    -0.260 A  
HETATM   16  C   UNL     1      -7.302   8.899  74.052  1.00  0.00     0.250 C  
HETATM   17  C   UNL     1     -10.126   5.517  71.435  1.00  0.00    -0.201 A  
HETATM   18  C   UNL     1      -6.424   2.780  65.195  1.00  0.00    -0.034 C  
HETATM   19  N   UNL     1      -6.299   8.083  73.233  1.00  0.00    -0.072 N  
HETATM   20  O   UNL     1     -10.721   4.984  70.321  1.00  0.00    -0.177 OA 
HETATM   21  N   UNL     1      -7.741   2.388  64.701  1.00  0.00    -0.072 NA 
HETATM   22  C   UNL     1      -5.130   9.018  72.895  1.00  0.00    -0.068 C  
HETATM   23  C   UNL     1      -7.000   7.486  71.968  1.00  0.00    -0.063 C  
HETATM   24  C   UNL     1      -5.704   6.900  74.004  1.00  0.00    -0.055 C  
HETATM   25  C   UNL     1      -7.417   8.612  70.968  1.00  0.00    -0.093 C  
HETATM   26  H   UNL     1     -11.664   4.877  70.263  1.00  0.00     0.000 HD 
HETATM   27  C   UNL     1      -6.709   8.556  69.645  1.00  0.00    -0.040 A  
HETATM   28  C   UNL     1      -7.055   7.526  68.778  1.00  0.00    -0.080 A  
HETATM   29  C   UNL     1      -6.731   7.581  67.422  1.00  0.00    -0.067 A  
HETATM   30  C   UNL     1      -5.781   8.516  67.023  1.00  0.00    -0.042 A  
HETATM   31  O   UNL     1      -7.348   6.706  66.554  1.00  0.00    -0.071 OA 
HETATM   32  C   UNL     1      -8.730   6.329  66.918  1.00  0.00    -0.113 C  
HETATM   33  C   UNL     1      -5.347   9.536  67.904  1.00  0.00    -0.037 A  
HETATM   34  O   UNL     1      -5.187   8.433  65.797  1.00  0.00    -0.030 OA 
HETATM   35  C   UNL     1      -5.878   9.586  69.201  1.00  0.00    -0.035 A  
HETATM   36  H   UNL     1      -4.537   9.071  65.525  1.00  0.00     0.000 HD 
HETATM   37  C   UNL     1      -9.672   6.836  66.040  1.00  0.00     0.216 C  
HETATM   38  C   UNL     1      -9.644   6.283  64.767  1.00  0.00     1.476 C  
HETATM   39  C   UNL     1      -8.052   3.017  63.399  1.00  0.00    -0.084 C  
HETATM   40  C   UNL     1      -8.848   4.947  67.008  1.00  0.00    -0.106 C  
HETATM   41  C   UNL     1      -9.091   4.992  64.663  1.00  0.00    -0.030 C  
HETATM   42  C   UNL     1      -8.950   4.215  65.834  1.00  0.00    -0.126 C  
HETATM   43  C   UNL     1      -8.408   4.520  63.407  1.00  0.00    -0.108 C  
ENDROOT
BRANCH  15  44
HETATM   44  O   UNL     1     -12.281   5.623  72.336  1.00  0.00    -0.156 OA 
HETATM   45  C   UNL     1     -13.217   6.660  72.066  1.00  0.00     0.037 C  
ENDBRANCH  15  44
BRANCH  37  46
HETATM   46  O   UNL     1     -10.846   7.184  66.691  1.00  0.00    -0.233 OA 
HETATM   47  C   UNL     1     -10.779   8.085  67.783  1.00  0.00    -0.104 C  
ENDBRANCH  37  46
TORSDOF 2
ENDMDL
MODEL       34
REMARK 921   NORMALIZED FREE ENERGY PREDICTED BY IDOCK:   -1.34 KCAL/MOL
REMARK 922        TOTAL FREE ENERGY PREDICTED BY IDOCK:   -1.83 KCAL/MOL
REMARK 923 INTER-LIGAND FREE ENERGY PREDICTED BY IDOCK:   -1.52 KCAL/MOL
REMARK 924 INTRA-LIGAND FREE ENERGY PREDICTED BY IDOCK:   -0.31 KCAL/MOL
REMARK 927      BINDING AFFINITY PREDICTED BY RF-SCORE:    0.00 PKD
ROOT
HETATM    1  C   UNL     1      -6.366  13.747  67.621  1.00  0.00    -0.128 C  
HETATM    2  C   UNL     1      -5.480  12.463  67.897  1.00  0.00    -0.087 C  
HETATM    3  C   UNL     1      -6.015  11.372  68.789  1.00  0.00    -0.043 A  
HETATM    4  C   UNL     1      -6.423  11.648  70.088  1.00  0.00     0.029 A  
HETATM    5  C   UNL     1      -7.476  10.922  70.631  1.00  0.00     1.736 A  
HETATM    6  C   UNL     1      -7.992   9.828  69.941  1.00  0.00    -0.175 A  
HETATM    7  C   UNL     1      -7.219   9.284  68.921  1.00  0.00    -0.073 A  
HETATM    8  O   UNL     1      -9.277   9.489  70.290  1.00  0.00    -0.229 OA 
HETATM    9  C   UNL     1      -6.288  10.101  68.277  1.00  0.00    -0.049 A  
HETATM   10  C   UNL     1     -10.112   8.698  69.533  1.00  0.00    -0.203 A  
HETATM   11  C   UNL     1     -11.242   8.222  70.221  1.00  0.00    -0.176 A  
HETATM   12  C   UNL     1     -11.901   7.072  69.746  1.00  0.00     0.030 A  
HETATM   13  C   UNL     1     -12.965   6.393  70.558  1.00  0.00     1.344 C  
HETATM   14  C   UNL     1     -11.517   6.511  68.538  1.00  0.00    -0.008 A  
HETATM   15  C   UNL     1     -10.623   7.171  67.712  1.00  0.00    -0.225 A  
HETATM   16  C   UNL     1     -13.610   7.230  71.651  1.00  0.00    -0.349 C  
HETATM   17  C   UNL     1      -9.983   8.315  68.198  1.00  0.00    -0.191 A  
HETATM   18  C   UNL     1      -6.316  14.967  69.759  1.00  0.00    -0.152 C  
HETATM   19  N   UNL     1     -12.662   8.204  72.354  1.00  0.00    -0.247 N  
HETATM   20  O   UNL     1      -9.320   9.096  67.287  1.00  0.00    -0.131 OA 
HETATM   21  N   UNL     1      -5.897  14.957  68.360  1.00  0.00    -0.098 NA 
HETATM   22  C   UNL     1     -13.508   9.024  73.337  1.00  0.00     1.491 C  
HETATM   23  C   UNL     1     -11.917   9.084  71.296  1.00  0.00    -0.312 C  
HETATM   24  C   UNL     1     -11.580   7.508  73.185  1.00  0.00     0.041 C  
HETATM   25  C   UNL     1     -12.908  10.046  70.563  1.00  0.00    -0.178 C  
HETATM   26  H   UNL     1      -9.233   8.835  66.378  1.00  0.00     0.000 HD 
HETATM   27  C   UNL     1     -12.651  11.504  70.811  1.00  0.00    -0.390 A  
HETATM   28  C   UNL     1     -11.523  12.064  70.224  1.00  0.00     0.023 A  
HETATM   29  C   UNL     1     -11.383  13.446  70.097  1.00  0.00     0.144 A  
HETATM   30  C   UNL     1     -12.227  14.253  70.854  1.00  0.00    -0.355 A  
HETATM   31  O   UNL     1     -10.415  13.942  69.250  1.00  0.00    -0.126 OA 
HETATM   32  C   UNL     1     -10.130  13.108  68.063  1.00  0.00    -0.232 C  
HETATM   33  C   UNL     1     -13.346  13.707  71.529  1.00  0.00    -0.372 A  
HETATM   34  O   UNL     1     -11.961  15.580  71.026  1.00  0.00    -0.312 OA 
HETATM   35  C   UNL     1     -13.588  12.327  71.440  1.00  0.00     0.415 A  
HETATM   36  H   UNL     1     -12.538  16.130  71.544  1.00  0.00     0.000 HD 
HETATM   37  C   UNL     1     -10.539  13.701  66.882  1.00  0.00    -0.271 C  
HETATM   38  C   UNL     1      -9.816  14.827  66.511  1.00  0.00    -0.287 C  
HETATM   39  C   UNL     1      -6.351  16.165  67.639  1.00  0.00    -0.156 C  
HETATM   40  C   UNL     1      -8.777  12.795  68.004  1.00  0.00    -0.194 C  
HETATM   41  C   UNL     1      -8.509  14.922  67.024  1.00  0.00    -0.260 C  
HETATM   42  C   UNL     1      -7.895  13.762  67.545  1.00  0.00    -0.189 C  
HETATM   43  C   UNL     1      -7.850  16.252  67.278  1.00  0.00    -0.203 C  
ENDROOT
BRANCH  15  44
HETATM   44  O   UNL     1     -10.271   6.798  66.442  1.00  0.00    -0.095 OA 
HETATM   45  C   UNL     1     -10.767   5.542  65.994  1.00  0.00     0.071 C  
ENDBRANCH  15  44
BRANCH  37  46
HETATM   46  O   UNL     1     -11.006  12.765  65.971  1.00  0.00    -0.271 OA 
HETATM   47  C   UNL     1     -12.391  12.469  65.948  1.00  0.00    -0.080 C  
ENDBRANCH  37  46
TORSDOF 2
ENDMDL
MODEL       35
REMARK 921   NORMALIZED FREE ENERGY PREDICTED BY IDOCK:   -1.17 KCAL/MOL
REMARK 922        TOTAL FREE ENERGY PREDICTED BY IDOCK:   -1.65 KCAL/MOL
REMARK 923 INTER-LIGAND FREE ENERGY PREDICTED BY IDOCK:   -1.32 KCAL/MOL
REMARK 924 INTRA-LIGAND FREE ENERGY PREDICTED BY IDOCK:   -0.33 KCAL/MOL
REMARK 927      BINDING AFFINITY PREDICTED BY RF-SCORE:    0.00 PKD
ROOT
HETATM    1  C   UNL     1      -6.162   7.238  67.165  1.00  0.00    -0.046 C  
HETATM    2  C   UNL     1      -5.708   7.328  68.680  1.00  0.00    -0.022 C  
HETATM    3  C   UNL     1      -6.306   8.386  69.572  1.00  0.00    -0.037 A  
HETATM    4  C   UNL     1      -6.229   9.731  69.233  1.00  0.00    -0.036 A  
HETATM    5  C   UNL     1      -7.271  10.577  69.593  1.00  0.00    -0.148 A  
HETATM    6  C   UNL     1      -8.286  10.111  70.425  1.00  0.00     0.382 A  
HETATM    7  C   UNL     1      -8.045   8.948  71.148  1.00  0.00    -0.201 A  
HETATM    8  O   UNL     1      -9.463  10.814  70.335  1.00  0.00     0.926 OA 
HETATM    9  C   UNL     1      -7.111   8.034  70.657  1.00  0.00    -0.045 A  
HETATM   10  C   UNL     1     -10.685  10.353  70.773  1.00  0.00     0.235 A  
HETATM   11  C   UNL     1     -11.675  11.347  70.878  1.00  0.00     0.087 A  
HETATM   12  C   UNL     1     -12.779  11.128  71.725  1.00  0.00    -0.396 A  
HETATM   13  C   UNL     1     -13.742  12.233  72.049  1.00  0.00    -0.147 C  
HETATM   14  C   UNL     1     -12.947   9.892  72.328  1.00  0.00    -0.387 A  
HETATM   15  C   UNL     1     -12.148   8.821  71.965  1.00  0.00    -0.377 A  
HETATM   16  C   UNL     1     -13.751  13.416  71.094  1.00  0.00     0.329 C  
HETATM   17  C   UNL     1     -11.060   9.055  71.118  1.00  0.00    -0.301 A  
HETATM   18  C   UNL     1      -5.130   9.216  66.124  1.00  0.00    -0.036 C  
HETATM   19  N   UNL     1     -12.381  13.784  70.518  1.00  0.00    -0.349 N  
HETATM   20  O   UNL     1     -10.453   7.960  70.562  1.00  0.00    -0.208 OA 
HETATM   21  N   UNL     1      -5.139   7.758  66.211  1.00  0.00    -0.024 NA 
HETATM   22  C   UNL     1     -12.608  14.917  69.509  1.00  0.00     0.007 C  
HETATM   23  C   UNL     1     -11.708  12.519  69.889  1.00  0.00    -0.255 C  
HETATM   24  C   UNL     1     -11.404  14.323  71.568  1.00  0.00     0.814 C  
HETATM   25  C   UNL     1     -12.488  12.035  68.623  1.00  0.00     0.619 C  
HETATM   26  H   UNL     1     -10.709   7.075  70.797  1.00  0.00     0.000 HD 
HETATM   27  C   UNL     1     -11.708  12.129  67.344  1.00  0.00    -0.374 A  
HETATM   28  C   UNL     1     -10.665  11.229  67.163  1.00  0.00    -0.297 A  
HETATM   29  C   UNL     1     -10.119  10.998  65.900  1.00  0.00    -0.249 A  
HETATM   30  C   UNL     1     -10.409  11.913  64.894  1.00  0.00    -0.286 A  
HETATM   31  O   UNL     1      -9.313   9.895  65.715  1.00  0.00    -0.173 OA 
HETATM   32  C   UNL     1      -9.654   8.720  66.545  1.00  0.00    -0.237 C  
HETATM   33  C   UNL     1     -11.415  12.894  65.068  1.00  0.00    -0.350 A  
HETATM   34  O   UNL     1      -9.685  11.939  63.737  1.00  0.00    -0.464 OA 
HETATM   35  C   UNL     1     -12.112  12.945  66.285  1.00  0.00    -0.433 A  
HETATM   36  H   UNL     1      -9.884  12.564  63.050  1.00  0.00     0.000 HD 
HETATM   37  C   UNL     1     -10.151   7.665  65.799  1.00  0.00     1.089 C  
HETATM   38  C   UNL     1      -9.229   7.055  64.960  1.00  0.00     0.823 C  
HETATM   39  C   UNL     1      -5.348   7.127  64.891  1.00  0.00    -0.028 C  
HETATM   40  C   UNL     1      -8.550   8.311  67.284  1.00  0.00    -0.124 C  
HETATM   41  C   UNL     1      -7.875   7.187  65.324  1.00  0.00    -0.121 C  
HETATM   42  C   UNL     1      -7.560   7.580  66.643  1.00  0.00    -0.097 C  
HETATM   43  C   UNL     1      -6.773   7.184  64.298  1.00  0.00    -0.043 C  
ENDROOT
BRANCH  15  44
HETATM   44  O   UNL     1     -12.300   7.524  72.378  1.00  0.00    -0.206 OA 
HETATM   45  C   UNL     1     -13.567   6.927  72.128  1.00  0.00     0.101 C  
ENDBRANCH  15  44
BRANCH  37  46
HETATM   46  O   UNL     1     -11.130   6.966  66.489  1.00  0.00    -0.035 OA 
HETATM   47  C   UNL     1     -10.867   5.628  66.876  1.00  0.00    -0.202 C  
ENDBRANCH  37  46
TORSDOF 2
ENDMDL
MODEL       36
REMARK 921   NORMALIZED FREE ENERGY PREDICTED BY IDOCK:   -1.08 KCAL/MOL
REMARK 922        TOTAL FREE ENERGY PREDICTED BY IDOCK:   -1.55 KCAL/MOL
REMARK 923 INTER-LIGAND FREE ENERGY PREDICTED BY IDOCK:   -1.67 KCAL/MOL
REMARK 924 INTRA-LIGAND FREE ENERGY PREDICTED BY IDOCK:    0.12 KCAL/MOL
REMARK 927      BINDING AFFINITY PREDICTED BY RF-SCORE:    0.00 PKD
ROOT
HETATM    1  C   UNL     1     -10.332   9.596  69.280  1.00  0.00    -0.209 C  
HETATM    2  C   UNL     1     -11.820  10.098  69.066  1.00  0.00     0.107 C  
HETATM    3  C   UNL     1     -12.121  11.573  69.135  1.00  0.00    -0.329 A  
HETATM    4  C   UNL     1     -11.791  12.317  70.262  1.00  0.00    -0.324 A  
HETATM    5  C   UNL     1     -11.420  13.647  70.105  1.00  0.00    -0.111 A  
HETATM    6  C   UNL     1     -11.544  14.259  68.860  1.00  0.00    -0.305 A  
HETATM    7  C   UNL     1     -12.356  13.642  67.915  1.00  0.00     0.008 A  
HETATM    8  O   UNL     1     -10.738  15.359  68.685  1.00  0.00    -0.232 OA 
HETATM    9  C   UNL     1     -12.564  12.266  68.006  1.00  0.00     1.399 A  
HETATM   10  C   UNL     1     -10.421  15.910  67.463  1.00  0.00    -0.298 A  
HETATM   11  C   UNL     1      -9.862  17.198  67.536  1.00  0.00    -0.266 A  
HETATM   12  C   UNL     1      -9.928  18.040  66.408  1.00  0.00    -0.362 A  
HETATM   13  C   UNL     1      -9.554  19.491  66.497  1.00  0.00    -0.462 C  
HETATM   14  C   UNL     1     -10.412  17.543  65.208  1.00  0.00     0.191 A  
HETATM   15  C   UNL     1     -10.657  16.188  65.060  1.00  0.00    -0.276 A  
HETATM   16  C   UNL     1      -8.686  19.887  67.680  1.00  0.00    -0.334 C  
HETATM   17  C   UNL     1     -10.581  15.367  66.188  1.00  0.00    -0.316 A  
HETATM   18  C   UNL     1      -9.937   9.936  71.687  1.00  0.00     1.535 C  
HETATM   19  N   UNL     1      -8.983  19.128  68.975  1.00  0.00    -0.275 N  
HETATM   20  O   UNL     1     -10.560  14.013  65.977  1.00  0.00    -0.286 OA 
HETATM   21  N   UNL     1     -10.111   8.961  70.612  1.00  0.00    -0.198 NA 
HETATM   22  C   UNL     1      -7.948  19.585  70.011  1.00  0.00     0.803 C  
HETATM   23  C   UNL     1      -8.953  17.586  68.709  1.00  0.00    -0.211 C  
HETATM   24  C   UNL     1     -10.361  19.444  69.564  1.00  0.00     0.351 C  
HETATM   25  C   UNL     1      -7.509  17.101  68.356  1.00  0.00    -0.227 C  
HETATM   26  H   UNL     1     -10.668  13.642  65.108  1.00  0.00     0.000 HD 
HETATM   27  C   UNL     1      -6.913  16.154  69.357  1.00  0.00    -0.220 A  
HETATM   28  C   UNL     1      -7.435  14.868  69.411  1.00  0.00    -0.174 A  
HETATM   29  C   UNL     1      -6.742  13.830  70.034  1.00  0.00     0.131 A  
HETATM   30  C   UNL     1      -5.688  14.172  70.876  1.00  0.00    -0.202 A  
HETATM   31  O   UNL     1      -7.138  12.531  69.802  1.00  0.00     0.238 OA 
HETATM   32  C   UNL     1      -7.701  12.275  68.459  1.00  0.00    -0.118 C  
HETATM   33  C   UNL     1      -5.177  15.492  70.905  1.00  0.00    -0.142 A  
HETATM   34  O   UNL     1      -5.165  13.264  71.750  1.00  0.00    -0.197 OA 
HETATM   35  C   UNL     1      -5.760  16.466  70.080  1.00  0.00    -0.198 A  
HETATM   36  H   UNL     1      -4.446  13.498  72.326  1.00  0.00     0.000 HD 
HETATM   37  C   UNL     1      -6.885  11.472  67.681  1.00  0.00    -0.083 C  
HETATM   38  C   UNL     1      -6.781  10.155  68.107  1.00  0.00    -0.062 C  
HETATM   39  C   UNL     1      -8.963   8.034  70.518  1.00  0.00    -0.152 C  
HETATM   40  C   UNL     1      -8.970  11.717  68.564  1.00  0.00    -0.138 C  
HETATM   41  C   UNL     1      -7.850   9.667  68.883  1.00  0.00    -0.081 C  
HETATM   42  C   UNL     1      -9.075  10.368  68.872  1.00  0.00    -0.175 C  
HETATM   43  C   UNL     1      -7.653   8.590  69.916  1.00  0.00    -0.071 C  
ENDROOT
BRANCH  15  44
HETATM   44  O   UNL     1     -11.001  15.553  63.896  1.00  0.00     0.356 OA 
HETATM   45  C   UNL     1     -12.264  14.898  63.884  1.00  0.00     0.048 C  
ENDBRANCH  15  44
BRANCH  37  46
HETATM   46  O   UNL     1      -6.931  11.837  66.344  1.00  0.00     0.032 OA 
HETATM   47  C   UNL     1      -7.383  10.887  65.393  1.00  0.00     0.162 C  
ENDBRANCH  37  46
TORSDOF 2
ENDMDL
MODEL       37
REMARK 921   NORMALIZED FREE ENERGY PREDICTED BY IDOCK:   -0.99 KCAL/MOL
REMARK 922        TOTAL FREE ENERGY PREDICTED BY IDOCK:   -1.45 KCAL/MOL
REMARK 923 INTER-LIGAND FREE ENERGY PREDICTED BY IDOCK:   -2.40 KCAL/MOL
REMARK 924 INTRA-LIGAND FREE ENERGY PREDICTED BY IDOCK:    0.95 KCAL/MOL
REMARK 927      BINDING AFFINITY PREDICTED BY RF-SCORE:    0.00 PKD
ROOT
HETATM    1  C   UNL     1      -8.624   9.599  68.042  1.00  0.00    -0.119 C  
HETATM    2  C   UNL     1      -7.044   9.578  68.168  1.00  0.00    -0.079 C  
HETATM    3  C   UNL     1      -6.251  10.785  67.737  1.00  0.00    -0.047 A  
HETATM    4  C   UNL     1      -6.368  11.294  66.450  1.00  0.00    -0.091 A  
HETATM    5  C   UNL     1      -6.241  12.664  66.253  1.00  0.00     2.257 A  
HETATM    6  C   UNL     1      -5.834  13.480  67.306  1.00  0.00     0.372 A  
HETATM    7  C   UNL     1      -5.232  12.870  68.401  1.00  0.00    -0.068 A  
HETATM    8  O   UNL     1      -6.192  14.800  67.173  1.00  0.00    -0.236 OA 
HETATM    9  C   UNL     1      -5.525  11.532  68.668  1.00  0.00    -0.042 A  
HETATM   10  C   UNL     1      -6.219  15.712  68.205  1.00  0.00    -0.127 A  
HETATM   11  C   UNL     1      -6.296  17.053  67.791  1.00  0.00    -0.157 A  
HETATM   12  C   UNL     1      -5.870  18.068  68.671  1.00  0.00    -0.189 A  
HETATM   13  C   UNL     1      -5.717  19.487  68.206  1.00  0.00    -0.222 C  
HETATM   14  C   UNL     1      -5.517  17.745  69.971  1.00  0.00    -0.238 A  
HETATM   15  C   UNL     1      -5.753  16.473  70.465  1.00  0.00    -0.046 A  
HETATM   16  C   UNL     1      -6.463  19.860  66.934  1.00  0.00    -0.195 C  
HETATM   17  C   UNL     1      -6.181  15.480  69.580  1.00  0.00    -0.145 A  
HETATM   18  C   UNL     1      -9.023   9.450  65.617  1.00  0.00    -0.193 C  
HETATM   19  N   UNL     1      -6.531  18.749  65.884  1.00  0.00    -0.216 N  
HETATM   20  O   UNL     1      -6.662  14.319  70.126  1.00  0.00    -0.338 OA 
HETATM   21  N   UNL     1      -9.135   8.775  66.908  1.00  0.00    -0.134 NA 
HETATM   22  C   UNL     1      -7.403  19.271  64.734  1.00  0.00     1.294 C  
HETATM   23  C   UNL     1      -7.083  17.435  66.530  1.00  0.00    -0.265 C  
HETATM   24  C   UNL     1      -5.169  18.401  65.277  1.00  0.00    -0.171 C  
HETATM   25  C   UNL     1      -8.580  17.596  66.950  1.00  0.00    -0.260 C  
HETATM   26  H   UNL     1      -6.636  14.161  71.063  1.00  0.00     0.000 HD 
HETATM   27  C   UNL     1      -9.530  16.705  66.203  1.00  0.00    -0.319 A  
HETATM   28  C   UNL     1      -9.495  15.347  66.493  1.00  0.00    -0.298 A  
HETATM   29  C   UNL     1     -10.545  14.502  66.131  1.00  0.00    -0.306 A  
HETATM   30  C   UNL     1     -11.462  14.975  65.198  1.00  0.00    -0.339 A  
HETATM   31  O   UNL     1     -10.615  13.247  66.697  1.00  0.00    -0.277 OA 
HETATM   32  C   UNL     1     -10.095  13.149  68.077  1.00  0.00    -0.232 C  
HETATM   33  C   UNL     1     -11.480  16.340  64.820  1.00  0.00    -0.121 A  
HETATM   34  O   UNL     1     -12.323  14.125  64.566  1.00  0.00    -0.532 OA 
HETATM   35  C   UNL     1     -10.544  17.216  65.390  1.00  0.00    -0.116 A  
HETATM   36  H   UNL     1     -12.948  14.448  63.928  1.00  0.00     0.000 HD 
HETATM   37  C   UNL     1     -11.090  12.906  69.007  1.00  0.00    -0.233 C  
HETATM   38  C   UNL     1     -11.675  11.650  68.926  1.00  0.00    -0.397 C  
HETATM   39  C   UNL     1     -10.527   8.368  67.199  1.00  0.00    -0.310 C  
HETATM   40  C   UNL     1      -9.111  12.171  68.157  1.00  0.00    -0.196 C  
HETATM   41  C   UNL     1     -10.895  10.640  68.332  1.00  0.00    -0.282 C  
HETATM   42  C   UNL     1      -9.503  10.841  68.203  1.00  0.00    -0.161 C  
HETATM   43  C   UNL     1     -11.519   9.482  67.599  1.00  0.00     0.863 C  
ENDROOT
BRANCH  15  44
HETATM   44  O   UNL     1      -5.582  16.067  71.762  1.00  0.00     0.336 OA 
HETATM   45  C   UNL     1      -5.218  14.705  71.953  1.00  0.00    -0.131 C  
ENDBRANCH  15  44
BRANCH  37  46
HETATM   46  O   UNL     1     -10.838  13.550  70.210  1.00  0.00     0.533 OA 
HETATM   47  C   UNL     1     -11.907  14.203  70.872  1.00  0.00    -0.223 C  
ENDBRANCH  37  46
TORSDOF 2
ENDMDL
MODEL       38
REMARK 921   NORMALIZED FREE ENERGY PREDICTED BY IDOCK:   -0.95 KCAL/MOL
REMARK 922        TOTAL FREE ENERGY PREDICTED BY IDOCK:   -1.40 KCAL/MOL
REMARK 923 INTER-LIGAND FREE ENERGY PREDICTED BY IDOCK:   -1.08 KCAL/MOL
REMARK 924 INTRA-LIGAND FREE ENERGY PREDICTED BY IDOCK:   -0.33 KCAL/MOL
REMARK 927      BINDING AFFINITY PREDICTED BY RF-SCORE:    0.00 PKD
ROOT
HETATM    1  C   UNL     1      -8.567   5.806  66.889  1.00  0.00    -0.111 C  
HETATM    2  C   UNL     1      -6.984   5.749  66.956  1.00  0.00    -0.065 C  
HETATM    3  C   UNL     1      -6.200   7.035  67.022  1.00  0.00    -0.041 A  
HETATM    4  C   UNL     1      -6.349   8.013  66.046  1.00  0.00    -0.046 A  
HETATM    5  C   UNL     1      -6.223   9.349  66.407  1.00  0.00    -0.064 A  
HETATM    6  C   UNL     1      -5.787   9.682  67.687  1.00  0.00    -0.044 A  
HETATM    7  C   UNL     1      -5.158   8.692  68.434  1.00  0.00    -0.034 A  
HETATM    8  O   UNL     1      -6.144  10.944  68.099  1.00  0.00    -0.049 OA 
HETATM    9  C   UNL     1      -5.447   7.356  68.154  1.00  0.00    -0.026 A  
HETATM   10  C   UNL     1      -6.142  11.369  69.409  1.00  0.00    -0.078 A  
HETATM   11  C   UNL     1      -6.226  12.764  69.565  1.00  0.00    -0.120 A  
HETATM   12  C   UNL     1      -5.775  13.349  70.764  1.00  0.00    -0.184 A  
HETATM   13  C   UNL     1      -5.630  14.837  70.899  1.00  0.00    -0.140 C  
HETATM   14  C   UNL     1      -5.389  12.538  71.820  1.00  0.00     0.117 A  
HETATM   15  C   UNL     1      -5.615  11.173  71.773  1.00  0.00     0.458 A  
HETATM   16  C   UNL     1      -6.408  15.678  69.899  1.00  0.00    -0.150 C  
HETATM   17  C   UNL     1      -6.069  10.611  70.577  1.00  0.00    -0.113 A  
HETATM   18  C   UNL     1      -9.029   6.631  64.615  1.00  0.00     0.705 C  
HETATM   19  N   UNL     1      -6.507  15.077  68.496  1.00  0.00    -0.090 N  
HETATM   20  O   UNL     1      -6.538   9.324  70.628  1.00  0.00    -0.060 OA 
HETATM   21  N   UNL     1      -9.110   5.497  65.533  1.00  0.00    -0.132 NA 
HETATM   22  C   UNL     1      -7.407  16.006  67.671  1.00  0.00    -0.151 C  
HETATM   23  C   UNL     1      -7.044  13.609  68.580  1.00  0.00    -0.107 C  
HETATM   24  C   UNL     1      -5.162  15.009  67.766  1.00  0.00    -0.032 C  
HETATM   25  C   UNL     1      -8.530  13.578  69.067  1.00  0.00     0.332 C  
HETATM   26  H   UNL     1      -6.489   8.807  71.424  1.00  0.00     0.000 HD 
HETATM   27  C   UNL     1      -9.502  13.051  68.051  1.00  0.00    -0.217 A  
HETATM   28  C   UNL     1      -9.463  11.689  67.776  1.00  0.00    -0.178 A  
HETATM   29  C   UNL     1     -10.524  11.050  67.135  1.00  0.00    -0.232 A  
HETATM   30  C   UNL     1     -11.464  11.848  66.489  1.00  0.00    -0.314 A  
HETATM   31  O   UNL     1     -10.582   9.673  67.156  1.00  0.00    -0.256 OA 
HETATM   32  C   UNL     1     -10.027   9.038  68.370  1.00  0.00    -0.180 C  
HETATM   33  C   UNL     1     -11.488  13.250  66.686  1.00  0.00    -0.384 A  
HETATM   34  O   UNL     1     -12.343  11.312  65.594  1.00  0.00     0.801 OA 
HETATM   35  C   UNL     1     -10.535  13.834  67.534  1.00  0.00    -0.245 A  
HETATM   36  H   UNL     1     -12.984  11.857  65.153  1.00  0.00     0.000 HD 
HETATM   37  C   UNL     1     -10.998   8.437  69.151  1.00  0.00     0.085 C  
HETATM   38  C   UNL     1     -11.588   7.313  68.592  1.00  0.00     0.724 C  
HETATM   39  C   UNL     1     -10.495   4.998  65.673  1.00  0.00    -0.043 C  
HETATM   40  C   UNL     1      -9.044   8.117  68.029  1.00  0.00    -0.134 C  
HETATM   41  C   UNL     1     -10.827   6.628  67.626  1.00  0.00    -0.393 C  
HETATM   42  C   UNL     1      -9.438   6.875  67.552  1.00  0.00    -0.143 C  
HETATM   43  C   UNL     1     -11.473   5.852  66.509  1.00  0.00     0.678 C  
ENDROOT
BRANCH  15  44
HETATM   44  O   UNL     1      -5.412  10.286  72.797  1.00  0.00    -0.311 OA 
HETATM   45  C   UNL     1      -5.405  10.831  74.111  1.00  0.00     0.475 C  
ENDBRANCH  15  44
BRANCH  37  46
HETATM   46  O   UNL     1     -10.712   8.552  70.504  1.00  0.00    -0.211 OA 
HETATM   47  C   UNL     1     -11.219   9.667  71.216  1.00  0.00    -0.376 C  
ENDBRANCH  37  46
TORSDOF 2
ENDMDL
MODEL       39
REMARK 921   NORMALIZED FREE ENERGY PREDICTED BY IDOCK:   -0.77 KCAL/MOL
REMARK 922        TOTAL FREE ENERGY PREDICTED BY IDOCK:   -1.20 KCAL/MOL
REMARK 923 INTER-LIGAND FREE ENERGY PREDICTED BY IDOCK:   -1.23 KCAL/MOL
REMARK 924 INTRA-LIGAND FREE ENERGY PREDICTED BY IDOCK:    0.03 KCAL/MOL
REMARK 927      BINDING AFFINITY PREDICTED BY RF-SCORE:    0.00 PKD
ROOT
HETATM    1  C   UNL     1     -10.213   4.953  69.536  1.00  0.00    -0.177 C  
HETATM    2  C   UNL     1     -11.126   5.735  68.504  1.00  0.00    -0.038 C  
HETATM    3  C   UNL     1     -10.988   7.231  68.380  1.00  0.00    -0.028 A  
HETATM    4  C   UNL     1     -11.141   8.057  69.487  1.00  0.00     0.026 A  
HETATM    5  C   UNL     1     -10.391   9.224  69.565  1.00  0.00    -0.223 A  
HETATM    6  C   UNL     1      -9.632   9.634  68.471  1.00  0.00    -0.145 A  
HETATM    7  C   UNL     1      -9.925   9.070  67.234  1.00  0.00    -0.275 A  
HETATM    8  O   UNL     1      -8.594  10.479  68.784  1.00  0.00    -0.130 OA 
HETATM    9  C   UNL     1     -10.523   7.810  67.197  1.00  0.00    -0.413 A  
HETATM   10  C   UNL     1      -7.519  10.735  67.962  1.00  0.00    -0.090 A  
HETATM   11  C   UNL     1      -6.759  11.858  68.335  1.00  0.00    -0.067 A  
HETATM   12  C   UNL     1      -5.956  12.495  67.369  1.00  0.00    -0.147 A  
HETATM   13  C   UNL     1      -5.305  13.819  67.649  1.00  0.00     0.044 C  
HETATM   14  C   UNL     1      -5.816  11.930  66.112  1.00  0.00     0.758 A  
HETATM   15  C   UNL     1      -6.306  10.660  65.857  1.00  0.00    -0.128 A  
HETATM   16  C   UNL     1      -5.161  14.199  69.114  1.00  0.00    -0.077 C  
HETATM   17  C   UNL     1      -7.096  10.040  66.830  1.00  0.00    -0.091 A  
HETATM   18  C   UNL     1     -11.130   5.587  71.732  1.00  0.00    -0.145 C  
HETATM   19  N   UNL     1      -6.319  13.750  70.008  1.00  0.00    -0.117 N  
HETATM   20  O   UNL     1      -7.341   8.700  66.676  1.00  0.00    -0.080 OA 
HETATM   21  N   UNL     1     -10.949   4.513  70.758  1.00  0.00     0.842 NA 
HETATM   22  C   UNL     1      -5.947  14.126  71.448  1.00  0.00    -0.112 C  
HETATM   23  C   UNL     1      -6.581  12.218  69.816  1.00  0.00     0.032 C  
HETATM   24  C   UNL     1      -7.640  14.461  69.697  1.00  0.00     0.161 C  
HETATM   25  C   UNL     1      -5.385  11.369  70.358  1.00  0.00    -0.113 C  
HETATM   26  H   UNL     1      -7.053   8.226  65.905  1.00  0.00     0.000 HD 
HETATM   27  C   UNL     1      -5.731  10.491  71.525  1.00  0.00     0.198 A  
HETATM   28  C   UNL     1      -6.531   9.382  71.277  1.00  0.00    -0.037 A  
HETATM   29  C   UNL     1      -6.618   8.332  72.191  1.00  0.00    -0.075 A  
HETATM   30  C   UNL     1      -6.157   8.561  73.483  1.00  0.00    -0.118 A  
HETATM   31  O   UNL     1      -7.166   7.136  71.781  1.00  0.00    -0.074 OA 
HETATM   32  C   UNL     1      -6.942   6.795  70.360  1.00  0.00    -0.063 C  
HETATM   33  C   UNL     1      -5.401   9.718  73.793  1.00  0.00     0.047 A  
HETATM   34  O   UNL     1      -6.479   7.716  74.504  1.00  0.00    -0.091 OA 
HETATM   35  C   UNL     1      -5.134  10.648  72.777  1.00  0.00     0.228 A  
HETATM   36  H   UNL     1      -6.164   7.873  75.387  1.00  0.00     0.000 HD 
HETATM   37  C   UNL     1      -6.097   5.712  70.195  1.00  0.00    -0.026 C  
HETATM   38  C   UNL     1      -6.617   4.495  70.611  1.00  0.00    -0.035 C  
HETATM   39  C   UNL     1     -10.252   3.348  71.345  1.00  0.00     0.216 C  
HETATM   40  C   UNL     1      -8.154   6.563  69.720  1.00  0.00    -0.125 C  
HETATM   41  C   UNL     1      -8.021   4.395  70.636  1.00  0.00    -0.060 C  
HETATM   42  C   UNL     1      -8.783   5.343  69.919  1.00  0.00    -0.128 C  
HETATM   43  C   UNL     1      -8.735   3.487  71.601  1.00  0.00    -0.124 C  
ENDROOT
BRANCH  15  44
HETATM   44  O   UNL     1      -6.114   9.936  64.711  1.00  0.00    -0.086 OA 
HETATM   45  C   UNL     1      -7.224   9.852  63.824  1.00  0.00    -0.125 C  
ENDBRANCH  15  44
BRANCH  37  46
HETATM   46  O   UNL     1      -5.295   5.852  69.072  1.00  0.00    -0.004 OA 
HETATM   47  C   UNL     1      -5.684   5.205  67.872  1.00  0.00    -0.017 C  
ENDBRANCH  37  46
TORSDOF 2
ENDMDL
MODEL       40
REMARK 921   NORMALIZED FREE ENERGY PREDICTED BY IDOCK:    0.02 KCAL/MOL
REMARK 922        TOTAL FREE ENERGY PREDICTED BY IDOCK:   -0.32 KCAL/MOL
REMARK 923 INTER-LIGAND FREE ENERGY PREDICTED BY IDOCK:    0.01 KCAL/MOL
REMARK 924 INTRA-LIGAND FREE ENERGY PREDICTED BY IDOCK:   -0.32 KCAL/MOL
REMARK 927      BINDING AFFINITY PREDICTED BY RF-SCORE:    0.00 PKD
ROOT
HETATM    1  C   UNL     1      -8.274   5.412  73.911  1.00  0.00    -0.111 C  
HETATM    2  C   UNL     1      -6.718   5.689  74.023  1.00  0.00    -0.080 C  
HETATM    3  C   UNL     1      -5.970   6.210  72.822  1.00  0.00    -0.038 A  
HETATM    4  C   UNL     1      -5.992   5.523  71.614  1.00  0.00    -0.029 A  
HETATM    5  C   UNL     1      -5.940   6.245  70.428  1.00  0.00    -0.026 A  
HETATM    6  C   UNL     1      -5.699   7.616  70.461  1.00  0.00    -0.026 A  
HETATM    7  C   UNL     1      -5.170   8.151  71.631  1.00  0.00    -0.034 A  
HETATM    8  O   UNL     1      -6.132   8.297  69.349  1.00  0.00    -0.036 OA 
HETATM    9  C   UNL     1      -5.396   7.483  72.835  1.00  0.00    -0.037 A  
HETATM   10  C   UNL     1      -6.327   9.659  69.291  1.00  0.00    -0.044 A  
HETATM   11  C   UNL     1      -6.453  10.172  67.988  1.00  0.00    -0.058 A  
HETATM   12  C   UNL     1      -6.190  11.536  67.758  1.00  0.00    -0.052 A  
HETATM   13  C   UNL     1      -6.089  12.086  66.365  1.00  0.00     0.564 C  
HETATM   14  C   UNL     1      -5.949  12.379  68.832  1.00  0.00    -0.070 A  
HETATM   15  C   UNL     1      -6.145  11.934  70.128  1.00  0.00    -0.137 A  
HETATM   16  C   UNL     1      -6.727  11.249  65.267  1.00  0.00     0.789 C  
HETATM   17  C   UNL     1      -6.412  10.578  70.337  1.00  0.00    -0.117 A  
HETATM   18  C   UNL     1      -8.414   3.403  72.495  1.00  0.00    -0.084 C  
HETATM   19  N   UNL     1      -6.611   9.736  65.467  1.00  0.00    -0.080 N  
HETATM   20  O   UNL     1      -6.864  10.212  71.578  1.00  0.00    -0.002 OA 
HETATM   21  N   UNL     1      -8.610   3.960  73.831  1.00  0.00    -0.093 NA 
HETATM   22  C   UNL     1      -7.396   9.072  64.328  1.00  0.00    -0.103 C  
HETATM   23  C   UNL     1      -7.133   9.343  66.889  1.00  0.00    -0.086 C  
HETATM   24  C   UNL     1      -5.174   9.217  65.369  1.00  0.00    -0.036 C  
HETATM   25  C   UNL     1      -8.673   9.585  67.014  1.00  0.00    -0.135 C  
HETATM   26  H   UNL     1      -6.923  10.838  72.291  1.00  0.00     0.000 HD 
HETATM   27  C   UNL     1      -9.478   8.336  67.225  1.00  0.00    -0.193 A  
HETATM   28  C   UNL     1      -9.379   7.712  68.462  1.00  0.00    -0.147 A  
HETATM   29  C   UNL     1     -10.327   6.777  68.880  1.00  0.00    -0.192 A  
HETATM   30  C   UNL     1     -11.175   6.242  67.915  1.00  0.00    -0.106 A  
HETATM   31  O   UNL     1     -10.366   6.418  70.210  1.00  0.00    -0.192 OA 
HETATM   32  C   UNL     1      -9.983   7.483  71.161  1.00  0.00    -0.180 C  
HETATM   33  C   UNL     1     -11.249   6.804  66.618  1.00  0.00     0.253 A  
HETATM   34  O   UNL     1     -11.906   5.119  68.168  1.00  0.00     2.742 OA 
HETATM   35  C   UNL     1     -10.438   7.906  66.306  1.00  0.00     0.491 A  
HETATM   36  H   UNL     1     -12.485   4.754  67.509  1.00  0.00     0.000 HD 
HETATM   37  C   UNL     1     -11.048   7.926  71.926  1.00  0.00    -0.267 C  
HETATM   38  C   UNL     1     -11.533   7.005  72.844  1.00  0.00    -0.162 C  
HETATM   39  C   UNL     1      -9.992   3.760  74.316  1.00  0.00    -0.136 C  
HETATM   40  C   UNL     1      -8.947   7.052  71.981  1.00  0.00    -0.138 C  
HETATM   41  C   UNL     1     -10.629   6.010  73.262  1.00  0.00    -0.276 C  
HETATM   42  C   UNL     1      -9.249   6.206  73.038  1.00  0.00    -0.133 C  
HETATM   43  C   UNL     1     -11.095   4.644  73.693  1.00  0.00    -0.379 C  
ENDROOT
BRANCH  15  44
HETATM   44  O   UNL     1      -6.079  12.699  71.262  1.00  0.00    -0.112 OA 
HETATM   45  C   UNL     1      -5.368  13.926  71.154  1.00  0.00    -0.175 C  
ENDBRANCH  15  44
BRANCH  37  46
HETATM   46  O   UNL     1     -10.964   9.285  72.186  1.00  0.00    -0.228 OA 
HETATM   47  C   UNL     1     -11.550  10.193  71.269  1.00  0.00    -0.306 C  
ENDBRANCH  37  46
TORSDOF 2
ENDMDL
MODEL       41
REMARK 921   NORMALIZED FREE ENERGY PREDICTED BY IDOCK:    0.28 KCAL/MOL
REMARK 922        TOTAL FREE ENERGY PREDICTED BY IDOCK:   -0.03 KCAL/MOL
REMARK 923 INTER-LIGAND FREE ENERGY PREDICTED BY IDOCK:    0.29 KCAL/MOL
REMARK 924 INTRA-LIGAND FREE ENERGY PREDICTED BY IDOCK:   -0.32 KCAL/MOL
REMARK 927      BINDING AFFINITY PREDICTED BY RF-SCORE:    0.00 PKD
ROOT
HETATM    1  C   UNL     1      -7.003   9.001  68.287  1.00  0.00    -0.076 C  
HETATM    2  C   UNL     1      -5.981   9.919  69.078  1.00  0.00    -0.034 C  
HETATM    3  C   UNL     1      -6.005  11.410  68.861  1.00  0.00    -0.048 A  
HETATM    4  C   UNL     1      -5.855  11.949  67.589  1.00  0.00    -0.083 A  
HETATM    5  C   UNL     1      -6.524  13.126  67.274  1.00  0.00     0.065 A  
HETATM    6  C   UNL     1      -7.190  13.833  68.272  1.00  0.00    -0.114 A  
HETATM    7  C   UNL     1      -6.871  13.540  69.594  1.00  0.00     0.107 A  
HETATM    8  O   UNL     1      -8.181  14.668  67.814  1.00  0.00    -0.141 OA 
HETATM    9  C   UNL     1      -6.363  12.277  69.897  1.00  0.00    -0.060 A  
HETATM   10  C   UNL     1      -9.189  15.190  68.594  1.00  0.00    -0.196 A  
HETATM   11  C   UNL     1      -9.886  16.257  68.002  1.00  0.00    -0.236 A  
HETATM   12  C   UNL     1     -10.588  17.159  68.826  1.00  0.00    -0.336 A  
HETATM   13  C   UNL     1     -11.158  18.434  68.275  1.00  0.00     0.452 C  
HETATM   14  C   UNL     1     -10.699  16.905  70.183  1.00  0.00     0.141 A  
HETATM   15  C   UNL     1     -10.287  15.690  70.704  1.00  0.00     0.149 A  
HETATM   16  C   UNL     1     -11.355  18.484  66.768  1.00  0.00     0.875 C  
HETATM   17  C   UNL     1      -9.597  14.804  69.871  1.00  0.00     0.358 A  
HETATM   18  C   UNL     1      -6.165   9.046  65.972  1.00  0.00    -0.059 C  
HETATM   19  N   UNL     1     -10.282  17.752  65.958  1.00  0.00    -0.331 N  
HETATM   20  O   UNL     1      -9.440  13.518  70.318  1.00  0.00     2.116 OA 
HETATM   21  N   UNL     1      -6.368   8.238  67.172  1.00  0.00    -0.056 NA 
HETATM   22  C   UNL     1     -10.705  17.823  64.485  1.00  0.00     2.529 C  
HETATM   23  C   UNL     1     -10.120  16.288  66.486  1.00  0.00    -0.291 C  
HETATM   24  C   UNL     1      -8.900  18.405  66.048  1.00  0.00     0.040 C  
HETATM   25  C   UNL     1     -11.401  15.438  66.198  1.00  0.00    -0.082 C  
HETATM   26  H   UNL     1      -9.718  13.256  71.187  1.00  0.00     0.000 HD 
HETATM   27  C   UNL     1     -11.182  14.294  65.251  1.00  0.00    -0.337 A  
HETATM   28  C   UNL     1     -10.451  13.208  65.717  1.00  0.00    -0.291 A  
HETATM   29  C   UNL     1     -10.489  11.976  65.065  1.00  0.00    -0.287 A  
HETATM   30  C   UNL     1     -11.003  11.944  63.773  1.00  0.00    -0.425 A  
HETATM   31  O   UNL     1     -10.006  10.862  65.718  1.00  0.00    -0.225 OA 
HETATM   32  C   UNL     1     -10.175  10.871  67.186  1.00  0.00    -0.210 C  
HETATM   33  C   UNL     1     -11.691  13.059  63.234  1.00  0.00    -0.349 A  
HETATM   34  O   UNL     1     -10.798  10.867  62.961  1.00  0.00    -0.757 OA 
HETATM   35  C   UNL     1     -11.835  14.213  64.019  1.00  0.00    -0.301 A  
HETATM   36  H   UNL     1     -11.149  10.846  62.078  1.00  0.00     0.000 HD 
HETATM   37  C   UNL     1     -11.085   9.925  67.626  1.00  0.00    -0.101 C  
HETATM   38  C   UNL     1     -10.676   8.607  67.481  1.00  0.00    -0.209 C  
HETATM   39  C   UNL     1      -7.177   7.031  66.895  1.00  0.00    -0.077 C  
HETATM   40  C   UNL     1      -8.949  10.691  67.817  1.00  0.00    -0.140 C  
HETATM   41  C   UNL     1      -9.286   8.390  67.428  1.00  0.00    -0.163 C  
HETATM   42  C   UNL     1      -8.420   9.410  67.879  1.00  0.00    -0.116 C  
HETATM   43  C   UNL     1      -8.692   7.232  66.670  1.00  0.00    -0.136 C  
ENDROOT
BRANCH  15  44
HETATM   44  O   UNL     1     -10.467  15.261  71.992  1.00  0.00     0.497 OA 
HETATM   45  C   UNL     1     -11.808  15.239  72.467  1.00  0.00    -0.431 C  
ENDBRANCH  15  44
BRANCH  37  46
HETATM   46  O   UNL     1     -11.811  10.380  68.716  1.00  0.00    -0.212 OA 
HETATM   47  C   UNL     1     -11.621   9.751  69.973  1.00  0.00    -0.130 C  
ENDBRANCH  37  46
TORSDOF 2
ENDMDL
MODEL       42
REMARK 921   NORMALIZED FREE ENERGY PREDICTED BY IDOCK:    0.28 KCAL/MOL
REMARK 922        TOTAL FREE ENERGY PREDICTED BY IDOCK:   -0.03 KCAL/MOL
REMARK 923 INTER-LIGAND FREE ENERGY PREDICTED BY IDOCK:    0.26 KCAL/MOL
REMARK 924 INTRA-LIGAND FREE ENERGY PREDICTED BY IDOCK:   -0.29 KCAL/MOL
REMARK 927      BINDING AFFINITY PREDICTED BY RF-SCORE:    0.00 PKD
ROOT
HETATM    1  C   UNL     1      -7.781   9.418  65.437  1.00  0.00    -0.103 C  
HETATM    2  C   UNL     1      -7.594   8.542  66.745  1.00  0.00    -0.090 C  
HETATM    3  C   UNL     1      -7.950   9.129  68.087  1.00  0.00    -0.100 A  
HETATM    4  C   UNL     1      -7.370  10.313  68.524  1.00  0.00    -0.082 A  
HETATM    5  C   UNL     1      -8.115  11.174  69.321  1.00  0.00     0.045 A  
HETATM    6  C   UNL     1      -9.356  10.769  69.806  1.00  0.00     0.409 A  
HETATM    7  C   UNL     1      -9.648   9.409  69.779  1.00  0.00    -0.216 A  
HETATM    8  O   UNL     1     -10.196  11.800  70.151  1.00  0.00     1.237 OA 
HETATM    9  C   UNL     1      -9.003   8.604  68.840  1.00  0.00    -0.142 A  
HETATM   10  C   UNL     1     -11.558  11.679  70.316  1.00  0.00    -0.163 A  
HETATM   11  C   UNL     1     -12.161  12.764  70.976  1.00  0.00    -0.202 A  
HETATM   12  C   UNL     1     -13.405  12.577  71.610  1.00  0.00    -0.290 A  
HETATM   13  C   UNL     1     -13.983  13.627  72.514  1.00  0.00    -0.572 C  
HETATM   14  C   UNL     1     -14.079  11.376  71.457  1.00  0.00     1.591 A  
HETATM   15  C   UNL     1     -13.633  10.434  70.545  1.00  0.00     0.472 A  
HETATM   16  C   UNL     1     -13.430  15.033  72.348  1.00  0.00    -0.430 C  
HETATM   17  C   UNL     1     -12.400  10.639  69.920  1.00  0.00    -0.235 A  
HETATM   18  C   UNL     1      -5.982  11.093  65.591  1.00  0.00     0.113 C  
HETATM   19  N   UNL     1     -11.938  15.097  72.013  1.00  0.00    -0.376 N  
HETATM   20  O   UNL     1     -12.107   9.850  68.839  1.00  0.00    -0.260 OA 
HETATM   21  N   UNL     1      -6.492   9.924  64.879  1.00  0.00    -0.104 NA 
HETATM   22  C   UNL     1     -11.593  16.574  71.782  1.00  0.00    -0.137 C  
HETATM   23  C   UNL     1     -11.627  14.189  70.777  1.00  0.00    -0.063 C  
HETATM   24  C   UNL     1     -11.036  14.611  73.151  1.00  0.00     1.614 C  
HETATM   25  C   UNL     1     -12.291  14.755  69.479  1.00  0.00    -0.214 C  
HETATM   26  H   UNL     1     -12.680   9.141  68.570  1.00  0.00     0.000 HD 
HETATM   27  C   UNL     1     -11.314  15.189  68.425  1.00  0.00    -0.326 A  
HETATM   28  C   UNL     1     -10.616  14.195  67.750  1.00  0.00    -0.243 A  
HETATM   29  C   UNL     1      -9.968  14.457  66.543  1.00  0.00    -0.283 A  
HETATM   30  C   UNL     1      -9.755  15.788  66.200  1.00  0.00    -0.322 A  
HETATM   31  O   UNL     1      -9.557  13.396  65.764  1.00  0.00    -0.179 OA 
HETATM   32  C   UNL     1     -10.411  12.192  65.840  1.00  0.00    -0.255 C  
HETATM   33  C   UNL     1     -10.389  16.835  66.913  1.00  0.00    -0.294 A  
HETATM   34  O   UNL     1      -8.874  16.128  65.215  1.00  0.00     0.150 OA 
HETATM   35  C   UNL     1     -11.230  16.513  67.989  1.00  0.00    -0.202 A  
HETATM   36  H   UNL     1      -8.729  17.037  64.982  1.00  0.00     0.000 HD 
HETATM   37  C   UNL     1     -11.094  11.944  64.663  1.00  0.00    -0.317 C  
HETATM   38  C   UNL     1     -10.297  11.556  63.594  1.00  0.00    -0.467 C  
HETATM   39  C   UNL     1      -6.667  10.190  63.435  1.00  0.00    -0.128 C  
HETATM   40  C   UNL     1      -9.654  11.083  66.202  1.00  0.00    -0.240 C  
HETATM   41  C   UNL     1      -9.063  10.964  63.923  1.00  0.00    -0.164 C  
HETATM   42  C   UNL     1      -8.870  10.474  65.233  1.00  0.00    -0.205 C  
HETATM   43  C   UNL     1      -7.865  11.072  63.018  1.00  0.00     0.238 C  
ENDROOT
BRANCH  15  44
HETATM   44  O   UNL     1     -14.279   9.277  70.199  1.00  0.00     0.947 OA 
HETATM   45  C   UNL     1     -14.270   8.236  71.169  1.00  0.00    -0.121 C  
ENDBRANCH  15  44
BRANCH  37  46
HETATM   46  O   UNL     1     -12.355  11.419  64.901  1.00  0.00     0.240 OA 
HETATM   47  C   UNL     1     -13.376  11.633  63.941  1.00  0.00     0.727 C  
ENDBRANCH  37  46
TORSDOF 2
ENDMDL
MODEL       43
REMARK 921   NORMALIZED FREE ENERGY PREDICTED BY IDOCK:    0.72 KCAL/MOL
REMARK 922        TOTAL FREE ENERGY PREDICTED BY IDOCK:    0.46 KCAL/MOL
REMARK 923 INTER-LIGAND FREE ENERGY PREDICTED BY IDOCK:    0.76 KCAL/MOL
REMARK 924 INTRA-LIGAND FREE ENERGY PREDICTED BY IDOCK:   -0.29 KCAL/MOL
REMARK 927      BINDING AFFINITY PREDICTED BY RF-SCORE:    0.00 PKD
ROOT
HETATM    1  C   UNL     1     -11.243  13.878  70.318  1.00  0.00     0.180 C  
HETATM    2  C   UNL     1     -11.846  12.737  71.239  1.00  0.00     0.876 C  
HETATM    3  C   UNL     1     -11.796  11.304  70.771  1.00  0.00    -0.288 A  
HETATM    4  C   UNL     1     -12.353  10.931  69.554  1.00  0.00    -0.241 A  
HETATM    5  C   UNL     1     -11.761   9.904  68.829  1.00  0.00     0.293 A  
HETATM    6  C   UNL     1     -10.733   9.157  69.399  1.00  0.00    -0.198 A  
HETATM    7  C   UNL     1     -10.576   9.222  70.780  1.00  0.00    -0.351 A  
HETATM    8  O   UNL     1      -9.916   8.527  68.491  1.00  0.00    -0.173 OA 
HETATM    9  C   UNL     1     -11.030  10.357  71.453  1.00  0.00     0.816 A  
HETATM   10  C   UNL     1      -8.662   8.036  68.775  1.00  0.00    -0.131 A  
HETATM   11  C   UNL     1      -8.150   7.158  67.804  1.00  0.00    -0.115 A  
HETATM   12  C   UNL     1      -7.137   6.248  68.166  1.00  0.00    -0.082 A  
HETATM   13  C   UNL     1      -6.714   5.144  67.241  1.00  0.00    -0.055 C  
HETATM   14  C   UNL     1      -6.565   6.324  69.426  1.00  0.00    -0.044 A  
HETATM   15  C   UNL     1      -6.847   7.394  70.259  1.00  0.00    -0.052 A  
HETATM   16  C   UNL     1      -7.069   5.328  65.774  1.00  0.00    -0.068 C  
HETATM   17  C   UNL     1      -7.850   8.291  69.880  1.00  0.00    -0.102 A  
HETATM   18  C   UNL     1     -12.851  14.045  68.461  1.00  0.00     1.341 C  
HETATM   19  N   UNL     1      -8.409   6.021  65.521  1.00  0.00    -0.142 N  
HETATM   20  O   UNL     1      -7.927   9.472  70.571  1.00  0.00    -0.162 OA 
HETATM   21  N   UNL     1     -12.288  14.699  69.639  1.00  0.00    -0.271 NA 
HETATM   22  C   UNL     1      -8.539   6.209  64.004  1.00  0.00     0.276 C  
HETATM   23  C   UNL     1      -8.474   7.366  66.318  1.00  0.00    -0.137 C  
HETATM   24  C   UNL     1      -9.618   5.191  65.964  1.00  0.00    -0.162 C  
HETATM   25  C   UNL     1      -7.446   8.404  65.762  1.00  0.00    -0.077 C  
HETATM   26  H   UNL     1      -7.374   9.646  71.324  1.00  0.00     0.000 HD 
HETATM   27  C   UNL     1      -8.070   9.630  65.161  1.00  0.00    -0.124 A  
HETATM   28  C   UNL     1      -8.660  10.539  66.031  1.00  0.00    -0.166 A  
HETATM   29  C   UNL     1      -8.945  11.844  65.630  1.00  0.00     0.111 A  
HETATM   30  C   UNL     1      -8.933  12.118  64.267  1.00  0.00     0.931 A  
HETATM   31  O   UNL     1      -9.240  12.786  66.593  1.00  0.00    -0.226 OA 
HETATM   32  C   UNL     1      -8.555  12.597  67.889  1.00  0.00    -0.181 C  
HETATM   33  C   UNL     1      -8.408  11.185  63.340  1.00  0.00     0.281 A  
HETATM   34  O   UNL     1      -9.491  13.262  63.775  1.00  0.00    -0.054 OA 
HETATM   35  C   UNL     1      -7.910   9.962  63.814  1.00  0.00    -0.147 A  
HETATM   36  H   UNL     1      -9.483  13.449  62.844  1.00  0.00     0.000 HD 
HETATM   37  C   UNL     1      -7.616  13.581  68.147  1.00  0.00    -0.138 C  
HETATM   38  C   UNL     1      -8.142  14.844  68.383  1.00  0.00    -0.137 C  
HETATM   39  C   UNL     1     -11.720  16.026  69.315  1.00  0.00    -0.298 C  
HETATM   40  C   UNL     1      -9.482  12.531  68.922  1.00  0.00     0.242 C  
HETATM   41  C   UNL     1      -9.470  14.887  68.848  1.00  0.00    -0.209 C  
HETATM   42  C   UNL     1     -10.042  13.713  69.384  1.00  0.00     0.435 C  
HETATM   43  C   UNL     1     -10.377  16.053  68.554  1.00  0.00    -0.241 C  
ENDROOT
BRANCH  15  44
HETATM   44  O   UNL     1      -6.247   7.660  71.461  1.00  0.00    -0.036 OA 
HETATM   45  C   UNL     1      -6.562   6.778  72.532  1.00  0.00    -0.058 C  
ENDBRANCH  15  44
BRANCH  37  46
HETATM   46  O   UNL     1      -6.517  13.077  68.826  1.00  0.00    -0.073 OA 
HETATM   47  C   UNL     1      -5.263  13.049  68.166  1.00  0.00    -0.088 C  
ENDBRANCH  37  46
TORSDOF 2
ENDMDL
MODEL       44
REMARK 921   NORMALIZED FREE ENERGY PREDICTED BY IDOCK:    0.92 KCAL/MOL
REMARK 922        TOTAL FREE ENERGY PREDICTED BY IDOCK:    0.69 KCAL/MOL
REMARK 923 INTER-LIGAND FREE ENERGY PREDICTED BY IDOCK:    0.63 KCAL/MOL
REMARK 924 INTRA-LIGAND FREE ENERGY PREDICTED BY IDOCK:    0.06 KCAL/MOL
REMARK 927      BINDING AFFINITY PREDICTED BY RF-SCORE:    0.00 PKD
ROOT
HETATM    1  C   UNL     1     -12.811   9.425  70.463  1.00  0.00     0.278 C  
HETATM    2  C   UNL     1     -13.734  10.689  70.708  1.00  0.00     0.704 C  
HETATM    3  C   UNL     1     -13.132  12.070  70.635  1.00  0.00     0.288 A  
HETATM    4  C   UNL     1     -12.052  12.420  71.435  1.00  0.00     0.446 A  
HETATM    5  C   UNL     1     -11.113  13.318  70.943  1.00  0.00     2.042 A  
HETATM    6  C   UNL     1     -11.349  13.977  69.739  1.00  0.00    -0.179 A  
HETATM    7  C   UNL     1     -12.653  13.991  69.255  1.00  0.00     0.168 A  
HETATM    8  O   UNL     1     -10.217  14.442  69.113  1.00  0.00    -0.212 OA 
HETATM    9  C   UNL     1     -13.520  12.967  69.637  1.00  0.00     2.770 A  
HETATM   10  C   UNL     1     -10.149  14.802  67.785  1.00  0.00    -0.224 A  
HETATM   11  C   UNL     1      -9.004  15.544  67.445  1.00  0.00    -0.203 A  
HETATM   12  C   UNL     1      -9.028  16.352  66.291  1.00  0.00    -0.368 A  
HETATM   13  C   UNL     1      -7.928  17.331  66.003  1.00  0.00    -0.196 C  
HETATM   14  C   UNL     1     -10.118  16.297  65.437  1.00  0.00    -0.179 A  
HETATM   15  C   UNL     1     -11.093  15.328  65.608  1.00  0.00    -0.308 A  
HETATM   16  C   UNL     1      -6.610  17.089  66.723  1.00  0.00    -0.227 C  
HETATM   17  C   UNL     1     -11.050  14.531  66.756  1.00  0.00    -0.325 A  
HETATM   18  C   UNL     1     -11.411   9.318  72.486  1.00  0.00     0.599 C  
HETATM   19  N   UNL     1      -6.750  16.542  68.145  1.00  0.00    -0.136 N  
HETATM   20  O   UNL     1     -11.849  13.418  66.775  1.00  0.00    -0.365 OA 
HETATM   21  N   UNL     1     -12.480   8.686  71.717  1.00  0.00    -0.326 NA 
HETATM   22  C   UNL     1      -5.331  16.266  68.661  1.00  0.00    -0.101 C  
HETATM   23  C   UNL     1      -7.665  15.272  68.142  1.00  0.00    -0.117 C  
HETATM   24  C   UNL     1      -7.384  17.537  69.121  1.00  0.00    -0.128 C  
HETATM   25  C   UNL     1      -6.983  14.085  67.388  1.00  0.00    -0.067 C  
HETATM   26  H   UNL     1     -12.463  13.233  66.074  1.00  0.00     0.000 HD 
HETATM   27  C   UNL     1      -6.667  12.901  68.256  1.00  0.00    -0.093 A  
HETATM   28  C   UNL     1      -7.735  12.131  68.700  1.00  0.00    -0.089 A  
HETATM   29  C   UNL     1      -7.540  10.844  69.200  1.00  0.00    -0.133 A  
HETATM   30  C   UNL     1      -6.245  10.475  69.549  1.00  0.00    -0.054 A  
HETATM   31  O   UNL     1      -8.630  10.011  69.339  1.00  0.00    -0.149 OA 
HETATM   32  C   UNL     1      -9.704  10.209  68.341  1.00  0.00    -0.147 C  
HETATM   33  C   UNL     1      -5.136  11.274  69.179  1.00  0.00    -0.044 A  
HETATM   34  O   UNL     1      -6.012   9.374  70.319  1.00  0.00    -0.034 OA 
HETATM   35  C   UNL     1      -5.359  12.460  68.464  1.00  0.00    -0.055 A  
HETATM   36  H   UNL     1      -5.127   9.123  70.558  1.00  0.00     0.000 HD 
HETATM   37  C   UNL     1      -9.826   9.142  67.469  1.00  0.00    -0.177 C  
HETATM   38  C   UNL     1     -10.299   7.969  68.040  1.00  0.00    -0.262 C  
HETATM   39  C   UNL     1     -12.160   7.283  71.377  1.00  0.00    -0.335 C  
HETATM   40  C   UNL     1     -10.916  10.455  68.976  1.00  0.00    -0.282 C  
HETATM   41  C   UNL     1     -11.067   8.114  69.211  1.00  0.00     0.137 C  
HETATM   42  C   UNL     1     -11.608   9.382  69.518  1.00  0.00     0.237 C  
HETATM   43  C   UNL     1     -11.109   7.046  70.271  1.00  0.00    -0.323 C  
ENDROOT
BRANCH  15  44
HETATM   44  O   UNL     1     -12.139  15.078  64.761  1.00  0.00    -0.352 OA 
HETATM   45  C   UNL     1     -11.990  13.963  63.888  1.00  0.00    -0.334 C  
ENDBRANCH  15  44
BRANCH  37  46
HETATM   46  O   UNL     1     -10.174   9.559  66.193  1.00  0.00    -0.273 OA 
HETATM   47  C   UNL     1      -9.199   9.500  65.166  1.00  0.00    -0.244 C  
ENDBRANCH  37  46
TORSDOF 2
ENDMDL
MODEL       45
REMARK 921   NORMALIZED FREE ENERGY PREDICTED BY IDOCK:    1.10 KCAL/MOL
REMARK 922        TOTAL FREE ENERGY PREDICTED BY IDOCK:    0.89 KCAL/MOL
REMARK 923 INTER-LIGAND FREE ENERGY PREDICTED BY IDOCK:    1.09 KCAL/MOL
REMARK 924 INTRA-LIGAND FREE ENERGY PREDICTED BY IDOCK:   -0.21 KCAL/MOL
REMARK 927      BINDING AFFINITY PREDICTED BY RF-SCORE:    0.00 PKD
ROOT
HETATM    1  C   UNL     1      -7.294   3.192  69.789  1.00  0.00    -0.044 C  
HETATM    2  C   UNL     1      -7.276   3.124  68.206  1.00  0.00    -0.050 C  
HETATM    3  C   UNL     1      -8.047   4.148  67.412  1.00  0.00    -0.099 A  
HETATM    4  C   UNL     1      -9.410   4.330  67.615  1.00  0.00    -0.197 A  
HETATM    5  C   UNL     1      -9.950   5.601  67.461  1.00  0.00    -0.180 A  
HETATM    6  C   UNL     1      -9.164   6.630  66.948  1.00  0.00    -0.142 A  
HETATM    7  C   UNL     1      -7.995   6.279  66.280  1.00  0.00    -0.110 A  
HETATM    8  O   UNL     1      -9.596   7.893  67.274  1.00  0.00    -0.143 OA 
HETATM    9  C   UNL     1      -7.384   5.064  66.593  1.00  0.00    -0.086 A  
HETATM   10  C   UNL     1      -8.824   9.031  67.193  1.00  0.00    -0.119 A  
HETATM   11  C   UNL     1      -9.553  10.231  67.260  1.00  0.00    -0.186 A  
HETATM   12  C   UNL     1      -8.985  11.409  66.735  1.00  0.00    -0.177 A  
HETATM   13  C   UNL     1      -9.798  12.661  66.576  1.00  0.00    -0.258 C  
HETATM   14  C   UNL     1      -7.672  11.399  66.292  1.00  0.00     0.005 A  
HETATM   15  C   UNL     1      -6.862  10.301  66.527  1.00  0.00    -0.101 A  
HETATM   16  C   UNL     1     -11.068  12.746  67.408  1.00  0.00    -0.275 C  
HETATM   17  C   UNL     1      -7.441   9.143  67.054  1.00  0.00    -0.091 A  
HETATM   18  C   UNL     1      -9.573   2.471  70.382  1.00  0.00    -0.049 C  
HETATM   19  N   UNL     1     -11.801  11.416  67.593  1.00  0.00    -0.171 N  
HETATM   20  O   UNL     1      -6.591   8.177  67.525  1.00  0.00    -0.056 OA 
HETATM   21  N   UNL     1      -8.150   2.140  70.413  1.00  0.00    -0.041 NA 
HETATM   22  C   UNL     1     -12.982  11.681  68.536  1.00  0.00     2.786 C  
HETATM   23  C   UNL     1     -10.812  10.329  68.132  1.00  0.00    -0.265 C  
HETATM   24  C   UNL     1     -12.395  10.862  66.294  1.00  0.00     3.652 C  
HETATM   25  C   UNL     1     -10.343  10.662  69.586  1.00  0.00    -0.185 C  
HETATM   26  H   UNL     1      -5.649   8.253  67.431  1.00  0.00     0.000 HD 
HETATM   27  C   UNL     1     -10.778   9.663  70.618  1.00  0.00    -0.388 A  
HETATM   28  C   UNL     1     -10.163   8.418  70.603  1.00  0.00    -0.222 A  
HETATM   29  C   UNL     1     -10.230   7.563  71.703  1.00  0.00    -0.184 A  
HETATM   30  C   UNL     1     -11.186   7.836  72.676  1.00  0.00    -0.381 A  
HETATM   31  O   UNL     1      -9.366   6.491  71.767  1.00  0.00    -0.150 OA 
HETATM   32  C   UNL     1      -8.044   6.709  71.143  1.00  0.00    -0.112 C  
HETATM   33  C   UNL     1     -11.889   9.065  72.682  1.00  0.00     0.141 A  
HETATM   34  O   UNL     1     -11.526   6.901  73.609  1.00  0.00    -0.267 OA 
HETATM   35  C   UNL     1     -11.622  10.007  71.677  1.00  0.00    -0.154 A  
HETATM   36  H   UNL     1     -12.179   7.088  74.273  1.00  0.00     0.000 HD 
HETATM   37  C   UNL     1      -7.016   6.752  72.069  1.00  0.00    -0.074 C  
HETATM   38  C   UNL     1      -6.742   5.545  72.697  1.00  0.00    -0.072 C  
HETATM   39  C   UNL     1      -7.673   1.887  71.789  1.00  0.00    -0.041 C  
HETATM   40  C   UNL     1      -7.791   5.734  70.186  1.00  0.00    -0.099 C  
HETATM   41  C   UNL     1      -7.118   4.383  71.997  1.00  0.00    -0.059 C  
HETATM   42  C   UNL     1      -7.388   4.477  70.615  1.00  0.00    -0.049 C  
HETATM   43  C   UNL     1      -7.495   3.112  72.713  1.00  0.00    -0.050 C  
ENDROOT
BRANCH  15  44
HETATM   44  O   UNL     1      -5.520  10.218  66.267  1.00  0.00    -0.047 OA 
HETATM   45  C   UNL     1      -5.154   9.664  65.009  1.00  0.00    -0.044 C  
ENDBRANCH  15  44
BRANCH  37  46
HETATM   46  O   UNL     1      -6.032   7.658  71.703  1.00  0.00    -0.036 OA 
HETATM   47  C   UNL     1      -5.209   8.217  72.713  1.00  0.00    -0.037 C  
ENDBRANCH  37  46
TORSDOF 2
ENDMDL
MODEL       46
REMARK 921   NORMALIZED FREE ENERGY PREDICTED BY IDOCK:    1.91 KCAL/MOL
REMARK 922        TOTAL FREE ENERGY PREDICTED BY IDOCK:    1.79 KCAL/MOL
REMARK 923 INTER-LIGAND FREE ENERGY PREDICTED BY IDOCK:    2.13 KCAL/MOL
REMARK 924 INTRA-LIGAND FREE ENERGY PREDICTED BY IDOCK:   -0.34 KCAL/MOL
REMARK 927      BINDING AFFINITY PREDICTED BY RF-SCORE:    0.00 PKD
ROOT
HETATM    1  C   UNL     1      -8.840  10.824  63.234  1.00  0.00    -0.185 C  
HETATM    2  C   UNL     1      -9.585  12.156  62.804  1.00  0.00     0.841 C  
HETATM    3  C   UNL     1     -10.563  12.796  63.756  1.00  0.00    -0.370 A  
HETATM    4  C   UNL     1     -11.647  12.082  64.253  1.00  0.00    -0.435 A  
HETATM    5  C   UNL     1     -12.099  12.354  65.539  1.00  0.00    -0.417 A  
HETATM    6  C   UNL     1     -11.580  13.440  66.241  1.00  0.00    -0.344 A  
HETATM    7  C   UNL     1     -10.901  14.413  65.516  1.00  0.00    -0.335 A  
HETATM    8  O   UNL     1     -11.710  13.349  67.606  1.00  0.00    -0.318 OA 
HETATM    9  C   UNL     1     -10.306  14.054  64.305  1.00  0.00     0.277 A  
HETATM   10  C   UNL     1     -10.989  14.095  68.512  1.00  0.00    -0.254 A  
HETATM   11  C   UNL     1     -11.506  14.076  69.820  1.00  0.00    -0.293 A  
HETATM   12  C   UNL     1     -11.172  15.119  70.705  1.00  0.00    -0.321 A  
HETATM   13  C   UNL     1     -11.868  15.271  72.027  1.00  0.00    -0.513 C  
HETATM   14  C   UNL     1     -10.236  16.067  70.326  1.00  0.00     0.099 A  
HETATM   15  C   UNL     1      -9.495  15.896  69.168  1.00  0.00    -0.260 A  
HETATM   16  C   UNL     1     -12.577  14.035  72.557  1.00  0.00    -0.127 C  
HETATM   17  C   UNL     1      -9.836  14.851  68.305  1.00  0.00    -0.218 A  
HETATM   18  C   UNL     1     -10.606   9.110  63.149  1.00  0.00     5.944 C  
HETATM   19  N   UNL     1     -13.229  13.161  71.483  1.00  0.00    -0.324 N  
HETATM   20  O   UNL     1      -8.938  14.535  67.319  1.00  0.00    -0.189 OA 
HETATM   21  N   UNL     1      -9.369   9.607  62.550  1.00  0.00    -0.199 NA 
HETATM   22  C   UNL     1     -13.793  11.924  72.192  1.00  0.00     0.267 C  
HETATM   23  C   UNL     1     -12.186  12.814  70.369  1.00  0.00    -0.293 C  
HETATM   24  C   UNL     1     -14.409  13.839  70.781  1.00  0.00     1.673 C  
HETATM   25  C   UNL     1     -11.057  11.884  70.922  1.00  0.00     2.163 C  
HETATM   26  H   UNL     1      -8.152  15.051  67.177  1.00  0.00     0.000 HD 
HETATM   27  C   UNL     1     -11.018  10.520  70.296  1.00  0.00    -0.306 A  
HETATM   28  C   UNL     1     -10.578  10.433  68.980  1.00  0.00    -0.247 A  
HETATM   29  C   UNL     1     -10.174   9.215  68.432  1.00  0.00    -0.200 A  
HETATM   30  C   UNL     1     -10.528   8.053  69.109  1.00  0.00    -0.208 A  
HETATM   31  O   UNL     1      -9.467   9.220  67.249  1.00  0.00    -0.138 OA 
HETATM   32  C   UNL     1      -8.591  10.393  67.044  1.00  0.00    -0.130 C  
HETATM   33  C   UNL     1     -11.050   8.106  70.424  1.00  0.00    -0.239 A  
HETATM   34  O   UNL     1     -10.449   6.834  68.501  1.00  0.00    -0.178 OA 
HETATM   35  C   UNL     1     -11.226   9.356  71.037  1.00  0.00    -0.412 A  
HETATM   36  H   UNL     1     -10.690   6.040  68.964  1.00  0.00     0.000 HD 
HETATM   37  C   UNL     1      -7.246  10.070  67.086  1.00  0.00    -0.090 C  
HETATM   38  C   UNL     1      -6.795   9.298  66.024  1.00  0.00    -0.088 C  
HETATM   39  C   UNL     1      -8.313   8.573  62.525  1.00  0.00    -0.182 C  
HETATM   40  C   UNL     1      -8.898  11.026  65.846  1.00  0.00    -0.204 C  
HETATM   41  C   UNL     1      -7.544   9.382  64.835  1.00  0.00    -0.110 C  
HETATM   42  C   UNL     1      -8.434  10.465  64.665  1.00  0.00    -0.176 C  
HETATM   43  C   UNL     1      -7.626   8.232  63.866  1.00  0.00    -0.133 C  
ENDROOT
BRANCH  15  44
HETATM   44  O   UNL     1      -8.450  16.679  68.756  1.00  0.00    -0.238 OA 
HETATM   45  C   UNL     1      -8.779  17.995  68.326  1.00  0.00    -0.283 C  
ENDBRANCH  15  44
BRANCH  37  46
HETATM   46  O   UNL     1      -6.492  11.081  67.664  1.00  0.00    -0.058 OA 
HETATM   47  C   UNL     1      -5.504  11.728  66.880  1.00  0.00    -0.122 C  
ENDBRANCH  37  46
TORSDOF 2
ENDMDL
MODEL       47
REMARK 921   NORMALIZED FREE ENERGY PREDICTED BY IDOCK:    2.04 KCAL/MOL
REMARK 922        TOTAL FREE ENERGY PREDICTED BY IDOCK:    1.94 KCAL/MOL
REMARK 923 INTER-LIGAND FREE ENERGY PREDICTED BY IDOCK:    2.12 KCAL/MOL
REMARK 924 INTRA-LIGAND FREE ENERGY PREDICTED BY IDOCK:   -0.17 KCAL/MOL
REMARK 927      BINDING AFFINITY PREDICTED BY RF-SCORE:    0.00 PKD
ROOT
HETATM    1  C   UNL     1      -8.801   3.011  73.092  1.00  0.00    -0.080 C  
HETATM    2  C   UNL     1      -7.219   2.920  73.137  1.00  0.00    -0.044 C  
HETATM    3  C   UNL     1      -6.402   3.777  72.204  1.00  0.00    -0.014 A  
HETATM    4  C   UNL     1      -6.593   3.716  70.829  1.00  0.00    -0.032 A  
HETATM    5  C   UNL     1      -6.412   4.868  70.073  1.00  0.00    -0.035 A  
HETATM    6  C   UNL     1      -5.884   6.012  70.668  1.00  0.00    -0.022 A  
HETATM    7  C   UNL     1      -5.230   5.863  71.887  1.00  0.00    -0.021 A  
HETATM    8  O   UNL     1      -6.183   7.183  70.015  1.00  0.00    -0.027 OA 
HETATM    9  C   UNL     1      -5.569   4.782  72.701  1.00  0.00    -0.008 A  
HETATM   10  C   UNL     1      -6.085   8.438  70.573  1.00  0.00    -0.032 A  
HETATM   11  C   UNL     1      -6.125   9.491  69.642  1.00  0.00    -0.039 A  
HETATM   12  C   UNL     1      -5.582  10.741  69.996  1.00  0.00    -0.064 A  
HETATM   13  C   UNL     1      -5.394  11.826  68.975  1.00  0.00    -0.050 C  
HETATM   14  C   UNL     1      -5.147  10.958  71.294  1.00  0.00    -0.094 A  
HETATM   15  C   UNL     1      -5.408  10.025  72.284  1.00  0.00     0.090 A  
HETATM   16  C   UNL     1      -6.216  11.698  67.703  1.00  0.00    -0.068 C  
HETATM   17  C   UNL     1      -5.953   8.792  71.915  1.00  0.00    -0.063 A  
HETATM   18  C   UNL     1      -9.393   1.907  70.972  1.00  0.00    -0.123 C  
HETATM   19  N   UNL     1      -6.422  10.262  67.216  1.00  0.00    -0.066 N  
HETATM   20  O   UNL     1      -6.448   8.001  72.919  1.00  0.00    -0.067 OA 
HETATM   21  N   UNL     1      -9.440   1.835  72.431  1.00  0.00    -0.078 NA 
HETATM   22  C   UNL     1      -7.351  10.329  65.997  1.00  0.00    -0.129 C  
HETATM   23  C   UNL     1      -6.987   9.378  68.377  1.00  0.00    -0.067 C  
HETATM   24  C   UNL     1      -5.129   9.589  66.743  1.00  0.00    -0.040 C  
HETATM   25  C   UNL     1      -8.437   9.815  68.765  1.00  0.00    -0.122 C  
HETATM   26  H   UNL     1      -6.358   8.243  73.834  1.00  0.00     0.000 HD 
HETATM   27  C   UNL     1      -9.486   8.772  68.505  1.00  0.00    -0.149 A  
HETATM   28  C   UNL     1      -9.498   7.656  69.332  1.00  0.00    -0.152 A  
HETATM   29  C   UNL     1     -10.614   6.823  69.408  1.00  0.00    -0.233 A  
HETATM   30  C   UNL     1     -11.575   6.938  68.409  1.00  0.00     0.559 A  
HETATM   31  O   UNL     1     -10.703   5.922  70.448  1.00  0.00    -0.259 OA 
HETATM   32  C   UNL     1     -10.084   6.362  71.716  1.00  0.00    -0.185 C  
HETATM   33  C   UNL     1     -11.553   8.022  67.498  1.00  0.00     1.839 A  
HETATM   34  O   UNL     1     -12.524   5.974  68.232  1.00  0.00     2.761 OA 
HETATM   35  C   UNL     1     -10.532   8.980  67.604  1.00  0.00    -0.324 A  
HETATM   36  H   UNL     1     -13.180   6.053  67.549  1.00  0.00     0.000 HD 
HETATM   37  C   UNL     1     -11.015   6.604  72.711  1.00  0.00    -0.258 C  
HETATM   38  C   UNL     1     -11.667   5.476  73.189  1.00  0.00    -0.045 C  
HETATM   39  C   UNL     1     -10.823   1.695  72.933  1.00  0.00    -0.150 C  
HETATM   40  C   UNL     1      -9.147   5.430  72.147  1.00  0.00    -0.147 C  
HETATM   41  C   UNL     1     -10.987   4.253  73.033  1.00  0.00    -0.255 C  
HETATM   42  C   UNL     1      -9.602   4.273  72.763  1.00  0.00    -0.167 C  
HETATM   43  C   UNL     1     -11.724   2.948  72.881  1.00  0.00     0.514 C  
ENDROOT
BRANCH  15  44
HETATM   44  O   UNL     1      -5.158  10.178  73.622  1.00  0.00    -0.292 OA 
HETATM   45  C   UNL     1      -5.346  11.485  74.153  1.00  0.00     0.687 C  
ENDBRANCH  15  44
BRANCH  37  46
HETATM   46  O   UNL     1     -10.638   7.664  73.521  1.00  0.00    -0.343 OA 
HETATM   47  C   UNL     1      -9.681   8.588  73.034  1.00  0.00     0.008 C  
ENDBRANCH  37  46
TORSDOF 2
ENDMDL
MODEL       48
REMARK 921   NORMALIZED FREE ENERGY PREDICTED BY IDOCK:    2.19 KCAL/MOL
REMARK 922        TOTAL FREE ENERGY PREDICTED BY IDOCK:    2.11 KCAL/MOL
REMARK 923 INTER-LIGAND FREE ENERGY PREDICTED BY IDOCK:    2.52 KCAL/MOL
REMARK 924 INTRA-LIGAND FREE ENERGY PREDICTED BY IDOCK:   -0.41 KCAL/MOL
REMARK 927      BINDING AFFINITY PREDICTED BY RF-SCORE:    0.00 PKD
ROOT
HETATM    1  C   UNL     1      -7.802  11.430  65.237  1.00  0.00     0.692 C  
HETATM    2  C   UNL     1      -6.934  10.665  64.154  1.00  0.00     0.248 C  
HETATM    3  C   UNL     1      -6.371   9.305  64.481  1.00  0.00    -0.077 A  
HETATM    4  C   UNL     1      -5.560   9.118  65.594  1.00  0.00    -0.045 A  
HETATM    5  C   UNL     1      -5.615   7.905  66.270  1.00  0.00    -0.029 A  
HETATM    6  C   UNL     1      -6.344   6.845  65.734  1.00  0.00    -0.046 A  
HETATM    7  C   UNL     1      -6.691   6.915  64.389  1.00  0.00    -0.046 A  
HETATM    8  O   UNL     1      -6.732   5.900  66.653  1.00  0.00    -0.054 OA 
HETATM    9  C   UNL     1      -6.798   8.170  63.789  1.00  0.00    -0.075 A  
HETATM   10  C   UNL     1      -7.729   4.972  66.448  1.00  0.00    -0.092 A  
HETATM   11  C   UNL     1      -7.735   3.914  67.375  1.00  0.00    -0.079 A  
HETATM   12  C   UNL     1      -8.361   2.701  67.027  1.00  0.00    -0.096 A  
HETATM   13  C   UNL     1      -8.205   1.474  67.877  1.00  0.00    -0.068 C  
HETATM   14  C   UNL     1      -9.077   2.612  65.844  1.00  0.00    -0.114 A  
HETATM   15  C   UNL     1      -9.336   3.749  65.096  1.00  0.00    -0.157 A  
HETATM   16  C   UNL     1      -7.761   1.705  69.313  1.00  0.00    -0.042 C  
HETATM   17  C   UNL     1      -8.712   4.946  65.459  1.00  0.00    -0.139 A  
HETATM   18  C   UNL     1      -6.154  12.117  66.933  1.00  0.00    -0.010 C  
HETATM   19  N   UNL     1      -6.767   2.854  69.497  1.00  0.00    -0.033 N  
HETATM   20  O   UNL     1      -9.183   6.097  64.884  1.00  0.00    -0.258 OA 
HETATM   21  N   UNL     1      -7.073  12.559  65.886  1.00  0.00     1.915 NA 
HETATM   22  C   UNL     1      -6.523   2.998  71.005  1.00  0.00    -0.023 C  
HETATM   23  C   UNL     1      -7.326   4.156  68.833  1.00  0.00    -0.055 C  
HETATM   24  C   UNL     1      -5.401   2.587  68.857  1.00  0.00    -0.013 C  
HETATM   25  C   UNL     1      -8.591   4.678  69.589  1.00  0.00    -0.099 C  
HETATM   26  H   UNL     1      -9.853   6.079  64.210  1.00  0.00     0.000 HD 
HETATM   27  C   UNL     1      -8.412   6.018  70.242  1.00  0.00    -0.124 A  
HETATM   28  C   UNL     1      -8.332   7.129  69.411  1.00  0.00    -0.133 A  
HETATM   29  C   UNL     1      -8.519   8.419  69.907  1.00  0.00    -0.126 A  
HETATM   30  C   UNL     1      -8.458   8.596  71.286  1.00  0.00    -0.179 A  
HETATM   31  O   UNL     1      -8.735   9.450  69.018  1.00  0.00    -0.129 OA 
HETATM   32  C   UNL     1      -9.457   9.075  67.784  1.00  0.00    -0.141 C  
HETATM   33  C   UNL     1      -8.461   7.485  72.164  1.00  0.00    -0.130 A  
HETATM   34  O   UNL     1      -8.321   9.840  71.829  1.00  0.00     0.349 OA 
HETATM   35  C   UNL     1      -8.510   6.191  71.624  1.00  0.00    -0.130 A  
HETATM   36  H   UNL     1      -8.279   9.960  72.771  1.00  0.00     0.000 HD 
HETATM   37  C   UNL     1     -10.725   9.625  67.718  1.00  0.00    -0.257 C  
HETATM   38  C   UNL     1     -10.758  11.003  67.556  1.00  0.00    -0.289 C  
HETATM   39  C   UNL     1      -8.057  13.538  66.393  1.00  0.00     0.995 C  
HETATM   40  C   UNL     1      -8.717   9.430  66.662  1.00  0.00    -0.143 C  
HETATM   41  C   UNL     1      -9.620  11.587  66.968  1.00  0.00    -0.199 C  
HETATM   42  C   UNL     1      -8.717  10.759  66.265  1.00  0.00    -0.175 C  
HETATM   43  C   UNL     1      -9.198  12.997  67.283  1.00  0.00    -0.213 C  
ENDROOT
BRANCH  15  44
HETATM   44  O   UNL     1     -10.142   3.821  63.991  1.00  0.00    -0.180 OA 
HETATM   45  C   UNL     1      -9.737   3.053  62.863  1.00  0.00    -0.093 C  
ENDBRANCH  15  44
BRANCH  37  46
HETATM   46  O   UNL     1     -11.626   8.767  67.106  1.00  0.00     1.393 OA 
HETATM   47  C   UNL     1     -11.573   7.385  67.419  1.00  0.00     1.216 C  
ENDBRANCH  37  46
TORSDOF 2
ENDMDL
MODEL       49
REMARK 921   NORMALIZED FREE ENERGY PREDICTED BY IDOCK:    2.90 KCAL/MOL
REMARK 922        TOTAL FREE ENERGY PREDICTED BY IDOCK:    2.90 KCAL/MOL
REMARK 923 INTER-LIGAND FREE ENERGY PREDICTED BY IDOCK:    3.21 KCAL/MOL
REMARK 924 INTRA-LIGAND FREE ENERGY PREDICTED BY IDOCK:   -0.31 KCAL/MOL
REMARK 927      BINDING AFFINITY PREDICTED BY RF-SCORE:    0.00 PKD
ROOT
HETATM    1  C   UNL     1     -11.175  13.151  64.930  1.00  0.00    -0.310 C  
HETATM    2  C   UNL     1     -11.466  13.979  66.249  1.00  0.00    -0.358 C  
HETATM    3  C   UNL     1     -11.257  13.328  67.593  1.00  0.00    -0.307 A  
HETATM    4  C   UNL     1     -11.906  12.144  67.921  1.00  0.00    -0.338 A  
HETATM    5  C   UNL     1     -11.263  11.231  68.748  1.00  0.00    -0.311 A  
HETATM    6  C   UNL     1     -10.065  11.581  69.368  1.00  0.00     0.258 A  
HETATM    7  C   UNL     1      -9.739  12.932  69.427  1.00  0.00     0.971 A  
HETATM    8  O   UNL     1      -9.288  10.513  69.748  1.00  0.00    -0.089 OA 
HETATM    9  C   UNL     1     -10.270  13.792  68.466  1.00  0.00    -0.235 A  
HETATM   10  C   UNL     1      -7.946  10.589  70.047  1.00  0.00     0.251 A  
HETATM   11  C   UNL     1      -7.437   9.461  70.715  1.00  0.00    -0.132 A  
HETATM   12  C   UNL     1      -6.257   9.588  71.474  1.00  0.00     0.035 A  
HETATM   13  C   UNL     1      -5.795   8.486  72.383  1.00  0.00    -0.066 C  
HETATM   14  C   UNL     1      -5.542  10.774  71.439  1.00  0.00     0.111 A  
HETATM   15  C   UNL     1      -5.874  11.764  70.529  1.00  0.00    -0.125 A  
HETATM   16  C   UNL     1      -6.364   7.104  72.105  1.00  0.00    -0.044 C  
HETATM   17  C   UNL     1      -7.045  11.619  69.780  1.00  0.00     0.238 A  
HETATM   18  C   UNL     1     -13.020  11.523  64.837  1.00  0.00     2.251 C  
HETATM   19  N   UNL     1      -7.817   7.096  71.625  1.00  0.00    -0.096 N  
HETATM   20  O   UNL     1      -7.213  12.460  68.711  1.00  0.00    -0.106 OA 
HETATM   21  N   UNL     1     -12.415  12.705  64.228  1.00  0.00    -0.595 NA 
HETATM   22  C   UNL     1      -8.174   5.639  71.299  1.00  0.00    -0.125 C  
HETATM   23  C   UNL     1      -7.984   8.061  70.405  1.00  0.00    -0.103 C  
HETATM   24  C   UNL     1      -8.813   7.561  72.692  1.00  0.00    -0.139 C  
HETATM   25  C   UNL     1      -7.211   7.530  69.154  1.00  0.00    -0.084 C  
HETATM   26  H   UNL     1      -6.598  13.162  68.528  1.00  0.00     0.000 HD 
HETATM   27  C   UNL     1      -8.091   7.166  67.993  1.00  0.00    -0.120 A  
HETATM   28  C   UNL     1      -8.695   8.207  67.298  1.00  0.00    -0.125 A  
HETATM   29  C   UNL     1      -9.229   8.012  66.024  1.00  0.00    -0.120 A  
HETATM   30  C   UNL     1      -9.440   6.702  65.606  1.00  0.00     0.388 A  
HETATM   31  O   UNL     1      -9.536   9.114  65.255  1.00  0.00    -0.199 OA 
HETATM   32  C   UNL     1      -8.665  10.290  65.465  1.00  0.00    -0.162 C  
HETATM   33  C   UNL     1      -8.903   5.610  66.330  1.00  0.00    -0.129 A  
HETATM   34  O   UNL     1     -10.229   6.428  64.527  1.00  0.00     2.557 OA 
HETATM   35  C   UNL     1      -8.164   5.864  67.495  1.00  0.00    -0.105 A  
HETATM   36  H   UNL     1     -10.373   5.533  64.241  1.00  0.00     0.000 HD 
HETATM   37  C   UNL     1      -7.865  10.565  64.370  1.00  0.00     0.015 C  
HETATM   38  C   UNL     1      -8.543  11.019  63.248  1.00  0.00    -0.001 C  
HETATM   39  C   UNL     1     -12.107  12.492  62.798  1.00  0.00     0.647 C  
HETATM   40  C   UNL     1      -9.426  11.404  65.799  1.00  0.00    -0.256 C  
HETATM   41  C   UNL     1      -9.789  11.632  63.481  1.00  0.00    -0.391 C  
HETATM   42  C   UNL     1     -10.097  12.073  64.786  1.00  0.00    -0.286 C  
HETATM   43  C   UNL     1     -10.896  11.594  62.461  1.00  0.00     1.051 C  
ENDROOT
BRANCH  15  44
HETATM   44  O   UNL     1      -5.169  12.915  70.297  1.00  0.00    -0.091 OA 
HETATM   45  C   UNL     1      -5.602  14.073  71.003  1.00  0.00    -0.199 C  
ENDBRANCH  15  44
BRANCH  37  46
HETATM   46  O   UNL     1      -6.621  11.045  64.751  1.00  0.00     0.297 OA 
HETATM   47  C   UNL     1      -5.932  10.395  65.806  1.00  0.00    -0.117 C  
ENDBRANCH  37  46
TORSDOF 2
ENDMDL
MODEL       50
REMARK 921   NORMALIZED FREE ENERGY PREDICTED BY IDOCK:    3.11 KCAL/MOL
REMARK 922        TOTAL FREE ENERGY PREDICTED BY IDOCK:    3.13 KCAL/MOL
REMARK 923 INTER-LIGAND FREE ENERGY PREDICTED BY IDOCK:    1.37 KCAL/MOL
REMARK 924 INTRA-LIGAND FREE ENERGY PREDICTED BY IDOCK:    1.76 KCAL/MOL
REMARK 927      BINDING AFFINITY PREDICTED BY RF-SCORE:    0.00 PKD
ROOT
HETATM    1  C   UNL     1      -9.419  15.071  68.183  1.00  0.00    -0.196 C  
HETATM    2  C   UNL     1      -7.942  15.088  67.607  1.00  0.00    -0.178 C  
HETATM    3  C   UNL     1      -7.158  13.802  67.542  1.00  0.00    -0.172 A  
HETATM    4  C   UNL     1      -6.947  13.036  68.683  1.00  0.00    -0.102 A  
HETATM    5  C   UNL     1      -6.879  11.654  68.562  1.00  0.00    -0.073 A  
HETATM    6  C   UNL     1      -6.852  11.069  67.297  1.00  0.00    -0.088 A  
HETATM    7  C   UNL     1      -6.536  11.885  66.215  1.00  0.00     0.567 A  
HETATM    8  O   UNL     1      -7.261   9.758  67.268  1.00  0.00    -0.085 OA 
HETATM    9  C   UNL     1      -6.786  13.254  66.313  1.00  0.00     3.351 A  
HETATM   10  C   UNL     1      -7.651   9.084  66.132  1.00  0.00    -0.095 A  
HETATM   11  C   UNL     1      -7.713   7.687  66.279  1.00  0.00    -0.089 A  
HETATM   12  C   UNL     1      -7.635   6.873  65.132  1.00  0.00    -0.102 A  
HETATM   13  C   UNL     1      -7.470   5.385  65.245  1.00  0.00    -0.077 C  
HETATM   14  C   UNL     1      -7.639   7.455  63.875  1.00  0.00    -0.110 A  
HETATM   15  C   UNL     1      -7.903   8.806  63.730  1.00  0.00    -0.145 A  
HETATM   16  C   UNL     1      -7.855   4.767  66.581  1.00  0.00    -0.099 C  
HETATM   17  C   UNL     1      -7.984   9.599  64.879  1.00  0.00    -0.124 A  
HETATM   18  C   UNL     1      -9.104  14.714  70.599  1.00  0.00     2.200 C  
HETATM   19  N   UNL     1      -7.535   5.633  67.801  1.00  0.00    -0.077 N  
HETATM   20  O   UNL     1      -8.505  10.858  64.735  1.00  0.00    -0.347 OA 
HETATM   21  N   UNL     1      -9.522  15.648  69.556  1.00  0.00    -0.277 NA 
HETATM   22  C   UNL     1      -8.085   4.898  69.030  1.00  0.00    -0.079 C  
HETATM   23  C   UNL     1      -8.140   7.065  67.615  1.00  0.00    -0.114 C  
HETATM   24  C   UNL     1      -6.034   5.820  68.039  1.00  0.00    -0.017 C  
HETATM   25  C   UNL     1      -9.703   7.024  67.628  1.00  0.00    -0.163 C  
HETATM   26  H   UNL     1      -8.732  11.209  63.882  1.00  0.00     0.000 HD 
HETATM   27  C   UNL     1     -10.330   7.755  68.779  1.00  0.00    -0.219 A  
HETATM   28  C   UNL     1     -10.271   9.144  68.764  1.00  0.00    -0.228 A  
HETATM   29  C   UNL     1     -11.106   9.913  69.574  1.00  0.00    -0.217 A  
HETATM   30  C   UNL     1     -11.757   9.272  70.624  1.00  0.00    -0.222 A  
HETATM   31  O   UNL     1     -11.232  11.260  69.311  1.00  0.00    -0.232 OA 
HETATM   32  C   UNL     1     -11.117  11.636  67.886  1.00  0.00    -0.247 C  
HETATM   33  C   UNL     1     -11.775   7.859  70.715  1.00  0.00    -0.230 A  
HETATM   34  O   UNL     1     -12.334   9.986  71.633  1.00  0.00    -0.378 OA 
HETATM   35  C   UNL     1     -11.111   7.105  69.737  1.00  0.00    -0.239 A  
HETATM   36  H   UNL     1     -12.778   9.548  72.349  1.00  0.00     0.000 HD 
HETATM   37  C   UNL     1     -12.312  12.088  67.354  1.00  0.00     0.867 C  
HETATM   38  C   UNL     1     -12.748  13.310  67.847  1.00  0.00     1.096 C  
HETATM   39  C   UNL     1     -10.903  16.133  69.770  1.00  0.00    -0.333 C  
HETATM   40  C   UNL     1     -10.121  12.590  67.715  1.00  0.00    -0.218 C  
HETATM   41  C   UNL     1     -11.754  14.158  68.372  1.00  0.00    -0.380 C  
HETATM   42  C   UNL     1     -10.404  13.907  68.047  1.00  0.00    -0.245 C  
HETATM   43  C   UNL     1     -12.053  15.147  69.467  1.00  0.00    -0.316 C  
ENDROOT
BRANCH  15  44
HETATM   44  O   UNL     1      -8.073   9.473  62.546  1.00  0.00    -0.122 OA 
HETATM   45  C   UNL     1      -9.154  10.397  62.493  1.00  0.00    -0.292 C  
ENDBRANCH  15  44
BRANCH  37  46
HETATM   46  O   UNL     1     -12.460  11.707  66.028  1.00  0.00     0.434 OA 
HETATM   47  C   UNL     1     -11.344  11.809  65.160  1.00  0.00    -0.218 C  
ENDBRANCH  37  46
TORSDOF 2
ENDMDL
MODEL       51
REMARK 921   NORMALIZED FREE ENERGY PREDICTED BY IDOCK:    3.41 KCAL/MOL
REMARK 922        TOTAL FREE ENERGY PREDICTED BY IDOCK:    3.47 KCAL/MOL
REMARK 923 INTER-LIGAND FREE ENERGY PREDICTED BY IDOCK:    2.85 KCAL/MOL
REMARK 924 INTRA-LIGAND FREE ENERGY PREDICTED BY IDOCK:    0.62 KCAL/MOL
REMARK 927      BINDING AFFINITY PREDICTED BY RF-SCORE:    0.00 PKD
ROOT
HETATM    1  C   UNL     1     -12.933  11.443  69.890  1.00  0.00     0.430 C  
HETATM    2  C   UNL     1     -13.854  12.704  70.156  1.00  0.00     3.571 C  
HETATM    3  C   UNL     1     -13.222  14.065  70.300  1.00  0.00     0.283 A  
HETATM    4  C   UNL     1     -12.240  14.298  71.254  1.00  0.00    -0.426 A  
HETATM    5  C   UNL     1     -11.231  15.211  70.972  1.00  0.00    -0.328 A  
HETATM    6  C   UNL     1     -11.308  15.997  69.825  1.00  0.00    -0.331 A  
HETATM    7  C   UNL     1     -12.544  16.101  69.195  1.00  0.00     0.949 A  
HETATM    8  O   UNL     1     -10.101  16.488  69.389  1.00  0.00    -0.264 OA 
HETATM    9  C   UNL     1     -13.470  15.071  69.363  1.00  0.00     1.928 A  
HETATM   10  C   UNL     1      -9.867  16.979  68.124  1.00  0.00    -0.273 A  
HETATM   11  C   UNL     1      -8.675  17.716  68.000  1.00  0.00    -0.253 A  
HETATM   12  C   UNL     1      -8.545  18.638  66.943  1.00  0.00    -0.284 A  
HETATM   13  C   UNL     1      -7.400  19.606  66.892  1.00  0.00    -0.246 C  
HETATM   14  C   UNL     1      -9.526  18.704  65.966  1.00  0.00    -0.051 A  
HETATM   15  C   UNL     1     -10.532  17.755  65.919  1.00  0.00    -0.251 A  
HETATM   16  C   UNL     1      -6.183  19.251  67.731  1.00  0.00    -0.212 C  
HETATM   17  C   UNL     1     -10.643  16.843  66.973  1.00  0.00    -0.230 A  
HETATM   18  C   UNL     1     -11.789  11.086  72.040  1.00  0.00     1.772 C  
HETATM   19  N   UNL     1      -6.503  18.565  69.062  1.00  0.00    -0.245 N  
HETATM   20  O   UNL     1     -11.459  15.760  66.781  1.00  0.00    -0.027 OA 
HETATM   21  N   UNL     1     -12.769  10.569  71.089  1.00  0.00    -0.383 NA 
HETATM   22  C   UNL     1      -5.162  18.194  69.709  1.00  0.00    -0.203 C  
HETATM   23  C   UNL     1      -7.435  17.332  68.818  1.00  0.00    -0.260 C  
HETATM   24  C   UNL     1      -7.231  19.475  70.056  1.00  0.00     0.225 C  
HETATM   25  C   UNL     1      -6.690  16.207  68.028  1.00  0.00    -0.143 C  
HETATM   26  H   UNL     1     -11.988  15.667  65.997  1.00  0.00     0.000 HD 
HETATM   27  C   UNL     1      -6.503  14.932  68.798  1.00  0.00    -0.086 A  
HETATM   28  C   UNL     1      -7.631  14.154  69.030  1.00  0.00    -0.058 A  
HETATM   29  C   UNL     1      -7.523  12.817  69.411  1.00  0.00     0.448 A  
HETATM   30  C   UNL     1      -6.286  12.374  69.869  1.00  0.00    -0.102 A  
HETATM   31  O   UNL     1      -8.637  12.010  69.332  1.00  0.00     0.586 OA 
HETATM   32  C   UNL     1      -9.579  12.341  68.242  1.00  0.00    -0.212 C  
HETATM   33  C   UNL     1      -5.125  13.171  69.719  1.00  0.00    -0.082 A  
HETATM   34  O   UNL     1      -6.168  11.193  70.541  1.00  0.00    -0.271 OA 
HETATM   35  C   UNL     1      -5.238  14.431  69.111  1.00  0.00    -0.078 A  
HETATM   36  H   UNL     1      -5.323  10.891  70.855  1.00  0.00     0.000 HD 
HETATM   37  C   UNL     1      -9.616  11.374  67.254  1.00  0.00    -0.174 C  
HETATM   38  C   UNL     1     -10.176  10.164  67.639  1.00  0.00    -0.246 C  
HETATM   39  C   UNL     1     -12.438   9.199  70.644  1.00  0.00     0.108 C  
HETATM   40  C   UNL     1     -10.854  12.560  68.752  1.00  0.00    -0.276 C  
HETATM   41  C   UNL     1     -11.076  10.213  68.720  1.00  0.00    -0.250 C  
HETATM   42  C   UNL     1     -11.626  11.459  69.093  1.00  0.00    -0.381 C  
HETATM   43  C   UNL     1     -11.266   9.043  69.650  1.00  0.00     0.007 C  
ENDROOT
BRANCH  15  44
HETATM   44  O   UNL     1     -11.474  17.625  64.932  1.00  0.00    -0.263 OA 
HETATM   45  C   UNL     1     -11.592  16.336  64.340  1.00  0.00    -0.056 C  
ENDBRANCH  15  44
BRANCH  37  46
HETATM   46  O   UNL     1      -9.800  11.930  65.997  1.00  0.00    -0.224 OA 
HETATM   47  C   UNL     1     -10.534  11.200  65.029  1.00  0.00    -0.293 C  
ENDBRANCH  37  46
TORSDOF 2
ENDMDL
MODEL       52
REMARK 921   NORMALIZED FREE ENERGY PREDICTED BY IDOCK:    4.39 KCAL/MOL
REMARK 922        TOTAL FREE ENERGY PREDICTED BY IDOCK:    4.56 KCAL/MOL
REMARK 923 INTER-LIGAND FREE ENERGY PREDICTED BY IDOCK:    4.27 KCAL/MOL
REMARK 924 INTRA-LIGAND FREE ENERGY PREDICTED BY IDOCK:    0.29 KCAL/MOL
REMARK 927      BINDING AFFINITY PREDICTED BY RF-SCORE:    0.00 PKD
ROOT
HETATM    1  C   UNL     1      -8.269   4.671  69.559  1.00  0.00    -0.068 C  
HETATM    2  C   UNL     1      -8.271   5.295  71.016  1.00  0.00    -0.116 C  
HETATM    3  C   UNL     1      -7.819   6.720  71.212  1.00  0.00    -0.101 A  
HETATM    4  C   UNL     1      -6.561   7.133  70.791  1.00  0.00    -0.048 A  
HETATM    5  C   UNL     1      -6.398   8.436  70.335  1.00  0.00    -0.035 A  
HETATM    6  C   UNL     1      -7.441   9.350  70.462  1.00  0.00    -0.145 A  
HETATM    7  C   UNL     1      -8.467   9.041  71.349  1.00  0.00    -0.149 A  
HETATM    8  O   UNL     1      -7.378  10.410  69.589  1.00  0.00    -0.126 OA 
HETATM    9  C   UNL     1      -8.714   7.700  71.647  1.00  0.00    -0.132 A  
HETATM   10  C   UNL     1      -8.438  11.234  69.281  1.00  0.00     0.213 A  
HETATM   11  C   UNL     1      -8.074  12.427  68.632  1.00  0.00    -0.020 A  
HETATM   12  C   UNL     1      -8.949  13.530  68.681  1.00  0.00    -0.002 A  
HETATM   13  C   UNL     1      -8.519  14.887  68.205  1.00  0.00    -0.151 C  
HETATM   14  C   UNL     1     -10.208  13.382  69.242  1.00  0.00     0.299 A  
HETATM   15  C   UNL     1     -10.678  12.126  69.585  1.00  0.00     0.378 A  
HETATM   16  C   UNL     1      -7.322  14.920  67.269  1.00  0.00    -0.140 C  
HETATM   17  C   UNL     1      -9.797  11.042  69.524  1.00  0.00     0.161 A  
HETATM   18  C   UNL     1      -5.879   4.366  69.054  1.00  0.00    -0.022 C  
HETATM   19  N   UNL     1      -6.245  13.875  67.570  1.00  0.00    -0.089 N  
HETATM   20  O   UNL     1     -10.342   9.787  69.604  1.00  0.00    -0.206 OA 
HETATM   21  N   UNL     1      -7.152   3.707  69.333  1.00  0.00    -0.045 NA 
HETATM   22  C   UNL     1      -5.183  13.994  66.469  1.00  0.00     3.204 C  
HETATM   23  C   UNL     1      -6.890  12.452  67.656  1.00  0.00    -0.132 C  
HETATM   24  C   UNL     1      -5.523  14.110  68.900  1.00  0.00    -0.083 C  
HETATM   25  C   UNL     1      -7.430  11.991  66.263  1.00  0.00     0.524 C  
HETATM   26  H   UNL     1     -11.269   9.656  69.769  1.00  0.00     0.000 HD 
HETATM   27  C   UNL     1      -6.731  10.789  65.697  1.00  0.00    -0.019 A  
HETATM   28  C   UNL     1      -6.974   9.563  66.304  1.00  0.00    -0.091 A  
HETATM   29  C   UNL     1      -6.668   8.363  65.661  1.00  0.00    -0.056 A  
HETATM   30  C   UNL     1      -5.824   8.419  64.556  1.00  0.00    -0.063 A  
HETATM   31  O   UNL     1      -7.197   7.190  66.154  1.00  0.00    -0.071 OA 
HETATM   32  C   UNL     1      -8.530   7.315  66.782  1.00  0.00    -0.121 C  
HETATM   33  C   UNL     1      -5.492   9.657  63.955  1.00  0.00    -0.075 A  
HETATM   34  O   UNL     1      -5.235   7.291  64.065  1.00  0.00    -0.028 OA 
HETATM   35  C   UNL     1      -6.015  10.840  64.499  1.00  0.00     0.122 A  
HETATM   36  H   UNL     1      -4.658   7.330  63.311  1.00  0.00     0.000 HD 
HETATM   37  C   UNL     1      -9.526   6.691  66.053  1.00  0.00     0.065 C  
HETATM   38  C   UNL     1      -9.451   5.306  66.024  1.00  0.00    -0.169 C  
HETATM   39  C   UNL     1      -7.537   2.770  68.256  1.00  0.00    -0.055 C  
HETATM   40  C   UNL     1      -8.502   6.823  68.082  1.00  0.00    -0.121 C  
HETATM   41  C   UNL     1      -8.767   4.698  67.094  1.00  0.00    -0.104 C  
HETATM   42  C   UNL     1      -8.536   5.448  68.268  1.00  0.00    -0.096 C  
HETATM   43  C   UNL     1      -8.048   3.385  66.934  1.00  0.00    -0.084 C  
ENDROOT
BRANCH  15  44
HETATM   44  O   UNL     1     -11.944  11.827  70.013  1.00  0.00    -0.321 OA 
HETATM   45  C   UNL     1     -12.875  11.439  69.009  1.00  0.00     1.273 C  
ENDBRANCH  15  44
BRANCH  37  46
HETATM   46  O   UNL     1     -10.725   7.385  66.122  1.00  0.00     0.599 OA 
HETATM   47  C   UNL     1     -11.473   7.335  67.325  1.00  0.00     0.711 C  
ENDBRANCH  37  46
TORSDOF 2
ENDMDL
MODEL       53
REMARK 921   NORMALIZED FREE ENERGY PREDICTED BY IDOCK:    4.79 KCAL/MOL
REMARK 922        TOTAL FREE ENERGY PREDICTED BY IDOCK:    5.01 KCAL/MOL
REMARK 923 INTER-LIGAND FREE ENERGY PREDICTED BY IDOCK:    4.93 KCAL/MOL
REMARK 924 INTRA-LIGAND FREE ENERGY PREDICTED BY IDOCK:    0.08 KCAL/MOL
REMARK 927      BINDING AFFINITY PREDICTED BY RF-SCORE:    0.00 PKD
ROOT
HETATM    1  C   UNL     1      -9.756  16.971  67.231  1.00  0.00    -0.253 C  
HETATM    2  C   UNL     1     -11.330  16.812  67.135  1.00  0.00     0.439 C  
HETATM    3  C   UNL     1     -11.936  15.431  67.134  1.00  0.00     0.318 A  
HETATM    4  C   UNL     1     -11.555  14.485  66.190  1.00  0.00    -0.366 A  
HETATM    5  C   UNL     1     -11.534  13.144  66.551  1.00  0.00    -0.378 A  
HETATM    6  C   UNL     1     -12.051  12.750  67.783  1.00  0.00    -0.133 A  
HETATM    7  C   UNL     1     -12.883  13.643  68.451  1.00  0.00     1.437 A  
HETATM    8  O   UNL     1     -11.570  11.548  68.244  1.00  0.00    -0.279 OA 
HETATM    9  C   UNL     1     -12.750  15.007  68.187  1.00  0.00     1.121 A  
HETATM   10  C   UNL     1     -11.649  11.122  69.551  1.00  0.00    -0.321 A  
HETATM   11  C   UNL     1     -11.393   9.751  69.731  1.00  0.00    -0.201 A  
HETATM   12  C   UNL     1     -11.882   9.107  70.884  1.00  0.00    -0.327 A  
HETATM   13  C   UNL     1     -11.836   7.613  71.019  1.00  0.00    -0.306 C  
HETATM   14  C   UNL     1     -12.481   9.854  71.886  1.00  0.00    -0.435 A  
HETATM   15  C   UNL     1     -12.439  11.238  71.847  1.00  0.00     0.149 A  
HETATM   16  C   UNL     1     -10.852   6.888  70.115  1.00  0.00    -0.263 C  
HETATM   17  C   UNL     1     -11.944  11.860  70.697  1.00  0.00    -0.191 A  
HETATM   18  C   UNL     1      -8.954  16.224  65.026  1.00  0.00     2.422 C  
HETATM   19  N   UNL     1     -10.692   7.502  68.722  1.00  0.00    -0.147 N  
HETATM   20  O   UNL     1     -11.662  13.199  70.782  1.00  0.00    -0.480 OA 
HETATM   21  N   UNL     1      -9.124  17.355  65.935  1.00  0.00    -0.523 NA 
HETATM   22  C   UNL     1      -9.594   6.706  68.004  1.00  0.00    -0.123 C  
HETATM   23  C   UNL     1     -10.370   9.028  68.844  1.00  0.00    -0.215 C  
HETATM   24  C   UNL     1     -11.951   7.387  67.858  1.00  0.00     2.550 C  
HETATM   25  C   UNL     1      -8.961   9.260  69.480  1.00  0.00    -0.154 C  
HETATM   26  H   UNL     1     -11.864  13.702  71.563  1.00  0.00     0.000 HD 
HETATM   27  C   UNL     1      -7.971   9.918  68.563  1.00  0.00    -0.086 A  
HETATM   28  C   UNL     1      -8.165  11.263  68.270  1.00  0.00    -0.143 A  
HETATM   29  C   UNL     1      -7.140  12.042  67.735  1.00  0.00    -0.108 A  
HETATM   30  C   UNL     1      -6.039  11.382  67.198  1.00  0.00    -0.103 A  
HETATM   31  O   UNL     1      -7.272  13.414  67.746  1.00  0.00    -0.121 OA 
HETATM   32  C   UNL     1      -8.031  13.964  68.890  1.00  0.00     0.006 C  
HETATM   33  C   UNL     1      -5.845   9.996  67.412  1.00  0.00    -0.053 A  
HETATM   34  O   UNL     1      -5.154  12.035  66.391  1.00  0.00    -0.349 OA 
HETATM   35  C   UNL     1      -6.792   9.284  68.164  1.00  0.00    -0.064 A  
HETATM   36  H   UNL     1      -4.402  11.584  66.024  1.00  0.00     0.000 HD 
HETATM   37  C   UNL     1      -7.236  14.689  69.760  1.00  0.00    -0.058 C  
HETATM   38  C   UNL     1      -6.750  15.885  69.251  1.00  0.00    -0.176 C  
HETATM   39  C   UNL     1      -7.841  18.038  66.211  1.00  0.00    -0.253 C  
HETATM   40  C   UNL     1      -9.090  14.744  68.440  1.00  0.00    -0.188 C  
HETATM   41  C   UNL     1      -7.494  16.463  68.205  1.00  0.00    -0.152 C  
HETATM   42  C   UNL     1      -8.821  16.029  67.992  1.00  0.00    -0.175 C  
HETATM   43  C   UNL     1      -6.847  17.323  67.151  1.00  0.00    -0.209 C  
ENDROOT
BRANCH  15  44
HETATM   44  O   UNL     1     -12.865  12.086  72.834  1.00  0.00     0.954 OA 
HETATM   45  C   UNL     1     -13.988  12.902  72.523  1.00  0.00    -0.126 C  
ENDBRANCH  15  44
BRANCH  37  46
HETATM   46  O   UNL     1      -7.641  14.533  71.077  1.00  0.00     1.391 OA 
HETATM   47  C   UNL     1      -6.653  14.424  72.087  1.00  0.00     1.602 C  
ENDBRANCH  37  46
TORSDOF 2
ENDMDL
MODEL       54
REMARK 921   NORMALIZED FREE ENERGY PREDICTED BY IDOCK:    4.91 KCAL/MOL
REMARK 922        TOTAL FREE ENERGY PREDICTED BY IDOCK:    5.14 KCAL/MOL
REMARK 923 INTER-LIGAND FREE ENERGY PREDICTED BY IDOCK:    5.29 KCAL/MOL
REMARK 924 INTRA-LIGAND FREE ENERGY PREDICTED BY IDOCK:   -0.15 KCAL/MOL
REMARK 927      BINDING AFFINITY PREDICTED BY RF-SCORE:    0.00 PKD
ROOT
HETATM    1  C   UNL     1     -10.758  18.714  68.186  1.00  0.00    -0.136 C  
HETATM    2  C   UNL     1     -10.938  18.737  66.612  1.00  0.00    -0.038 C  
HETATM    3  C   UNL     1     -10.253  17.687  65.773  1.00  0.00    -0.160 A  
HETATM    4  C   UNL     1      -8.877  17.505  65.841  1.00  0.00     0.059 A  
HETATM    5  C   UNL     1      -8.358  16.228  65.670  1.00  0.00     0.855 A  
HETATM    6  C   UNL     1      -9.194  15.188  65.269  1.00  0.00     0.736 A  
HETATM    7  C   UNL     1     -10.424  15.525  64.714  1.00  0.00    -0.155 A  
HETATM    8  O   UNL     1      -8.733  13.933  65.585  1.00  0.00     0.918 OA 
HETATM    9  C   UNL     1     -10.998  16.751  65.052  1.00  0.00    -0.118 A  
HETATM   10  C   UNL     1      -9.511  12.797  65.615  1.00  0.00     0.052 A  
HETATM   11  C   UNL     1      -8.782  11.595  65.643  1.00  0.00     0.125 A  
HETATM   12  C   UNL     1      -9.402  10.406  65.212  1.00  0.00    -0.263 A  
HETATM   13  C   UNL     1      -8.612   9.146  65.007  1.00  0.00    -0.204 C  
HETATM   14  C   UNL     1     -10.753  10.409  64.905  1.00  0.00     0.209 A  
HETATM   15  C   UNL     1     -11.533  11.518  65.189  1.00  0.00    -0.020 A  
HETATM   16  C   UNL     1      -7.264   9.079  65.708  1.00  0.00    -0.089 C  
HETATM   17  C   UNL     1     -10.901  12.687  65.621  1.00  0.00    -0.274 A  
HETATM   18  C   UNL     1      -8.430  19.441  68.523  1.00  0.00    -0.362 C  
HETATM   19  N   UNL     1      -6.513  10.411  65.778  1.00  0.00    -0.115 N  
HETATM   20  O   UNL     1     -11.697  13.671  66.149  1.00  0.00    -0.334 OA 
HETATM   21  N   UNL     1      -9.841  19.779  68.690  1.00  0.00    -0.406 NA 
HETATM   22  C   UNL     1      -5.242  10.166  66.603  1.00  0.00    -0.040 C  
HETATM   23  C   UNL     1      -7.440  11.517  66.384  1.00  0.00     0.047 C  
HETATM   24  C   UNL     1      -6.054  10.925  64.410  1.00  0.00     0.374 C  
HETATM   25  C   UNL     1      -7.759  11.227  67.887  1.00  0.00    -0.110 C  
HETATM   26  H   UNL     1     -12.645  13.595  66.153  1.00  0.00     0.000 HD 
HETATM   27  C   UNL     1      -7.219  12.253  68.841  1.00  0.00    -0.069 A  
HETATM   28  C   UNL     1      -7.831  13.500  68.853  1.00  0.00     0.059 A  
HETATM   29  C   UNL     1      -7.651  14.385  69.916  1.00  0.00     0.342 A  
HETATM   30  C   UNL     1      -6.600  14.135  70.793  1.00  0.00     0.249 A  
HETATM   31  O   UNL     1      -8.501  15.463  70.036  1.00  0.00    -0.010 OA 
HETATM   32  C   UNL     1      -9.881  15.233  69.557  1.00  0.00    -0.226 C  
HETATM   33  C   UNL     1      -5.902  12.904  70.762  1.00  0.00    -0.068 A  
HETATM   34  O   UNL     1      -6.166  15.095  71.660  1.00  0.00     0.539 OA 
HETATM   35  C   UNL     1      -6.273  11.935  69.818  1.00  0.00    -0.137 A  
HETATM   36  H   UNL     1      -5.448  14.924  72.259  1.00  0.00     0.000 HD 
HETATM   37  C   UNL     1     -10.809  15.221  70.584  1.00  0.00    -0.242 C  
HETATM   38  C   UNL     1     -11.015  16.446  71.201  1.00  0.00     0.247 C  
HETATM   39  C   UNL     1     -10.176  20.073  70.099  1.00  0.00     0.706 C  
HETATM   40  C   UNL     1     -10.228  16.182  68.603  1.00  0.00    -0.244 C  
HETATM   41  C   UNL     1     -10.711  17.587  70.434  1.00  0.00     1.157 C  
HETATM   42  C   UNL     1     -10.583  17.452  69.034  1.00  0.00    -0.207 C  
HETATM   43  C   UNL     1     -10.260  18.875  71.071  1.00  0.00     2.539 C  
ENDROOT
BRANCH  15  44
HETATM   44  O   UNL     1     -12.895  11.599  65.066  1.00  0.00     0.347 OA 
HETATM   45  C   UNL     1     -13.384  12.252  63.900  1.00  0.00     0.407 C  
ENDBRANCH  15  44
BRANCH  37  46
HETATM   46  O   UNL     1     -11.826  14.309  70.346  1.00  0.00    -0.290 OA 
HETATM   47  C   UNL     1     -12.847  14.156  71.318  1.00  0.00    -0.359 C  
ENDBRANCH  37  46
TORSDOF 2
ENDMDL
MODEL       55
REMARK 921   NORMALIZED FREE ENERGY PREDICTED BY IDOCK:    8.43 KCAL/MOL
REMARK 922        TOTAL FREE ENERGY PREDICTED BY IDOCK:    9.08 KCAL/MOL
REMARK 923 INTER-LIGAND FREE ENERGY PREDICTED BY IDOCK:    9.36 KCAL/MOL
REMARK 924 INTRA-LIGAND FREE ENERGY PREDICTED BY IDOCK:   -0.28 KCAL/MOL
REMARK 927      BINDING AFFINITY PREDICTED BY RF-SCORE:    0.00 PKD
ROOT
HETATM    1  C   UNL     1     -12.536  13.947  72.346  1.00  0.00    -0.101 C  
HETATM    2  C   UNL     1     -12.777  12.392  72.534  1.00  0.00     0.793 C  
HETATM    3  C   UNL     1     -12.539  11.460  71.373  1.00  0.00    -0.439 A  
HETATM    4  C   UNL     1     -13.196  11.646  70.163  1.00  0.00     0.868 A  
HETATM    5  C   UNL     1     -12.543  11.307  68.984  1.00  0.00     0.452 A  
HETATM    6  C   UNL     1     -11.323  10.637  69.036  1.00  0.00    -0.277 A  
HETATM    7  C   UNL     1     -10.975  10.019  70.232  1.00  0.00    -0.377 A  
HETATM    8  O   UNL     1     -10.551  10.773  67.907  1.00  0.00    -0.192 OA 
HETATM    9  C   UNL     1     -11.521  10.505  71.421  1.00  0.00     0.200 A  
HETATM   10  C   UNL     1      -9.200  10.513  67.846  1.00  0.00    -0.140 A  
HETATM   11  C   UNL     1      -8.689  10.405  66.541  1.00  0.00    -0.143 A  
HETATM   12  C   UNL     1      -7.485   9.704  66.331  1.00  0.00    -0.094 A  
HETATM   13  C   UNL     1      -7.013   9.365  64.946  1.00  0.00    -0.097 C  
HETATM   14  C   UNL     1      -6.754   9.254  67.419  1.00  0.00    -0.069 A  
HETATM   15  C   UNL     1      -7.097   9.645  68.702  1.00  0.00    -0.072 A  
HETATM   16  C   UNL     1      -7.611  10.186  63.815  1.00  0.00    -0.133 C  
HETATM   17  C   UNL     1      -8.292  10.346  68.891  1.00  0.00    -0.138 A  
HETATM   18  C   UNL     1     -14.407  14.663  70.915  1.00  0.00     0.257 C  
HETATM   19  N   UNL     1      -9.077  10.577  64.013  1.00  0.00    -0.213 N  
HETATM   20  O   UNL     1      -8.477  10.950  70.107  1.00  0.00     0.051 OA 
HETATM   21  N   UNL     1     -13.802  14.731  72.243  1.00  0.00    -0.444 NA 
HETATM   22  C   UNL     1      -9.465  11.479  62.835  1.00  0.00    -0.277 C  
HETATM   23  C   UNL     1      -9.265  11.264  65.407  1.00  0.00    -0.183 C  
HETATM   24  C   UNL     1     -10.035   9.382  63.982  1.00  0.00     1.534 C  
HETATM   25  C   UNL     1      -8.536  12.646  65.458  1.00  0.00     1.295 C  
HETATM   26  H   UNL     1      -7.858  10.836  70.820  1.00  0.00     0.000 HD 
HETATM   27  C   UNL     1      -9.455  13.822  65.624  1.00  0.00     0.071 A  
HETATM   28  C   UNL     1     -10.063  13.989  66.862  1.00  0.00    -0.259 A  
HETATM   29  C   UNL     1     -10.636  15.207  67.228  1.00  0.00    -0.286 A  
HETATM   30  C   UNL     1     -10.879  16.136  66.221  1.00  0.00    -0.135 A  
HETATM   31  O   UNL     1     -10.949  15.423  68.553  1.00  0.00    -0.254 OA 
HETATM   32  C   UNL     1     -10.055  14.762  69.527  1.00  0.00    -0.050 C  
HETATM   33  C   UNL     1     -10.338  15.962  64.924  1.00  0.00    -0.049 A  
HETATM   34  O   UNL     1     -11.702  17.203  66.434  1.00  0.00     1.349 OA 
HETATM   35  C   UNL     1      -9.561  14.824  64.657  1.00  0.00     1.294 A  
HETATM   36  H   UNL     1     -11.868  17.837  65.746  1.00  0.00     0.000 HD 
HETATM   37  C   UNL     1      -9.282  15.661  70.241  1.00  0.00     0.747 C  
HETATM   38  C   UNL     1      -9.986  16.461  71.130  1.00  0.00     2.660 C  
HETATM   39  C   UNL     1     -13.539  16.125  72.660  1.00  0.00    -0.107 C  
HETATM   40  C   UNL     1     -10.789  13.960  70.394  1.00  0.00     0.771 C  
HETATM   41  C   UNL     1     -11.215  15.948  71.587  1.00  0.00    -0.214 C  
HETATM   42  C   UNL     1     -11.479  14.570  71.432  1.00  0.00     0.019 C  
HETATM   43  C   UNL     1     -12.352  16.851  71.989  1.00  0.00     1.403 C  
ENDROOT
BRANCH  15  44
HETATM   44  O   UNL     1      -6.382   9.388  69.842  1.00  0.00    -0.040 OA 
HETATM   45  C   UNL     1      -6.761   8.229  70.576  1.00  0.00    -0.037 C  
ENDBRANCH  15  44
BRANCH  37  46
HETATM   46  O   UNL     1      -8.021  15.153  70.512  1.00  0.00     0.603 OA 
HETATM   47  C   UNL     1      -7.094  15.026  69.447  1.00  0.00    -0.186 C  
ENDBRANCH  37  46
TORSDOF 2
ENDMDL
MODEL       56
REMARK 921   NORMALIZED FREE ENERGY PREDICTED BY IDOCK:   10.10 KCAL/MOL
REMARK 922        TOTAL FREE ENERGY PREDICTED BY IDOCK:   10.94 KCAL/MOL
REMARK 923 INTER-LIGAND FREE ENERGY PREDICTED BY IDOCK:   10.68 KCAL/MOL
REMARK 924 INTRA-LIGAND FREE ENERGY PREDICTED BY IDOCK:    0.26 KCAL/MOL
REMARK 927      BINDING AFFINITY PREDICTED BY RF-SCORE:    0.00 PKD
ROOT
HETATM    1  C   UNL     1      -8.398   3.766  65.876  1.00  0.00    -0.109 C  
HETATM    2  C   UNL     1      -6.996   3.611  66.598  1.00  0.00    -0.058 C  
HETATM    3  C   UNL     1      -6.235   4.846  67.009  1.00  0.00    -0.032 A  
HETATM    4  C   UNL     1      -5.903   5.822  66.078  1.00  0.00    -0.021 A  
HETATM    5  C   UNL     1      -5.860   7.151  66.483  1.00  0.00    -0.034 A  
HETATM    6  C   UNL     1      -5.980   7.468  67.834  1.00  0.00    -0.039 A  
HETATM    7  C   UNL     1      -5.782   6.446  68.757  1.00  0.00    -0.020 A  
HETATM    8  O   UNL     1      -6.400   8.753  68.082  1.00  0.00    -0.054 OA 
HETATM    9  C   UNL     1      -6.008   5.129  68.357  1.00  0.00    -0.025 A  
HETATM   10  C   UNL     1      -6.921   9.188  69.280  1.00  0.00    -0.053 A  
HETATM   11  C   UNL     1      -6.978  10.587  69.412  1.00  0.00    -0.099 A  
HETATM   12  C   UNL     1      -7.036  11.153  70.701  1.00  0.00     1.228 A  
HETATM   13  C   UNL     1      -6.872  12.630  70.910  1.00  0.00     2.561 C  
HETATM   14  C   UNL     1      -7.177  10.329  71.806  1.00  0.00     2.491 A  
HETATM   15  C   UNL     1      -7.444   8.980  71.644  1.00  0.00     0.055 A  
HETATM   16  C   UNL     1      -7.108  13.510  69.693  1.00  0.00     0.280 C  
HETATM   17  C   UNL     1      -7.389   8.437  70.357  1.00  0.00    -0.056 A  
HETATM   18  C   UNL     1      -7.817   4.598  63.633  1.00  0.00    -0.083 C  
HETATM   19  N   UNL     1      -6.646  12.903  68.366  1.00  0.00    -0.077 N  
HETATM   20  O   UNL     1      -7.913   7.182  70.184  1.00  0.00    -0.109 OA 
HETATM   21  N   UNL     1      -8.342   3.479  64.412  1.00  0.00    -0.093 NA 
HETATM   22  C   UNL     1      -7.060  13.880  67.258  1.00  0.00     0.086 C  
HETATM   23  C   UNL     1      -7.257  11.473  68.191  1.00  0.00    -0.080 C  
HETATM   24  C   UNL     1      -5.126  12.746  68.265  1.00  0.00    -0.069 C  
HETATM   25  C   UNL     1      -8.808  11.539  68.011  1.00  0.00    -0.158 C  
HETATM   26  H   UNL     1      -8.232   6.670  70.919  1.00  0.00     0.000 HD 
HETATM   27  C   UNL     1      -9.296  11.064  66.673  1.00  0.00    -0.196 A  
HETATM   28  C   UNL     1      -9.228   9.701  66.414  1.00  0.00    -0.205 A  
HETATM   29  C   UNL     1      -9.960   9.123  65.377  1.00  0.00     0.294 A  
HETATM   30  C   UNL     1     -10.493   9.972  64.412  1.00  0.00     0.930 A  
HETATM   31  O   UNL     1     -10.104   7.753  65.346  1.00  0.00     1.266 OA 
HETATM   32  C   UNL     1     -10.147   7.095  66.669  1.00  0.00    -0.159 C  
HETATM   33  C   UNL     1     -10.513  11.375  64.607  1.00  0.00    -0.373 A  
HETATM   34  O   UNL     1     -10.947   9.485  63.222  1.00  0.00     3.252 OA 
HETATM   35  C   UNL     1      -9.969  11.906  65.785  1.00  0.00    -0.264 A  
HETATM   36  H   UNL     1     -11.311  10.065  62.563  1.00  0.00     0.000 HD 
HETATM   37  C   UNL     1     -11.391   6.563  66.962  1.00  0.00     0.007 C  
HETATM   38  C   UNL     1     -11.758   5.472  66.187  1.00  0.00     1.671 C  
HETATM   39  C   UNL     1      -9.686   3.068  63.951  1.00  0.00    -0.144 C  
HETATM   40  C   UNL     1      -9.169   6.111  66.754  1.00  0.00    -0.143 C  
HETATM   41  C   UNL     1     -10.705   4.733  65.615  1.00  0.00    -0.188 C  
HETATM   42  C   UNL     1      -9.402   4.893  66.134  1.00  0.00    -0.153 C  
HETATM   43  C   UNL     1     -10.871   3.990  64.316  1.00  0.00    -0.149 C  
ENDROOT
BRANCH  15  44
HETATM   44  O   UNL     1      -7.741   8.091  72.643  1.00  0.00    -0.105 OA 
HETATM   45  C   UNL     1      -7.731   8.606  73.969  1.00  0.00     0.048 C  
ENDBRANCH  15  44
BRANCH  37  46
HETATM   46  O   UNL     1     -11.690   6.671  68.312  1.00  0.00     0.216 OA 
HETATM   47  C   UNL     1     -10.871   5.992  69.249  1.00  0.00    -0.358 C  
ENDBRANCH  37  46
TORSDOF 2
ENDMDL
MODEL       57
REMARK 921   NORMALIZED FREE ENERGY PREDICTED BY IDOCK:   11.03 KCAL/MOL
REMARK 922        TOTAL FREE ENERGY PREDICTED BY IDOCK:   11.98 KCAL/MOL
REMARK 923 INTER-LIGAND FREE ENERGY PREDICTED BY IDOCK:   11.20 KCAL/MOL
REMARK 924 INTRA-LIGAND FREE ENERGY PREDICTED BY IDOCK:    0.78 KCAL/MOL
REMARK 927      BINDING AFFINITY PREDICTED BY RF-SCORE:    0.00 PKD
ROOT
HETATM    1  C   UNL     1      -6.441  18.597  69.588  1.00  0.00    -0.175 C  
HETATM    2  C   UNL     1      -5.209  17.624  69.373  1.00  0.00    -0.177 C  
HETATM    3  C   UNL     1      -5.383  16.145  69.608  1.00  0.00    -0.127 A  
HETATM    4  C   UNL     1      -5.839  15.666  70.829  1.00  0.00     0.098 A  
HETATM    5  C   UNL     1      -6.622  14.517  70.852  1.00  0.00     0.284 A  
HETATM    6  C   UNL     1      -6.796  13.775  69.687  1.00  0.00     0.049 A  
HETATM    7  C   UNL     1      -5.908  13.998  68.639  1.00  0.00    -0.085 A  
HETATM    8  O   UNL     1      -7.918  12.981  69.680  1.00  0.00     0.875 OA 
HETATM    9  C   UNL     1      -5.271  15.236  68.553  1.00  0.00    -0.099 A  
HETATM   10  C   UNL     1      -8.488  12.440  68.549  1.00  0.00    -0.069 A  
HETATM   11  C   UNL     1      -9.416  11.414  68.802  1.00  0.00    -0.128 A  
HETATM   12  C   UNL     1      -9.708  10.486  67.783  1.00  0.00    -0.180 A  
HETATM   13  C   UNL     1     -10.511   9.250  68.064  1.00  0.00    -0.275 C  
HETATM   14  C   UNL     1      -9.189  10.676  66.513  1.00  0.00    -0.187 A  
HETATM   15  C   UNL     1      -8.543  11.858  66.190  1.00  0.00     0.052 A  
HETATM   16  C   UNL     1     -11.363   9.275  69.323  1.00  0.00     0.208 C  
HETATM   17  C   UNL     1      -8.267  12.770  67.213  1.00  0.00    -0.181 A  
HETATM   18  C   UNL     1      -6.731  18.648  72.032  1.00  0.00     3.427 C  
HETATM   19  N   UNL     1     -10.740  10.027  70.502  1.00  0.00    -0.305 N  
HETATM   20  O   UNL     1      -7.878  14.030  66.839  1.00  0.00    -0.355 OA 
HETATM   21  N   UNL     1      -6.345  19.401  70.841  1.00  0.00     0.139 NA 
HETATM   22  C   UNL     1     -11.781  10.034  71.629  1.00  0.00    -0.169 C  
HETATM   23  C   UNL     1     -10.305  11.461  70.052  1.00  0.00     0.929 C  
HETATM   24  C   UNL     1      -9.490   9.346  71.066  1.00  0.00    -0.173 C  
HETATM   25  C   UNL     1     -11.546  12.346  69.704  1.00  0.00    -0.330 C  
HETATM   26  H   UNL     1      -7.728  14.256  65.928  1.00  0.00     0.000 HD 
HETATM   27  C   UNL     1     -11.732  13.530  70.608  1.00  0.00    -0.054 A  
HETATM   28  C   UNL     1     -10.829  14.579  70.482  1.00  0.00     0.227 A  
HETATM   29  C   UNL     1     -11.110  15.842  71.004  1.00  0.00    -0.280 A  
HETATM   30  C   UNL     1     -12.147  15.944  71.926  1.00  0.00    -0.498 A  
HETATM   31  O   UNL     1     -10.344  16.914  70.599  1.00  0.00     0.716 OA 
HETATM   32  C   UNL     1      -9.838  16.838  69.212  1.00  0.00    -0.168 C  
HETATM   33  C   UNL     1     -13.043  14.869  72.137  1.00  0.00    -0.431 A  
HETATM   34  O   UNL     1     -12.287  17.056  72.704  1.00  0.00     0.071 OA 
HETATM   35  C   UNL     1     -12.864  13.681  71.412  1.00  0.00    -0.442 A  
HETATM   36  H   UNL     1     -12.995  17.125  73.334  1.00  0.00     0.000 HD 
HETATM   37  C   UNL     1     -10.419  17.777  68.378  1.00  0.00    -0.347 C  
HETATM   38  C   UNL     1     -10.069  19.093  68.644  1.00  0.00    -0.471 C  
HETATM   39  C   UNL     1      -7.147  20.634  70.684  1.00  0.00     1.444 C  
HETATM   40  C   UNL     1      -8.454  16.966  69.193  1.00  0.00    -0.057 C  
HETATM   41  C   UNL     1      -8.843  19.288  69.308  1.00  0.00    -0.037 C  
HETATM   42  C   UNL     1      -7.906  18.233  69.331  1.00  0.00     0.269 C  
HETATM   43  C   UNL     1      -8.608  20.470  70.211  1.00  0.00     1.933 C  
ENDROOT
BRANCH  15  44
HETATM   44  O   UNL     1      -8.111  12.227  64.944  1.00  0.00     2.080 OA 
HETATM   45  C   UNL     1      -6.725  12.041  64.676  1.00  0.00     4.778 C  
ENDBRANCH  15  44
BRANCH  37  46
HETATM   46  O   UNL     1     -10.596  17.283  67.094  1.00  0.00    -0.324 OA 
HETATM   47  C   UNL     1      -9.653  16.357  66.583  1.00  0.00    -0.256 C  
ENDBRANCH  37  46
TORSDOF 2
ENDMDL
MODEL       58
REMARK 921   NORMALIZED FREE ENERGY PREDICTED BY IDOCK:   11.54 KCAL/MOL
REMARK 922        TOTAL FREE ENERGY PREDICTED BY IDOCK:   12.55 KCAL/MOL
REMARK 923 INTER-LIGAND FREE ENERGY PREDICTED BY IDOCK:   11.81 KCAL/MOL
REMARK 924 INTRA-LIGAND FREE ENERGY PREDICTED BY IDOCK:    0.74 KCAL/MOL
REMARK 927      BINDING AFFINITY PREDICTED BY RF-SCORE:    0.00 PKD
ROOT
HETATM    1  C   UNL     1      -9.212   7.893  64.699  1.00  0.00     1.142 C  
HETATM    2  C   UNL     1     -10.710   8.152  65.146  1.00  0.00     5.457 C  
HETATM    3  C   UNL     1     -11.268   7.406  66.331  1.00  0.00     1.662 A  
HETATM    4  C   UNL     1     -11.258   6.017  66.369  1.00  0.00     0.335 A  
HETATM    5  C   UNL     1     -11.102   5.378  67.593  1.00  0.00     0.544 A  
HETATM    6  C   UNL     1     -11.127   6.122  68.771  1.00  0.00    -0.319 A  
HETATM    7  C   UNL     1     -11.658   7.406  68.713  1.00  0.00     0.791 A  
HETATM    8  O   UNL     1     -10.506   5.518  69.838  1.00  0.00    -0.269 OA 
HETATM    9  C   UNL     1     -11.636   8.086  67.495  1.00  0.00     1.839 A  
HETATM   10  C   UNL     1     -10.097   6.173  70.978  1.00  0.00    -0.188 A  
HETATM   11  C   UNL     1      -9.788   5.323  72.055  1.00  0.00    -0.222 A  
HETATM   12  C   UNL     1      -9.816   5.838  73.366  1.00  0.00    -0.167 A  
HETATM   13  C   UNL     1      -9.718   4.933  74.560  1.00  0.00    -0.181 C  
HETATM   14  C   UNL     1     -10.007   7.196  73.566  1.00  0.00    -0.344 A  
HETATM   15  C   UNL     1      -9.987   8.071  72.492  1.00  0.00    -0.270 A  
HETATM   16  C   UNL     1      -9.134   3.553  74.308  1.00  0.00    -0.086 C  
HETATM   17  C   UNL     1      -9.953   7.542  71.199  1.00  0.00    -0.180 A  
HETATM   18  C   UNL     1      -9.275   5.638  63.712  1.00  0.00     0.746 C  
HETATM   19  N   UNL     1      -9.499   2.940  72.954  1.00  0.00    -0.091 N  
HETATM   20  O   UNL     1      -9.664   8.408  70.176  1.00  0.00    -0.171 OA 
HETATM   21  N   UNL     1      -9.101   7.067  63.461  1.00  0.00     1.370 NA 
HETATM   22  C   UNL     1      -8.740   1.612  72.842  1.00  0.00    -0.062 C  
HETATM   23  C   UNL     1      -9.161   3.945  71.803  1.00  0.00    -0.118 C  
HETATM   24  C   UNL     1     -10.988   2.606  72.820  1.00  0.00     0.097 C  
HETATM   25  C   UNL     1      -7.617   4.157  71.673  1.00  0.00    -0.065 C  
HETATM   26  H   UNL     1      -9.565   9.341  70.327  1.00  0.00     0.000 HD 
HETATM   27  C   UNL     1      -7.036   3.679  70.374  1.00  0.00    -0.037 A  
HETATM   28  C   UNL     1      -7.330   4.415  69.233  1.00  0.00    -0.052 A  
HETATM   29  C   UNL     1      -6.577   4.274  68.067  1.00  0.00    -0.042 A  
HETATM   30  C   UNL     1      -5.748   3.161  67.964  1.00  0.00    -0.019 A  
HETATM   31  O   UNL     1      -6.700   5.224  67.076  1.00  0.00    -0.055 OA 
HETATM   32  C   UNL     1      -6.986   6.594  67.550  1.00  0.00    -0.082 C  
HETATM   33  C   UNL     1      -5.484   2.342  69.088  1.00  0.00    -0.013 A  
HETATM   34  O   UNL     1      -5.224   2.785  66.762  1.00  0.00    -0.008 OA 
HETATM   35  C   UNL     1      -6.086   2.657  70.316  1.00  0.00    -0.023 A  
HETATM   36  H   UNL     1      -4.658   2.024  66.692  1.00  0.00     0.000 HD 
HETATM   37  C   UNL     1      -5.929   7.464  67.344  1.00  0.00    -0.042 C  
HETATM   38  C   UNL     1      -5.669   7.764  66.015  1.00  0.00    -0.037 C  
HETATM   39  C   UNL     1      -7.810   7.359  62.802  1.00  0.00    -0.130 C  
HETATM   40  C   UNL     1      -8.139   7.085  66.949  1.00  0.00    -0.116 C  
HETATM   41  C   UNL     1      -6.748   7.618  65.122  1.00  0.00    -0.047 C  
HETATM   42  C   UNL     1      -8.058   7.547  65.643  1.00  0.00    -0.128 C  
HETATM   43  C   UNL     1      -6.537   7.272  63.672  1.00  0.00    -0.052 C  
ENDROOT
BRANCH  15  44
HETATM   44  O   UNL     1     -10.023   9.438  72.565  1.00  0.00     0.554 OA 
HETATM   45  C   UNL     1     -10.710  10.108  71.514  1.00  0.00     0.949 C  
ENDBRANCH  15  44
BRANCH  37  46
HETATM   46  O   UNL     1      -5.821   8.393  68.368  1.00  0.00    -0.039 OA 
HETATM   47  C   UNL     1      -5.844   7.935  69.710  1.00  0.00    -0.023 C  
ENDBRANCH  37  46
TORSDOF 2
ENDMDL
MODEL       59
REMARK 921   NORMALIZED FREE ENERGY PREDICTED BY IDOCK:   12.45 KCAL/MOL
REMARK 922        TOTAL FREE ENERGY PREDICTED BY IDOCK:   13.56 KCAL/MOL
REMARK 923 INTER-LIGAND FREE ENERGY PREDICTED BY IDOCK:   13.83 KCAL/MOL
REMARK 924 INTRA-LIGAND FREE ENERGY PREDICTED BY IDOCK:   -0.27 KCAL/MOL
REMARK 927      BINDING AFFINITY PREDICTED BY RF-SCORE:    0.00 PKD
ROOT
HETATM    1  C   UNL     1      -7.819  10.595  66.147  1.00  0.00    -0.152 C  
HETATM    2  C   UNL     1      -8.214   9.268  65.376  1.00  0.00    -0.129 C  
HETATM    3  C   UNL     1      -8.284   7.965  66.133  1.00  0.00    -0.117 A  
HETATM    4  C   UNL     1      -7.188   7.495  66.846  1.00  0.00    -0.085 A  
HETATM    5  C   UNL     1      -7.405   6.771  68.013  1.00  0.00    -0.097 A  
HETATM    6  C   UNL     1      -8.698   6.384  68.358  1.00  0.00    -0.113 A  
HETATM    7  C   UNL     1      -9.670   6.420  67.364  1.00  0.00    -0.141 A  
HETATM    8  O   UNL     1      -8.875   6.120  69.695  1.00  0.00    -0.132 OA 
HETATM    9  C   UNL     1      -9.499   7.295  66.290  1.00  0.00    -0.133 A  
HETATM   10  C   UNL     1     -10.097   6.066  70.327  1.00  0.00    -0.194 A  
HETATM   11  C   UNL     1     -10.065   5.469  71.600  1.00  0.00    -0.249 A  
HETATM   12  C   UNL     1     -11.253   4.936  72.138  1.00  0.00     0.089 A  
HETATM   13  C   UNL     1     -11.234   4.094  73.381  1.00  0.00    -0.339 C  
HETATM   14  C   UNL     1     -12.454   5.130  71.475  1.00  0.00     2.790 A  
HETATM   15  C   UNL     1     -12.525   5.992  70.394  1.00  0.00     1.668 A  
HETATM   16  C   UNL     1     -10.004   4.229  74.264  1.00  0.00    -0.161 C  
HETATM   17  C   UNL     1     -11.337   6.517  69.877  1.00  0.00    -0.406 A  
HETATM   18  C   UNL     1      -5.417  10.314  66.610  1.00  0.00    -0.047 C  
HETATM   19  N   UNL     1      -8.693   4.442  73.506  1.00  0.00    -0.099 N  
HETATM   20  O   UNL     1     -11.445   7.562  68.997  1.00  0.00    -0.284 OA 
HETATM   21  N   UNL     1      -6.428  11.052  65.857  1.00  0.00    -0.061 NA 
HETATM   22  C   UNL     1      -7.596   4.660  74.557  1.00  0.00    -0.085 C  
HETATM   23  C   UNL     1      -8.840   5.639  72.508  1.00  0.00    -0.130 C  
HETATM   24  C   UNL     1      -8.266   3.229  72.674  1.00  0.00    -0.076 C  
HETATM   25  C   UNL     1      -9.014   6.993  73.270  1.00  0.00    -0.159 C  
HETATM   26  H   UNL     1     -12.291   7.870  68.690  1.00  0.00     0.000 HD 
HETATM   27  C   UNL     1      -7.892   7.968  73.061  1.00  0.00    -0.199 A  
HETATM   28  C   UNL     1      -7.795   8.573  71.814  1.00  0.00    -0.161 A  
HETATM   29  C   UNL     1      -7.032   9.726  71.626  1.00  0.00     0.750 A  
HETATM   30  C   UNL     1      -6.118  10.064  72.618  1.00  0.00     0.941 A  
HETATM   31  O   UNL     1      -7.205  10.457  70.470  1.00  0.00    -0.276 OA 
HETATM   32  C   UNL     1      -8.574  10.438  69.912  1.00  0.00     0.154 C  
HETATM   33  C   UNL     1      -6.137   9.418  73.878  1.00  0.00     0.255 A  
HETATM   34  O   UNL     1      -5.132  10.978  72.383  1.00  0.00    -0.318 OA 
HETATM   35  C   UNL     1      -7.085   8.410  74.111  1.00  0.00    -0.183 A  
HETATM   36  H   UNL     1      -4.508  11.209  73.061  1.00  0.00     0.000 HD 
HETATM   37  C   UNL     1      -9.207  11.665  70.005  1.00  0.00     2.513 C  
HETATM   38  C   UNL     1      -8.677  12.660  69.196  1.00  0.00     0.695 C  
HETATM   39  C   UNL     1      -6.342  12.509  66.099  1.00  0.00     2.396 C  
HETATM   40  C   UNL     1      -8.553  10.003  68.592  1.00  0.00    -0.123 C  
HETATM   41  C   UNL     1      -7.976  12.225  68.056  1.00  0.00    -0.150 C  
HETATM   42  C   UNL     1      -8.158  10.899  67.609  1.00  0.00    -0.115 C  
HETATM   43  C   UNL     1      -6.851  13.031  67.460  1.00  0.00    -0.156 C  
ENDROOT
BRANCH  15  44
HETATM   44  O   UNL     1     -13.667   6.377  69.744  1.00  0.00     4.221 OA 
HETATM   45  C   UNL     1     -14.399   7.446  70.333  1.00  0.00     2.060 C  
ENDBRANCH  15  44
BRANCH  37  46
HETATM   46  O   UNL     1     -10.566  11.524  70.246  1.00  0.00     0.659 OA 
HETATM   47  C   UNL     1     -11.483  12.156  69.369  1.00  0.00    -0.290 C  
ENDBRANCH  37  46
TORSDOF 2
ENDMDL
MODEL       60
REMARK 921   NORMALIZED FREE ENERGY PREDICTED BY IDOCK:   15.86 KCAL/MOL
REMARK 922        TOTAL FREE ENERGY PREDICTED BY IDOCK:   17.38 KCAL/MOL
REMARK 923 INTER-LIGAND FREE ENERGY PREDICTED BY IDOCK:   17.59 KCAL/MOL
REMARK 924 INTRA-LIGAND FREE ENERGY PREDICTED BY IDOCK:   -0.21 KCAL/MOL
REMARK 927      BINDING AFFINITY PREDICTED BY RF-SCORE:    0.00 PKD
ROOT
HETATM    1  C   UNL     1     -11.449   6.566  69.378  1.00  0.00    -0.281 C  
HETATM    2  C   UNL     1     -11.762   7.179  70.805  1.00  0.00    -0.363 C  
HETATM    3  C   UNL     1     -11.034   8.420  71.254  1.00  0.00    -0.305 A  
HETATM    4  C   UNL     1      -9.645   8.458  71.292  1.00  0.00    -0.239 A  
HETATM    5  C   UNL     1      -8.997   9.657  71.022  1.00  0.00     0.269 A  
HETATM    6  C   UNL     1      -9.737  10.830  70.887  1.00  0.00     3.048 A  
HETATM    7  C   UNL     1     -11.040  10.831  71.372  1.00  0.00     1.441 A  
HETATM    8  O   UNL     1      -9.107  11.821  70.173  1.00  0.00     2.340 OA 
HETATM    9  C   UNL     1     -11.723   9.617  71.463  1.00  0.00    -0.472 A  
HETATM   10  C   UNL     1      -9.743  12.907  69.613  1.00  0.00     1.657 A  
HETATM   11  C   UNL     1      -8.878  13.943  69.217  1.00  0.00     0.520 A  
HETATM   12  C   UNL     1      -9.390  15.248  69.078  1.00  0.00    -0.231 A  
HETATM   13  C   UNL     1      -8.478  16.424  68.879  1.00  0.00    -0.247 C  
HETATM   14  C   UNL     1     -10.753  15.467  69.194  1.00  0.00    -0.246 A  
HETATM   15  C   UNL     1     -11.630  14.397  69.263  1.00  0.00    -0.304 A  
HETATM   16  C   UNL     1      -7.078  16.110  68.379  1.00  0.00    -0.130 C  
HETATM   17  C   UNL     1     -11.105  13.108  69.394  1.00  0.00    -0.079 A  
HETATM   18  C   UNL     1      -9.201   5.595  69.635  1.00  0.00    -0.137 C  
HETATM   19  N   UNL     1      -6.484  14.806  68.918  1.00  0.00    -0.086 N  
HETATM   20  O   UNL     1     -11.963  12.059  69.190  1.00  0.00    -0.305 OA 
HETATM   21  N   UNL     1     -10.624   5.324  69.439  1.00  0.00    -0.218 NA 
HETATM   22  C   UNL     1      -5.128  14.611  68.226  1.00  0.00    -0.112 C  
HETATM   23  C   UNL     1      -7.479  13.623  68.674  1.00  0.00    -0.113 C  
HETATM   24  C   UNL     1      -6.205  14.841  70.423  1.00  0.00    -0.152 C  
HETATM   25  C   UNL     1      -7.634  13.320  67.148  1.00  0.00     0.014 C  
HETATM   26  H   UNL     1     -12.891  12.196  69.041  1.00  0.00     0.000 HD 
HETATM   27  C   UNL     1      -7.139  11.964  66.735  1.00  0.00    -0.003 A  
HETATM   28  C   UNL     1      -7.889  10.862  67.128  1.00  0.00    -0.127 A  
HETATM   29  C   UNL     1      -7.724   9.619  66.516  1.00  0.00    -0.098 A  
HETATM   30  C   UNL     1      -6.581   9.424  65.747  1.00  0.00    -0.073 A  
HETATM   31  O   UNL     1      -8.681   8.648  66.715  1.00  0.00    -0.120 OA 
HETATM   32  C   UNL     1     -10.060   9.150  66.895  1.00  0.00    -0.258 C  
HETATM   33  C   UNL     1      -5.749  10.513  65.388  1.00  0.00    -0.139 A  
HETATM   34  O   UNL     1      -6.190   8.171  65.376  1.00  0.00    -0.045 OA 
HETATM   35  C   UNL     1      -6.083  11.800  65.836  1.00  0.00     0.997 A  
HETATM   36  H   UNL     1      -5.409   8.038  64.851  1.00  0.00     0.000 HD 
HETATM   37  C   UNL     1     -10.890   8.825  65.837  1.00  0.00     2.073 C  
HETATM   38  C   UNL     1     -11.185   7.474  65.717  1.00  0.00     4.594 C  
HETATM   39  C   UNL     1     -10.870   4.524  68.220  1.00  0.00     1.467 C  
HETATM   40  C   UNL     1     -10.594   8.682  68.090  1.00  0.00    -0.189 C  
HETATM   41  C   UNL     1     -11.081   6.709  66.894  1.00  0.00    -0.319 C  
HETATM   42  C   UNL     1     -11.057   7.375  68.139  1.00  0.00     0.105 C  
HETATM   43  C   UNL     1     -10.732   5.245  66.861  1.00  0.00    -0.208 C  
ENDROOT
BRANCH  15  44
HETATM   44  O   UNL     1     -12.998  14.472  69.240  1.00  0.00     0.344 OA 
HETATM   45  C   UNL     1     -13.653  14.435  70.502  1.00  0.00     0.331 C  
ENDBRANCH  15  44
BRANCH  37  46
HETATM   46  O   UNL     1     -11.811   9.829  65.579  1.00  0.00     3.647 OA 
HETATM   47  C   UNL     1     -11.449  11.173  65.850  1.00  0.00     0.344 C  
ENDBRANCH  37  46
TORSDOF 2
ENDMDL
MODEL       61
REMARK 921   NORMALIZED FREE ENERGY PREDICTED BY IDOCK:   15.96 KCAL/MOL
REMARK 922        TOTAL FREE ENERGY PREDICTED BY IDOCK:   17.48 KCAL/MOL
REMARK 923 INTER-LIGAND FREE ENERGY PREDICTED BY IDOCK:   17.30 KCAL/MOL
REMARK 924 INTRA-LIGAND FREE ENERGY PREDICTED BY IDOCK:    0.18 KCAL/MOL
REMARK 927      BINDING AFFINITY PREDICTED BY RF-SCORE:    0.00 PKD
ROOT
HETATM    1  C   UNL     1      -8.580   8.714  64.220  1.00  0.00    -0.023 C  
HETATM    2  C   UNL     1      -7.103   8.146  64.135  1.00  0.00    -0.082 C  
HETATM    3  C   UNL     1      -6.311   7.950  65.403  1.00  0.00    -0.041 A  
HETATM    4  C   UNL     1      -6.096   9.005  66.280  1.00  0.00    -0.063 A  
HETATM    5  C   UNL     1      -6.019   8.743  67.643  1.00  0.00    -0.047 A  
HETATM    6  C   UNL     1      -5.987   7.425  68.094  1.00  0.00    -0.034 A  
HETATM    7  C   UNL     1      -5.676   6.433  67.169  1.00  0.00    -0.013 A  
HETATM    8  O   UNL     1      -6.388   7.260  69.398  1.00  0.00    -0.034 OA 
HETATM    9  C   UNL     1      -5.934   6.671  65.819  1.00  0.00    -0.030 A  
HETATM   10  C   UNL     1      -6.773   6.060  69.953  1.00  0.00    -0.052 A  
HETATM   11  C   UNL     1      -6.827   6.062  71.358  1.00  0.00    -0.067 A  
HETATM   12  C   UNL     1      -6.742   4.838  72.050  1.00  0.00    -0.047 A  
HETATM   13  C   UNL     1      -6.569   4.797  73.540  1.00  0.00    -0.066 C  
HETATM   14  C   UNL     1      -6.749   3.647  71.341  1.00  0.00    -0.027 A  
HETATM   15  C   UNL     1      -7.021   3.642  69.983  1.00  0.00    -0.041 A  
HETATM   16  C   UNL     1      -6.950   6.061  74.294  1.00  0.00    -0.083 C  
HETATM   17  C   UNL     1      -7.108   4.866  69.314  1.00  0.00    -0.055 A  
HETATM   18  C   UNL     1      -8.265  11.081  64.822  1.00  0.00     0.264 C  
HETATM   19  N   UNL     1      -6.637   7.365  73.557  1.00  0.00    -0.064 N  
HETATM   20  O   UNL     1      -7.637   4.852  68.050  1.00  0.00    -0.080 OA 
HETATM   21  N   UNL     1      -8.688  10.139  63.789  1.00  0.00    -0.193 NA 
HETATM   22  C   UNL     1      -7.183   8.511  74.418  1.00  0.00    -0.147 C  
HETATM   23  C   UNL     1      -7.251   7.326  72.118  1.00  0.00    -0.068 C  
HETATM   24  C   UNL     1      -5.137   7.623  73.386  1.00  0.00    -0.041 C  
HETATM   25  C   UNL     1      -8.813   7.333  72.169  1.00  0.00    -0.143 C  
HETATM   26  H   UNL     1      -7.866   4.039  67.615  1.00  0.00     0.000 HD 
HETATM   27  C   UNL     1      -9.446   8.552  71.564  1.00  0.00    -0.290 A  
HETATM   28  C   UNL     1      -9.395   8.680  70.181  1.00  0.00    -0.171 A  
HETATM   29  C   UNL     1     -10.236   9.564  69.505  1.00  0.00    -0.213 A  
HETATM   30  C   UNL     1     -10.883  10.541  70.254  1.00  0.00    -0.174 A  
HETATM   31  O   UNL     1     -10.370   9.441  68.138  1.00  0.00    -0.191 OA 
HETATM   32  C   UNL     1     -10.256   8.063  67.617  1.00  0.00    -0.228 C  
HETATM   33  C   UNL     1     -10.893  10.487  71.669  1.00  0.00     2.125 A  
HETATM   34  O   UNL     1     -11.466  11.618  69.652  1.00  0.00    -0.277 OA 
HETATM   35  C   UNL     1     -10.223   9.437  72.315  1.00  0.00     0.922 A  
HETATM   36  H   UNL     1     -11.907  12.285  70.164  1.00  0.00     0.000 HD 
HETATM   37  C   UNL     1     -11.453   7.578  67.120  1.00  0.00     1.108 C  
HETATM   38  C   UNL     1     -11.898   8.194  65.958  1.00  0.00     7.451 C  
HETATM   39  C   UNL     1     -10.072  10.400  63.337  1.00  0.00     0.060 C  
HETATM   40  C   UNL     1      -9.266   7.992  66.644  1.00  0.00    -0.225 C  
HETATM   41  C   UNL     1     -10.910   8.805  65.162  1.00  0.00     4.799 C  
HETATM   42  C   UNL     1      -9.557   8.458  65.370  1.00  0.00     0.414 C  
HETATM   43  C   UNL     1     -11.215   9.996  64.293  1.00  0.00     3.671 C  
ENDROOT
BRANCH  15  44
HETATM   44  O   UNL     1      -7.195   2.533  69.200  1.00  0.00    -0.044 OA 
HETATM   45  C   UNL     1      -8.429   1.840  69.352  1.00  0.00    -0.051 C  
ENDBRANCH  15  44
BRANCH  37  46
HETATM   46  O   UNL     1     -11.598   6.220  67.363  1.00  0.00     0.088 OA 
HETATM   47  C   UNL     1     -10.746   5.312  66.688  1.00  0.00    -0.200 C  
ENDBRANCH  37  46
TORSDOF 2
ENDMDL
MODEL       62
REMARK 921   NORMALIZED FREE ENERGY PREDICTED BY IDOCK:   17.73 KCAL/MOL
REMARK 922        TOTAL FREE ENERGY PREDICTED BY IDOCK:   19.46 KCAL/MOL
REMARK 923 INTER-LIGAND FREE ENERGY PREDICTED BY IDOCK:   19.78 KCAL/MOL
REMARK 924 INTRA-LIGAND FREE ENERGY PREDICTED BY IDOCK:   -0.32 KCAL/MOL
REMARK 927      BINDING AFFINITY PREDICTED BY RF-SCORE:    0.00 PKD
ROOT
HETATM    1  C   UNL     1      -9.407   7.096  71.048  1.00  0.00    -0.158 C  
HETATM    2  C   UNL     1     -10.491   6.423  70.108  1.00  0.00    -0.269 C  
HETATM    3  C   UNL     1     -11.106   7.230  68.993  1.00  0.00     0.006 A  
HETATM    4  C   UNL     1     -11.750   8.434  69.254  1.00  0.00     1.076 A  
HETATM    5  C   UNL     1     -11.692   9.448  68.306  1.00  0.00     1.238 A  
HETATM    6  C   UNL     1     -11.144   9.192  67.051  1.00  0.00     0.447 A  
HETATM    7  C   UNL     1     -11.002   7.863  66.666  1.00  0.00     0.599 A  
HETATM    8  O   UNL     1     -10.698  10.310  66.386  1.00  0.00    -0.144 OA 
HETATM    9  C   UNL     1     -10.886   6.887  67.657  1.00  0.00    -0.333 A  
HETATM   10  C   UNL     1      -9.824  10.291  65.322  1.00  0.00    -0.306 A  
HETATM   11  C   UNL     1      -9.763  11.498  64.602  1.00  0.00    -0.242 A  
HETATM   12  C   UNL     1      -9.300  11.480  63.272  1.00  0.00    -0.232 A  
HETATM   13  C   UNL     1      -9.424  12.688  62.389  1.00  0.00     4.288 C  
HETATM   14  C   UNL     1      -8.783  10.309  62.740  1.00  0.00    -0.214 A  
HETATM   15  C   UNL     1      -8.550   9.214  63.555  1.00  0.00    -0.165 A  
HETATM   16  C   UNL     1      -9.623  14.018  63.097  1.00  0.00     8.180 C  
HETATM   17  C   UNL     1      -9.010   9.251  64.874  1.00  0.00    -0.180 A  
HETATM   18  C   UNL     1     -10.714   8.671  72.417  1.00  0.00    -0.240 C  
HETATM   19  N   UNL     1     -10.478  13.947  64.364  1.00  0.00    -0.317 N  
HETATM   20  O   UNL     1      -8.540   8.289  65.729  1.00  0.00    -0.145 OA 
HETATM   21  N   UNL     1      -9.933   7.436  72.403  1.00  0.00    -0.174 NA 
HETATM   22  C   UNL     1     -10.476  15.349  64.987  1.00  0.00    -0.381 C  
HETATM   23  C   UNL     1      -9.923  12.842  65.323  1.00  0.00    -0.176 C  
HETATM   24  C   UNL     1     -11.943  13.593  64.090  1.00  0.00    -0.443 C  
HETATM   25  C   UNL     1      -8.518  13.236  65.885  1.00  0.00     1.366 C  
HETATM   26  H   UNL     1      -7.985   7.580  65.424  1.00  0.00     0.000 HD 
HETATM   27  C   UNL     1      -8.485  13.447  67.371  1.00  0.00    -0.197 A  
HETATM   28  C   UNL     1      -8.599  12.323  68.180  1.00  0.00    -0.181 A  
HETATM   29  C   UNL     1      -8.234  12.359  69.525  1.00  0.00     1.278 A  
HETATM   30  C   UNL     1      -8.068  13.607  70.117  1.00  0.00     2.332 A  
HETATM   31  O   UNL     1      -8.072  11.169  70.203  1.00  0.00     0.733 OA 
HETATM   32  C   UNL     1      -7.581  10.040  69.385  1.00  0.00    -0.123 C  
HETATM   33  C   UNL     1      -8.021  14.785  69.332  1.00  0.00    -0.065 A  
HETATM   34  O   UNL     1      -8.017  13.740  71.474  1.00  0.00     4.166 OA 
HETATM   35  C   UNL     1      -8.162  14.681  67.940  1.00  0.00    -0.152 A  
HETATM   36  H   UNL     1      -7.904  14.593  71.877  1.00  0.00     0.000 HD 
HETATM   37  C   UNL     1      -6.297   9.652  69.725  1.00  0.00    -0.047 C  
HETATM   38  C   UNL     1      -6.176   9.059  70.974  1.00  0.00    -0.058 C  
HETATM   39  C   UNL     1      -8.805   7.485  73.358  1.00  0.00    -0.192 C  
HETATM   40  C   UNL     1      -8.452   8.961  69.475  1.00  0.00    -0.128 C  
HETATM   41  C   UNL     1      -7.339   8.457  71.491  1.00  0.00    -0.103 C  
HETATM   42  C   UNL     1      -8.404   8.166  70.611  1.00  0.00    -0.123 C  
HETATM   43  C   UNL     1      -7.590   8.357  72.972  1.00  0.00    -0.115 C  
ENDROOT
BRANCH  15  44
HETATM   44  O   UNL     1      -7.919   8.055  63.188  1.00  0.00    -0.149 OA 
HETATM   45  C   UNL     1      -6.564   8.181  62.769  1.00  0.00    -0.086 C  
ENDBRANCH  15  44
BRANCH  37  46
HETATM   46  O   UNL     1      -5.574   9.240  68.616  1.00  0.00    -0.040 OA 
HETATM   47  C   UNL     1      -5.895   9.790  67.349  1.00  0.00    -0.050 C  
ENDBRANCH  37  46
TORSDOF 2
ENDMDL
MODEL       63
REMARK 921   NORMALIZED FREE ENERGY PREDICTED BY IDOCK:   19.93 KCAL/MOL
REMARK 922        TOTAL FREE ENERGY PREDICTED BY IDOCK:   21.91 KCAL/MOL
REMARK 923 INTER-LIGAND FREE ENERGY PREDICTED BY IDOCK:   22.04 KCAL/MOL
REMARK 924 INTRA-LIGAND FREE ENERGY PREDICTED BY IDOCK:   -0.13 KCAL/MOL
REMARK 927      BINDING AFFINITY PREDICTED BY RF-SCORE:    0.00 PKD
ROOT
HETATM    1  C   UNL     1      -9.872  12.971  64.089  1.00  0.00     0.218 C  
HETATM    2  C   UNL     1     -10.546  14.357  63.719  1.00  0.00     1.899 C  
HETATM    3  C   UNL     1     -11.363  15.083  64.758  1.00  0.00    -0.409 A  
HETATM    4  C   UNL     1     -12.443  14.465  65.376  1.00  0.00    -0.357 A  
HETATM    5  C   UNL     1     -12.735  14.782  66.697  1.00  0.00     0.752 A  
HETATM    6  C   UNL     1     -12.058  15.825  67.325  1.00  0.00     0.872 A  
HETATM    7  C   UNL     1     -11.381  16.734  66.518  1.00  0.00     0.710 A  
HETATM    8  O   UNL     1     -12.051  15.754  68.697  1.00  0.00    -0.269 OA 
HETATM    9  C   UNL     1     -10.948  16.319  65.258  1.00  0.00    -0.245 A  
HETATM   10  C   UNL     1     -11.180  16.443  69.512  1.00  0.00    -0.250 A  
HETATM   11  C   UNL     1     -11.557  16.475  70.867  1.00  0.00    -0.009 A  
HETATM   12  C   UNL     1     -11.048  17.493  71.697  1.00  0.00     1.962 A  
HETATM   13  C   UNL     1     -11.586  17.711  73.081  1.00  0.00     1.360 C  
HETATM   14  C   UNL     1     -10.081  18.357  71.208  1.00  0.00     3.814 A  
HETATM   15  C   UNL     1      -9.483  18.117  69.983  1.00  0.00     1.521 A  
HETATM   16  C   UNL     1     -12.335  16.541  73.700  1.00  0.00    -0.401 C  
HETATM   17  C   UNL     1      -9.997  17.099  69.175  1.00  0.00    -0.218 A  
HETATM   18  C   UNL     1     -11.772  11.409  64.214  1.00  0.00     0.069 C  
HETATM   19  N   UNL     1     -13.165  15.718  72.713  1.00  0.00    -0.487 N  
HETATM   20  O   UNL     1      -9.236  16.704  68.106  1.00  0.00    -0.212 OA 
HETATM   21  N   UNL     1     -10.568  11.798  63.482  1.00  0.00    -0.412 NA 
HETATM   22  C   UNL     1     -13.753  14.537  73.496  1.00  0.00     1.395 C  
HETATM   23  C   UNL     1     -12.277  15.278  71.502  1.00  0.00    -0.351 C  
HETATM   24  C   UNL     1     -14.353  16.488  72.127  1.00  0.00     2.323 C  
HETATM   25  C   UNL     1     -11.177  14.261  71.949  1.00  0.00     1.413 C  
HETATM   26  H   UNL     1      -8.429  17.151  67.876  1.00  0.00     0.000 HD 
HETATM   27  C   UNL     1     -11.316  12.895  71.343  1.00  0.00     2.879 A  
HETATM   28  C   UNL     1     -11.025  12.762  69.990  1.00  0.00     0.613 A  
HETATM   29  C   UNL     1     -10.782  11.512  69.421  1.00  0.00    -0.068 A  
HETATM   30  C   UNL     1     -11.157  10.387  70.149  1.00  0.00    -0.314 A  
HETATM   31  O   UNL     1     -10.205  11.451  68.171  1.00  0.00    -0.176 OA 
HETATM   32  C   UNL     1      -9.261  12.545  67.859  1.00  0.00    -0.200 C  
HETATM   33  C   UNL     1     -11.533  10.492  71.510  1.00  0.00     0.427 A  
HETATM   34  O   UNL     1     -11.243   9.162  69.554  1.00  0.00    -0.425 OA 
HETATM   35  C   UNL     1     -11.540  11.756  72.119  1.00  0.00     4.249 A  
HETATM   36  H   UNL     1     -11.499   8.395  70.052  1.00  0.00     0.000 HD 
HETATM   37  C   UNL     1      -7.951  12.111  67.766  1.00  0.00    -0.151 C  
HETATM   38  C   UNL     1      -7.679  11.298  66.675  1.00  0.00    -0.148 C  
HETATM   39  C   UNL     1      -9.609  10.680  63.363  1.00  0.00    -0.332 C  
HETATM   40  C   UNL     1      -9.640  13.193  66.689  1.00  0.00    -0.260 C  
HETATM   41  C   UNL     1      -8.538  11.436  65.568  1.00  0.00     0.100 C  
HETATM   42  C   UNL     1      -9.349  12.588  65.475  1.00  0.00     0.141 C  
HETATM   43  C   UNL     1      -8.816  10.291  64.631  1.00  0.00    -0.220 C  
ENDROOT
BRANCH  15  44
HETATM   44  O   UNL     1      -8.426  18.808  69.452  1.00  0.00     0.084 OA 
HETATM   45  C   UNL     1      -7.226  18.810  70.218  1.00  0.00     1.121 C  
ENDBRANCH  15  44
BRANCH  37  46
HETATM   46  O   UNL     1      -7.060  13.059  68.247  1.00  0.00    -0.084 OA 
HETATM   47  C   UNL     1      -6.536  14.021  67.347  1.00  0.00     0.119 C  
ENDBRANCH  37  46
TORSDOF 2
ENDMDL
MODEL       64
REMARK 921   NORMALIZED FREE ENERGY PREDICTED BY IDOCK:   20.41 KCAL/MOL
REMARK 922        TOTAL FREE ENERGY PREDICTED BY IDOCK:   22.46 KCAL/MOL
REMARK 923 INTER-LIGAND FREE ENERGY PREDICTED BY IDOCK:   22.36 KCAL/MOL
REMARK 924 INTRA-LIGAND FREE ENERGY PREDICTED BY IDOCK:    0.10 KCAL/MOL
REMARK 927      BINDING AFFINITY PREDICTED BY RF-SCORE:    0.00 PKD
ROOT
HETATM    1  C   UNL     1      -9.987  19.340  67.685  1.00  0.00    -0.358 C  
HETATM    2  C   UNL     1     -11.548  19.130  67.514  1.00  0.00     0.998 C  
HETATM    3  C   UNL     1     -12.088  17.741  67.290  1.00  0.00     3.134 A  
HETATM    4  C   UNL     1     -11.639  16.963  66.230  1.00  0.00     1.419 A  
HETATM    5  C   UNL     1     -11.566  15.584  66.391  1.00  0.00     0.201 A  
HETATM    6  C   UNL     1     -12.096  14.991  67.534  1.00  0.00     0.092 A  
HETATM    7  C   UNL     1     -12.985  15.739  68.298  1.00  0.00     2.445 A  
HETATM    8  O   UNL     1     -11.571  13.755  67.828  1.00  0.00    -0.306 OA 
HETATM    9  C   UNL     1     -12.909  17.131  68.242  1.00  0.00     4.596 A  
HETATM   10  C   UNL     1     -11.665  13.137  69.055  1.00  0.00    -0.321 A  
HETATM   11  C   UNL     1     -11.350  11.766  69.039  1.00  0.00    -0.338 A  
HETATM   12  C   UNL     1     -11.839  10.938  70.069  1.00  0.00    -0.428 A  
HETATM   13  C   UNL     1     -11.726   9.444  69.984  1.00  0.00     0.028 C  
HETATM   14  C   UNL     1     -12.498  11.502  71.149  1.00  0.00    -0.442 A  
HETATM   15  C   UNL     1     -12.520  12.877  71.316  1.00  0.00    -0.200 A  
HETATM   16  C   UNL     1     -10.686   8.903  69.016  1.00  0.00    -0.126 C  
HETATM   17  C   UNL     1     -12.025  13.684  70.287  1.00  0.00    -0.327 A  
HETATM   18  C   UNL     1      -9.093  18.963  65.422  1.00  0.00     1.398 C  
HETATM   19  N   UNL     1     -10.518   9.723  67.735  1.00  0.00    -0.229 N  
HETATM   20  O   UNL     1     -11.808  15.005  70.577  1.00  0.00    -0.259 OA 
HETATM   21  N   UNL     1      -9.338  19.939  66.481  1.00  0.00    -0.381 NA 
HETATM   22  C   UNL     1      -9.366   9.090  66.944  1.00  0.00    -0.158 C  
HETATM   23  C   UNL     1     -10.272  11.227  68.090  1.00  0.00    -0.180 C  
HETATM   24  C   UNL     1     -11.748   9.685  66.822  1.00  0.00     2.964 C  
HETATM   25  C   UNL     1      -8.892  11.422  68.800  1.00  0.00    -0.076 C  
HETATM   26  H   UNL     1     -12.053  15.378  71.416  1.00  0.00     0.000 HD 
HETATM   27  C   UNL     1      -7.910  12.249  68.023  1.00  0.00    -0.147 A  
HETATM   28  C   UNL     1      -8.159  13.613  67.925  1.00  0.00    -0.164 A  
HETATM   29  C   UNL     1      -7.158  14.506  67.544  1.00  0.00    -0.175 A  
HETATM   30  C   UNL     1      -6.013  13.980  66.952  1.00  0.00     1.682 A  
HETATM   31  O   UNL     1      -7.354  15.855  67.752  1.00  0.00    -0.125 OA 
HETATM   32  C   UNL     1      -8.167  16.196  68.939  1.00  0.00    -0.229 C  
HETATM   33  C   UNL     1      -5.761  12.587  66.966  1.00  0.00     0.119 A  
HETATM   34  O   UNL     1      -5.138  14.782  66.280  1.00  0.00     2.324 OA 
HETATM   35  C   UNL     1      -6.693  11.732  67.573  1.00  0.00    -0.107 A  
HETATM   36  H   UNL     1      -4.357  14.422  65.876  1.00  0.00     0.000 HD 
HETATM   37  C   UNL     1      -7.430  16.817  69.932  1.00  0.00     0.832 C  
HETATM   38  C   UNL     1      -6.987  18.094  69.621  1.00  0.00     0.132 C  
HETATM   39  C   UNL     1      -8.097  20.627  66.896  1.00  0.00    -0.157 C  
HETATM   40  C   UNL     1      -9.249  16.988  68.574  1.00  0.00    -0.266 C  
HETATM   41  C   UNL     1      -7.729  18.789  68.647  1.00  0.00    -0.358 C  
HETATM   42  C   UNL     1      -9.028  18.336  68.329  1.00  0.00    -0.318 C  
HETATM   43  C   UNL     1      -7.096  19.822  67.753  1.00  0.00    -0.304 C  
ENDROOT
BRANCH  15  44
HETATM   44  O   UNL     1     -13.011  13.550  72.402  1.00  0.00    -0.349 OA 
HETATM   45  C   UNL     1     -14.122  14.406  72.164  1.00  0.00    -0.535 C  
ENDBRANCH  15  44
BRANCH  37  46
HETATM   46  O   UNL     1      -7.863  16.450  71.198  1.00  0.00     4.136 OA 
HETATM   47  C   UNL     1      -7.261  15.331  71.827  1.00  0.00     3.217 C  
ENDBRANCH  37  46
TORSDOF 2
ENDMDL
MODEL       65
REMARK 921   NORMALIZED FREE ENERGY PREDICTED BY IDOCK:   21.42 KCAL/MOL
REMARK 922        TOTAL FREE ENERGY PREDICTED BY IDOCK:   23.58 KCAL/MOL
REMARK 923 INTER-LIGAND FREE ENERGY PREDICTED BY IDOCK:   23.63 KCAL/MOL
REMARK 924 INTRA-LIGAND FREE ENERGY PREDICTED BY IDOCK:   -0.05 KCAL/MOL
REMARK 927      BINDING AFFINITY PREDICTED BY RF-SCORE:    0.00 PKD
ROOT
HETATM    1  C   UNL     1      -9.452  11.426  64.743  1.00  0.00    -0.153 C  
HETATM    2  C   UNL     1     -11.015  11.459  65.005  1.00  0.00    -0.271 C  
HETATM    3  C   UNL     1     -11.629  10.455  65.946  1.00  0.00     1.735 A  
HETATM    4  C   UNL     1     -11.464   9.091  65.741  1.00  0.00     4.937 A  
HETATM    5  C   UNL     1     -11.392   8.248  66.844  1.00  0.00     1.540 A  
HETATM    6  C   UNL     1     -11.654   8.750  68.117  1.00  0.00     1.566 A  
HETATM    7  C   UNL     1     -12.317   9.969  68.207  1.00  0.00     2.636 A  
HETATM    8  O   UNL     1     -11.108   8.014  69.141  1.00  0.00     0.002 OA 
HETATM    9  C   UNL     1     -12.219  10.866  67.143  1.00  0.00     2.068 A  
HETATM   10  C   UNL     1     -10.926   8.475  70.426  1.00  0.00    -0.238 A  
HETATM   11  C   UNL     1     -10.661   7.468  71.371  1.00  0.00    -0.243 A  
HETATM   12  C   UNL     1     -10.916   7.721  72.733  1.00  0.00    -0.447 A  
HETATM   13  C   UNL     1     -10.867   6.619  73.752  1.00  0.00    -0.084 C  
HETATM   14  C   UNL     1     -11.286   8.994  73.137  1.00  0.00     1.963 A  
HETATM   15  C   UNL     1     -11.231  10.054  72.248  1.00  0.00     1.957 A  
HETATM   16  C   UNL     1     -10.099   5.370  73.351  1.00  0.00    -0.183 C  
HETATM   17  C   UNL     1     -10.971   9.785  70.901  1.00  0.00    -0.341 A  
HETATM   18  C   UNL     1      -9.127   9.402  63.379  1.00  0.00    -0.017 C  
HETATM   19  N   UNL     1     -10.216   4.994  71.872  1.00  0.00    -0.199 N  
HETATM   20  O   UNL     1     -10.656  10.851  70.100  1.00  0.00    -0.446 OA 
HETATM   21  N   UNL     1      -9.090  10.862  63.410  1.00  0.00    -0.224 NA 
HETATM   22  C   UNL     1      -9.300   3.785  71.642  1.00  0.00    -0.131 C  
HETATM   23  C   UNL     1      -9.852   6.225  70.977  1.00  0.00    -0.181 C  
HETATM   24  C   UNL     1     -11.627   4.558  71.464  1.00  0.00     2.075 C  
HETATM   25  C   UNL     1      -8.339   6.596  71.114  1.00  0.00    -0.125 C  
HETATM   26  H   UNL     1     -10.686  11.744  70.424  1.00  0.00     0.000 HD 
HETATM   27  C   UNL     1      -7.545   6.427  69.851  1.00  0.00    -0.100 A  
HETATM   28  C   UNL     1      -7.774   7.336  68.825  1.00  0.00    -0.119 A  
HETATM   29  C   UNL     1      -6.867   7.487  67.776  1.00  0.00    -0.071 A  
HETATM   30  C   UNL     1      -5.909   6.493  67.602  1.00  0.00    -0.019 A  
HETATM   31  O   UNL     1      -6.972   8.592  66.959  1.00  0.00    -0.072 OA 
HETATM   32  C   UNL     1      -7.473   9.817  67.619  1.00  0.00    -0.091 C  
HETATM   33  C   UNL     1      -5.698   5.504  68.593  1.00  0.00    -0.015 A  
HETATM   34  O   UNL     1      -5.196   6.400  66.443  1.00  0.00    -0.012 OA 
HETATM   35  C   UNL     1      -6.484   5.525  69.755  1.00  0.00    -0.041 A  
HETATM   36  H   UNL     1      -4.542   5.721  66.325  1.00  0.00     0.000 HD 
HETATM   37  C   UNL     1      -6.506  10.801  67.725  1.00  0.00    -0.059 C  
HETATM   38  C   UNL     1      -6.115  11.370  66.522  1.00  0.00    -0.121 C  
HETATM   39  C   UNL     1      -7.768  11.389  63.009  1.00  0.00     0.837 C  
HETATM   40  C   UNL     1      -8.589  10.306  66.950  1.00  0.00    -0.127 C  
HETATM   41  C   UNL     1      -7.047  11.299  65.469  1.00  0.00     0.516 C  
HETATM   42  C   UNL     1      -8.396  11.012  65.772  1.00  0.00    -0.092 C  
HETATM   43  C   UNL     1      -6.614  11.254  64.027  1.00  0.00     1.525 C  
ENDROOT
BRANCH  15  44
HETATM   44  O   UNL     1     -11.434  11.374  72.553  1.00  0.00     4.453 OA 
HETATM   45  C   UNL     1     -12.662  11.941  72.112  1.00  0.00     0.191 C  
ENDBRANCH  15  44
BRANCH  37  46
HETATM   46  O   UNL     1      -6.638  11.526  68.900  1.00  0.00    -0.061 OA 
HETATM   47  C   UNL     1      -5.697  11.317  69.939  1.00  0.00    -0.092 C  
ENDBRANCH  37  46
TORSDOF 2
ENDMDL
MODEL       66
REMARK 921   NORMALIZED FREE ENERGY PREDICTED BY IDOCK:   22.27 KCAL/MOL
REMARK 922        TOTAL FREE ENERGY PREDICTED BY IDOCK:   24.54 KCAL/MOL
REMARK 923 INTER-LIGAND FREE ENERGY PREDICTED BY IDOCK:   24.50 KCAL/MOL
REMARK 924 INTRA-LIGAND FREE ENERGY PREDICTED BY IDOCK:    0.03 KCAL/MOL
REMARK 927      BINDING AFFINITY PREDICTED BY RF-SCORE:    0.00 PKD
ROOT
HETATM    1  C   UNL     1      -6.177  13.787  66.223  1.00  0.00     4.588 C  
HETATM    2  C   UNL     1      -5.126  12.606  66.111  1.00  0.00     2.150 C  
HETATM    3  C   UNL     1      -5.450  11.266  66.721  1.00  0.00    -0.115 A  
HETATM    4  C   UNL     1      -5.772  11.155  68.068  1.00  0.00    -0.042 A  
HETATM    5  C   UNL     1      -6.682  10.182  68.464  1.00  0.00    -0.057 A  
HETATM    6  C   UNL     1      -7.125   9.233  67.546  1.00  0.00    -0.079 A  
HETATM    7  C   UNL     1      -6.386   9.068  66.379  1.00  0.00    -0.065 A  
HETATM    8  O   UNL     1      -8.326   8.648  67.867  1.00  0.00    -0.121 OA 
HETATM    9  C   UNL     1      -5.617  10.137  65.917  1.00  0.00    -0.068 A  
HETATM   10  C   UNL     1      -9.126   7.964  66.979  1.00  0.00    -0.137 A  
HETATM   11  C   UNL     1     -10.128   7.184  67.584  1.00  0.00    -0.229 A  
HETATM   12  C   UNL     1     -10.687   6.109  66.866  1.00  0.00    -0.413 A  
HETATM   13  C   UNL     1     -11.590   5.113  67.535  1.00  0.00     3.178 C  
HETATM   14  C   UNL     1     -10.348   5.921  65.536  1.00  0.00     0.890 A  
HETATM   15  C   UNL     1      -9.613   6.880  64.859  1.00  0.00     1.877 A  
HETATM   16  C   UNL     1     -12.230   5.559  68.839  1.00  0.00     5.716 C  
HETATM   17  C   UNL     1      -9.071   7.944  65.586  1.00  0.00     0.037 A  
HETATM   18  C   UNL     1      -6.082  14.435  68.596  1.00  0.00    -0.084 C  
HETATM   19  N   UNL     1     -11.345   6.447  69.716  1.00  0.00    -0.416 N  
HETATM   20  O   UNL     1      -8.586   9.008  64.871  1.00  0.00    -0.169 OA 
HETATM   21  N   UNL     1      -5.790  14.828  67.220  1.00  0.00    -0.235 NA 
HETATM   22  C   UNL     1     -12.191   6.876  70.921  1.00  0.00    -0.353 C  
HETATM   23  C   UNL     1     -10.803   7.654  68.879  1.00  0.00    -0.017 C  
HETATM   24  C   UNL     1     -10.120   5.720  70.279  1.00  0.00    -0.211 C  
HETATM   25  C   UNL     1     -11.960   8.624  68.472  1.00  0.00     2.629 C  
HETATM   26  H   UNL     1      -8.548   8.994  63.921  1.00  0.00     0.000 HD 
HETATM   27  C   UNL     1     -11.854   9.997  69.072  1.00  0.00     0.218 A  
HETATM   28  C   UNL     1     -10.854  10.831  68.587  1.00  0.00    -0.260 A  
HETATM   29  C   UNL     1     -10.889  12.208  68.811  1.00  0.00    -0.228 A  
HETATM   30  C   UNL     1     -11.751  12.681  69.795  1.00  0.00    -0.284 A  
HETATM   31  O   UNL     1     -10.063  13.024  68.068  1.00  0.00    -0.222 OA 
HETATM   32  C   UNL     1      -9.788  12.556  66.693  1.00  0.00    -0.241 C  
HETATM   33  C   UNL     1     -12.735  11.839  70.368  1.00  0.00    -0.071 A  
HETATM   34  O   UNL     1     -11.628  13.947  70.287  1.00  0.00    -0.444 OA 
HETATM   35  C   UNL     1     -12.821  10.505  69.941  1.00  0.00     0.078 A  
HETATM   36  H   UNL     1     -12.217  14.270  70.959  1.00  0.00     0.000 HD 
HETATM   37  C   UNL     1     -10.364  13.362  65.727  1.00  0.00    -0.293 C  
HETATM   38  C   UNL     1      -9.813  14.631  65.619  1.00  0.00    -0.354 C  
HETATM   39  C   UNL     1      -6.442  16.105  66.859  1.00  0.00     0.029 C  
HETATM   40  C   UNL     1      -8.418  12.453  66.481  1.00  0.00     0.052 C  
HETATM   41  C   UNL     1      -8.486  14.772  66.066  1.00  0.00     0.855 C  
HETATM   42  C   UNL     1      -7.698  13.613  66.237  1.00  0.00     2.003 C  
HETATM   43  C   UNL     1      -7.968  16.075  66.616  1.00  0.00    -0.291 C  
ENDROOT
BRANCH  15  44
HETATM   44  O   UNL     1      -9.332   6.884  63.518  1.00  0.00     1.761 OA 
HETATM   45  C   UNL     1     -10.310   6.296  62.668  1.00  0.00     4.434 C  
ENDBRANCH  15  44
BRANCH  37  46
HETATM   46  O   UNL     1     -10.796  12.626  64.635  1.00  0.00    -0.290 OA 
HETATM   47  C   UNL     1     -10.813  11.212  64.728  1.00  0.00    -0.207 C  
ENDBRANCH  37  46
TORSDOF 2
ENDMDL
MODEL       67
REMARK 921   NORMALIZED FREE ENERGY PREDICTED BY IDOCK:   22.70 KCAL/MOL
REMARK 922        TOTAL FREE ENERGY PREDICTED BY IDOCK:   25.01 KCAL/MOL
REMARK 923 INTER-LIGAND FREE ENERGY PREDICTED BY IDOCK:   24.13 KCAL/MOL
REMARK 924 INTRA-LIGAND FREE ENERGY PREDICTED BY IDOCK:    0.89 KCAL/MOL
REMARK 927      BINDING AFFINITY PREDICTED BY RF-SCORE:    0.00 PKD
ROOT
HETATM    1  C   UNL     1     -10.361   8.316  66.264  1.00  0.00     0.255 C  
HETATM    2  C   UNL     1     -10.124   9.098  64.906  1.00  0.00     1.188 C  
HETATM    3  C   UNL     1     -10.316  10.593  64.869  1.00  0.00    -0.347 A  
HETATM    4  C   UNL     1     -11.522  11.167  65.253  1.00  0.00     0.246 A  
HETATM    5  C   UNL     1     -11.509  12.414  65.865  1.00  0.00    -0.422 A  
HETATM    6  C   UNL     1     -10.323  13.141  65.932  1.00  0.00    -0.290 A  
HETATM    7  C   UNL     1      -9.286  12.765  65.085  1.00  0.00     0.618 A  
HETATM    8  O   UNL     1     -10.290  14.085  66.930  1.00  0.00    -0.265 OA 
HETATM    9  C   UNL     1      -9.237  11.447  64.630  1.00  0.00    -0.030 A  
HETATM   10  C   UNL     1      -9.142  14.669  67.418  1.00  0.00    -0.197 A  
HETATM   11  C   UNL     1      -9.362  15.822  68.191  1.00  0.00    -0.194 A  
HETATM   12  C   UNL     1      -8.316  16.753  68.349  1.00  0.00    -0.222 A  
HETATM   13  C   UNL     1      -8.559  18.099  68.969  1.00  0.00    -0.021 C  
HETATM   14  C   UNL     1      -7.054  16.455  67.862  1.00  0.00    -0.149 A  
HETATM   15  C   UNL     1      -6.767  15.186  67.390  1.00  0.00    -0.100 A  
HETATM   16  C   UNL     1      -9.815  18.229  69.816  1.00  0.00     0.656 C  
HETATM   17  C   UNL     1      -7.816  14.273  67.246  1.00  0.00    -0.147 A  
HETATM   18  C   UNL     1     -12.805   8.376  66.558  1.00  0.00    15.093 C  
HETATM   19  N   UNL     1     -11.017  17.431  69.306  1.00  0.00     0.184 N  
HETATM   20  O   UNL     1      -7.479  12.960  67.039  1.00  0.00    -0.364 OA 
HETATM   21  N   UNL     1     -11.637   7.542  66.282  1.00  0.00     3.031 NA 
HETATM   22  C   UNL     1     -12.140  17.603  70.337  1.00  0.00     6.135 C  
HETATM   23  C   UNL     1     -10.609  15.937  69.078  1.00  0.00    -0.247 C  
HETATM   24  C   UNL     1     -11.566  17.944  67.971  1.00  0.00     1.261 C  
HETATM   25  C   UNL     1     -10.282  15.228  70.432  1.00  0.00     0.000 C  
HETATM   26  H   UNL     1      -6.576  12.690  66.922  1.00  0.00     0.000 HD 
HETATM   27  C   UNL     1     -11.217  14.108  70.784  1.00  0.00     0.324 A  
HETATM   28  C   UNL     1     -11.125  12.939  70.039  1.00  0.00     0.396 A  
HETATM   29  C   UNL     1     -11.680  11.743  70.495  1.00  0.00    -0.049 A  
HETATM   30  C   UNL     1     -12.601  11.815  71.536  1.00  0.00    -0.215 A  
HETATM   31  O   UNL     1     -11.309  10.562  69.889  1.00  0.00    -0.263 OA 
HETATM   32  C   UNL     1      -9.922  10.527  69.377  1.00  0.00    -0.196 C  
HETATM   33  C   UNL     1     -12.778  13.012  72.272  1.00  0.00    -0.060 A  
HETATM   34  O   UNL     1     -13.410  10.757  71.832  1.00  0.00    -0.427 OA 
HETATM   35  C   UNL     1     -12.020  14.141  71.926  1.00  0.00     0.079 A  
HETATM   36  H   UNL     1     -14.038  10.806  72.543  1.00  0.00     0.000 HD 
HETATM   37  C   UNL     1      -9.112   9.656  70.085  1.00  0.00    -0.240 C  
HETATM   38  C   UNL     1      -9.417   8.312  69.925  1.00  0.00    -0.167 C  
HETATM   39  C   UNL     1     -11.511   6.432  67.251  1.00  0.00     0.270 C  
HETATM   40  C   UNL     1      -9.913  10.204  68.025  1.00  0.00    -0.173 C  
HETATM   41  C   UNL     1     -10.091   7.964  68.739  1.00  0.00    -0.203 C  
HETATM   42  C   UNL     1     -10.088   8.877  67.662  1.00  0.00    -0.274 C  
HETATM   43  C   UNL     1     -11.028   6.787  68.674  1.00  0.00    -0.261 C  
ENDROOT
BRANCH  15  44
HETATM   44  O   UNL     1      -5.533  14.724  67.015  1.00  0.00     0.095 OA 
HETATM   45  C   UNL     1      -5.176  13.428  67.482  1.00  0.00     0.088 C  
ENDBRANCH  15  44
BRANCH  37  46
HETATM   46  O   UNL     1      -7.814  10.134  70.191  1.00  0.00    -0.170 OA 
HETATM   47  C   UNL     1      -6.819   9.288  70.741  1.00  0.00    -0.100 C  
ENDBRANCH  37  46
TORSDOF 2
ENDMDL
MODEL       68
REMARK 921   NORMALIZED FREE ENERGY PREDICTED BY IDOCK:   22.82 KCAL/MOL
REMARK 922        TOTAL FREE ENERGY PREDICTED BY IDOCK:   25.15 KCAL/MOL
REMARK 923 INTER-LIGAND FREE ENERGY PREDICTED BY IDOCK:   25.49 KCAL/MOL
REMARK 924 INTRA-LIGAND FREE ENERGY PREDICTED BY IDOCK:   -0.33 KCAL/MOL
REMARK 927      BINDING AFFINITY PREDICTED BY RF-SCORE:    0.00 PKD
ROOT
HETATM    1  C   UNL     1     -10.413   6.108  73.044  1.00  0.00    -0.226 C  
HETATM    2  C   UNL     1      -8.885   5.924  73.419  1.00  0.00    -0.126 C  
HETATM    3  C   UNL     1      -7.874   5.704  72.322  1.00  0.00    -0.103 A  
HETATM    4  C   UNL     1      -8.014   4.654  71.423  1.00  0.00    -0.096 A  
HETATM    5  C   UNL     1      -7.576   4.824  70.116  1.00  0.00    -0.055 A  
HETATM    6  C   UNL     1      -6.857   5.966  69.769  1.00  0.00    -0.064 A  
HETATM    7  C   UNL     1      -6.299   6.716  70.799  1.00  0.00    -0.047 A  
HETATM    8  O   UNL     1      -6.890   6.274  68.430  1.00  0.00    -0.065 OA 
HETATM    9  C   UNL     1      -6.881   6.652  72.066  1.00  0.00    -0.064 A  
HETATM   10  C   UNL     1      -6.568   7.504  67.902  1.00  0.00    -0.058 A  
HETATM   11  C   UNL     1      -6.358   7.501  66.511  1.00  0.00    -0.045 A  
HETATM   12  C   UNL     1      -5.593   8.531  65.930  1.00  0.00    -0.045 A  
HETATM   13  C   UNL     1      -5.150   8.457  64.497  1.00  0.00    -0.036 C  
HETATM   14  C   UNL     1      -5.179   9.601  66.707  1.00  0.00    -0.041 A  
HETATM   15  C   UNL     1      -5.662   9.758  67.996  1.00  0.00    -0.040 A  
HETATM   16  C   UNL     1      -5.926   7.503  63.604  1.00  0.00    -0.049 C  
HETATM   17  C   UNL     1      -6.425   8.728  68.554  1.00  0.00    -0.055 A  
HETATM   18  C   UNL     1     -11.122   3.857  72.342  1.00  0.00     0.417 C  
HETATM   19  N   UNL     1      -6.392   6.218  64.293  1.00  0.00    -0.030 N  
HETATM   20  O   UNL     1      -7.110   9.012  69.707  1.00  0.00    -0.051 OA 
HETATM   21  N   UNL     1     -11.244   4.907  73.351  1.00  0.00    -0.339 NA 
HETATM   22  C   UNL     1      -7.237   5.443  63.273  1.00  0.00    -0.048 C  
HETATM   23  C   UNL     1      -7.170   6.566  65.605  1.00  0.00    -0.073 C  
HETATM   24  C   UNL     1      -5.240   5.293  64.699  1.00  0.00    -0.009 C  
HETATM   25  C   UNL     1      -8.520   7.288  65.287  1.00  0.00    -0.067 C  
HETATM   26  H   UNL     1      -7.013   9.846  70.152  1.00  0.00     0.000 HD 
HETATM   27  C   UNL     1      -9.743   6.515  65.689  1.00  0.00     0.533 A  
HETATM   28  C   UNL     1     -10.012   6.405  67.048  1.00  0.00    -0.209 A  
HETATM   29  C   UNL     1     -11.273   6.028  67.508  1.00  0.00     0.080 A  
HETATM   30  C   UNL     1     -12.149   5.452  66.593  1.00  0.00     4.263 A  
HETATM   31  O   UNL     1     -11.584   6.226  68.836  1.00  0.00    -0.227 OA 
HETATM   32  C   UNL     1     -10.945   7.402  69.464  1.00  0.00    -0.139 C  
HETATM   33  C   UNL     1     -11.873   5.477  65.204  1.00  0.00     3.288 A  
HETATM   34  O   UNL     1     -13.262   4.783  67.012  1.00  0.00    13.248 OA 
HETATM   35  C   UNL     1     -10.688   6.081  64.757  1.00  0.00     3.858 A  
HETATM   36  H   UNL     1     -13.859   4.389  66.386  1.00  0.00     0.000 HD 
HETATM   37  C   UNL     1     -11.851   8.398  69.781  1.00  0.00     0.723 C  
HETATM   38  C   UNL     1     -12.734   8.083  70.804  1.00  0.00     0.198 C  
HETATM   39  C   UNL     1     -12.648   5.330  73.540  1.00  0.00     2.274 C  
HETATM   40  C   UNL     1     -10.231   7.020  70.594  1.00  0.00    -0.205 C  
HETATM   41  C   UNL     1     -12.305   7.097  71.713  1.00  0.00    -0.385 C  
HETATM   42  C   UNL     1     -10.932   6.769  71.764  1.00  0.00    -0.266 C  
HETATM   43  C   UNL     1     -13.279   6.202  72.433  1.00  0.00     0.490 C  
ENDROOT
BRANCH  15  44
HETATM   44  O   UNL     1      -5.445  10.835  68.813  1.00  0.00    -0.041 OA 
HETATM   45  C   UNL     1      -6.007  12.072  68.389  1.00  0.00    -0.050 C  
ENDBRANCH  15  44
BRANCH  37  46
HETATM   46  O   UNL     1     -11.306   9.662  69.611  1.00  0.00    -0.185 OA 
HETATM   47  C   UNL     1     -12.035  10.787  70.070  1.00  0.00    -0.347 C  
ENDBRANCH  37  46
TORSDOF 2
ENDMDL
MODEL       69
REMARK 921   NORMALIZED FREE ENERGY PREDICTED BY IDOCK:   24.78 KCAL/MOL
REMARK 922        TOTAL FREE ENERGY PREDICTED BY IDOCK:   27.33 KCAL/MOL
REMARK 923 INTER-LIGAND FREE ENERGY PREDICTED BY IDOCK:   25.81 KCAL/MOL
REMARK 924 INTRA-LIGAND FREE ENERGY PREDICTED BY IDOCK:    1.53 KCAL/MOL
REMARK 927      BINDING AFFINITY PREDICTED BY RF-SCORE:    0.00 PKD
ROOT
HETATM    1  C   UNL     1     -12.252  10.148  66.987  1.00  0.00     4.548 C  
HETATM    2  C   UNL     1     -12.622   8.667  66.560  1.00  0.00    12.610 C  
HETATM    3  C   UNL     1     -11.818   7.516  67.110  1.00  0.00     2.714 A  
HETATM    4  C   UNL     1     -10.440   7.462  66.941  1.00  0.00    -0.379 A  
HETATM    5  C   UNL     1      -9.662   6.881  67.935  1.00  0.00    -0.136 A  
HETATM    6  C   UNL     1     -10.275   6.217  68.995  1.00  0.00    -0.191 A  
HETATM    7  C   UNL     1     -11.608   5.849  68.843  1.00  0.00     0.706 A  
HETATM    8  O   UNL     1      -9.499   6.109  70.124  1.00  0.00    -0.156 OA 
HETATM    9  C   UNL     1     -12.407   6.575  67.959  1.00  0.00     4.432 A  
HETATM   10  C   UNL     1      -9.982   5.822  71.382  1.00  0.00    -0.185 A  
HETATM   11  C   UNL     1      -8.994   5.444  72.308  1.00  0.00    -0.134 A  
HETATM   12  C   UNL     1      -9.368   4.696  73.442  1.00  0.00    -0.127 A  
HETATM   13  C   UNL     1      -8.337   4.076  74.340  1.00  0.00    -0.090 C  
HETATM   14  C   UNL     1     -10.710   4.465  73.701  1.00  0.00    -0.339 A  
HETATM   15  C   UNL     1     -11.686   5.113  72.963  1.00  0.00    -0.150 A  
HETATM   16  C   UNL     1      -6.935   4.660  74.254  1.00  0.00    -0.072 C  
HETATM   17  C   UNL     1     -11.297   5.857  71.845  1.00  0.00    -0.247 A  
HETATM   18  C   UNL     1     -10.134  10.587  65.811  1.00  0.00    -0.265 C  
HETATM   19  N   UNL     1      -6.513   5.105  72.852  1.00  0.00    -0.054 N  
HETATM   20  O   UNL     1     -12.229   6.697  71.296  1.00  0.00    -0.356 OA 
HETATM   21  N   UNL     1     -11.554  10.913  65.913  1.00  0.00     0.321 NA 
HETATM   22  C   UNL     1      -5.130   5.755  72.985  1.00  0.00    -0.018 C  
HETATM   23  C   UNL     1      -7.592   6.063  72.247  1.00  0.00    -0.100 C  
HETATM   24  C   UNL     1      -6.356   3.943  71.866  1.00  0.00    -0.014 C  
HETATM   25  C   UNL     1      -7.649   7.416  73.028  1.00  0.00    -0.099 C  
HETATM   26  H   UNL     1     -13.125   6.721  71.612  1.00  0.00     0.000 HD 
HETATM   27  C   UNL     1      -7.251   8.615  72.217  1.00  0.00    -0.040 A  
HETATM   28  C   UNL     1      -8.131   9.039  71.228  1.00  0.00    -0.146 A  
HETATM   29  C   UNL     1      -8.034  10.314  70.671  1.00  0.00     0.967 A  
HETATM   30  C   UNL     1      -6.855  11.023  70.882  1.00  0.00     1.410 A  
HETATM   31  O   UNL     1      -9.091  10.799  69.932  1.00  0.00     0.265 OA 
HETATM   32  C   UNL     1     -10.427  10.336  70.364  1.00  0.00    -0.076 C  
HETATM   33  C   UNL     1      -5.899  10.582  71.828  1.00  0.00     0.465 A  
HETATM   34  O   UNL     1      -6.555  12.123  70.133  1.00  0.00    -0.375 OA 
HETATM   35  C   UNL     1      -6.145   9.402  72.546  1.00  0.00     0.236 A  
HETATM   36  H   UNL     1      -5.750  12.607  70.277  1.00  0.00     0.000 HD 
HETATM   37  C   UNL     1     -11.194  11.349  70.911  1.00  0.00     1.239 C  
HETATM   38  C   UNL     1     -11.604  12.323  70.011  1.00  0.00    -0.236 C  
HETATM   39  C   UNL     1     -11.774  12.359  66.133  1.00  0.00    -0.400 C  
HETATM   40  C   UNL     1     -11.099   9.738  69.305  1.00  0.00    -0.184 C  
HETATM   41  C   UNL     1     -11.670  11.933  68.660  1.00  0.00    -0.380 C  
HETATM   42  C   UNL     1     -11.685  10.556  68.349  1.00  0.00    -0.088 C  
HETATM   43  C   UNL     1     -11.458  12.915  67.539  1.00  0.00    -0.386 C  
ENDROOT
BRANCH  15  44
HETATM   44  O   UNL     1     -13.034   5.082  73.205  1.00  0.00     0.390 OA 
HETATM   45  C   UNL     1     -13.817   6.065  72.536  1.00  0.00     0.985 C  
ENDBRANCH  15  44
BRANCH  37  46
HETATM   46  O   UNL     1     -11.993  10.887  71.946  1.00  0.00     0.254 OA 
HETATM   47  C   UNL     1     -13.398  10.859  71.764  1.00  0.00    -0.310 C  
ENDBRANCH  37  46
TORSDOF 2
ENDMDL
MODEL       70
REMARK 921   NORMALIZED FREE ENERGY PREDICTED BY IDOCK:   25.08 KCAL/MOL
REMARK 922        TOTAL FREE ENERGY PREDICTED BY IDOCK:   27.68 KCAL/MOL
REMARK 923 INTER-LIGAND FREE ENERGY PREDICTED BY IDOCK:   26.88 KCAL/MOL
REMARK 924 INTRA-LIGAND FREE ENERGY PREDICTED BY IDOCK:    0.80 KCAL/MOL
REMARK 927      BINDING AFFINITY PREDICTED BY RF-SCORE:    0.00 PKD
ROOT
HETATM    1  C   UNL     1      -9.949  13.725  67.304  1.00  0.00    -0.239 C  
HETATM    2  C   UNL     1     -10.645  14.097  68.678  1.00  0.00    -0.253 C  
HETATM    3  C   UNL     1     -10.941  13.006  69.677  1.00  0.00     0.140 A  
HETATM    4  C   UNL     1     -11.712  11.906  69.324  1.00  0.00    -0.389 A  
HETATM    5  C   UNL     1     -11.433  10.675  69.905  1.00  0.00    -0.393 A  
HETATM    6  C   UNL     1     -10.511  10.593  70.946  1.00  0.00     1.298 A  
HETATM    7  C   UNL     1     -10.170  11.771  71.601  1.00  0.00     9.939 A  
HETATM    8  O   UNL     1      -9.958   9.347  71.120  1.00  0.00    -0.289 OA 
HETATM    9  C   UNL     1     -10.299  12.980  70.917  1.00  0.00     5.277 A  
HETATM   10  C   UNL     1      -8.801   9.095  71.822  1.00  0.00     0.206 A  
HETATM   11  C   UNL     1      -8.601   7.740  72.143  1.00  0.00    -0.166 A  
HETATM   12  C   UNL     1      -7.753   7.407  73.217  1.00  0.00    -0.116 A  
HETATM   13  C   UNL     1      -7.680   6.004  73.745  1.00  0.00    -0.095 C  
HETATM   14  C   UNL     1      -7.021   8.401  73.848  1.00  0.00    -0.154 A  
HETATM   15  C   UNL     1      -6.977   9.680  73.318  1.00  0.00     1.676 A  
HETATM   16  C   UNL     1      -8.174   4.910  72.811  1.00  0.00    -0.105 C  
HETATM   17  C   UNL     1      -7.821   9.991  72.248  1.00  0.00     3.770 A  
HETATM   18  C   UNL     1     -11.714  12.552  66.050  1.00  0.00    -0.417 C  
HETATM   19  N   UNL     1      -9.370   5.303  71.942  1.00  0.00    -0.141 N  
HETATM   20  O   UNL     1      -7.573  11.158  71.574  1.00  0.00     3.589 OA 
HETATM   21  N   UNL     1     -10.887  13.752  66.142  1.00  0.00    -0.279 NA 
HETATM   22  C   UNL     1      -9.652   4.122  71.005  1.00  0.00    -0.183 C  
HETATM   23  C   UNL     1      -9.064   6.637  71.182  1.00  0.00    -0.152 C  
HETATM   24  C   UNL     1     -10.653   5.541  72.744  1.00  0.00    -0.225 C  
HETATM   25  C   UNL     1      -7.928   6.438  70.126  1.00  0.00    -0.112 C  
HETATM   26  H   UNL     1      -6.905  11.769  71.864  1.00  0.00     0.000 HD 
HETATM   27  C   UNL     1      -8.366   6.636  68.704  1.00  0.00    -0.123 A  
HETATM   28  C   UNL     1      -8.649   7.935  68.297  1.00  0.00    -0.124 A  
HETATM   29  C   UNL     1      -8.717   8.271  66.945  1.00  0.00    -0.134 A  
HETATM   30  C   UNL     1      -8.823   7.232  66.025  1.00  0.00    -0.136 A  
HETATM   31  O   UNL     1      -8.692   9.602  66.588  1.00  0.00    -0.132 OA 
HETATM   32  C   UNL     1      -7.900  10.478  67.477  1.00  0.00    -0.106 C  
HETATM   33  C   UNL     1      -8.616   5.888  66.418  1.00  0.00    -0.127 A  
HETATM   34  O   UNL     1      -9.200   7.471  64.736  1.00  0.00     0.112 OA 
HETATM   35  C   UNL     1      -8.316   5.609  67.760  1.00  0.00    -0.100 A  
HETATM   36  H   UNL     1      -9.273   6.762  64.109  1.00  0.00     0.000 HD 
HETATM   37  C   UNL     1      -6.760  10.969  66.866  1.00  0.00    -0.120 C  
HETATM   38  C   UNL     1      -6.989  11.880  65.844  1.00  0.00     1.195 C  
HETATM   39  C   UNL     1     -10.112  13.986  64.905  1.00  0.00    -0.256 C  
HETATM   40  C   UNL     1      -8.683  11.524  67.951  1.00  0.00    -0.144 C  
HETATM   41  C   UNL     1      -8.212  12.576  65.895  1.00  0.00     1.124 C  
HETATM   42  C   UNL     1      -8.934  12.596  67.108  1.00  0.00    -0.205 C  
HETATM   43  C   UNL     1      -8.898  13.066  64.647  1.00  0.00     2.397 C  
ENDROOT
BRANCH  15  44
HETATM   44  O   UNL     1      -6.188  10.709  73.760  1.00  0.00     1.083 OA 
HETATM   45  C   UNL     1      -5.283  11.262  72.811  1.00  0.00     0.572 C  
ENDBRANCH  15  44
BRANCH  37  46
HETATM   46  O   UNL     1      -5.705  11.081  67.760  1.00  0.00    -0.042 OA 
HETATM   47  C   UNL     1      -5.828  10.479  69.038  1.00  0.00    -0.040 C  
ENDBRANCH  37  46
TORSDOF 2
ENDMDL
MODEL       71
REMARK 921   NORMALIZED FREE ENERGY PREDICTED BY IDOCK:   25.39 KCAL/MOL
REMARK 922        TOTAL FREE ENERGY PREDICTED BY IDOCK:   28.01 KCAL/MOL
REMARK 923 INTER-LIGAND FREE ENERGY PREDICTED BY IDOCK:   26.89 KCAL/MOL
REMARK 924 INTRA-LIGAND FREE ENERGY PREDICTED BY IDOCK:    1.12 KCAL/MOL
REMARK 927      BINDING AFFINITY PREDICTED BY RF-SCORE:    0.00 PKD
ROOT
HETATM    1  C   UNL     1      -9.048  10.401  63.933  1.00  0.00    -0.245 C  
HETATM    2  C   UNL     1      -8.871   9.093  63.055  1.00  0.00    -0.113 C  
HETATM    3  C   UNL     1      -8.303   7.848  63.688  1.00  0.00     0.086 A  
HETATM    4  C   UNL     1      -7.063   7.869  64.315  1.00  0.00    -0.074 A  
HETATM    5  C   UNL     1      -6.851   7.046  65.415  1.00  0.00    -0.052 A  
HETATM    6  C   UNL     1      -7.811   6.101  65.768  1.00  0.00    -0.105 A  
HETATM    7  C   UNL     1      -8.770   5.767  64.817  1.00  0.00     0.030 A  
HETATM    8  O   UNL     1      -7.754   5.694  67.080  1.00  0.00    -0.098 OA 
HETATM    9  C   UNL     1      -9.082   6.697  63.825  1.00  0.00     1.426 A  
HETATM   10  C   UNL     1      -8.776   5.057  67.747  1.00  0.00    -0.103 A  
HETATM   11  C   UNL     1      -8.390   4.452  68.956  1.00  0.00    -0.087 A  
HETATM   12  C   UNL     1      -9.177   3.410  69.484  1.00  0.00    -0.225 A  
HETATM   13  C   UNL     1      -8.697   2.582  70.641  1.00  0.00    -0.117 C  
HETATM   14  C   UNL     1     -10.386   3.092  68.886  1.00  0.00     1.762 A  
HETATM   15  C   UNL     1     -10.910   3.903  67.893  1.00  0.00     2.972 A  
HETATM   16  C   UNL     1      -7.592   3.191  71.489  1.00  0.00    -0.048 C  
HETATM   17  C   UNL     1     -10.118   4.937  67.386  1.00  0.00    -0.150 A  
HETATM   18  C   UNL     1      -6.742  11.190  64.282  1.00  0.00     1.157 C  
HETATM   19  N   UNL     1      -6.569   4.019  70.707  1.00  0.00    -0.030 N  
HETATM   20  O   UNL     1     -10.741   5.881  66.612  1.00  0.00    -0.348 OA 
HETATM   21  N   UNL     1      -8.028  11.450  63.638  1.00  0.00     0.858 NA 
HETATM   22  C   UNL     1      -5.608   4.631  71.735  1.00  0.00    -0.008 C  
HETATM   23  C   UNL     1      -7.303   5.089  69.832  1.00  0.00    -0.059 C  
HETATM   24  C   UNL     1      -5.713   3.183  69.751  1.00  0.00    -0.018 C  
HETATM   25  C   UNL     1      -8.000   6.167  70.724  1.00  0.00    -0.115 C  
HETATM   26  H   UNL     1     -11.655   5.799  66.366  1.00  0.00     0.000 HD 
HETATM   27  C   UNL     1      -7.443   7.553  70.567  1.00  0.00    -0.080 A  
HETATM   28  C   UNL     1      -7.716   8.221  69.380  1.00  0.00    -0.102 A  
HETATM   29  C   UNL     1      -7.556   9.602  69.274  1.00  0.00    -0.091 A  
HETATM   30  C   UNL     1      -6.816  10.245  70.261  1.00  0.00    -0.141 A  
HETATM   31  O   UNL     1      -8.120  10.257  68.199  1.00  0.00    -0.107 OA 
HETATM   32  C   UNL     1      -9.376   9.667  67.691  1.00  0.00    -0.126 C  
HETATM   33  C   UNL     1      -6.454   9.574  71.454  1.00  0.00     0.048 A  
HETATM   34  O   UNL     1      -6.356  11.516  70.078  1.00  0.00    -0.143 OA 
HETATM   35  C   UNL     1      -6.839   8.235  71.625  1.00  0.00    -0.069 A  
HETATM   36  H   UNL     1      -5.850  11.955  70.752  1.00  0.00     0.000 HD 
HETATM   37  C   UNL     1     -10.477  10.472  67.921  1.00  0.00    -0.210 C  
HETATM   38  C   UNL     1     -10.503  11.652  67.191  1.00  0.00    -0.252 C  
HETATM   39  C   UNL     1      -8.576  12.771  64.012  1.00  0.00     3.736 C  
HETATM   40  C   UNL     1      -9.263   9.378  66.336  1.00  0.00    -0.215 C  
HETATM   41  C   UNL     1      -9.768  11.655  65.990  1.00  0.00    -0.257 C  
HETATM   42  C   UNL     1      -9.378  10.420  65.427  1.00  0.00    -0.252 C  
HETATM   43  C   UNL     1      -9.162  12.916  65.434  1.00  0.00     0.492 C  
ENDROOT
BRANCH  15  44
HETATM   44  O   UNL     1     -12.149   3.782  67.323  1.00  0.00    10.151 OA 
HETATM   45  C   UNL     1     -12.308   4.357  66.031  1.00  0.00     7.610 C  
ENDBRANCH  15  44
BRANCH  37  46
HETATM   46  O   UNL     1     -11.612   9.724  68.196  1.00  0.00     0.060 OA 
HETATM   47  C   UNL     1     -11.895   9.382  69.542  1.00  0.00     0.549 C  
ENDBRANCH  37  46
TORSDOF 2
ENDMDL
MODEL       72
REMARK 921   NORMALIZED FREE ENERGY PREDICTED BY IDOCK:   26.20 KCAL/MOL
REMARK 922        TOTAL FREE ENERGY PREDICTED BY IDOCK:   28.92 KCAL/MOL
REMARK 923 INTER-LIGAND FREE ENERGY PREDICTED BY IDOCK:   28.85 KCAL/MOL
REMARK 924 INTRA-LIGAND FREE ENERGY PREDICTED BY IDOCK:    0.07 KCAL/MOL
REMARK 927      BINDING AFFINITY PREDICTED BY RF-SCORE:    0.00 PKD
ROOT
HETATM    1  C   UNL     1      -7.200  16.365  70.043  1.00  0.00     0.661 C  
HETATM    2  C   UNL     1      -5.809  15.612  70.135  1.00  0.00    -0.152 C  
HETATM    3  C   UNL     1      -5.787  14.121  70.357  1.00  0.00    -0.158 A  
HETATM    4  C   UNL     1      -6.423  13.554  71.454  1.00  0.00     1.311 A  
HETATM    5  C   UNL     1      -6.992  12.292  71.324  1.00  0.00     4.466 A  
HETATM    6  C   UNL     1      -6.772  11.549  70.167  1.00  0.00     0.232 A  
HETATM    7  C   UNL     1      -5.719  11.932  69.343  1.00  0.00    -0.073 A  
HETATM    8  O   UNL     1      -7.718  10.582  69.924  1.00  0.00    -0.137 OA 
HETATM    9  C   UNL     1      -5.291  13.260  69.376  1.00  0.00    -0.077 A  
HETATM   10  C   UNL     1      -7.919   9.972  68.706  1.00  0.00    -0.096 A  
HETATM   11  C   UNL     1      -8.699   8.804  68.765  1.00  0.00    -0.137 A  
HETATM   12  C   UNL     1      -8.596   7.856  67.727  1.00  0.00    -0.128 A  
HETATM   13  C   UNL     1      -9.228   6.500  67.847  1.00  0.00    -0.110 C  
HETATM   14  C   UNL     1      -7.841   8.149  66.603  1.00  0.00    -0.094 A  
HETATM   15  C   UNL     1      -7.341   9.426  66.409  1.00  0.00    -0.093 A  
HETATM   16  C   UNL     1     -10.336   6.365  68.879  1.00  0.00    -0.201 C  
HETATM   17  C   UNL     1      -7.458  10.355  67.447  1.00  0.00    -0.094 A  
HETATM   18  C   UNL     1      -8.042  16.330  72.357  1.00  0.00    13.003 C  
HETATM   19  N   UNL     1     -10.129   7.190  70.151  1.00  0.00    -0.187 N  
HETATM   20  O   UNL     1      -7.206  11.668  67.143  1.00  0.00    -0.127 OA 
HETATM   21  N   UNL     1      -7.525  17.155  71.267  1.00  0.00     5.637 NA 
HETATM   22  C   UNL     1     -11.385   7.009  71.013  1.00  0.00    -0.287 C  
HETATM   23  C   UNL     1      -9.844   8.684  69.780  1.00  0.00    -0.183 C  
HETATM   24  C   UNL     1      -8.945   6.716  70.998  1.00  0.00    -0.146 C  
HETATM   25  C   UNL     1     -11.102   9.357  69.140  1.00  0.00    -0.039 C  
HETATM   26  H   UNL     1      -6.892  11.929  66.285  1.00  0.00     0.000 HD 
HETATM   27  C   UNL     1     -11.680  10.480  69.951  1.00  0.00    -0.372 A  
HETATM   28  C   UNL     1     -10.957  11.665  70.010  1.00  0.00     0.244 A  
HETATM   29  C   UNL     1     -11.552  12.857  70.426  1.00  0.00     0.152 A  
HETATM   30  C   UNL     1     -12.773  12.772  71.086  1.00  0.00    -0.263 A  
HETATM   31  O   UNL     1     -10.901  14.047  70.181  1.00  0.00     0.143 OA 
HETATM   32  C   UNL     1     -10.087  14.077  68.947  1.00  0.00    -0.126 C  
HETATM   33  C   UNL     1     -13.506  11.561  71.113  1.00  0.00     0.440 A  
HETATM   34  O   UNL     1     -13.267  13.833  71.788  1.00  0.00    -0.345 OA 
HETATM   35  C   UNL     1     -12.974  10.430  70.474  1.00  0.00    -0.280 A  
HETATM   36  H   UNL     1     -14.101  13.775  72.240  1.00  0.00     0.000 HD 
HETATM   37  C   UNL     1     -10.609  14.920  67.982  1.00  0.00    -0.248 C  
HETATM   38  C   UNL     1     -10.550  16.271  68.291  1.00  0.00    -0.300 C  
HETATM   39  C   UNL     1      -8.461  18.240  70.905  1.00  0.00     5.908 C  
HETATM   40  C   UNL     1      -8.775  14.431  69.240  1.00  0.00     0.189 C  
HETATM   41  C   UNL     1      -9.556  16.655  69.211  1.00  0.00    -0.148 C  
HETATM   42  C   UNL     1      -8.488  15.769  69.469  1.00  0.00    -0.138 C  
HETATM   43  C   UNL     1      -9.729  17.846  70.117  1.00  0.00     1.590 C  
ENDROOT
BRANCH  15  44
HETATM   44  O   UNL     1      -6.704   9.881  65.285  1.00  0.00    -0.093 OA 
HETATM   45  C   UNL     1      -7.463  10.726  64.428  1.00  0.00     0.342 C  
ENDBRANCH  15  44
BRANCH  37  46
HETATM   46  O   UNL     1     -10.407  14.424  66.703  1.00  0.00    -0.268 OA 
HETATM   47  C   UNL     1     -10.324  15.337  65.622  1.00  0.00    -0.366 C  
ENDBRANCH  37  46
TORSDOF 2
ENDMDL
MODEL       73
REMARK 921   NORMALIZED FREE ENERGY PREDICTED BY IDOCK:   26.22 KCAL/MOL
REMARK 922        TOTAL FREE ENERGY PREDICTED BY IDOCK:   28.94 KCAL/MOL
REMARK 923 INTER-LIGAND FREE ENERGY PREDICTED BY IDOCK:   28.65 KCAL/MOL
REMARK 924 INTRA-LIGAND FREE ENERGY PREDICTED BY IDOCK:    0.29 KCAL/MOL
REMARK 927      BINDING AFFINITY PREDICTED BY RF-SCORE:    0.00 PKD
ROOT
HETATM    1  C   UNL     1      -6.453  10.575  71.039  1.00  0.00     0.365 C  
HETATM    2  C   UNL     1      -5.514  10.697  69.769  1.00  0.00    -0.040 C  
HETATM    3  C   UNL     1      -5.461   9.564  68.776  1.00  0.00    -0.037 A  
HETATM    4  C   UNL     1      -5.128   8.276  69.179  1.00  0.00    -0.027 A  
HETATM    5  C   UNL     1      -5.711   7.196  68.529  1.00  0.00    -0.022 A  
HETATM    6  C   UNL     1      -6.478   7.407  67.385  1.00  0.00    -0.060 A  
HETATM    7  C   UNL     1      -6.345   8.629  66.734  1.00  0.00    -0.059 A  
HETATM    8  O   UNL     1      -7.373   6.402  67.107  1.00  0.00    -0.080 OA 
HETATM    9  C   UNL     1      -5.922   9.737  67.469  1.00  0.00    -0.051 A  
HETATM   10  C   UNL     1      -8.456   6.528  66.266  1.00  0.00    -0.129 A  
HETATM   11  C   UNL     1      -9.035   5.307  65.878  1.00  0.00    -0.148 A  
HETATM   12  C   UNL     1      -9.809   5.256  64.702  1.00  0.00     0.669 A  
HETATM   13  C   UNL     1     -10.259   3.947  64.123  1.00  0.00    -0.227 C  
HETATM   14  C   UNL     1     -10.104   6.428  64.024  1.00  0.00     4.564 A  
HETATM   15  C   UNL     1      -9.804   7.657  64.587  1.00  0.00     3.312 A  
HETATM   16  C   UNL     1     -10.256   2.758  65.071  1.00  0.00     0.519 C  
HETATM   17  C   UNL     1      -9.041   7.688  65.758  1.00  0.00     0.009 A  
HETATM   18  C   UNL     1      -5.318   8.907  72.451  1.00  0.00    -0.059 C  
HETATM   19  N   UNL     1      -9.111   2.754  66.087  1.00  0.00    -0.140 N  
HETATM   20  O   UNL     1      -8.985   8.877  66.437  1.00  0.00    -0.141 OA 
HETATM   21  N   UNL     1      -5.703  10.308  72.302  1.00  0.00    -0.206 NA 
HETATM   22  C   UNL     1      -9.336   1.550  67.011  1.00  0.00     0.051 C  
HETATM   23  C   UNL     1      -9.067   4.119  66.850  1.00  0.00    -0.142 C  
HETATM   24  C   UNL     1      -7.731   2.564  65.449  1.00  0.00    -0.077 C  
HETATM   25  C   UNL     1     -10.327   4.300  67.759  1.00  0.00     0.328 C  
HETATM   26  H   UNL     1      -9.384   9.668  66.092  1.00  0.00     0.000 HD 
HETATM   27  C   UNL     1     -10.024   4.356  69.228  1.00  0.00    -0.144 A  
HETATM   28  C   UNL     1      -9.395   5.498  69.708  1.00  0.00    -0.181 A  
HETATM   29  C   UNL     1      -9.389   5.803  71.070  1.00  0.00    -0.160 A  
HETATM   30  C   UNL     1      -9.730   4.790  71.960  1.00  0.00    -0.162 A  
HETATM   31  O   UNL     1      -9.032   7.074  71.466  1.00  0.00    -0.139 OA 
HETATM   32  C   UNL     1      -9.391   8.152  70.520  1.00  0.00    -0.155 C  
HETATM   33  C   UNL     1     -10.305   3.580  71.501  1.00  0.00     0.214 A  
HETATM   34  O   UNL     1      -9.456   4.904  73.292  1.00  0.00    -0.124 OA 
HETATM   35  C   UNL     1     -10.513   3.404  70.125  1.00  0.00     1.677 A  
HETATM   36  H   UNL     1      -9.689   4.211  73.899  1.00  0.00     0.000 HD 
HETATM   37  C   UNL     1     -10.381   8.986  71.009  1.00  0.00    -0.278 C  
HETATM   38  C   UNL     1     -10.000   9.781  72.081  1.00  0.00     2.333 C  
HETATM   39  C   UNL     1      -6.508  10.784  73.448  1.00  0.00     3.633 C  
HETATM   40  C   UNL     1      -8.264   8.890  70.175  1.00  0.00    -0.126 C  
HETATM   41  C   UNL     1      -8.623  10.049  72.197  1.00  0.00     4.447 C  
HETATM   42  C   UNL     1      -7.790   9.831  71.077  1.00  0.00     0.464 C  
HETATM   43  C   UNL     1      -7.973  10.302  73.531  1.00  0.00     7.336 C  
ENDROOT
BRANCH  15  44
HETATM   44  O   UNL     1     -10.165   8.882  64.091  1.00  0.00     2.600 OA 
HETATM   45  C   UNL     1      -9.109   9.813  63.882  1.00  0.00    -0.233 C  
ENDBRANCH  15  44
BRANCH  37  46
HETATM   46  O   UNL     1     -11.228   9.423  70.002  1.00  0.00    -0.240 OA 
HETATM   47  C   UNL     1     -12.160  10.451  70.292  1.00  0.00    -0.286 C  
ENDBRANCH  37  46
TORSDOF 2
ENDMDL
MODEL       74
REMARK 921   NORMALIZED FREE ENERGY PREDICTED BY IDOCK:   27.07 KCAL/MOL
REMARK 922        TOTAL FREE ENERGY PREDICTED BY IDOCK:   29.89 KCAL/MOL
REMARK 923 INTER-LIGAND FREE ENERGY PREDICTED BY IDOCK:   30.28 KCAL/MOL
REMARK 924 INTRA-LIGAND FREE ENERGY PREDICTED BY IDOCK:   -0.39 KCAL/MOL
REMARK 927      BINDING AFFINITY PREDICTED BY RF-SCORE:    0.00 PKD
ROOT
HETATM    1  C   UNL     1      -9.907  12.081  63.423  1.00  0.00    -0.278 C  
HETATM    2  C   UNL     1      -8.383  11.832  63.065  1.00  0.00     0.964 C  
HETATM    3  C   UNL     1      -7.430  11.397  64.149  1.00  0.00     1.646 A  
HETATM    4  C   UNL     1      -7.270  12.152  65.304  1.00  0.00     3.337 A  
HETATM    5  C   UNL     1      -6.998  11.502  66.502  1.00  0.00    -0.009 A  
HETATM    6  C   UNL     1      -6.724  10.136  66.502  1.00  0.00    -0.085 A  
HETATM    7  C   UNL     1      -6.382   9.546  65.290  1.00  0.00    -0.073 A  
HETATM    8  O   UNL     1      -6.943   9.512  67.706  1.00  0.00    -0.078 OA 
HETATM    9  C   UNL     1      -6.826  10.138  64.107  1.00  0.00    -0.102 A  
HETATM   10  C   UNL     1      -7.084   8.151  67.869  1.00  0.00    -0.083 A  
HETATM   11  C   UNL     1      -6.975   7.713  69.200  1.00  0.00    -0.068 A  
HETATM   12  C   UNL     1      -6.635   6.370  69.455  1.00  0.00    -0.044 A  
HETATM   13  C   UNL     1      -6.286   5.904  70.839  1.00  0.00    -0.035 C  
HETATM   14  C   UNL     1      -6.552   5.472  68.403  1.00  0.00    -0.049 A  
HETATM   15  C   UNL     1      -6.975   5.837  67.136  1.00  0.00    -0.065 A  
HETATM   16  C   UNL     1      -6.756   6.789  71.982  1.00  0.00    -0.058 C  
HETATM   17  C   UNL     1      -7.315   7.172  66.903  1.00  0.00    -0.088 A  
HETATM   18  C   UNL     1      -9.870  14.165  64.733  1.00  0.00     0.188 C  
HETATM   19  N   UNL     1      -6.723   8.290  71.685  1.00  0.00    -0.060 N  
HETATM   20  O   UNL     1      -7.979   7.455  65.738  1.00  0.00    -0.104 OA 
HETATM   21  N   UNL     1     -10.269  13.528  63.481  1.00  0.00     0.875 NA 
HETATM   22  C   UNL     1      -7.325   9.003  72.902  1.00  0.00     0.534 C  
HETATM   23  C   UNL     1      -7.486   8.589  70.352  1.00  0.00    -0.069 C  
HETATM   24  C   UNL     1      -5.305   8.845  71.511  1.00  0.00    -0.042 C  
HETATM   25  C   UNL     1      -9.017   8.308  70.502  1.00  0.00    -0.151 C  
HETATM   26  H   UNL     1      -8.137   6.788  65.080  1.00  0.00     0.000 HD 
HETATM   27  C   UNL     1      -9.885   9.525  70.364  1.00  0.00    -0.329 A  
HETATM   28  C   UNL     1     -10.014  10.077  69.095  1.00  0.00    -0.213 A  
HETATM   29  C   UNL     1     -11.046  10.966  68.794  1.00  0.00    -0.256 A  
HETATM   30  C   UNL     1     -11.736  11.538  69.858  1.00  0.00    -0.343 A  
HETATM   31  O   UNL     1     -11.318  11.247  67.472  1.00  0.00    -0.327 OA 
HETATM   32  C   UNL     1     -11.067  10.137  66.529  1.00  0.00     0.281 C  
HETATM   33  C   UNL     1     -11.575  11.051  71.178  1.00  0.00     0.292 A  
HETATM   34  O   UNL     1     -12.534  12.629  69.672  1.00  0.00    -0.041 OA 
HETATM   35  C   UNL     1     -10.690   9.987  71.407  1.00  0.00     0.346 A  
HETATM   36  H   UNL     1     -13.006  13.019  70.399  1.00  0.00     0.000 HD 
HETATM   37  C   UNL     1     -12.231   9.628  65.980  1.00  0.00     8.162 C  
HETATM   38  C   UNL     1     -12.891  10.484  65.109  1.00  0.00     7.760 C  
HETATM   39  C   UNL     1     -11.719  13.670  63.226  1.00  0.00     0.247 C  
HETATM   40  C   UNL     1     -10.196  10.542  65.524  1.00  0.00    -0.325 C  
HETATM   41  C   UNL     1     -12.101  11.472  64.491  1.00  0.00     0.129 C  
HETATM   42  C   UNL     1     -10.697  11.318  64.489  1.00  0.00    -0.390 C  
HETATM   43  C   UNL     1     -12.674  12.800  64.073  1.00  0.00    -0.297 C  
ENDROOT
BRANCH  15  44
HETATM   44  O   UNL     1      -7.076   5.009  66.049  1.00  0.00    -0.068 OA 
HETATM   45  C   UNL     1      -7.506   3.677  66.309  1.00  0.00    -0.080 C  
ENDBRANCH  15  44
BRANCH  37  46
HETATM   46  O   UNL     1     -12.149   8.258  65.782  1.00  0.00     8.036 OA 
HETATM   47  C   UNL     1     -11.457   7.471  66.737  1.00  0.00     1.699 C  
ENDBRANCH  37  46
TORSDOF 2
ENDMDL
MODEL       75
REMARK 921   NORMALIZED FREE ENERGY PREDICTED BY IDOCK:   28.21 KCAL/MOL
REMARK 922        TOTAL FREE ENERGY PREDICTED BY IDOCK:   31.17 KCAL/MOL
REMARK 923 INTER-LIGAND FREE ENERGY PREDICTED BY IDOCK:   30.63 KCAL/MOL
REMARK 924 INTRA-LIGAND FREE ENERGY PREDICTED BY IDOCK:    0.55 KCAL/MOL
REMARK 927      BINDING AFFINITY PREDICTED BY RF-SCORE:    0.00 PKD
ROOT
HETATM    1  C   UNL     1      -7.457   7.310  66.524  1.00  0.00    -0.088 C  
HETATM    2  C   UNL     1      -6.796   7.425  67.959  1.00  0.00    -0.070 C  
HETATM    3  C   UNL     1      -6.748   8.765  68.647  1.00  0.00    -0.059 A  
HETATM    4  C   UNL     1      -6.151   9.861  68.035  1.00  0.00    -0.053 A  
HETATM    5  C   UNL     1      -6.667  11.129  68.274  1.00  0.00    -0.059 A  
HETATM    6  C   UNL     1      -7.653  11.305  69.242  1.00  0.00    -0.019 A  
HETATM    7  C   UNL     1      -7.833  10.288  70.173  1.00  0.00     0.046 A  
HETATM    8  O   UNL     1      -8.416  12.437  69.078  1.00  0.00     0.192 OA 
HETATM    9  C   UNL     1      -7.462   8.988  69.827  1.00  0.00    -0.062 A  
HETATM   10  C   UNL     1      -9.641  12.648  69.671  1.00  0.00     1.800 A  
HETATM   11  C   UNL     1     -10.082  13.982  69.627  1.00  0.00     0.510 A  
HETATM   12  C   UNL     1     -11.040  14.419  70.564  1.00  0.00     0.089 A  
HETATM   13  C   UNL     1     -11.379  15.874  70.710  1.00  0.00    -0.424 C  
HETATM   14  C   UNL     1     -11.633  13.502  71.417  1.00  0.00     1.208 A  
HETATM   15  C   UNL     1     -11.431  12.144  71.235  1.00  0.00     2.208 A  
HETATM   16  C   UNL     1     -11.017  16.767  69.534  1.00  0.00    -0.158 C  
HETATM   17  C   UNL     1     -10.482  11.729  70.297  1.00  0.00     1.858 A  
HETATM   18  C   UNL     1      -5.837   8.423  65.040  1.00  0.00    -0.045 C  
HETATM   19  N   UNL     1      -9.720  16.386  68.817  1.00  0.00    -0.240 N  
HETATM   20  O   UNL     1     -10.489  10.405  69.943  1.00  0.00    -0.301 OA 
HETATM   21  N   UNL     1      -6.457   7.157  65.425  1.00  0.00    -0.046 NA 
HETATM   22  C   UNL     1      -9.581  17.325  67.611  1.00  0.00    -0.256 C  
HETATM   23  C   UNL     1      -9.751  14.872  68.422  1.00  0.00    -0.209 C  
HETATM   24  C   UNL     1      -8.467  16.589  69.675  1.00  0.00     0.499 C  
HETATM   25  C   UNL     1     -10.836  14.595  67.331  1.00  0.00    -0.298 C  
HETATM   26  H   UNL     1     -11.062   9.778  70.370  1.00  0.00     0.000 HD 
HETATM   27  C   UNL     1     -10.283  14.126  66.016  1.00  0.00    -0.318 A  
HETATM   28  C   UNL     1      -9.764  12.838  65.964  1.00  0.00    -0.226 A  
HETATM   29  C   UNL     1      -9.556  12.190  64.746  1.00  0.00     0.049 A  
HETATM   30  C   UNL     1      -9.567  12.966  63.591  1.00  0.00     1.287 A  
HETATM   31  O   UNL     1      -9.336  10.830  64.745  1.00  0.00    -0.202 OA 
HETATM   32  C   UNL     1     -10.025  10.080  65.816  1.00  0.00    -0.276 C  
HETATM   33  C   UNL     1     -10.020  14.308  63.619  1.00  0.00     4.082 A  
HETATM   34  O   UNL     1      -9.076  12.481  62.414  1.00  0.00     1.128 OA 
HETATM   35  C   UNL     1     -10.445  14.858  64.838  1.00  0.00    -0.389 A  
HETATM   36  H   UNL     1      -9.083  13.012  61.626  1.00  0.00     0.000 HD 
HETATM   37  C   UNL     1     -11.027   9.256  65.333  1.00  0.00     3.112 C  
HETATM   38  C   UNL     1     -10.586   8.174  64.585  1.00  0.00     7.072 C  
HETATM   39  C   UNL     1      -7.103   6.487  64.277  1.00  0.00    -0.060 C  
HETATM   40  C   UNL     1      -9.110   9.342  66.558  1.00  0.00    -0.188 C  
HETATM   41  C   UNL     1      -9.270   7.741  64.835  1.00  0.00     0.863 C  
HETATM   42  C   UNL     1      -8.632   8.154  66.025  1.00  0.00    -0.165 C  
HETATM   43  C   UNL     1      -8.435   7.082  63.769  1.00  0.00     0.343 C  
ENDROOT
BRANCH  15  44
HETATM   44  O   UNL     1     -12.063  11.137  71.914  1.00  0.00     0.237 OA 
HETATM   45  C   UNL     1     -13.458  11.305  72.137  1.00  0.00    -0.092 C  
ENDBRANCH  15  44
BRANCH  37  46
HETATM   46  O   UNL     1     -12.102   9.188  66.208  1.00  0.00     5.170 OA 
HETATM   47  C   UNL     1     -11.845   9.070  67.596  1.00  0.00     3.178 C  
ENDBRANCH  37  46
TORSDOF 2
ENDMDL
MODEL       76
REMARK 921   NORMALIZED FREE ENERGY PREDICTED BY IDOCK:   28.30 KCAL/MOL
REMARK 922        TOTAL FREE ENERGY PREDICTED BY IDOCK:   31.27 KCAL/MOL
REMARK 923 INTER-LIGAND FREE ENERGY PREDICTED BY IDOCK:   31.57 KCAL/MOL
REMARK 924 INTRA-LIGAND FREE ENERGY PREDICTED BY IDOCK:   -0.30 KCAL/MOL
REMARK 927      BINDING AFFINITY PREDICTED BY RF-SCORE:    0.00 PKD
ROOT
HETATM    1  C   UNL     1      -7.475  18.396  69.886  1.00  0.00     0.868 C  
HETATM    2  C   UNL     1      -7.895  19.193  68.582  1.00  0.00    -0.390 C  
HETATM    3  C   UNL     1      -8.085  18.445  67.287  1.00  0.00    -0.243 A  
HETATM    4  C   UNL     1      -7.064  17.666  66.757  1.00  0.00    -0.239 A  
HETATM    5  C   UNL     1      -7.393  16.517  66.048  1.00  0.00     0.430 A  
HETATM    6  C   UNL     1      -8.725  16.253  65.735  1.00  0.00     0.116 A  
HETATM    7  C   UNL     1      -9.630  17.306  65.824  1.00  0.00     0.035 A  
HETATM    8  O   UNL     1      -8.999  14.930  65.482  1.00  0.00     0.323 OA 
HETATM    9  C   UNL     1      -9.343  18.365  66.686  1.00  0.00    -0.305 A  
HETATM   10  C   UNL     1     -10.259  14.375  65.498  1.00  0.00    -0.363 A  
HETATM   11  C   UNL     1     -10.339  13.104  64.902  1.00  0.00    -0.352 A  
HETATM   12  C   UNL     1     -11.586  12.642  64.438  1.00  0.00    -0.415 A  
HETATM   13  C   UNL     1     -11.693  11.402  63.598  1.00  0.00    -0.092 C  
HETATM   14  C   UNL     1     -12.731  13.378  64.698  1.00  0.00    -0.246 A  
HETATM   15  C   UNL     1     -12.687  14.459  65.562  1.00  0.00    -0.293 A  
HETATM   16  C   UNL     1     -10.514  10.444  63.665  1.00  0.00     0.490 C  
HETATM   17  C   UNL     1     -11.442  14.901  66.018  1.00  0.00    -0.275 A  
HETATM   18  C   UNL     1      -5.126  17.786  69.471  1.00  0.00    -0.174 C  
HETATM   19  N   UNL     1      -9.148  11.119  63.803  1.00  0.00    -0.123 N  
HETATM   20  O   UNL     1     -11.436  15.784  67.066  1.00  0.00    -0.081 OA 
HETATM   21  N   UNL     1      -6.045  18.598  70.264  1.00  0.00    -0.114 NA 
HETATM   22  C   UNL     1      -8.109  10.002  63.960  1.00  0.00    -0.153 C  
HETATM   23  C   UNL     1      -9.165  12.122  65.004  1.00  0.00     0.353 C  
HETATM   24  C   UNL     1      -8.740  11.925  62.566  1.00  0.00     1.102 C  
HETATM   25  C   UNL     1      -9.310  11.368  66.367  1.00  0.00    -0.219 C  
HETATM   26  H   UNL     1     -12.242  16.141  67.420  1.00  0.00     0.000 HD 
HETATM   27  C   UNL     1      -8.124  11.506  67.277  1.00  0.00    -0.153 A  
HETATM   28  C   UNL     1      -7.916  12.743  67.874  1.00  0.00    -0.158 A  
HETATM   29  C   UNL     1      -7.079  12.881  68.982  1.00  0.00    -0.024 A  
HETATM   30  C   UNL     1      -6.211  11.833  69.270  1.00  0.00    -0.092 A  
HETATM   31  O   UNL     1      -7.139  14.044  69.720  1.00  0.00     0.013 OA 
HETATM   32  C   UNL     1      -8.469  14.686  69.777  1.00  0.00     0.407 C  
HETATM   33  C   UNL     1      -6.345  10.579  68.627  1.00  0.00    -0.047 A  
HETATM   34  O   UNL     1      -5.163  12.004  70.127  1.00  0.00    -0.075 OA 
HETATM   35  C   UNL     1      -7.360  10.406  67.674  1.00  0.00    -0.088 A  
HETATM   36  H   UNL     1      -4.570  11.288  70.323  1.00  0.00     0.000 HD 
HETATM   37  C   UNL     1      -9.037  14.629  71.038  1.00  0.00     3.244 C  
HETATM   38  C   UNL     1      -8.403  15.402  72.001  1.00  0.00     6.622 C  
HETATM   39  C   UNL     1      -5.892  18.349  71.714  1.00  0.00     0.784 C  
HETATM   40  C   UNL     1      -8.391  16.003  69.340  1.00  0.00    -0.139 C  
HETATM   41  C   UNL     1      -7.658  16.498  71.526  1.00  0.00     6.915 C  
HETATM   42  C   UNL     1      -7.886  16.958  70.211  1.00  0.00     2.394 C  
HETATM   43  C   UNL     1      -6.455  17.020  72.266  1.00  0.00     4.731 C  
ENDROOT
BRANCH  15  44
HETATM   44  O   UNL     1     -13.763  15.179  66.009  1.00  0.00     1.884 OA 
HETATM   45  C   UNL     1     -14.351  16.079  65.078  1.00  0.00     5.349 C  
ENDBRANCH  15  44
BRANCH  37  46
HETATM   46  O   UNL     1     -10.414  14.474  70.974  1.00  0.00     0.709 OA 
HETATM   47  C   UNL     1     -11.241  15.548  71.388  1.00  0.00    -0.346 C  
ENDBRANCH  37  46
TORSDOF 2
ENDMDL
MODEL       77
REMARK 921   NORMALIZED FREE ENERGY PREDICTED BY IDOCK:   31.25 KCAL/MOL
REMARK 922        TOTAL FREE ENERGY PREDICTED BY IDOCK:   34.56 KCAL/MOL
REMARK 923 INTER-LIGAND FREE ENERGY PREDICTED BY IDOCK:   34.30 KCAL/MOL
REMARK 924 INTRA-LIGAND FREE ENERGY PREDICTED BY IDOCK:    0.26 KCAL/MOL
REMARK 927      BINDING AFFINITY PREDICTED BY RF-SCORE:    0.00 PKD
ROOT
HETATM    1  C   UNL     1     -12.112  17.519  68.815  1.00  0.00     3.145 C  
HETATM    2  C   UNL     1     -13.370  16.638  68.423  1.00  0.00     5.231 C  
HETATM    3  C   UNL     1     -13.159  15.293  67.775  1.00  0.00     3.069 A  
HETATM    4  C   UNL     1     -12.426  15.174  66.601  1.00  0.00     0.822 A  
HETATM    5  C   UNL     1     -11.673  14.025  66.391  1.00  0.00    -0.407 A  
HETATM    6  C   UNL     1     -11.794  12.948  67.266  1.00  0.00    -0.356 A  
HETATM    7  C   UNL     1     -12.907  12.915  68.100  1.00  0.00     1.892 A  
HETATM    8  O   UNL     1     -10.716  12.096  67.272  1.00  0.00    -0.219 OA 
HETATM    9  C   UNL     1     -13.533  14.118  68.430  1.00  0.00     4.774 A  
HETATM   10  C   UNL     1     -10.443  11.187  68.270  1.00  0.00    -0.191 A  
HETATM   11  C   UNL     1      -9.492  10.212  67.920  1.00  0.00    -0.154 A  
HETATM   12  C   UNL     1      -9.466   8.994  68.628  1.00  0.00    -0.149 A  
HETATM   13  C   UNL     1      -8.631   7.838  68.157  1.00  0.00    -0.123 C  
HETATM   14  C   UNL     1     -10.275   8.829  69.740  1.00  0.00    -0.205 A  
HETATM   15  C   UNL     1     -10.968   9.906  70.268  1.00  0.00    -0.309 A  
HETATM   16  C   UNL     1      -7.499   8.175  67.200  1.00  0.00    -0.089 C  
HETATM   17  C   UNL     1     -10.978  11.109  69.555  1.00  0.00    -0.220 A  
HETATM   18  C   UNL     1     -11.238  18.293  66.647  1.00  0.00     0.700 C  
HETATM   19  N   UNL     1      -7.809   9.304  66.214  1.00  0.00    -0.103 N  
HETATM   20  O   UNL     1     -11.433  12.222  70.213  1.00  0.00    -0.515 OA 
HETATM   21  N   UNL     1     -11.893  18.674  67.896  1.00  0.00     1.791 NA 
HETATM   22  C   UNL     1      -6.527   9.567  65.414  1.00  0.00    -0.073 C  
HETATM   23  C   UNL     1      -8.326  10.563  66.986  1.00  0.00    -0.128 C  
HETATM   24  C   UNL     1      -8.893   8.940  65.194  1.00  0.00    -0.166 C  
HETATM   25  C   UNL     1      -7.197  11.186  67.870  1.00  0.00    -0.090 C  
HETATM   26  H   UNL     1     -11.797  12.169  71.089  1.00  0.00     0.000 HD 
HETATM   27  C   UNL     1      -6.785  12.570  67.459  1.00  0.00    -0.151 A  
HETATM   28  C   UNL     1      -7.680  13.604  67.704  1.00  0.00    -0.184 A  
HETATM   29  C   UNL     1      -7.268  14.937  67.691  1.00  0.00    -0.185 A  
HETATM   30  C   UNL     1      -6.038  15.227  67.110  1.00  0.00     0.441 A  
HETATM   31  O   UNL     1      -8.098  15.895  68.232  1.00  0.00    -0.139 OA 
HETATM   32  C   UNL     1      -8.927  15.441  69.369  1.00  0.00    -0.258 C  
HETATM   33  C   UNL     1      -5.128  14.194  66.776  1.00  0.00     2.026 A  
HETATM   34  O   UNL     1      -5.702  16.507  66.780  1.00  0.00    -0.329 OA 
HETATM   35  C   UNL     1      -5.490  12.862  67.024  1.00  0.00     0.425 A  
HETATM   36  H   UNL     1      -4.861  16.705  66.383  1.00  0.00     0.000 HD 
HETATM   37  C   UNL     1      -8.556  16.024  70.568  1.00  0.00     2.201 C  
HETATM   38  C   UNL     1      -8.816  17.383  70.664  1.00  0.00     4.741 C  
HETATM   39  C   UNL     1     -11.140  19.724  68.616  1.00  0.00     1.209 C  
HETATM   40  C   UNL     1     -10.272  15.676  69.114  1.00  0.00    -0.233 C  
HETATM   41  C   UNL     1      -9.842  17.879  69.837  1.00  0.00     0.848 C  
HETATM   42  C   UNL     1     -10.758  16.967  69.267  1.00  0.00    -0.288 C  
HETATM   43  C   UNL     1      -9.839  19.297  69.330  1.00  0.00    -0.186 C  
ENDROOT
BRANCH  15  44
HETATM   44  O   UNL     1     -11.685   9.910  71.434  1.00  0.00    -0.369 OA 
HETATM   45  C   UNL     1     -11.753   8.675  72.137  1.00  0.00    -0.371 C  
ENDBRANCH  15  44
BRANCH  37  46
HETATM   46  O   UNL     1      -8.700  15.146  71.632  1.00  0.00     3.289 OA 
HETATM   47  C   UNL     1      -9.994  14.661  71.946  1.00  0.00     3.881 C  
ENDBRANCH  37  46
TORSDOF 2
ENDMDL
MODEL       78
REMARK 921   NORMALIZED FREE ENERGY PREDICTED BY IDOCK:   31.92 KCAL/MOL
REMARK 922        TOTAL FREE ENERGY PREDICTED BY IDOCK:   35.32 KCAL/MOL
REMARK 923 INTER-LIGAND FREE ENERGY PREDICTED BY IDOCK:   35.30 KCAL/MOL
REMARK 924 INTRA-LIGAND FREE ENERGY PREDICTED BY IDOCK:    0.01 KCAL/MOL
REMARK 927      BINDING AFFINITY PREDICTED BY RF-SCORE:    0.00 PKD
ROOT
HETATM    1  C   UNL     1      -9.338  10.333  72.494  1.00  0.00     7.906 C  
HETATM    2  C   UNL     1      -8.137  11.319  72.183  1.00  0.00    12.699 C  
HETATM    3  C   UNL     1      -7.318  11.117  70.933  1.00  0.00     2.833 A  
HETATM    4  C   UNL     1      -6.686   9.905  70.683  1.00  0.00    -0.097 A  
HETATM    5  C   UNL     1      -6.551   9.475  69.369  1.00  0.00    -0.044 A  
HETATM    6  C   UNL     1      -6.892  10.328  68.322  1.00  0.00    -0.065 A  
HETATM    7  C   UNL     1      -7.014  11.684  68.607  1.00  0.00    -0.088 A  
HETATM    8  O   UNL     1      -7.183   9.690  67.140  1.00  0.00    -0.086 OA 
HETATM    9  C   UNL     1      -7.326  12.069  69.912  1.00  0.00     0.936 A  
HETATM   10  C   UNL     1      -7.868  10.261  66.090  1.00  0.00    -0.129 A  
HETATM   11  C   UNL     1      -7.768   9.553  64.880  1.00  0.00    -0.115 A  
HETATM   12  C   UNL     1      -8.005  10.230  63.667  1.00  0.00    -0.139 A  
HETATM   13  C   UNL     1      -7.695   9.589  62.345  1.00  0.00    -0.119 C  
HETATM   14  C   UNL     1      -8.466  11.536  63.689  1.00  0.00     0.700 A  
HETATM   15  C   UNL     1      -8.869  12.116  64.880  1.00  0.00     0.930 A  
HETATM   16  C   UNL     1      -7.570   8.074  62.347  1.00  0.00    -0.113 C  
HETATM   17  C   UNL     1      -8.633  11.427  66.074  1.00  0.00    -0.094 A  
HETATM   18  C   UNL     1      -8.223   8.231  73.127  1.00  0.00    -0.169 C  
HETATM   19  N   UNL     1      -6.939   7.486  63.611  1.00  0.00    -0.057 N  
HETATM   20  O   UNL     1      -9.271  11.884  67.197  1.00  0.00    -0.174 OA 
HETATM   21  N   UNL     1      -9.032   9.359  73.583  1.00  0.00     2.333 NA 
HETATM   22  C   UNL     1      -6.997   5.959  63.473  1.00  0.00    -0.042 C  
HETATM   23  C   UNL     1      -7.684   8.021  64.880  1.00  0.00    -0.118 C  
HETATM   24  C   UNL     1      -5.462   7.854  63.782  1.00  0.00    -0.048 C  
HETATM   25  C   UNL     1      -9.148   7.477  64.948  1.00  0.00     0.710 C  
HETATM   26  H   UNL     1      -9.792  12.679  67.186  1.00  0.00     0.000 HD 
HETATM   27  C   UNL     1      -9.420   6.580  66.121  1.00  0.00    -0.067 A  
HETATM   28  C   UNL     1      -9.479   7.172  67.377  1.00  0.00    -0.156 A  
HETATM   29  C   UNL     1     -10.061   6.513  68.460  1.00  0.00    -0.160 A  
HETATM   30  C   UNL     1     -10.280   5.144  68.342  1.00  0.00    -0.105 A  
HETATM   31  O   UNL     1     -10.374   7.238  69.590  1.00  0.00    -0.208 OA 
HETATM   32  C   UNL     1     -10.761   8.644  69.349  1.00  0.00    -0.158 C  
HETATM   33  C   UNL     1     -10.156   4.491  67.092  1.00  0.00    -0.160 A  
HETATM   34  O   UNL     1     -10.550   4.379  69.439  1.00  0.00     0.427 OA 
HETATM   35  C   UNL     1      -9.790   5.243  65.965  1.00  0.00    -0.155 A  
HETATM   36  H   UNL     1     -10.699   3.444  69.358  1.00  0.00     0.000 HD 
HETATM   37  C   UNL     1     -12.096   8.885  69.622  1.00  0.00     1.147 C  
HETATM   38  C   UNL     1     -12.443   8.811  70.964  1.00  0.00    -0.152 C  
HETATM   39  C   UNL     1     -10.300   8.914  74.200  1.00  0.00     6.070 C  
HETATM   40  C   UNL     1      -9.955   9.503  70.087  1.00  0.00    -0.285 C  
HETATM   41  C   UNL     1     -11.403   9.032  71.887  1.00  0.00    -0.438 C  
HETATM   42  C   UNL     1     -10.217   9.656  71.440  1.00  0.00     0.029 C  
HETATM   43  C   UNL     1     -11.404   8.396  73.251  1.00  0.00     0.832 C  
ENDROOT
BRANCH  15  44
HETATM   44  O   UNL     1      -9.470  13.339  65.020  1.00  0.00     0.178 OA 
HETATM   45  C   UNL     1     -10.856  13.400  64.704  1.00  0.00    -0.392 C  
ENDBRANCH  15  44
BRANCH  37  46
HETATM   46  O   UNL     1     -12.639   9.814  68.747  1.00  0.00     1.451 OA 
HETATM   47  C   UNL     1     -12.458  11.194  69.018  1.00  0.00     0.259 C  
ENDBRANCH  37  46
TORSDOF 2
ENDMDL
MODEL       79
REMARK 921   NORMALIZED FREE ENERGY PREDICTED BY IDOCK:   32.93 KCAL/MOL
REMARK 922        TOTAL FREE ENERGY PREDICTED BY IDOCK:   36.44 KCAL/MOL
REMARK 923 INTER-LIGAND FREE ENERGY PREDICTED BY IDOCK:   35.90 KCAL/MOL
REMARK 924 INTRA-LIGAND FREE ENERGY PREDICTED BY IDOCK:    0.54 KCAL/MOL
REMARK 927      BINDING AFFINITY PREDICTED BY RF-SCORE:    0.00 PKD
ROOT
HETATM    1  C   UNL     1      -7.011   8.977  67.035  1.00  0.00    -0.078 C  
HETATM    2  C   UNL     1      -6.481   9.937  65.891  1.00  0.00    -0.087 C  
HETATM    3  C   UNL     1      -7.212  11.224  65.607  1.00  0.00     0.397 A  
HETATM    4  C   UNL     1      -8.565  11.221  65.290  1.00  0.00     0.115 A  
HETATM    5  C   UNL     1      -9.353  12.292  65.694  1.00  0.00     0.001 A  
HETATM    6  C   UNL     1      -8.756  13.419  66.254  1.00  0.00     0.386 A  
HETATM    7  C   UNL     1      -7.388  13.587  66.066  1.00  0.00     3.866 A  
HETATM    8  O   UNL     1      -9.594  14.179  67.035  1.00  0.00    -0.244 OA 
HETATM    9  C   UNL     1      -6.600  12.459  65.835  1.00  0.00     2.805 A  
HETATM   10  C   UNL     1      -9.174  15.113  67.955  1.00  0.00    -0.185 A  
HETATM   11  C   UNL     1     -10.184  15.987  68.396  1.00  0.00    -0.236 A  
HETATM   12  C   UNL     1      -9.822  17.233  68.944  1.00  0.00    -0.286 A  
HETATM   13  C   UNL     1     -10.851  18.290  69.220  1.00  0.00     0.982 C  
HETATM   14  C   UNL     1      -8.485  17.522  69.169  1.00  0.00     0.091 A  
HETATM   15  C   UNL     1      -7.524  16.534  69.034  1.00  0.00    -0.229 A  
HETATM   16  C   UNL     1     -12.290  17.812  69.328  1.00  0.00     6.463 C  
HETATM   17  C   UNL     1      -7.902  15.301  68.495  1.00  0.00    -0.134 A  
HETATM   18  C   UNL     1      -9.076   8.022  66.092  1.00  0.00    -0.176 C  
HETATM   19  N   UNL     1     -12.655  16.664  68.385  1.00  0.00     1.841 N  
HETATM   20  O   UNL     1      -7.014  14.265  68.619  1.00  0.00    -0.092 OA 
HETATM   21  N   UNL     1      -7.701   7.761  66.512  1.00  0.00    -0.095 NA 
HETATM   22  C   UNL     1     -14.097  16.255  68.712  1.00  0.00     7.260 C  
HETATM   23  C   UNL     1     -11.629  15.493  68.544  1.00  0.00    -0.368 C  
HETATM   24  C   UNL     1     -12.639  17.062  66.905  1.00  0.00     4.831 C  
HETATM   25  C   UNL     1     -11.748  14.825  69.952  1.00  0.00    -0.352 C  
HETATM   26  H   UNL     1      -6.147  14.393  68.987  1.00  0.00     0.000 HD 
HETATM   27  C   UNL     1     -12.196  13.393  69.920  1.00  0.00    -0.337 A  
HETATM   28  C   UNL     1     -11.293  12.450  69.444  1.00  0.00    -0.286 A  
HETATM   29  C   UNL     1     -11.467  11.089  69.695  1.00  0.00    -0.303 A  
HETATM   30  C   UNL     1     -12.716  10.669  70.141  1.00  0.00    -0.159 A  
HETATM   31  O   UNL     1     -10.410  10.232  69.477  1.00  0.00    -0.217 OA 
HETATM   32  C   UNL     1      -9.070  10.811  69.712  1.00  0.00     0.457 C  
HETATM   33  C   UNL     1     -13.691  11.604  70.565  1.00  0.00     2.105 A  
HETATM   34  O   UNL     1     -13.064   9.350  70.115  1.00  0.00    -0.005 OA 
HETATM   35  C   UNL     1     -13.388  12.974  70.515  1.00  0.00     0.675 A  
HETATM   36  H   UNL     1     -13.917   9.064  70.419  1.00  0.00     0.000 HD 
HETATM   37  C   UNL     1      -8.436  10.262  70.813  1.00  0.00     1.512 C  
HETATM   38  C   UNL     1      -8.056   8.935  70.669  1.00  0.00    -0.161 C  
HETATM   39  C   UNL     1      -7.628   6.692  67.530  1.00  0.00    -0.105 C  
HETATM   40  C   UNL     1      -8.277  10.674  68.580  1.00  0.00    -0.128 C  
HETATM   41  C   UNL     1      -7.864   8.484  69.349  1.00  0.00    -0.098 C  
HETATM   42  C   UNL     1      -7.703   9.438  68.321  1.00  0.00    -0.083 C  
HETATM   43  C   UNL     1      -8.087   7.046  68.962  1.00  0.00    -0.121 C  
ENDROOT
BRANCH  15  44
HETATM   44  O   UNL     1      -6.198  16.649  69.359  1.00  0.00    -0.179 OA 
HETATM   45  C   UNL     1      -5.894  17.462  70.487  1.00  0.00     0.078 C  
ENDBRANCH  15  44
BRANCH  37  46
HETATM   46  O   UNL     1      -7.672  11.203  71.487  1.00  0.00     4.573 OA 
HETATM   47  C   UNL     1      -6.863  12.090  70.734  1.00  0.00     2.201 C  
ENDBRANCH  37  46
TORSDOF 2
ENDMDL
MODEL       80
REMARK 921   NORMALIZED FREE ENERGY PREDICTED BY IDOCK:   33.57 KCAL/MOL
REMARK 922        TOTAL FREE ENERGY PREDICTED BY IDOCK:   37.16 KCAL/MOL
REMARK 923 INTER-LIGAND FREE ENERGY PREDICTED BY IDOCK:   37.44 KCAL/MOL
REMARK 924 INTRA-LIGAND FREE ENERGY PREDICTED BY IDOCK:   -0.29 KCAL/MOL
REMARK 927      BINDING AFFINITY PREDICTED BY RF-SCORE:    0.00 PKD
ROOT
HETATM    1  C   UNL     1      -6.908   5.895  70.556  1.00  0.00    -0.054 C  
HETATM    2  C   UNL     1      -5.516   6.605  70.289  1.00  0.00    -0.019 C  
HETATM    3  C   UNL     1      -5.423   7.677  69.233  1.00  0.00    -0.019 A  
HETATM    4  C   UNL     1      -5.801   7.420  67.920  1.00  0.00    -0.031 A  
HETATM    5  C   UNL     1      -6.363   8.445  67.169  1.00  0.00    -0.057 A  
HETATM    6  C   UNL     1      -6.383   9.743  67.674  1.00  0.00    -0.060 A  
HETATM    7  C   UNL     1      -5.536  10.036  68.738  1.00  0.00    -0.035 A  
HETATM    8  O   UNL     1      -7.342  10.555  67.118  1.00  0.00    -0.089 OA 
HETATM    9  C   UNL     1      -5.134   8.999  69.579  1.00  0.00    -0.035 A  
HETATM   10  C   UNL     1      -7.789  11.734  67.673  1.00  0.00    -0.138 A  
HETATM   11  C   UNL     1      -8.519  12.550  66.791  1.00  0.00    -0.073 A  
HETATM   12  C   UNL     1      -8.624  13.929  67.060  1.00  0.00    -0.190 A  
HETATM   13  C   UNL     1      -9.193  14.878  66.045  1.00  0.00    -0.210 C  
HETATM   14  C   UNL     1      -8.131  14.435  68.251  1.00  0.00    -0.139 A  
HETATM   15  C   UNL     1      -7.705  13.579  69.253  1.00  0.00     0.345 A  
HETATM   16  C   UNL     1     -10.054  14.257  64.956  1.00  0.00    -0.291 C  
HETATM   17  C   UNL     1      -7.613  12.213  68.971  1.00  0.00     0.081 A  
HETATM   18  C   UNL     1      -7.236   4.478  68.570  1.00  0.00    -0.060 C  
HETATM   19  N   UNL     1      -9.594  12.875  64.487  1.00  0.00     0.190 N  
HETATM   20  O   UNL     1      -7.454  11.363  70.035  1.00  0.00    -0.302 OA 
HETATM   21  N   UNL     1      -6.976   4.509  70.008  1.00  0.00    -0.044 NA 
HETATM   22  C   UNL     1     -10.634  12.375  63.476  1.00  0.00    -0.413 C  
HETATM   23  C   UNL     1      -9.419  11.924  65.717  1.00  0.00    -0.196 C  
HETATM   24  C   UNL     1      -8.248  12.897  63.756  1.00  0.00     6.528 C  
HETATM   25  C   UNL     1     -10.795  11.612  66.391  1.00  0.00    -0.333 C  
HETATM   26  H   UNL     1      -7.335  11.690  70.919  1.00  0.00     0.000 HD 
HETATM   27  C   UNL     1     -11.206  10.170  66.318  1.00  0.00     0.614 A  
HETATM   28  C   UNL     1     -10.507   9.265  67.108  1.00  0.00    -0.319 A  
HETATM   29  C   UNL     1     -11.019   7.997  67.382  1.00  0.00     0.099 A  
HETATM   30  C   UNL     1     -12.069   7.540  66.593  1.00  0.00     5.545 A  
HETATM   31  O   UNL     1     -10.454   7.257  68.400  1.00  0.00    -0.195 OA 
HETATM   32  C   UNL     1      -9.923   8.046  69.531  1.00  0.00    -0.186 C  
HETATM   33  C   UNL     1     -12.759   8.416  65.720  1.00  0.00    16.614 A  
HETATM   34  O   UNL     1     -12.419   6.222  66.585  1.00  0.00     2.121 OA 
HETATM   35  C   UNL     1     -12.357   9.758  65.645  1.00  0.00     9.261 A  
HETATM   36  H   UNL     1     -13.137   5.910  66.045  1.00  0.00     0.000 HD 
HETATM   37  C   UNL     1     -10.653   7.872  70.694  1.00  0.00    -0.219 C  
HETATM   38  C   UNL     1     -10.552   6.612  71.266  1.00  0.00    -0.256 C  
HETATM   39  C   UNL     1      -7.986   3.741  70.767  1.00  0.00    -0.054 C  
HETATM   40  C   UNL     1      -8.585   7.740  69.751  1.00  0.00    -0.134 C  
HETATM   41  C   UNL     1      -9.391   5.879  70.953  1.00  0.00    -0.180 C  
HETATM   42  C   UNL     1      -8.278   6.563  70.418  1.00  0.00    -0.125 C  
HETATM   43  C   UNL     1      -9.387   4.374  70.920  1.00  0.00    -0.218 C  
ENDROOT
BRANCH  15  44
HETATM   44  O   UNL     1      -7.330  13.942  70.519  1.00  0.00     0.883 OA 
HETATM   45  C   UNL     1      -6.003  14.434  70.667  1.00  0.00    -0.197 C  
ENDBRANCH  15  44
BRANCH  37  46
HETATM   46  O   UNL     1     -10.721   9.040  71.438  1.00  0.00    -0.275 OA 
HETATM   47  C   UNL     1     -11.653   9.118  72.503  1.00  0.00     0.308 C  
ENDBRANCH  37  46
TORSDOF 2
ENDMDL
MODEL       81
REMARK 921   NORMALIZED FREE ENERGY PREDICTED BY IDOCK:   36.23 KCAL/MOL
REMARK 922        TOTAL FREE ENERGY PREDICTED BY IDOCK:   40.12 KCAL/MOL
REMARK 923 INTER-LIGAND FREE ENERGY PREDICTED BY IDOCK:   39.65 KCAL/MOL
REMARK 924 INTRA-LIGAND FREE ENERGY PREDICTED BY IDOCK:    0.48 KCAL/MOL
REMARK 927      BINDING AFFINITY PREDICTED BY RF-SCORE:    0.00 PKD
ROOT
HETATM    1  C   UNL     1      -6.777  10.205  69.201  1.00  0.00    -0.056 C  
HETATM    2  C   UNL     1      -5.546  11.197  69.092  1.00  0.00    -0.040 C  
HETATM    3  C   UNL     1      -5.679  12.455  68.272  1.00  0.00    -0.060 A  
HETATM    4  C   UNL     1      -6.042  12.398  66.932  1.00  0.00     0.181 A  
HETATM    5  C   UNL     1      -6.802  13.430  66.396  1.00  0.00     2.788 A  
HETATM    6  C   UNL     1      -7.044  14.576  67.150  1.00  0.00     0.238 A  
HETATM    7  C   UNL     1      -6.234  14.804  68.258  1.00  0.00    -0.125 A  
HETATM    8  O   UNL     1      -8.150  15.292  66.759  1.00  0.00    -0.222 OA 
HETATM    9  C   UNL     1      -5.625  13.712  68.878  1.00  0.00    -0.074 A  
HETATM   10  C   UNL     1      -8.787  16.235  67.535  1.00  0.00    -0.186 A  
HETATM   11  C   UNL     1      -9.679  17.061  66.828  1.00  0.00    -0.276 A  
HETATM   12  C   UNL     1     -10.024  18.316  67.366  1.00  0.00    -0.344 A  
HETATM   13  C   UNL     1     -10.786  19.326  66.557  1.00  0.00    -0.487 C  
HETATM   14  C   UNL     1      -9.597  18.659  68.638  1.00  0.00    -0.407 A  
HETATM   15  C   UNL     1      -8.994  17.714  69.452  1.00  0.00     0.436 A  
HETATM   16  C   UNL     1     -11.550  18.786  65.358  1.00  0.00     2.531 C  
HETATM   17  C   UNL     1      -8.664  16.471  68.904  1.00  0.00    -0.247 A  
HETATM   18  C   UNL     1      -6.899   9.172  66.969  1.00  0.00    -0.080 C  
HETATM   19  N   UNL     1     -10.860  17.632  64.627  1.00  0.00     1.015 N  
HETATM   20  O   UNL     1      -8.322  15.472  69.778  1.00  0.00    -0.197 OA 
HETATM   21  N   UNL     1      -6.609   8.966  68.386  1.00  0.00    -0.059 NA 
HETATM   22  C   UNL     1     -11.821  17.159  63.528  1.00  0.00     5.761 C  
HETATM   23  C   UNL     1     -10.480  16.505  65.643  1.00  0.00    -0.324 C  
HETATM   24  C   UNL     1      -9.563  18.045  63.925  1.00  0.00    11.747 C  
HETATM   25  C   UNL     1     -11.757  15.819  66.230  1.00  0.00     0.574 C  
HETATM   26  H   UNL     1      -8.239  15.634  70.711  1.00  0.00     0.000 HD 
HETATM   27  C   UNL     1     -11.901  14.369  65.868  1.00  0.00    -0.371 A  
HETATM   28  C   UNL     1     -11.026  13.470  66.466  1.00  0.00    -0.295 A  
HETATM   29  C   UNL     1     -11.291  12.101  66.478  1.00  0.00    -0.350 A  
HETATM   30  C   UNL     1     -12.264  11.624  65.605  1.00  0.00     0.958 A  
HETATM   31  O   UNL     1     -10.573  11.291  67.331  1.00  0.00    -0.202 OA 
HETATM   32  C   UNL     1     -10.162  11.924  68.602  1.00  0.00    -0.191 C  
HETATM   33  C   UNL     1     -13.126  12.513  64.918  1.00  0.00     0.218 A  
HETATM   34  O   UNL     1     -12.368  10.292  65.330  1.00  0.00     4.134 OA 
HETATM   35  C   UNL     1     -12.977  13.894  65.116  1.00  0.00    -0.282 A  
HETATM   36  H   UNL     1     -13.033   9.966  64.734  1.00  0.00     0.000 HD 
HETATM   37  C   UNL     1     -10.814  11.393  69.701  1.00  0.00    -0.047 C  
HETATM   38  C   UNL     1     -10.469  10.084  70.010  1.00  0.00    -0.337 C  
HETATM   39  C   UNL     1      -7.440   7.891  68.969  1.00  0.00    -0.097 C  
HETATM   40  C   UNL     1      -8.784  11.832  68.767  1.00  0.00     0.019 C  
HETATM   41  C   UNL     1      -9.204   9.654  69.567  1.00  0.00    -0.214 C  
HETATM   42  C   UNL     1      -8.249  10.623  69.188  1.00  0.00    -0.142 C  
HETATM   43  C   UNL     1      -8.927   8.212  69.234  1.00  0.00    -0.148 C  
ENDROOT
BRANCH  15  44
HETATM   44  O   UNL     1      -8.655  17.882  70.768  1.00  0.00     4.519 OA 
HETATM   45  C   UNL     1      -9.254  16.982  71.694  1.00  0.00     9.006 C  
ENDBRANCH  15  44
BRANCH  37  46
HETATM   46  O   UNL     1     -11.071  12.358  70.662  1.00  0.00     1.074 OA 
HETATM   47  C   UNL     1     -11.236  13.704  70.251  1.00  0.00     0.307 C  
ENDBRANCH  37  46
TORSDOF 2
ENDMDL
MODEL       82
REMARK 921   NORMALIZED FREE ENERGY PREDICTED BY IDOCK:   36.27 KCAL/MOL
REMARK 922        TOTAL FREE ENERGY PREDICTED BY IDOCK:   40.17 KCAL/MOL
REMARK 923 INTER-LIGAND FREE ENERGY PREDICTED BY IDOCK:   40.46 KCAL/MOL
REMARK 924 INTRA-LIGAND FREE ENERGY PREDICTED BY IDOCK:   -0.29 KCAL/MOL
REMARK 927      BINDING AFFINITY PREDICTED BY RF-SCORE:    0.00 PKD
ROOT
HETATM    1  C   UNL     1     -11.751   4.448  70.087  1.00  0.00     6.743 C  
HETATM    2  C   UNL     1     -13.054   5.302  70.381  1.00  0.00     8.656 C  
HETATM    3  C   UNL     1     -12.955   6.805  70.446  1.00  0.00     0.775 A  
HETATM    4  C   UNL     1     -12.076   7.424  71.326  1.00  0.00    -0.359 A  
HETATM    5  C   UNL     1     -11.486   8.626  70.954  1.00  0.00    -0.315 A  
HETATM    6  C   UNL     1     -11.906   9.273  69.794  1.00  0.00     0.412 A  
HETATM    7  C   UNL     1     -13.125   8.891  69.245  1.00  0.00     4.842 A  
HETATM    8  O   UNL     1     -10.985  10.146  69.265  1.00  0.00    -0.222 OA 
HETATM    9  C   UNL     1     -13.602   7.605  69.502  1.00  0.00     5.814 A  
HETATM   10  C   UNL     1     -11.013  10.627  67.975  1.00  0.00    -0.282 A  
HETATM   11  C   UNL     1     -10.181  11.738  67.752  1.00  0.00    -0.205 A  
HETATM   12  C   UNL     1     -10.452  12.591  66.665  1.00  0.00    -0.252 A  
HETATM   13  C   UNL     1      -9.742  13.906  66.512  1.00  0.00    -0.303 C  
HETATM   14  C   UNL     1     -11.438  12.250  65.754  1.00  0.00    -0.417 A  
HETATM   15  C   UNL     1     -12.030  10.999  65.799  1.00  0.00     1.743 A  
HETATM   16  C   UNL     1      -8.438  14.056  67.278  1.00  0.00    -0.207 C  
HETATM   17  C   UNL     1     -11.745  10.163  66.882  1.00  0.00     1.886 A  
HETATM   18  C   UNL     1     -10.444   4.637  72.165  1.00  0.00    -0.148 C  
HETATM   19  N   UNL     1      -8.415  13.368  68.644  1.00  0.00    -0.064 N  
HETATM   20  O   UNL     1     -12.119   8.848  66.774  1.00  0.00     3.776 OA 
HETATM   21  N   UNL     1     -11.218   3.754  71.295  1.00  0.00     2.192 NA 
HETATM   22  C   UNL     1      -6.999  13.540  69.210  1.00  0.00    -0.008 C  
HETATM   23  C   UNL     1      -8.845  11.870  68.496  1.00  0.00    -0.108 C  
HETATM   24  C   UNL     1      -9.371  13.999  69.660  1.00  0.00     0.970 C  
HETATM   25  C   UNL     1      -7.783  11.055  67.688  1.00  0.00    -0.112 C  
HETATM   26  H   UNL     1     -12.618   8.532  66.030  1.00  0.00     0.000 HD 
HETATM   27  C   UNL     1      -7.104   9.973  68.477  1.00  0.00    -0.071 A  
HETATM   28  C   UNL     1      -7.857   8.852  68.804  1.00  0.00    -0.101 A  
HETATM   29  C   UNL     1      -7.248   7.665  69.212  1.00  0.00    -0.082 A  
HETATM   30  C   UNL     1      -5.913   7.724  69.599  1.00  0.00    -0.027 A  
HETATM   31  O   UNL     1      -7.994   6.506  69.230  1.00  0.00    -0.108 OA 
HETATM   32  C   UNL     1      -9.048   6.420  68.196  1.00  0.00    -0.113 C  
HETATM   33  C   UNL     1      -5.132   8.879  69.350  1.00  0.00    -0.035 A  
HETATM   34  O   UNL     1      -5.337   6.700  70.292  1.00  0.00    -0.017 OA 
HETATM   35  C   UNL     1      -5.729   9.981  68.718  1.00  0.00    -0.034 A  
HETATM   36  H   UNL     1      -4.425   6.741  70.556  1.00  0.00     0.000 HD 
HETATM   37  C   UNL     1      -8.781   5.458  67.238  1.00  0.00    -0.107 C  
HETATM   38  C   UNL     1      -8.840   4.147  67.692  1.00  0.00    -0.128 C  
HETATM   39  C   UNL     1     -10.433   2.577  70.865  1.00  0.00     1.267 C  
HETATM   40  C   UNL     1     -10.285   6.186  68.784  1.00  0.00    -0.226 C  
HETATM   41  C   UNL     1      -9.638   3.920  68.830  1.00  0.00    -0.187 C  
HETATM   42  C   UNL     1     -10.584   4.899  69.205  1.00  0.00     0.210 C  
HETATM   43  C   UNL     1      -9.338   2.808  69.800  1.00  0.00    -0.199 C  
ENDROOT
BRANCH  15  44
HETATM   44  O   UNL     1     -12.910  10.489  64.881  1.00  0.00     4.671 OA 
HETATM   45  C   UNL     1     -13.080  11.241  63.685  1.00  0.00     1.242 C  
ENDBRANCH  15  44
BRANCH  37  46
HETATM   46  O   UNL     1      -9.221   5.847  65.982  1.00  0.00    -0.161 OA 
HETATM   47  C   UNL     1      -8.759   5.136  64.847  1.00  0.00    -0.140 C  
ENDBRANCH  37  46
TORSDOF 2
ENDMDL
MODEL       83
REMARK 921   NORMALIZED FREE ENERGY PREDICTED BY IDOCK:   36.45 KCAL/MOL
REMARK 922        TOTAL FREE ENERGY PREDICTED BY IDOCK:   40.37 KCAL/MOL
REMARK 923 INTER-LIGAND FREE ENERGY PREDICTED BY IDOCK:   39.56 KCAL/MOL
REMARK 924 INTRA-LIGAND FREE ENERGY PREDICTED BY IDOCK:    0.81 KCAL/MOL
REMARK 927      BINDING AFFINITY PREDICTED BY RF-SCORE:    0.00 PKD
ROOT
HETATM    1  C   UNL     1      -9.541   7.853  69.450  1.00  0.00    -0.160 C  
HETATM    2  C   UNL     1     -11.108   7.803  69.224  1.00  0.00     0.095 C  
HETATM    3  C   UNL     1     -11.922   9.060  69.400  1.00  0.00     1.131 A  
HETATM    4  C   UNL     1     -11.889   9.770  70.593  1.00  0.00    -0.360 A  
HETATM    5  C   UNL     1     -12.022  11.153  70.558  1.00  0.00    -0.475 A  
HETATM    6  C   UNL     1     -12.353  11.787  69.362  1.00  0.00    -0.035 A  
HETATM    7  C   UNL     1     -12.883  11.004  68.342  1.00  0.00     2.596 A  
HETATM    8  O   UNL     1     -11.998  13.113  69.304  1.00  0.00    -0.311 OA 
HETATM    9  C   UNL     1     -12.580   9.643  68.314  1.00  0.00     4.980 A  
HETATM   10  C   UNL     1     -11.896  13.846  68.142  1.00  0.00    -0.372 A  
HETATM   11  C   UNL     1     -11.840  15.237  68.338  1.00  0.00    -0.283 A  
HETATM   12  C   UNL     1     -12.200  16.094  67.280  1.00  0.00     1.534 A  
HETATM   13  C   UNL     1     -12.376  17.569  67.498  1.00  0.00     3.591 C  
HETATM   14  C   UNL     1     -12.467  15.564  66.027  1.00  0.00     1.298 A  
HETATM   15  C   UNL     1     -12.205  14.230  65.762  1.00  0.00    -0.403 A  
HETATM   16  C   UNL     1     -11.715  18.146  68.740  1.00  0.00     2.978 C  
HETATM   17  C   UNL     1     -11.843  13.396  66.823  1.00  0.00    -0.403 A  
HETATM   18  C   UNL     1      -9.306   8.100  71.889  1.00  0.00    -0.190 C  
HETATM   19  N   UNL     1     -11.724  17.220  69.958  1.00  0.00     1.836 N  
HETATM   20  O   UNL     1     -11.333  12.164  66.505  1.00  0.00    -0.313 OA 
HETATM   21  N   UNL     1      -9.111   7.226  70.735  1.00  0.00    -0.152 NA 
HETATM   22  C   UNL     1     -10.929  17.926  71.064  1.00  0.00     2.458 C  
HETATM   23  C   UNL     1     -11.138  15.821  69.571  1.00  0.00    -0.306 C  
HETATM   24  C   UNL     1     -13.126  16.967  70.521  1.00  0.00     5.994 C  
HETATM   25  C   UNL     1      -9.615  15.921  69.232  1.00  0.00    -0.266 C  
HETATM   26  H   UNL     1     -11.296  11.857  65.606  1.00  0.00     0.000 HD 
HETATM   27  C   UNL     1      -8.722  15.168  70.175  1.00  0.00     0.589 A  
HETATM   28  C   UNL     1      -8.744  13.780  70.107  1.00  0.00     2.704 A  
HETATM   29  C   UNL     1      -7.725  13.011  70.669  1.00  0.00     4.496 A  
HETATM   30  C   UNL     1      -6.871  13.634  71.574  1.00  0.00     2.661 A  
HETATM   31  O   UNL     1      -7.625  11.682  70.320  1.00  0.00     0.997 OA 
HETATM   32  C   UNL     1      -8.051  11.359  68.942  1.00  0.00    -0.067 C  
HETATM   33  C   UNL     1      -6.871  15.041  71.726  1.00  0.00     1.854 A  
HETATM   34  O   UNL     1      -6.059  12.902  72.391  1.00  0.00     0.487 OA 
HETATM   35  C   UNL     1      -7.762  15.809  70.961  1.00  0.00     3.060 A  
HETATM   36  H   UNL     1      -5.476  13.327  73.008  1.00  0.00     0.000 HD 
HETATM   37  C   UNL     1      -6.997  10.975  68.132  1.00  0.00    -0.069 C  
HETATM   38  C   UNL     1      -6.426   9.752  68.454  1.00  0.00    -0.055 C  
HETATM   39  C   UNL     1      -7.705   6.786  70.608  1.00  0.00    -0.097 C  
HETATM   40  C   UNL     1      -9.033  10.376  68.955  1.00  0.00    -0.184 C  
HETATM   41  C   UNL     1      -7.250   8.846  69.149  1.00  0.00    -0.067 C  
HETATM   42  C   UNL     1      -8.646   9.058  69.151  1.00  0.00    -0.133 C  
HETATM   43  C   UNL     1      -6.682   7.826  70.100  1.00  0.00    -0.041 C  
ENDROOT
BRANCH  15  44
HETATM   44  O   UNL     1     -12.291  13.619  64.540  1.00  0.00    -0.500 OA 
HETATM   45  C   UNL     1     -11.058  13.251  63.932  1.00  0.00    -0.239 C  
ENDBRANCH  15  44
BRANCH  37  46
HETATM   46  O   UNL     1      -7.165  11.414  66.827  1.00  0.00    -0.138 OA 
HETATM   47  C   UNL     1      -8.316  11.000  66.111  1.00  0.00    -0.163 C  
ENDBRANCH  37  46
TORSDOF 2
ENDMDL
MODEL       84
REMARK 921   NORMALIZED FREE ENERGY PREDICTED BY IDOCK:   37.62 KCAL/MOL
REMARK 922        TOTAL FREE ENERGY PREDICTED BY IDOCK:   41.68 KCAL/MOL
REMARK 923 INTER-LIGAND FREE ENERGY PREDICTED BY IDOCK:   41.68 KCAL/MOL
REMARK 924 INTRA-LIGAND FREE ENERGY PREDICTED BY IDOCK:   -0.00 KCAL/MOL
REMARK 927      BINDING AFFINITY PREDICTED BY RF-SCORE:    0.00 PKD
ROOT
HETATM    1  C   UNL     1     -10.988  13.065  66.507  1.00  0.00    -0.285 C  
HETATM    2  C   UNL     1      -9.554  13.023  65.833  1.00  0.00    -0.126 C  
HETATM    3  C   UNL     1      -8.442  12.259  66.505  1.00  0.00     0.013 A  
HETATM    4  C   UNL     1      -8.068  12.546  67.812  1.00  0.00    -0.164 A  
HETATM    5  C   UNL     1      -7.614  11.514  68.625  1.00  0.00    -0.134 A  
HETATM    6  C   UNL     1      -7.380  10.254  68.078  1.00  0.00    -0.086 A  
HETATM    7  C   UNL     1      -7.264  10.161  66.695  1.00  0.00    -0.105 A  
HETATM    8  O   UNL     1      -7.407   9.225  68.989  1.00  0.00    -0.070 OA 
HETATM    9  C   UNL     1      -7.888  11.127  65.904  1.00  0.00     0.036 A  
HETATM   10  C   UNL     1      -7.553   7.895  68.663  1.00  0.00    -0.101 A  
HETATM   11  C   UNL     1      -7.230   7.005  69.703  1.00  0.00    -0.080 A  
HETATM   12  C   UNL     1      -6.887   5.676  69.387  1.00  0.00    -0.061 A  
HETATM   13  C   UNL     1      -6.320   4.751  70.424  1.00  0.00    -0.026 C  
HETATM   14  C   UNL     1      -7.007   5.228  68.081  1.00  0.00    -0.061 A  
HETATM   15  C   UNL     1      -7.631   6.014  67.126  1.00  0.00    -0.092 A  
HETATM   16  C   UNL     1      -6.566   5.139  71.874  1.00  0.00    -0.040 C  
HETATM   17  C   UNL     1      -7.970   7.329  67.459  1.00  0.00    -0.113 A  
HETATM   18  C   UNL     1     -10.674  14.527  68.463  1.00  0.00    -0.250 C  
HETATM   19  N   UNL     1      -6.544   6.645  72.146  1.00  0.00    -0.058 N  
HETATM   20  O   UNL     1      -8.816   7.992  66.608  1.00  0.00    -0.132 OA 
HETATM   21  N   UNL     1     -11.297  14.376  67.151  1.00  0.00    -0.328 NA 
HETATM   22  C   UNL     1      -6.912   6.840  73.622  1.00  0.00    -0.075 C  
HETATM   23  C   UNL     1      -7.516   7.380  71.163  1.00  0.00    -0.077 C  
HETATM   24  C   UNL     1      -5.163   7.279  71.952  1.00  0.00    -0.035 C  
HETATM   25  C   UNL     1      -9.005   7.005  71.455  1.00  0.00    -0.139 C  
HETATM   26  H   UNL     1      -9.100   7.605  65.788  1.00  0.00     0.000 HD 
HETATM   27  C   UNL     1      -9.852   8.154  71.920  1.00  0.00    -0.276 A  
HETATM   28  C   UNL     1     -10.180   9.126  70.983  1.00  0.00    -0.372 A  
HETATM   29  C   UNL     1     -11.225  10.023  71.206  1.00  0.00    -0.200 A  
HETATM   30  C   UNL     1     -11.709  10.140  72.505  1.00  0.00     2.178 A  
HETATM   31  O   UNL     1     -11.711  10.757  70.145  1.00  0.00    -0.280 OA 
HETATM   32  C   UNL     1     -11.653  10.079  68.832  1.00  0.00     0.093 C  
HETATM   33  C   UNL     1     -11.338   9.211  73.507  1.00  0.00     4.330 A  
HETATM   34  O   UNL     1     -12.498  11.192  72.868  1.00  0.00     1.618 OA 
HETATM   35  C   UNL     1     -10.455   8.172  73.179  1.00  0.00    -0.110 A  
HETATM   36  H   UNL     1     -12.829  11.271  73.755  1.00  0.00     0.000 HD 
HETATM   37  C   UNL     1     -12.906   9.761  68.339  1.00  0.00     5.612 C  
HETATM   38  C   UNL     1     -13.682  10.849  67.966  1.00  0.00    10.716 C  
HETATM   39  C   UNL     1     -12.765  14.546  67.213  1.00  0.00     0.860 C  
HETATM   40  C   UNL     1     -10.955  10.856  67.915  1.00  0.00    -0.325 C  
HETATM   41  C   UNL     1     -12.983  12.024  67.629  1.00  0.00     3.809 C  
HETATM   42  C   UNL     1     -11.605  11.936  67.336  1.00  0.00    -0.367 C  
HETATM   43  C   UNL     1     -13.584  13.390  67.829  1.00  0.00     6.883 C  
ENDROOT
BRANCH  15  44
HETATM   44  O   UNL     1      -7.937   5.637  65.846  1.00  0.00    -0.102 OA 
HETATM   45  C   UNL     1      -6.839   5.496  64.951  1.00  0.00    -0.048 C  
ENDBRANCH  15  44
BRANCH  37  46
HETATM   46  O   UNL     1     -12.895   8.562  67.642  1.00  0.00     8.251 OA 
HETATM   47  C   UNL     1     -11.753   7.728  67.738  1.00  0.00     2.005 C  
ENDBRANCH  37  46
TORSDOF 2
ENDMDL
MODEL       85
REMARK 921   NORMALIZED FREE ENERGY PREDICTED BY IDOCK:   38.58 KCAL/MOL
REMARK 922        TOTAL FREE ENERGY PREDICTED BY IDOCK:   42.75 KCAL/MOL
REMARK 923 INTER-LIGAND FREE ENERGY PREDICTED BY IDOCK:   41.21 KCAL/MOL
REMARK 924 INTRA-LIGAND FREE ENERGY PREDICTED BY IDOCK:    1.53 KCAL/MOL
REMARK 927      BINDING AFFINITY PREDICTED BY RF-SCORE:    0.00 PKD
ROOT
HETATM    1  C   UNL     1      -7.514   7.103  70.021  1.00  0.00    -0.086 C  
HETATM    2  C   UNL     1      -7.432   6.547  68.539  1.00  0.00    -0.088 C  
HETATM    3  C   UNL     1      -8.271   7.186  67.462  1.00  0.00    -0.117 A  
HETATM    4  C   UNL     1      -9.651   7.279  67.592  1.00  0.00    -0.160 A  
HETATM    5  C   UNL     1     -10.307   8.375  67.046  1.00  0.00    -0.385 A  
HETATM    6  C   UNL     1      -9.608   9.269  66.238  1.00  0.00    -0.248 A  
HETATM    7  C   UNL     1      -8.387   8.851  65.718  1.00  0.00    -0.139 A  
HETATM    8  O   UNL     1     -10.174  10.518  66.150  1.00  0.00    -0.235 OA 
HETATM    9  C   UNL     1      -7.672   7.865  66.398  1.00  0.00    -0.096 A  
HETATM   10  C   UNL     1      -9.514  11.647  65.718  1.00  0.00    -0.226 A  
HETATM   11  C   UNL     1     -10.359  12.726  65.402  1.00  0.00    -0.310 A  
HETATM   12  C   UNL     1      -9.891  13.734  64.536  1.00  0.00     0.361 A  
HETATM   13  C   UNL     1     -10.816  14.782  63.990  1.00  0.00     0.874 C  
HETATM   14  C   UNL     1      -8.568  13.723  64.122  1.00  0.00     7.366 A  
HETATM   15  C   UNL     1      -7.663  12.844  64.693  1.00  0.00     7.483 A  
HETATM   16  C   UNL     1     -12.117  14.989  64.749  1.00  0.00    -0.263 C  
HETATM   17  C   UNL     1      -8.145  11.854  65.555  1.00  0.00     1.016 A  
HETATM   18  C   UNL     1      -9.731   6.369  70.803  1.00  0.00    -0.180 C  
HETATM   19  N   UNL     1     -12.723  13.714  65.339  1.00  0.00    -0.490 N  
HETATM   20  O   UNL     1      -7.222  11.178  66.309  1.00  0.00    -0.242 OA 
HETATM   21  N   UNL     1      -8.284   6.215  70.941  1.00  0.00    -0.124 NA 
HETATM   22  C   UNL     1     -13.958  14.136  66.147  1.00  0.00     4.376 C  
HETATM   23  C   UNL     1     -11.652  12.959  66.195  1.00  0.00    -0.372 C  
HETATM   24  C   UNL     1     -13.212  12.724  64.278  1.00  0.00     0.363 C  
HETATM   25  C   UNL     1     -11.271  13.776  67.472  1.00  0.00    -0.316 C  
HETATM   26  H   UNL     1      -6.288  11.319  66.198  1.00  0.00     0.000 HD 
HETATM   27  C   UNL     1     -11.643  13.109  68.765  1.00  0.00    -0.348 A  
HETATM   28  C   UNL     1     -10.908  11.993  69.143  1.00  0.00    -0.175 A  
HETATM   29  C   UNL     1     -10.930  11.522  70.456  1.00  0.00     1.130 A  
HETATM   30  C   UNL     1     -11.943  11.983  71.291  1.00  0.00     0.595 A  
HETATM   31  O   UNL     1      -9.969  10.619  70.856  1.00  0.00     1.157 OA 
HETATM   32  C   UNL     1      -8.652  10.769  70.200  1.00  0.00     1.171 C  
HETATM   33  C   UNL     1     -12.763  13.072  70.908  1.00  0.00    -0.299 A  
HETATM   34  O   UNL     1     -12.223  11.356  72.469  1.00  0.00     1.399 OA 
HETATM   35  C   UNL     1     -12.553  13.677  69.659  1.00  0.00     0.014 A  
HETATM   36  H   UNL     1     -12.915  11.671  73.039  1.00  0.00     0.000 HD 
HETATM   37  C   UNL     1      -7.668  11.206  71.069  1.00  0.00     4.387 C  
HETATM   38  C   UNL     1      -7.300  10.290  72.045  1.00  0.00     3.314 C  
HETATM   39  C   UNL     1      -7.834   6.455  72.329  1.00  0.00    -0.102 C  
HETATM   40  C   UNL     1      -8.271   9.575  69.598  1.00  0.00    -0.143 C  
HETATM   41  C   UNL     1      -7.534   8.934  71.744  1.00  0.00    -0.019 C  
HETATM   42  C   UNL     1      -7.763   8.564  70.401  1.00  0.00    -0.080 C  
HETATM   43  C   UNL     1      -7.810   7.919  72.821  1.00  0.00    -0.157 C  
ENDROOT
BRANCH  15  44
HETATM   44  O   UNL     1      -6.311  12.825  64.477  1.00  0.00     8.166 OA 
HETATM   45  C   UNL     1      -5.536  12.071  65.402  1.00  0.00     2.607 C  
ENDBRANCH  15  44
BRANCH  37  46
HETATM   46  O   UNL     1      -6.765  12.049  70.440  1.00  0.00     0.103 OA 
HETATM   47  C   UNL     1      -6.062  13.000  71.221  1.00  0.00     0.732 C  
ENDBRANCH  37  46
TORSDOF 2
ENDMDL
MODEL       86
REMARK 921   NORMALIZED FREE ENERGY PREDICTED BY IDOCK:   39.21 KCAL/MOL
REMARK 922        TOTAL FREE ENERGY PREDICTED BY IDOCK:   43.45 KCAL/MOL
REMARK 923 INTER-LIGAND FREE ENERGY PREDICTED BY IDOCK:   43.63 KCAL/MOL
REMARK 924 INTRA-LIGAND FREE ENERGY PREDICTED BY IDOCK:   -0.17 KCAL/MOL
REMARK 927      BINDING AFFINITY PREDICTED BY RF-SCORE:    0.00 PKD
ROOT
HETATM    1  C   UNL     1     -12.722   7.751  67.892  1.00  0.00     9.116 C  
HETATM    2  C   UNL     1     -13.766   8.725  68.581  1.00  0.00    13.091 C  
HETATM    3  C   UNL     1     -13.280  10.009  69.205  1.00  0.00     3.162 A  
HETATM    4  C   UNL     1     -12.299   9.997  70.188  1.00  0.00    -0.068 A  
HETATM    5  C   UNL     1     -11.404  11.058  70.259  1.00  0.00    -0.291 A  
HETATM    6  C   UNL     1     -11.602  12.185  69.465  1.00  0.00    -0.315 A  
HETATM    7  C   UNL     1     -12.861  12.366  68.902  1.00  0.00     1.582 A  
HETATM    8  O   UNL     1     -10.469  12.931  69.242  1.00  0.00     0.033 OA 
HETATM    9  C   UNL     1     -13.665  11.246  68.684  1.00  0.00     7.186 A  
HETATM   10  C   UNL     1     -10.329  13.861  68.236  1.00  0.00    -0.249 A  
HETATM   11  C   UNL     1      -9.229  14.723  68.394  1.00  0.00    -0.189 A  
HETATM   12  C   UNL     1      -9.232  15.967  67.734  1.00  0.00    -0.205 A  
HETATM   13  C   UNL     1      -8.200  17.013  68.041  1.00  0.00    -0.206 C  
HETATM   14  C   UNL     1     -10.244  16.265  66.835  1.00  0.00    -0.288 A  
HETATM   15  C   UNL     1     -11.144  15.287  66.445  1.00  0.00    -0.273 A  
HETATM   16  C   UNL     1      -6.927  16.522  68.710  1.00  0.00    -0.180 C  
HETATM   17  C   UNL     1     -11.122  14.055  67.106  1.00  0.00    -0.303 A  
HETATM   18  C   UNL     1     -11.479   6.787  69.786  1.00  0.00    -0.263 C  
HETATM   19  N   UNL     1      -7.128  15.379  69.707  1.00  0.00    -0.172 N  
HETATM   20  O   UNL     1     -11.822  13.025  66.534  1.00  0.00    -0.372 OA 
HETATM   21  N   UNL     1     -12.427   6.534  68.704  1.00  0.00     3.175 NA 
HETATM   22  C   UNL     1      -5.736  14.955  70.192  1.00  0.00    -0.133 C  
HETATM   23  C   UNL     1      -7.929  14.216  69.033  1.00  0.00     0.012 C  
HETATM   24  C   UNL     1      -7.919  15.790  70.953  1.00  0.00     2.922 C  
HETATM   25  C   UNL     1      -7.092  13.535  67.902  1.00  0.00    -0.140 C  
HETATM   26  H   UNL     1     -12.362  13.158  65.763  1.00  0.00     0.000 HD 
HETATM   27  C   UNL     1      -6.745  12.099  68.170  1.00  0.00    -0.070 A  
HETATM   28  C   UNL     1      -7.774  11.168  68.100  1.00  0.00    -0.107 A  
HETATM   29  C   UNL     1      -7.510   9.804  67.982  1.00  0.00    -0.082 A  
HETATM   30  C   UNL     1      -6.218   9.369  68.264  1.00  0.00    -0.053 A  
HETATM   31  O   UNL     1      -8.532   8.957  67.611  1.00  0.00    -0.120 OA 
HETATM   32  C   UNL     1      -9.538   9.545  66.702  1.00  0.00    -0.188 C  
HETATM   33  C   UNL     1      -5.156  10.293  68.417  1.00  0.00    -0.035 A  
HETATM   34  O   UNL     1      -5.952   8.048  68.474  1.00  0.00    -0.038 OA 
HETATM   35  C   UNL     1      -5.424  11.665  68.296  1.00  0.00    -0.042 A  
HETATM   36  H   UNL     1      -5.070   7.751  68.667  1.00  0.00     0.000 HD 
HETATM   37  C   UNL     1      -9.501   8.993  65.434  1.00  0.00    -0.092 C  
HETATM   38  C   UNL     1      -9.916   7.670  65.359  1.00  0.00     1.679 C  
HETATM   39  C   UNL     1     -11.964   5.457  67.804  1.00  0.00     4.854 C  
HETATM   40  C   UNL     1     -10.812   9.425  67.245  1.00  0.00    -0.165 C  
HETATM   41  C   UNL     1     -10.781   7.232  66.379  1.00  0.00     0.475 C  
HETATM   42  C   UNL     1     -11.450   8.195  67.165  1.00  0.00     1.707 C  
HETATM   43  C   UNL     1     -10.813   5.796  66.830  1.00  0.00    -0.337 C  
ENDROOT
BRANCH  15  44
HETATM   44  O   UNL     1     -12.096  15.410  65.468  1.00  0.00     0.193 OA 
HETATM   45  C   UNL     1     -11.672  15.138  64.137  1.00  0.00    -0.110 C  
ENDBRANCH  15  44
BRANCH  37  46
HETATM   46  O   UNL     1      -9.784   9.934  64.455  1.00  0.00    -0.291 OA 
HETATM   47  C   UNL     1      -9.285   9.726  63.145  1.00  0.00    -0.186 C  
ENDBRANCH  37  46
TORSDOF 2
ENDMDL
MODEL       87
REMARK 921   NORMALIZED FREE ENERGY PREDICTED BY IDOCK:   41.52 KCAL/MOL
REMARK 922        TOTAL FREE ENERGY PREDICTED BY IDOCK:   46.04 KCAL/MOL
REMARK 923 INTER-LIGAND FREE ENERGY PREDICTED BY IDOCK:   45.36 KCAL/MOL
REMARK 924 INTRA-LIGAND FREE ENERGY PREDICTED BY IDOCK:    0.67 KCAL/MOL
REMARK 927      BINDING AFFINITY PREDICTED BY RF-SCORE:    0.00 PKD
ROOT
HETATM    1  C   UNL     1     -10.529  16.012  71.099  1.00  0.00     0.872 C  
HETATM    2  C   UNL     1      -9.004  16.313  71.407  1.00  0.00     6.019 C  
HETATM    3  C   UNL     1      -8.012  15.178  71.415  1.00  0.00     3.504 A  
HETATM    4  C   UNL     1      -8.196  14.076  72.241  1.00  0.00     8.782 A  
HETATM    5  C   UNL     1      -7.764  12.829  71.805  1.00  0.00    10.874 A  
HETATM    6  C   UNL     1      -7.011  12.726  70.638  1.00  0.00     2.207 A  
HETATM    7  C   UNL     1      -6.418  13.884  70.146  1.00  0.00    -0.023 A  
HETATM    8  O   UNL     1      -7.046  11.486  70.046  1.00  0.00     0.074 OA 
HETATM    9  C   UNL     1      -6.990  15.116  70.466  1.00  0.00     0.376 A  
HETATM   10  C   UNL     1      -6.688  11.231  68.741  1.00  0.00    -0.070 A  
HETATM   11  C   UNL     1      -6.491   9.869  68.449  1.00  0.00    -0.054 A  
HETATM   12  C   UNL     1      -5.698   9.512  67.342  1.00  0.00    -0.041 A  
HETATM   13  C   UNL     1      -5.271   8.091  67.116  1.00  0.00    -0.032 C  
HETATM   14  C   UNL     1      -5.241  10.496  66.479  1.00  0.00    -0.050 A  
HETATM   15  C   UNL     1      -5.706  11.795  66.590  1.00  0.00    -0.057 A  
HETATM   16  C   UNL     1      -6.087   7.025  67.830  1.00  0.00    -0.033 C  
HETATM   17  C   UNL     1      -6.498  12.131  67.692  1.00  0.00    -0.110 A  
HETATM   18  C   UNL     1     -11.320  14.852  73.122  1.00  0.00     0.483 C  
HETATM   19  N   UNL     1      -6.589   7.427  69.219  1.00  0.00    -0.036 N  
HETATM   20  O   UNL     1      -7.162  13.329  67.645  1.00  0.00    -0.134 OA 
HETATM   21  N   UNL     1     -11.397  16.065  72.312  1.00  0.00    -0.156 NA 
HETATM   22  C   UNL     1      -7.469   6.278  69.728  1.00  0.00    -0.081 C  
HETATM   23  C   UNL     1      -7.343   8.796  69.140  1.00  0.00    -0.072 C  
HETATM   24  C   UNL     1      -5.465   7.604  70.245  1.00  0.00    -0.023 C  
HETATM   25  C   UNL     1      -8.671   8.664  68.325  1.00  0.00    -0.142 C  
HETATM   26  H   UNL     1      -7.033  13.942  66.930  1.00  0.00     0.000 HD 
HETATM   27  C   UNL     1      -9.915   8.909  69.128  1.00  0.00    -0.192 A  
HETATM   28  C   UNL     1     -10.174  10.216  69.522  1.00  0.00    -0.258 A  
HETATM   29  C   UNL     1     -11.444  10.605  69.951  1.00  0.00    -0.317 A  
HETATM   30  C   UNL     1     -12.347   9.601  70.288  1.00  0.00     0.155 A  
HETATM   31  O   UNL     1     -11.735  11.949  70.036  1.00  0.00    -0.317 OA 
HETATM   32  C   UNL     1     -11.051  12.806  69.045  1.00  0.00    -0.233 C  
HETATM   33  C   UNL     1     -12.083   8.247  69.970  1.00  0.00     0.726 A  
HETATM   34  O   UNL     1     -13.477   9.883  70.997  1.00  0.00    -0.479 OA 
HETATM   35  C   UNL     1     -10.883   7.921  69.321  1.00  0.00    -0.077 A  
HETATM   36  H   UNL     1     -14.094   9.198  71.228  1.00  0.00     0.000 HD 
HETATM   37  C   UNL     1     -11.920  13.346  68.113  1.00  0.00    -0.321 C  
HETATM   38  C   UNL     1     -12.803  14.291  68.616  1.00  0.00     1.161 C  
HETATM   39  C   UNL     1     -12.784  16.365  71.898  1.00  0.00     0.443 C  
HETATM   40  C   UNL     1     -10.339  13.815  69.684  1.00  0.00     0.487 C  
HETATM   41  C   UNL     1     -12.399  14.958  69.788  1.00  0.00    -0.283 C  
HETATM   42  C   UNL     1     -11.038  14.914  70.161  1.00  0.00    -0.247 C  
HETATM   43  C   UNL     1     -13.396  15.483  70.787  1.00  0.00    -0.315 C  
ENDROOT
BRANCH  15  44
HETATM   44  O   UNL     1      -5.445  12.823  65.723  1.00  0.00     2.647 OA 
HETATM   45  C   UNL     1      -6.569  13.574  65.279  1.00  0.00    11.251 C  
ENDBRANCH  15  44
BRANCH  37  46
HETATM   46  O   UNL     1     -11.334  13.444  66.860  1.00  0.00    -0.302 OA 
HETATM   47  C   UNL     1     -10.645  12.320  66.339  1.00  0.00    -0.242 C  
ENDBRANCH  37  46
TORSDOF 2
ENDMDL
MODEL       88
REMARK 921   NORMALIZED FREE ENERGY PREDICTED BY IDOCK:   46.48 KCAL/MOL
REMARK 922        TOTAL FREE ENERGY PREDICTED BY IDOCK:   51.57 KCAL/MOL
REMARK 923 INTER-LIGAND FREE ENERGY PREDICTED BY IDOCK:   49.49 KCAL/MOL
REMARK 924 INTRA-LIGAND FREE ENERGY PREDICTED BY IDOCK:    2.08 KCAL/MOL
REMARK 927      BINDING AFFINITY PREDICTED BY RF-SCORE:    0.00 PKD
ROOT
HETATM    1  C   UNL     1      -7.713  15.785  70.396  1.00  0.00     1.235 C  
HETATM    2  C   UNL     1      -6.876  16.375  69.187  1.00  0.00    -0.210 C  
HETATM    3  C   UNL     1      -6.546  15.490  68.012  1.00  0.00    -0.156 A  
HETATM    4  C   UNL     1      -5.869  14.290  68.191  1.00  0.00    -0.130 A  
HETATM    5  C   UNL     1      -6.157  13.223  67.348  1.00  0.00     0.014 A  
HETATM    6  C   UNL     1      -6.983  13.415  66.243  1.00  0.00     3.248 A  
HETATM    7  C   UNL     1      -7.200  14.722  65.819  1.00  0.00     5.946 A  
HETATM    8  O   UNL     1      -7.581  12.271  65.774  1.00  0.00     1.226 OA 
HETATM    9  C   UNL     1      -7.072  15.757  66.746  1.00  0.00     0.075 A  
HETATM   10  C   UNL     1      -8.680  12.245  64.945  1.00  0.00     1.343 A  
HETATM   11  C   UNL     1      -8.919  11.000  64.337  1.00  0.00    -0.053 A  
HETATM   12  C   UNL     1      -9.682  10.949  63.154  1.00  0.00    -0.396 A  
HETATM   13  C   UNL     1      -9.779   9.688  62.345  1.00  0.00     0.454 C  
HETATM   14  C   UNL     1     -10.300  12.097  62.685  1.00  0.00     1.124 A  
HETATM   15  C   UNL     1     -10.326  13.244  63.461  1.00  0.00     1.018 A  
HETATM   16  C   UNL     1      -9.430   8.398  63.070  1.00  0.00     2.188 C  
HETATM   17  C   UNL     1      -9.569  13.275  64.636  1.00  0.00     0.438 A  
HETATM   18  C   UNL     1      -6.134  14.265  71.518  1.00  0.00     0.074 C  
HETATM   19  N   UNL     1      -8.300   8.525  64.093  1.00  0.00    -0.135 N  
HETATM   20  O   UNL     1      -9.817  14.297  65.514  1.00  0.00    -0.459 OA 
HETATM   21  N   UNL     1      -6.886  15.514  71.608  1.00  0.00     2.177 NA 
HETATM   22  C   UNL     1      -8.167   7.163  64.787  1.00  0.00    -0.050 C  
HETATM   23  C   UNL     1      -8.605   9.697  65.085  1.00  0.00    -0.157 C  
HETATM   24  C   UNL     1      -6.937   8.829  63.462  1.00  0.00    -0.089 C  
HETATM   25  C   UNL     1      -9.841   9.370  65.984  1.00  0.00    -0.366 C  
HETATM   26  H   UNL     1     -10.423  14.999  65.303  1.00  0.00     0.000 HD 
HETATM   27  C   UNL     1      -9.526   9.248  67.447  1.00  0.00    -0.165 A  
HETATM   28  C   UNL     1      -9.215  10.416  68.133  1.00  0.00    -0.145 A  
HETATM   29  C   UNL     1      -9.254  10.469  69.526  1.00  0.00    -0.048 A  
HETATM   30  C   UNL     1      -9.287   9.262  70.218  1.00  0.00    -0.239 A  
HETATM   31  O   UNL     1      -9.242  11.700  70.146  1.00  0.00     2.120 OA 
HETATM   32  C   UNL     1      -9.903  12.789  69.396  1.00  0.00     0.928 C  
HETATM   33  C   UNL     1      -9.526   8.041  69.542  1.00  0.00    -0.160 A  
HETATM   34  O   UNL     1      -9.018   9.211  71.554  1.00  0.00    -0.319 OA 
HETATM   35  C   UNL     1      -9.716   8.058  68.152  1.00  0.00    -0.179 A  
HETATM   36  H   UNL     1      -9.039   8.387  72.026  1.00  0.00     0.000 HD 
HETATM   37  C   UNL     1     -11.068  13.226  70.003  1.00  0.00     0.377 C  
HETATM   38  C   UNL     1     -10.887  13.895  71.205  1.00  0.00     2.285 C  
HETATM   39  C   UNL     1      -7.758  15.548  72.802  1.00  0.00     8.965 C  
HETATM   40  C   UNL     1      -9.027  13.852  69.211  1.00  0.00     0.521 C  
HETATM   41  C   UNL     1      -9.630  14.500  71.396  1.00  0.00     3.990 C  
HETATM   42  C   UNL     1      -8.799  14.713  70.274  1.00  0.00     1.290 C  
HETATM   43  C   UNL     1      -9.037  14.682  72.768  1.00  0.00     8.158 C  
ENDROOT
BRANCH  15  44
HETATM   44  O   UNL     1     -11.017  14.393  63.180  1.00  0.00     2.098 OA 
HETATM   45  C   UNL     1     -10.638  15.552  63.913  1.00  0.00     2.321 C  
ENDBRANCH  15  44
BRANCH  37  46
HETATM   46  O   UNL     1     -12.028  13.587  69.070  1.00  0.00    -0.327 OA 
HETATM   47  C   UNL     1     -11.651  13.689  67.707  1.00  0.00    -0.338 C  
ENDBRANCH  37  46
TORSDOF 2
ENDMDL
MODEL       89
REMARK 921   NORMALIZED FREE ENERGY PREDICTED BY IDOCK:   48.29 KCAL/MOL
REMARK 922        TOTAL FREE ENERGY PREDICTED BY IDOCK:   53.59 KCAL/MOL
REMARK 923 INTER-LIGAND FREE ENERGY PREDICTED BY IDOCK:   52.39 KCAL/MOL
REMARK 924 INTRA-LIGAND FREE ENERGY PREDICTED BY IDOCK:    1.21 KCAL/MOL
REMARK 927      BINDING AFFINITY PREDICTED BY RF-SCORE:    0.00 PKD
ROOT
HETATM    1  C   UNL     1     -10.596  18.114  70.627  1.00  0.00     2.111 C  
HETATM    2  C   UNL     1      -9.372  18.379  69.655  1.00  0.00     0.666 C  
HETATM    3  C   UNL     1      -8.697  17.213  68.980  1.00  0.00    -0.103 A  
HETATM    4  C   UNL     1      -8.171  16.164  69.725  1.00  0.00     0.431 A  
HETATM    5  C   UNL     1      -8.196  14.881  69.191  1.00  0.00    -0.151 A  
HETATM    6  C   UNL     1      -8.586  14.688  67.868  1.00  0.00    -0.165 A  
HETATM    7  C   UNL     1      -8.592  15.797  67.028  1.00  0.00    -0.247 A  
HETATM    8  O   UNL     1      -9.033  13.420  67.586  1.00  0.00    -0.181 OA 
HETATM    9  C   UNL     1      -8.747  17.064  67.592  1.00  0.00    -0.216 A  
HETATM   10  C   UNL     1      -9.783  13.082  66.481  1.00  0.00    -0.266 A  
HETATM   11  C   UNL     1      -9.849  11.700  66.227  1.00  0.00    -0.245 A  
HETATM   12  C   UNL     1     -10.163  11.256  64.928  1.00  0.00    -0.341 A  
HETATM   13  C   UNL     1     -10.028   9.810  64.546  1.00  0.00     0.189 C  
HETATM   14  C   UNL     1     -10.536  12.174  63.960  1.00  0.00    -0.418 A  
HETATM   15  C   UNL     1     -10.780  13.493  64.303  1.00  0.00    -0.308 A  
HETATM   16  C   UNL     1     -10.000   8.814  65.694  1.00  0.00     0.353 C  
HETATM   17  C   UNL     1     -10.469  13.916  65.599  1.00  0.00    -0.312 A  
HETATM   18  C   UNL     1      -9.559  17.095  72.614  1.00  0.00    11.393 C  
HETATM   19  N   UNL     1      -9.284   9.308  66.953  1.00  0.00    -0.140 N  
HETATM   20  O   UNL     1     -10.961  15.131  65.997  1.00  0.00    -0.331 OA 
HETATM   21  N   UNL     1     -10.245  18.264  72.070  1.00  0.00     4.341 NA 
HETATM   22  C   UNL     1      -9.452   8.220  68.022  1.00  0.00    -0.140 C  
HETATM   23  C   UNL     1      -9.862  10.696  67.387  1.00  0.00    -0.170 C  
HETATM   24  C   UNL     1      -7.777   9.502  66.760  1.00  0.00    -0.098 C  
HETATM   25  C   UNL     1     -11.344  10.566  67.870  1.00  0.00    -0.297 C  
HETATM   26  H   UNL     1     -11.430  15.700  65.396  1.00  0.00     0.000 HD 
HETATM   27  C   UNL     1     -11.553  10.898  69.319  1.00  0.00    -0.388 A  
HETATM   28  C   UNL     1     -11.449  12.233  69.690  1.00  0.00    -0.285 A  
HETATM   29  C   UNL     1     -11.960  12.688  70.906  1.00  0.00     0.159 A  
HETATM   30  C   UNL     1     -12.276  11.736  71.870  1.00  0.00     0.850 A  
HETATM   31  O   UNL     1     -12.111  14.044  71.098  1.00  0.00    -0.342 OA 
HETATM   32  C   UNL     1     -12.431  14.821  69.882  1.00  0.00    -0.240 C  
HETATM   33  C   UNL     1     -12.319  10.358  71.548  1.00  0.00    -0.468 A  
HETATM   34  O   UNL     1     -12.483  12.096  73.170  1.00  0.00     2.398 OA 
HETATM   35  C   UNL     1     -12.021   9.956  70.237  1.00  0.00    -0.209 A  
HETATM   36  H   UNL     1     -12.698  11.445  73.829  1.00  0.00     0.000 HD 
HETATM   37  C   UNL     1     -13.714  15.339  69.900  1.00  0.00     1.376 C  
HETATM   38  C   UNL     1     -13.929  16.340  70.837  1.00  0.00     2.920 C  
HETATM   39  C   UNL     1     -11.471  18.589  72.831  1.00  0.00     3.544 C  
HETATM   40  C   UNL     1     -11.502  15.838  69.698  1.00  0.00    -0.348 C  
HETATM   41  C   UNL     1     -12.789  17.056  71.253  1.00  0.00     5.190 C  
HETATM   42  C   UNL     1     -11.617  16.986  70.468  1.00  0.00     1.190 C  
HETATM   43  C   UNL     1     -12.694  17.669  72.625  1.00  0.00     5.257 C  
ENDROOT
BRANCH  15  44
HETATM   44  O   UNL     1     -11.285  14.462  63.478  1.00  0.00     0.818 OA 
HETATM   45  C   UNL     1     -11.024  15.810  63.853  1.00  0.00     1.264 C  
ENDBRANCH  15  44
BRANCH  37  46
HETATM   46  O   UNL     1     -14.282  15.348  68.635  1.00  0.00     6.172 OA 
HETATM   47  C   UNL     1     -13.826  14.410  67.675  1.00  0.00     8.175 C  
ENDBRANCH  37  46
TORSDOF 2
ENDMDL
MODEL       90
REMARK 921   NORMALIZED FREE ENERGY PREDICTED BY IDOCK:   49.20 KCAL/MOL
REMARK 922        TOTAL FREE ENERGY PREDICTED BY IDOCK:   54.61 KCAL/MOL
REMARK 923 INTER-LIGAND FREE ENERGY PREDICTED BY IDOCK:   54.99 KCAL/MOL
REMARK 924 INTRA-LIGAND FREE ENERGY PREDICTED BY IDOCK:   -0.38 KCAL/MOL
REMARK 927      BINDING AFFINITY PREDICTED BY RF-SCORE:    0.00 PKD
ROOT
HETATM    1  C   UNL     1      -6.102  11.539  67.454  1.00  0.00    -0.083 C  
HETATM    2  C   UNL     1      -5.661  12.332  66.155  1.00  0.00     1.547 C  
HETATM    3  C   UNL     1      -6.451  13.541  65.723  1.00  0.00     7.338 A  
HETATM    4  C   UNL     1      -7.816  13.452  65.481  1.00  0.00     4.590 A  
HETATM    5  C   UNL     1      -8.623  14.548  65.763  1.00  0.00     1.386 A  
HETATM    6  C   UNL     1      -8.041  15.763  66.119  1.00  0.00     0.326 A  
HETATM    7  C   UNL     1      -6.691  15.940  65.838  1.00  0.00     3.292 A  
HETATM    8  O   UNL     1      -8.869  16.605  66.822  1.00  0.00    -0.201 OA 
HETATM    9  C   UNL     1      -5.874  14.813  65.735  1.00  0.00     8.544 A  
HETATM   10  C   UNL     1      -8.440  17.678  67.572  1.00  0.00    -0.219 A  
HETATM   11  C   UNL     1      -9.459  18.578  67.931  1.00  0.00    -0.316 A  
HETATM   12  C   UNL     1      -9.117  19.902  68.270  1.00  0.00    -0.318 A  
HETATM   13  C   UNL     1     -10.171  20.958  68.440  1.00  0.00     0.397 C  
HETATM   14  C   UNL     1      -7.783  20.259  68.381  1.00  0.00    -0.052 A  
HETATM   15  C   UNL     1      -6.794  19.291  68.343  1.00  0.00    -0.275 A  
HETATM   16  C   UNL     1     -11.585  20.460  68.692  1.00  0.00     2.837 C  
HETATM   17  C   UNL     1      -7.152  17.981  68.012  1.00  0.00    -0.220 A  
HETATM   18  C   UNL     1      -8.172  10.395  66.770  1.00  0.00    -0.126 C  
HETATM   19  N   UNL     1     -11.952  19.174  67.948  1.00  0.00     2.122 N  
HETATM   20  O   UNL     1      -6.222  17.001  68.241  1.00  0.00    -0.132 OA 
HETATM   21  N   UNL     1      -6.770  10.239  67.151  1.00  0.00    -0.076 NA 
HETATM   22  C   UNL     1     -13.361  18.777  68.407  1.00  0.00    11.173 C  
HETATM   23  C   UNL     1     -10.877  18.070  68.225  1.00  0.00    -0.066 C  
HETATM   24  C   UNL     1     -12.020  19.348  66.428  1.00  0.00     2.683 C  
HETATM   25  C   UNL     1     -10.905  17.616  69.720  1.00  0.00     0.879 C  
HETATM   26  H   UNL     1      -5.344  17.207  68.541  1.00  0.00     0.000 HD 
HETATM   27  C   UNL     1     -11.303  16.182  69.923  1.00  0.00    -0.318 A  
HETATM   28  C   UNL     1     -10.389  15.206  69.544  1.00  0.00    -0.251 A  
HETATM   29  C   UNL     1     -10.501  13.893  70.001  1.00  0.00     0.828 A  
HETATM   30  C   UNL     1     -11.712  13.508  70.568  1.00  0.00    -0.066 A  
HETATM   31  O   UNL     1      -9.426  13.043  69.857  1.00  0.00     1.960 OA 
HETATM   32  C   UNL     1      -8.098  13.690  69.935  1.00  0.00     1.639 C  
HETATM   33  C   UNL     1     -12.699  14.467  70.900  1.00  0.00    -0.425 A  
HETATM   34  O   UNL     1     -12.012  12.190  70.755  1.00  0.00    -0.463 OA 
HETATM   35  C   UNL     1     -12.449  15.822  70.633  1.00  0.00    -0.397 A  
HETATM   36  H   UNL     1     -12.840  11.927  71.142  1.00  0.00     0.000 HD 
HETATM   37  C   UNL     1      -7.394  13.330  71.071  1.00  0.00     4.123 C  
HETATM   38  C   UNL     1      -6.973  12.008  71.104  1.00  0.00     3.899 C  
HETATM   39  C   UNL     1      -6.611   9.335  68.311  1.00  0.00    -0.059 C  
HETATM   40  C   UNL     1      -7.354  13.409  68.795  1.00  0.00    -0.076 C  
HETATM   41  C   UNL     1      -6.826  11.371  69.856  1.00  0.00     0.038 C  
HETATM   42  C   UNL     1      -6.749  12.165  68.692  1.00  0.00    -0.081 C  
HETATM   43  C   UNL     1      -7.015   9.886  69.696  1.00  0.00    -0.086 C  
ENDROOT
BRANCH  15  44
HETATM   44  O   UNL     1      -5.460  19.491  68.579  1.00  0.00    -0.197 OA 
HETATM   45  C   UNL     1      -5.134  20.354  69.662  1.00  0.00    -0.247 C  
ENDBRANCH  15  44
BRANCH  37  46
HETATM   46  O   UNL     1      -6.633  14.381  71.558  1.00  0.00     0.350 OA 
HETATM   47  C   UNL     1      -5.287  14.135  71.930  1.00  0.00    -0.209 C  
ENDBRANCH  37  46
TORSDOF 2
ENDMDL
MODEL       91
REMARK 921   NORMALIZED FREE ENERGY PREDICTED BY IDOCK:   50.89 KCAL/MOL
REMARK 922        TOTAL FREE ENERGY PREDICTED BY IDOCK:   56.50 KCAL/MOL
REMARK 923 INTER-LIGAND FREE ENERGY PREDICTED BY IDOCK:   56.34 KCAL/MOL
REMARK 924 INTRA-LIGAND FREE ENERGY PREDICTED BY IDOCK:    0.17 KCAL/MOL
REMARK 927      BINDING AFFINITY PREDICTED BY RF-SCORE:    0.00 PKD
ROOT
HETATM    1  C   UNL     1     -12.601  11.130  66.039  1.00  0.00     4.191 C  
HETATM    2  C   UNL     1     -13.707  12.110  66.611  1.00  0.00     9.260 C  
HETATM    3  C   UNL     1     -13.286  13.313  67.416  1.00  0.00     3.679 A  
HETATM    4  C   UNL     1     -12.499  13.172  68.553  1.00  0.00     0.386 A  
HETATM    5  C   UNL     1     -11.585  14.170  68.868  1.00  0.00    -0.345 A  
HETATM    6  C   UNL     1     -11.587  15.363  68.148  1.00  0.00    -0.319 A  
HETATM    7  C   UNL     1     -12.714  15.658  67.388  1.00  0.00     2.228 A  
HETATM    8  O   UNL     1     -10.400  16.055  68.191  1.00  0.00    -0.247 OA 
HETATM    9  C   UNL     1     -13.514  14.606  66.940  1.00  0.00     3.972 A  
HETATM   10  C   UNL     1     -10.039  17.047  67.307  1.00  0.00    -0.295 A  
HETATM   11  C   UNL     1      -8.948  17.828  67.726  1.00  0.00    -0.249 A  
HETATM   12  C   UNL     1      -8.777  19.116  67.182  1.00  0.00    -0.306 A  
HETATM   13  C   UNL     1      -7.771  20.074  67.752  1.00  0.00    -0.327 C  
HETATM   14  C   UNL     1      -9.596  19.538  66.147  1.00  0.00    -0.431 A  
HETATM   15  C   UNL     1     -10.453  18.646  65.524  1.00  0.00     0.066 A  
HETATM   16  C   UNL     1      -6.663  19.461  68.592  1.00  0.00    -0.294 C  
HETATM   17  C   UNL     1     -10.605  17.370  66.074  1.00  0.00    -0.210 A  
HETATM   18  C   UNL     1     -11.764   9.958  68.036  1.00  0.00     0.973 C  
HETATM   19  N   UNL     1      -7.092  18.261  69.440  1.00  0.00    -0.114 N  
HETATM   20  O   UNL     1     -11.236  16.428  65.304  1.00  0.00    -0.147 OA 
HETATM   21  N   UNL     1     -12.513   9.841  66.787  1.00  0.00     6.558 NA 
HETATM   22  C   UNL     1      -5.830  17.722  70.126  1.00  0.00    -0.189 C  
HETATM   23  C   UNL     1      -7.809  17.200  68.541  1.00  0.00    -0.257 C  
HETATM   24  C   UNL     1      -8.075  18.625  70.557  1.00  0.00     3.177 C  
HETATM   25  C   UNL     1      -6.813  16.556  67.522  1.00  0.00    -0.174 C  
HETATM   26  H   UNL     1     -11.622  16.648  64.464  1.00  0.00     0.000 HD 
HETATM   27  C   UNL     1      -6.584  15.087  67.727  1.00  0.00    -0.189 A  
HETATM   28  C   UNL     1      -7.624  14.226  67.400  1.00  0.00    -0.185 A  
HETATM   29  C   UNL     1      -7.404  12.860  67.217  1.00  0.00    -0.070 A  
HETATM   30  C   UNL     1      -6.206  12.331  67.686  1.00  0.00    -0.120 A  
HETATM   31  O   UNL     1      -8.380  12.105  66.604  1.00  0.00    -0.149 OA 
HETATM   32  C   UNL     1      -9.178  12.817  65.583  1.00  0.00     0.289 C  
HETATM   33  C   UNL     1      -5.148  13.177  68.100  1.00  0.00    -0.094 A  
HETATM   34  O   UNL     1      -6.041  10.984  67.829  1.00  0.00    -0.046 OA 
HETATM   35  C   UNL     1      -5.328  14.567  68.048  1.00  0.00    -0.111 A  
HETATM   36  H   UNL     1      -5.223  10.623  68.150  1.00  0.00     0.000 HD 
HETATM   37  C   UNL     1      -8.937  12.358  64.300  1.00  0.00     1.266 C  
HETATM   38  C   UNL     1      -9.390  11.071  64.043  1.00  0.00    -0.231 C  
HETATM   39  C   UNL     1     -11.942   8.808  65.896  1.00  0.00     8.896 C  
HETATM   40  C   UNL     1     -10.533  12.731  65.880  1.00  0.00    -0.295 C  
HETATM   41  C   UNL     1     -10.444  10.610  64.855  1.00  0.00    -0.282 C  
HETATM   42  C   UNL     1     -11.200  11.551  65.588  1.00  0.00    -0.212 C  
HETATM   43  C   UNL     1     -10.621   9.149  65.172  1.00  0.00     2.510 C  
ENDROOT
BRANCH  15  44
HETATM   44  O   UNL     1     -11.206  18.896  64.408  1.00  0.00     0.881 OA 
HETATM   45  C   UNL     1     -11.736  20.212  64.287  1.00  0.00     4.720 C  
ENDBRANCH  15  44
BRANCH  37  46
HETATM   46  O   UNL     1      -8.996  13.383  63.368  1.00  0.00     3.681 OA 
HETATM   47  C   UNL     1     -10.248  13.991  63.101  1.00  0.00     5.492 C  
ENDBRANCH  37  46
TORSDOF 2
ENDMDL
MODEL       92
REMARK 921   NORMALIZED FREE ENERGY PREDICTED BY IDOCK:   55.85 KCAL/MOL
REMARK 922        TOTAL FREE ENERGY PREDICTED BY IDOCK:   62.04 KCAL/MOL
REMARK 923 INTER-LIGAND FREE ENERGY PREDICTED BY IDOCK:   62.36 KCAL/MOL
REMARK 924 INTRA-LIGAND FREE ENERGY PREDICTED BY IDOCK:   -0.32 KCAL/MOL
REMARK 927      BINDING AFFINITY PREDICTED BY RF-SCORE:    0.00 PKD
ROOT
HETATM    1  C   UNL     1      -9.639   4.108  70.799  1.00  0.00    -0.190 C  
HETATM    2  C   UNL     1      -8.100   4.115  71.178  1.00  0.00    -0.072 C  
HETATM    3  C   UNL     1      -7.167   5.061  70.466  1.00  0.00    -0.054 A  
HETATM    4  C   UNL     1      -7.058   5.049  69.080  1.00  0.00    -0.056 A  
HETATM    5  C   UNL     1      -6.804   6.242  68.415  1.00  0.00    -0.071 A  
HETATM    6  C   UNL     1      -6.495   7.389  69.142  1.00  0.00    -0.040 A  
HETATM    7  C   UNL     1      -6.104   7.228  70.467  1.00  0.00    -0.031 A  
HETATM    8  O   UNL     1      -6.732   8.566  68.475  1.00  0.00    -0.058 OA 
HETATM    9  C   UNL     1      -6.530   6.093  71.159  1.00  0.00    -0.049 A  
HETATM   10  C   UNL     1      -6.842   9.800  69.078  1.00  0.00    -0.050 A  
HETATM   11  C   UNL     1      -6.759  10.888  68.191  1.00  0.00    -0.063 A  
HETATM   12  C   UNL     1      -6.393  12.153  68.690  1.00  0.00    -0.063 A  
HETATM   13  C   UNL     1      -6.071  13.291  67.764  1.00  0.00    -0.154 C  
HETATM   14  C   UNL     1      -6.257  12.339  70.056  1.00  0.00    -0.085 A  
HETATM   15  C   UNL     1      -6.654  11.350  70.940  1.00  0.00     1.296 A  
HETATM   16  C   UNL     1      -6.595  13.167  66.343  1.00  0.00     2.693 C  
HETATM   17  C   UNL     1      -7.021  10.102  70.427  1.00  0.00    -0.111 A  
HETATM   18  C   UNL     1      -9.692   3.063  68.570  1.00  0.00     0.119 C  
HETATM   19  N   UNL     1      -6.591  11.744  65.781  1.00  0.00     0.954 N  
HETATM   20  O   UNL     1      -7.660   9.239  71.279  1.00  0.00    -0.306 OA 
HETATM   21  N   UNL     1     -10.039   2.925  69.983  1.00  0.00     0.546 NA 
HETATM   22  C   UNL     1      -7.246  11.806  64.395  1.00  0.00     3.247 C  
HETATM   23  C   UNL     1      -7.325  10.776  66.769  1.00  0.00    -0.129 C  
HETATM   24  C   UNL     1      -5.184  11.174  65.575  1.00  0.00     0.009 C  
HETATM   25  C   UNL     1      -8.851  11.104  66.851  1.00  0.00    -0.157 C  
HETATM   26  H   UNL     1      -7.782   9.445  72.198  1.00  0.00     0.000 HD 
HETATM   27  C   UNL     1      -9.746  10.011  66.343  1.00  0.00    -0.266 A  
HETATM   28  C   UNL     1      -9.853   8.861  67.116  1.00  0.00    -0.267 A  
HETATM   29  C   UNL     1     -10.898   7.957  66.927  1.00  0.00     0.020 A  
HETATM   30  C   UNL     1     -11.633   8.055  65.750  1.00  0.00     7.042 A  
HETATM   31  O   UNL     1     -11.141   7.008  67.897  1.00  0.00    -0.160 OA 
HETATM   32  C   UNL     1     -10.836   7.430  69.280  1.00  0.00    -0.137 C  
HETATM   33  C   UNL     1     -11.496   9.177  64.897  1.00  0.00     8.305 A  
HETATM   34  O   UNL     1     -12.453   7.042  65.346  1.00  0.00     7.146 OA 
HETATM   35  C   UNL     1     -10.591  10.191  65.246  1.00  0.00     0.162 A  
HETATM   36  H   UNL     1     -12.954   7.110  64.542  1.00  0.00     0.000 HD 
HETATM   37  C   UNL     1     -11.971   7.569  70.060  1.00  0.00     0.346 C  
HETATM   38  C   UNL     1     -12.627   6.382  70.355  1.00  0.00     0.787 C  
HETATM   39  C   UNL     1     -11.484   2.676  70.174  1.00  0.00     8.357 C  
HETATM   40  C   UNL     1      -9.948   6.540  69.874  1.00  0.00    -0.191 C  
HETATM   41  C   UNL     1     -11.846   5.212  70.312  1.00  0.00     3.457 C  
HETATM   42  C   UNL     1     -10.439   5.331  70.344  1.00  0.00    -0.322 C  
HETATM   43  C   UNL     1     -12.440   3.872  69.968  1.00  0.00    16.859 C  
ENDROOT
BRANCH  15  44
HETATM   44  O   UNL     1      -6.704  11.460  72.304  1.00  0.00     3.601 OA 
HETATM   45  C   UNL     1      -5.454  11.587  72.972  1.00  0.00     1.160 C  
ENDBRANCH  15  44
BRANCH  37  46
HETATM   46  O   UNL     1     -11.848   8.614  70.963  1.00  0.00    -0.286 OA 
HETATM   47  C   UNL     1     -12.901   8.848  71.883  1.00  0.00    -0.380 C  
ENDBRANCH  37  46
TORSDOF 2
ENDMDL
MODEL       93
REMARK 921   NORMALIZED FREE ENERGY PREDICTED BY IDOCK:   60.46 KCAL/MOL
REMARK 922        TOTAL FREE ENERGY PREDICTED BY IDOCK:   67.19 KCAL/MOL
REMARK 923 INTER-LIGAND FREE ENERGY PREDICTED BY IDOCK:   66.13 KCAL/MOL
REMARK 924 INTRA-LIGAND FREE ENERGY PREDICTED BY IDOCK:    1.06 KCAL/MOL
REMARK 927      BINDING AFFINITY PREDICTED BY RF-SCORE:    0.00 PKD
ROOT
HETATM    1  C   UNL     1      -8.866  14.518  69.819  1.00  0.00     0.619 C  
HETATM    2  C   UNL     1      -8.697  13.621  71.114  1.00  0.00     8.053 C  
HETATM    3  C   UNL     1      -9.173  12.190  71.090  1.00  0.00    11.621 A  
HETATM    4  C   UNL     1     -10.490  11.882  70.772  1.00  0.00     3.877 A  
HETATM    5  C   UNL     1     -10.759  10.696  70.099  1.00  0.00    -0.151 A  
HETATM    6  C   UNL     1      -9.743   9.763  69.905  1.00  0.00    -0.238 A  
HETATM    7  C   UNL     1      -8.600   9.881  70.688  1.00  0.00     0.328 A  
HETATM    8  O   UNL     1      -9.959   8.896  68.861  1.00  0.00    -0.179 OA 
HETATM    9  C   UNL     1      -8.266  11.134  71.204  1.00  0.00     6.200 A  
HETATM   10  C   UNL     1      -8.980   8.137  68.258  1.00  0.00    -0.136 A  
HETATM   11  C   UNL     1      -9.470   7.098  67.447  1.00  0.00    -0.156 A  
HETATM   12  C   UNL     1      -8.637   5.998  67.164  1.00  0.00    -0.106 A  
HETATM   13  C   UNL     1      -9.177   4.765  66.497  1.00  0.00    -0.133 C  
HETATM   14  C   UNL     1      -7.312   6.018  67.567  1.00  0.00    -0.077 A  
HETATM   15  C   UNL     1      -6.754   7.178  68.079  1.00  0.00    -0.061 A  
HETATM   16  C   UNL     1     -10.486   4.930  65.743  1.00  0.00    -0.186 C  
HETATM   17  C   UNL     1      -7.594   8.262  68.348  1.00  0.00    -0.101 A  
HETATM   18  C   UNL     1     -11.289  14.943  69.710  1.00  0.00    -0.283 C  
HETATM   19  N   UNL     1     -11.474   5.907  66.382  1.00  0.00     0.500 N  
HETATM   20  O   UNL     1      -6.997   9.471  68.594  1.00  0.00    -0.063 OA 
HETATM   21  N   UNL     1      -9.966  15.520  69.936  1.00  0.00    -0.279 NA 
HETATM   22  C   UNL     1     -12.674   6.018  65.433  1.00  0.00     7.113 C  
HETATM   23  C   UNL     1     -10.771   7.279  66.653  1.00  0.00     0.021 C  
HETATM   24  C   UNL     1     -12.025   5.424  67.728  1.00  0.00     4.854 C  
HETATM   25  C   UNL     1     -10.401   7.998  65.316  1.00  0.00     3.159 C  
HETATM   26  H   UNL     1      -6.052   9.556  68.655  1.00  0.00     0.000 HD 
HETATM   27  C   UNL     1     -11.122   9.296  65.092  1.00  0.00     4.488 A  
HETATM   28  C   UNL     1     -10.756  10.376  65.886  1.00  0.00    -0.023 A  
HETATM   29  C   UNL     1     -11.098  11.682  65.534  1.00  0.00    -0.237 A  
HETATM   30  C   UNL     1     -12.080  11.853  64.564  1.00  0.00    -0.172 A  
HETATM   31  O   UNL     1     -10.465  12.730  66.168  1.00  0.00    -0.259 OA 
HETATM   32  C   UNL     1      -9.068  12.468  66.575  1.00  0.00    -0.177 C  
HETATM   33  C   UNL     1     -12.534  10.761  63.785  1.00  0.00     2.923 A  
HETATM   34  O   UNL     1     -12.686  13.062  64.384  1.00  0.00    -0.652 OA 
HETATM   35  C   UNL     1     -11.989   9.489  64.015  1.00  0.00    11.247 A  
HETATM   36  H   UNL     1     -13.358  13.179  63.722  1.00  0.00     0.000 HD 
HETATM   37  C   UNL     1      -8.153  13.212  65.851  1.00  0.00     2.096 C  
HETATM   38  C   UNL     1      -8.180  14.577  66.101  1.00  0.00     1.185 C  
HETATM   39  C   UNL     1      -9.690  16.646  69.018  1.00  0.00    -0.260 C  
HETATM   40  C   UNL     1      -8.908  12.696  67.936  1.00  0.00    -0.182 C  
HETATM   41  C   UNL     1      -8.695  14.970  67.351  1.00  0.00    -0.208 C  
HETATM   42  C   UNL     1      -8.798  14.007  68.378  1.00  0.00    -0.180 C  
HETATM   43  C   UNL     1      -9.379  16.297  67.546  1.00  0.00    -0.217 C  
ENDROOT
BRANCH  15  44
HETATM   44  O   UNL     1      -5.433   7.372  68.382  1.00  0.00    -0.021 OA 
HETATM   45  C   UNL     1      -5.159   8.049  69.604  1.00  0.00    -0.023 C  
ENDBRANCH  15  44
BRANCH  37  46
HETATM   46  O   UNL     1      -6.982  12.505  65.623  1.00  0.00     2.347 OA 
HETATM   47  C   UNL     1      -6.127  12.229  66.719  1.00  0.00     0.257 C  
ENDBRANCH  37  46
TORSDOF 2
ENDMDL
MODEL       94
REMARK 921   NORMALIZED FREE ENERGY PREDICTED BY IDOCK:   62.81 KCAL/MOL
REMARK 922        TOTAL FREE ENERGY PREDICTED BY IDOCK:   69.81 KCAL/MOL
REMARK 923 INTER-LIGAND FREE ENERGY PREDICTED BY IDOCK:   70.11 KCAL/MOL
REMARK 924 INTRA-LIGAND FREE ENERGY PREDICTED BY IDOCK:   -0.30 KCAL/MOL
REMARK 927      BINDING AFFINITY PREDICTED BY RF-SCORE:    0.00 PKD
ROOT
HETATM    1  C   UNL     1     -11.941   4.766  67.702  1.00  0.00     7.878 C  
HETATM    2  C   UNL     1     -12.321   4.965  69.227  1.00  0.00    10.509 C  
HETATM    3  C   UNL     1     -11.561   5.971  70.055  1.00  0.00    -0.071 A  
HETATM    4  C   UNL     1     -10.179   5.897  70.174  1.00  0.00    -0.281 A  
HETATM    5  C   UNL     1      -9.451   7.074  70.299  1.00  0.00    -0.165 A  
HETATM    6  C   UNL     1     -10.116   8.286  70.472  1.00  0.00    -0.195 A  
HETATM    7  C   UNL     1     -11.449   8.240  70.868  1.00  0.00    -0.296 A  
HETATM    8  O   UNL     1      -9.386   9.392  70.110  1.00  0.00    -0.205 OA 
HETATM    9  C   UNL     1     -12.199   7.103  70.566  1.00  0.00    -0.173 A  
HETATM   10  C   UNL     1      -9.922  10.636  69.857  1.00  0.00     0.170 A  
HETATM   11  C   UNL     1      -8.979  11.678  69.825  1.00  0.00     1.679 A  
HETATM   12  C   UNL     1      -9.410  13.001  70.044  1.00  0.00     3.284 A  
HETATM   13  C   UNL     1      -8.425  14.117  70.244  1.00  0.00     2.101 C  
HETATM   14  C   UNL     1     -10.764  13.273  70.147  1.00  0.00     1.153 A  
HETATM   15  C   UNL     1     -11.699  12.294  69.856  1.00  0.00    -0.273 A  
HETATM   16  C   UNL     1      -7.011  13.860  69.748  1.00  0.00     0.139 C  
HETATM   17  C   UNL     1     -11.253  10.988  69.635  1.00  0.00    -0.278 A  
HETATM   18  C   UNL     1      -9.771   3.604  67.784  1.00  0.00    -0.050 C  
HETATM   19  N   UNL     1      -6.527  12.418  69.915  1.00  0.00    -0.044 N  
HETATM   20  O   UNL     1     -12.149  10.104  69.091  1.00  0.00    -0.521 OA 
HETATM   21  N   UNL     1     -11.188   3.503  67.443  1.00  0.00     5.392 NA 
HETATM   22  C   UNL     1      -5.138  12.333  69.268  1.00  0.00    -0.067 C  
HETATM   23  C   UNL     1      -7.564  11.428  69.286  1.00  0.00     0.027 C  
HETATM   24  C   UNL     1      -6.354  12.000  71.378  1.00  0.00     2.146 C  
HETATM   25  C   UNL     1      -7.626  11.587  67.732  1.00  0.00    -0.111 C  
HETATM   26  H   UNL     1     -13.056  10.344  68.939  1.00  0.00     0.000 HD 
HETATM   27  C   UNL     1      -7.175  10.374  66.970  1.00  0.00    -0.093 A  
HETATM   28  C   UNL     1      -8.008   9.262  66.986  1.00  0.00    -0.102 A  
HETATM   29  C   UNL     1      -7.866   8.238  66.050  1.00  0.00    -0.095 A  
HETATM   30  C   UNL     1      -6.684   8.191  65.318  1.00  0.00    -0.052 A  
HETATM   31  O   UNL     1      -8.885   7.321  65.907  1.00  0.00    -0.158 OA 
HETATM   32  C   UNL     1     -10.245   7.847  66.153  1.00  0.00     0.412 C  
HETATM   33  C   UNL     1      -5.773   9.275  65.335  1.00  0.00    -0.057 A  
HETATM   34  O   UNL     1      -6.334   7.072  64.620  1.00  0.00    -0.036 OA 
HETATM   35  C   UNL     1      -6.068  10.400  66.118  1.00  0.00    -0.096 A  
HETATM   36  H   UNL     1      -5.526   7.040  64.120  1.00  0.00     0.000 HD 
HETATM   37  C   UNL     1     -11.014   7.899  65.003  1.00  0.00     8.063 C  
HETATM   38  C   UNL     1     -11.371   6.664  64.481  1.00  0.00    10.419 C  
HETATM   39  C   UNL     1     -11.390   3.105  66.033  1.00  0.00     5.488 C  
HETATM   40  C   UNL     1     -10.886   7.096  67.130  1.00  0.00    -0.403 C  
HETATM   41  C   UNL     1     -11.391   5.588  65.389  1.00  0.00     1.715 C  
HETATM   42  C   UNL     1     -11.420   5.866  66.773  1.00  0.00     0.554 C  
HETATM   43  C   UNL     1     -11.118   4.173  64.951  1.00  0.00     0.125 C  
ENDROOT
BRANCH  15  44
HETATM   44  O   UNL     1     -13.056  12.470  69.784  1.00  0.00     0.836 OA 
HETATM   45  C   UNL     1     -13.795  12.156  70.959  1.00  0.00     1.851 C  
ENDBRANCH  15  44
BRANCH  37  46
HETATM   46  O   UNL     1     -11.860   8.997  65.001  1.00  0.00     8.479 OA 
HETATM   47  C   UNL     1     -11.366  10.240  65.472  1.00  0.00     1.509 C  
ENDBRANCH  37  46
TORSDOF 2
ENDMDL
MODEL       95
REMARK 921   NORMALIZED FREE ENERGY PREDICTED BY IDOCK:   64.81 KCAL/MOL
REMARK 922        TOTAL FREE ENERGY PREDICTED BY IDOCK:   72.04 KCAL/MOL
REMARK 923 INTER-LIGAND FREE ENERGY PREDICTED BY IDOCK:   72.35 KCAL/MOL
REMARK 924 INTRA-LIGAND FREE ENERGY PREDICTED BY IDOCK:   -0.31 KCAL/MOL
REMARK 927      BINDING AFFINITY PREDICTED BY RF-SCORE:    0.00 PKD
ROOT
HETATM    1  C   UNL     1     -13.079  12.291  66.320  1.00  0.00     3.318 C  
HETATM    2  C   UNL     1     -13.987  11.046  66.692  1.00  0.00    17.728 C  
HETATM    3  C   UNL     1     -13.341   9.707  66.941  1.00  0.00    17.399 A  
HETATM    4  C   UNL     1     -12.531   9.116  65.979  1.00  0.00    12.396 A  
HETATM    5  C   UNL     1     -11.456   8.337  66.391  1.00  0.00     3.483 A  
HETATM    6  C   UNL     1     -11.305   8.022  67.740  1.00  0.00     0.931 A  
HETATM    7  C   UNL     1     -12.408   8.189  68.570  1.00  0.00     4.537 A  
HETATM    8  O   UNL     1     -10.024   7.686  68.105  1.00  0.00    -0.163 OA 
HETATM    9  C   UNL     1     -13.386   9.116  68.206  1.00  0.00    12.032 A  
HETATM   10  C   UNL     1      -9.556   7.679  69.401  1.00  0.00    -0.159 A  
HETATM   11  C   UNL     1      -8.335   7.002  69.572  1.00  0.00    -0.133 A  
HETATM   12  C   UNL     1      -7.991   6.522  70.851  1.00  0.00    -0.111 A  
HETATM   13  C   UNL     1      -6.819   5.604  71.047  1.00  0.00    -0.057 C  
HETATM   14  C   UNL     1      -8.784   6.842  71.941  1.00  0.00    -0.126 A  
HETATM   15  C   UNL     1      -9.801   7.774  71.817  1.00  0.00    -0.167 A  
HETATM   16  C   UNL     1      -5.781   5.596  69.937  1.00  0.00    -0.016 C  
HETATM   17  C   UNL     1     -10.125   8.245  70.541  1.00  0.00    -0.195 A  
HETATM   18  C   UNL     1     -12.339  11.811  64.021  1.00  0.00    -0.236 C  
HETATM   19  N   UNL     1      -6.350   5.763  68.527  1.00  0.00    -0.039 N  
HETATM   20  O   UNL     1     -10.934   9.348  70.468  1.00  0.00    -0.235 OA 
HETATM   21  N   UNL     1     -13.158  12.666  64.877  1.00  0.00    -0.809 NA 
HETATM   22  C   UNL     1      -5.157   5.835  67.566  1.00  0.00    -0.004 C  
HETATM   23  C   UNL     1      -7.270   7.027  68.468  1.00  0.00    -0.091 C  
HETATM   24  C   UNL     1      -7.207   4.577  68.071  1.00  0.00    -0.065 C  
HETATM   25  C   UNL     1      -6.440   8.339  68.655  1.00  0.00    -0.054 C  
HETATM   26  H   UNL     1     -11.322   9.734  71.246  1.00  0.00     0.000 HD 
HETATM   27  C   UNL     1      -6.436   9.244  67.457  1.00  0.00    -0.063 A  
HETATM   28  C   UNL     1      -7.615   9.918  67.161  1.00  0.00    -0.092 A  
HETATM   29  C   UNL     1      -7.622  11.023  66.310  1.00  0.00    -0.111 A  
HETATM   30  C   UNL     1      -6.500  11.233  65.514  1.00  0.00     0.505 A  
HETATM   31  O   UNL     1      -8.734  11.837  66.285  1.00  0.00    -0.181 OA 
HETATM   32  C   UNL     1      -9.460  11.950  67.568  1.00  0.00    -0.176 C  
HETATM   33  C   UNL     1      -5.303  10.511  65.737  1.00  0.00    -0.095 A  
HETATM   34  O   UNL     1      -6.543  12.088  64.451  1.00  0.00     2.765 OA 
HETATM   35  C   UNL     1      -5.264   9.560  66.768  1.00  0.00    -0.041 A  
HETATM   36  H   UNL     1      -5.777  12.231  63.908  1.00  0.00     0.000 HD 
HETATM   37  C   UNL     1      -9.360  13.210  68.130  1.00  0.00    -0.217 C  
HETATM   38  C   UNL     1     -10.022  14.215  67.439  1.00  0.00    -0.240 C  
HETATM   39  C   UNL     1     -12.803  14.094  64.733  1.00  0.00    -0.056 C  
HETATM   40  C   UNL     1     -10.795  11.600  67.402  1.00  0.00    -0.298 C  
HETATM   41  C   UNL     1     -11.094  13.805  66.623  1.00  0.00    -0.316 C  
HETATM   42  C   UNL     1     -11.654  12.525  66.827  1.00  0.00    -0.446 C  
HETATM   43  C   UNL     1     -11.483  14.564  65.382  1.00  0.00    -0.348 C  
ENDROOT
BRANCH  15  44
HETATM   44  O   UNL     1     -10.561   8.279  72.838  1.00  0.00    -0.320 OA 
HETATM   45  C   UNL     1     -11.616   7.449  73.310  1.00  0.00     0.269 C  
ENDBRANCH  15  44
BRANCH  37  46
HETATM   46  O   UNL     1      -9.303  13.152  69.515  1.00  0.00     0.955 OA 
HETATM   47  C   UNL     1      -9.236  14.363  70.247  1.00  0.00     1.697 C  
ENDBRANCH  37  46
TORSDOF 2
ENDMDL
MODEL       96
REMARK 921   NORMALIZED FREE ENERGY PREDICTED BY IDOCK:   67.55 KCAL/MOL
REMARK 922        TOTAL FREE ENERGY PREDICTED BY IDOCK:   75.11 KCAL/MOL
REMARK 923 INTER-LIGAND FREE ENERGY PREDICTED BY IDOCK:   75.49 KCAL/MOL
REMARK 924 INTRA-LIGAND FREE ENERGY PREDICTED BY IDOCK:   -0.38 KCAL/MOL
REMARK 927      BINDING AFFINITY PREDICTED BY RF-SCORE:    0.00 PKD
ROOT
HETATM    1  C   UNL     1     -12.767  11.922  72.735  1.00  0.00     2.510 C  
HETATM    2  C   UNL     1     -13.646  13.236  72.626  1.00  0.00    -0.496 C  
HETATM    3  C   UNL     1     -13.151  14.391  71.793  1.00  0.00    -0.428 A  
HETATM    4  C   UNL     1     -11.911  14.968  72.038  1.00  0.00    -0.462 A  
HETATM    5  C   UNL     1     -11.183  15.479  70.970  1.00  0.00    -0.419 A  
HETATM    6  C   UNL     1     -11.768  15.560  69.709  1.00  0.00    -0.349 A  
HETATM    7  C   UNL     1     -13.153  15.465  69.631  1.00  0.00     0.532 A  
HETATM    8  O   UNL     1     -10.871  15.609  68.668  1.00  0.00    -0.249 OA 
HETATM    9  C   UNL     1     -13.836  14.787  70.642  1.00  0.00     0.165 A  
HETATM   10  C   UNL     1     -11.183  15.343  67.353  1.00  0.00    -0.287 A  
HETATM   11  C   UNL     1     -10.209  15.764  66.431  1.00  0.00    -0.304 A  
HETATM   12  C   UNL     1     -10.583  15.982  65.090  1.00  0.00    -0.394 A  
HETATM   13  C   UNL     1      -9.648  16.644  64.119  1.00  0.00     6.147 C  
HETATM   14  C   UNL     1     -11.860  15.647  64.670  1.00  0.00    -0.127 A  
HETATM   15  C   UNL     1     -12.706  14.935  65.504  1.00  0.00     0.257 A  
HETATM   16  C   UNL     1      -8.175  16.636  64.496  1.00  0.00     7.826 C  
HETATM   17  C   UNL     1     -12.316  14.722  66.829  1.00  0.00     0.174 A  
HETATM   18  C   UNL     1     -10.866  12.601  74.146  1.00  0.00    16.468 C  
HETATM   19  N   UNL     1      -7.898  16.781  65.994  1.00  0.00    -0.198 N  
HETATM   20  O   UNL     1     -13.028  13.799  67.551  1.00  0.00     0.218 OA 
HETATM   21  N   UNL     1     -12.074  11.785  74.050  1.00  0.00    12.576 NA 
HETATM   22  C   UNL     1      -6.381  16.646  66.185  1.00  0.00     0.759 C  
HETATM   23  C   UNL     1      -8.720  15.719  66.796  1.00  0.00    -0.271 C  
HETATM   24  C   UNL     1      -8.288  18.152  66.555  1.00  0.00    -0.265 C  
HETATM   25  C   UNL     1      -8.214  14.270  66.497  1.00  0.00     0.491 C  
HETATM   26  H   UNL     1     -13.800  13.376  67.194  1.00  0.00     0.000 HD 
HETATM   27  C   UNL     1      -7.620  13.566  67.683  1.00  0.00    -0.181 A  
HETATM   28  C   UNL     1      -8.491  13.158  68.687  1.00  0.00     0.029 A  
HETATM   29  C   UNL     1      -8.108  12.210  69.635  1.00  0.00     1.375 A  
HETATM   30  C   UNL     1      -6.751  11.928  69.757  1.00  0.00     0.047 A  
HETATM   31  O   UNL     1      -9.080  11.614  70.411  1.00  0.00     2.920 OA 
HETATM   32  C   UNL     1     -10.392  11.440  69.752  1.00  0.00     0.487 C  
HETATM   33  C   UNL     1      -5.822  12.390  68.794  1.00  0.00    -0.063 A  
HETATM   34  O   UNL     1      -6.267  11.261  70.844  1.00  0.00    -0.449 OA 
HETATM   35  C   UNL     1      -6.286  13.156  67.713  1.00  0.00    -0.156 A  
HETATM   36  H   UNL     1      -5.340  11.070  70.927  1.00  0.00     0.000 HD 
HETATM   37  C   UNL     1     -10.698  10.112  69.510  1.00  0.00    -0.249 C  
HETATM   38  C   UNL     1     -10.943   9.352  70.645  1.00  0.00    -0.352 C  
HETATM   39  C   UNL     1     -11.794  10.354  74.298  1.00  0.00    18.053 C  
HETATM   40  C   UNL     1     -11.396  12.038  70.505  1.00  0.00     0.643 C  
HETATM   41  C   UNL     1     -11.370  10.059  71.786  1.00  0.00     0.301 C  
HETATM   42  C   UNL     1     -11.865  11.372  71.628  1.00  0.00     1.074 C  
HETATM   43  C   UNL     1     -11.073   9.571  73.179  1.00  0.00     3.994 C  
ENDROOT
BRANCH  15  44
HETATM   44  O   UNL     1     -13.931  14.423  65.165  1.00  0.00     0.582 OA 
HETATM   45  C   UNL     1     -13.927  13.331  64.252  1.00  0.00     3.943 C  
ENDBRANCH  15  44
BRANCH  37  46
HETATM   46  O   UNL     1     -11.398   9.954  68.324  1.00  0.00    -0.144 OA 
HETATM   47  C   UNL     1     -10.735  10.220  67.100  1.00  0.00    -0.241 C  
ENDBRANCH  37  46
TORSDOF 2
ENDMDL
MODEL       97
REMARK 921   NORMALIZED FREE ENERGY PREDICTED BY IDOCK:   75.08 KCAL/MOL
REMARK 922        TOTAL FREE ENERGY PREDICTED BY IDOCK:   83.52 KCAL/MOL
REMARK 923 INTER-LIGAND FREE ENERGY PREDICTED BY IDOCK:   82.55 KCAL/MOL
REMARK 924 INTRA-LIGAND FREE ENERGY PREDICTED BY IDOCK:    0.97 KCAL/MOL
REMARK 927      BINDING AFFINITY PREDICTED BY RF-SCORE:    0.00 PKD
ROOT
HETATM    1  C   UNL     1      -9.111  18.784  72.099  1.00  0.00     9.076 C  
HETATM    2  C   UNL     1      -8.016  19.170  71.020  1.00  0.00     3.544 C  
HETATM    3  C   UNL     1      -7.647  18.173  69.950  1.00  0.00     1.082 A  
HETATM    4  C   UNL     1      -7.196  16.902  70.284  1.00  0.00     1.610 A  
HETATM    5  C   UNL     1      -7.509  15.836  69.449  1.00  0.00    -0.216 A  
HETATM    6  C   UNL     1      -8.114  16.076  68.217  1.00  0.00    -0.150 A  
HETATM    7  C   UNL     1      -8.062  17.371  67.712  1.00  0.00    -0.216 A  
HETATM    8  O   UNL     1      -8.800  15.002  67.702  1.00  0.00    -0.170 OA 
HETATM    9  C   UNL     1      -7.923  18.433  68.606  1.00  0.00    -0.317 A  
HETATM   10  C   UNL     1      -9.748  15.082  66.707  1.00  0.00    -0.241 A  
HETATM   11  C   UNL     1     -10.077  13.848  66.118  1.00  0.00    -0.317 A  
HETATM   12  C   UNL     1     -10.646  13.833  64.830  1.00  0.00    -0.444 A  
HETATM   13  C   UNL     1     -10.806  12.550  64.066  1.00  0.00    -0.446 C  
HETATM   14  C   UNL     1     -11.001  15.026  64.222  1.00  0.00     0.169 A  
HETATM   15  C   UNL     1     -10.973  16.211  64.937  1.00  0.00    -0.349 A  
HETATM   16  C   UNL     1     -10.774  11.272  64.888  1.00  0.00    -0.271 C  
HETATM   17  C   UNL     1     -10.411  16.207  66.217  1.00  0.00    -0.315 A  
HETATM   18  C   UNL     1      -7.974  17.126  73.522  1.00  0.00    16.928 C  
HETATM   19  N   UNL     1      -9.811  11.300  66.076  1.00  0.00    -0.219 N  
HETATM   20  O   UNL     1     -10.634  17.308  67.002  1.00  0.00    -0.310 OA 
HETATM   21  N   UNL     1      -8.532  18.474  73.439  1.00  0.00     9.144 NA 
HETATM   22  C   UNL     1      -9.996   9.979  66.836  1.00  0.00    -0.209 C  
HETATM   23  C   UNL     1     -10.084  12.564  66.958  1.00  0.00    -0.216 C  
HETATM   24  C   UNL     1      -8.337  11.364  65.664  1.00  0.00     0.168 C  
HETATM   25  C   UNL     1     -11.480  12.475  67.656  1.00  0.00    -0.392 C  
HETATM   26  H   UNL     1     -11.086  18.075  66.668  1.00  0.00     0.000 HD 
HETATM   27  C   UNL     1     -11.417  12.403  69.154  1.00  0.00    -0.358 A  
HETATM   28  C   UNL     1     -11.043  13.554  69.835  1.00  0.00     0.127 A  
HETATM   29  C   UNL     1     -11.289  13.700  71.200  1.00  0.00     1.394 A  
HETATM   30  C   UNL     1     -11.611  12.557  71.925  1.00  0.00     3.455 A  
HETATM   31  O   UNL     1     -11.186  14.954  71.765  1.00  0.00    -0.257 OA 
HETATM   32  C   UNL     1     -11.549  16.077  70.875  1.00  0.00    -0.418 C  
HETATM   33  C   UNL     1     -11.926  11.343  71.268  1.00  0.00     0.117 A  
HETATM   34  O   UNL     1     -11.564  12.553  73.288  1.00  0.00     5.964 OA 
HETATM   35  C   UNL     1     -11.893  11.299  69.865  1.00  0.00    -0.436 A  
HETATM   36  H   UNL     1     -11.784  11.771  73.782  1.00  0.00     0.000 HD 
HETATM   37  C   UNL     1     -12.714  16.714  71.266  1.00  0.00     2.274 C  
HETATM   38  C   UNL     1     -12.622  17.425  72.455  1.00  0.00     4.029 C  
HETATM   39  C   UNL     1      -9.564  18.708  74.473  1.00  0.00     6.175 C  
HETATM   40  C   UNL     1     -10.503  16.988  70.793  1.00  0.00     1.347 C  
HETATM   41  C   UNL     1     -11.332  17.854  72.823  1.00  0.00     2.187 C  
HETATM   42  C   UNL     1     -10.315  17.874  71.844  1.00  0.00     4.528 C  
HETATM   43  C   UNL     1     -10.938  18.035  74.265  1.00  0.00     2.258 C  
ENDROOT
BRANCH  15  44
HETATM   44  O   UNL     1     -11.429  17.427  64.502  1.00  0.00    -0.789 OA 
HETATM   45  C   UNL     1     -10.793  18.574  65.055  1.00  0.00     1.269 C  
ENDBRANCH  15  44
BRANCH  37  46
HETATM   46  O   UNL     1     -13.451  17.150  70.176  1.00  0.00     6.726 OA 
HETATM   47  C   UNL     1     -14.330  16.239  69.538  1.00  0.00     6.037 C  
ENDBRANCH  37  46
TORSDOF 2
ENDMDL
MODEL       98
REMARK 921   NORMALIZED FREE ENERGY PREDICTED BY IDOCK:   75.16 KCAL/MOL
REMARK 922        TOTAL FREE ENERGY PREDICTED BY IDOCK:   83.60 KCAL/MOL
REMARK 923 INTER-LIGAND FREE ENERGY PREDICTED BY IDOCK:   83.81 KCAL/MOL
REMARK 924 INTRA-LIGAND FREE ENERGY PREDICTED BY IDOCK:   -0.21 KCAL/MOL
REMARK 927      BINDING AFFINITY PREDICTED BY RF-SCORE:    0.00 PKD
ROOT
HETATM    1  C   UNL     1      -9.364   8.391  64.125  1.00  0.00     1.441 C  
HETATM    2  C   UNL     1     -10.945   8.463  64.040  1.00  0.00    11.964 C  
HETATM    3  C   UNL     1     -11.776   7.726  65.059  1.00  0.00    12.878 A  
HETATM    4  C   UNL     1     -11.622   6.358  65.250  1.00  0.00     5.733 A  
HETATM    5  C   UNL     1     -11.808   5.831  66.522  1.00  0.00     1.979 A  
HETATM    6  C   UNL     1     -12.305   6.640  67.542  1.00  0.00     4.864 A  
HETATM    7  C   UNL     1     -12.928   7.829  67.177  1.00  0.00    13.584 A  
HETATM    8  O   UNL     1     -12.008   6.204  68.810  1.00  0.00     0.688 OA 
HETATM    9  C   UNL     1     -12.582   8.422  65.962  1.00  0.00    14.272 A  
HETATM   10  C   UNL     1     -12.075   6.985  69.943  1.00  0.00     0.201 A  
HETATM   11  C   UNL     1     -12.046   6.262  71.148  1.00  0.00    -0.069 A  
HETATM   12  C   UNL     1     -12.563   6.854  72.317  1.00  0.00    -0.040 A  
HETATM   13  C   UNL     1     -12.764   6.054  73.571  1.00  0.00     3.153 C  
HETATM   14  C   UNL     1     -12.961   8.181  72.295  1.00  0.00    -0.232 A  
HETATM   15  C   UNL     1     -12.686   8.976  71.195  1.00  0.00    -0.192 A  
HETATM   16  C   UNL     1     -11.977   4.757  73.672  1.00  0.00     0.803 C  
HETATM   17  C   UNL     1     -12.167   8.373  70.046  1.00  0.00     0.909 A  
HETATM   18  C   UNL     1      -8.843   6.089  63.423  1.00  0.00     0.535 C  
HETATM   19  N   UNL     1     -11.804   4.010  72.348  1.00  0.00     1.138 N  
HETATM   20  O   UNL     1     -11.656   9.200  69.080  1.00  0.00    -0.249 OA 
HETATM   21  N   UNL     1      -8.758   7.508  63.085  1.00  0.00     0.442 NA 
HETATM   22  C   UNL     1     -10.905   2.799  72.630  1.00  0.00     0.104 C  
HETATM   23  C   UNL     1     -11.219   4.974  71.262  1.00  0.00     0.540 C  
HETATM   24  C   UNL     1     -13.116   3.458  71.783  1.00  0.00     8.980 C  
HETATM   25  C   UNL     1      -9.754   5.394  71.609  1.00  0.00    -0.204 C  
HETATM   26  H   UNL     1     -11.719  10.146  69.151  1.00  0.00     0.000 HD 
HETATM   27  C   UNL     1      -8.726   4.917  70.623  1.00  0.00    -0.138 A  
HETATM   28  C   UNL     1      -8.707   5.526  69.375  1.00  0.00    -0.107 A  
HETATM   29  C   UNL     1      -7.600   5.416  68.533  1.00  0.00    -0.083 A  
HETATM   30  C   UNL     1      -6.664   4.428  68.822  1.00  0.00    -0.046 A  
HETATM   31  O   UNL     1      -7.495   6.271  67.456  1.00  0.00    -0.085 OA 
HETATM   32  C   UNL     1      -8.075   7.615  67.661  1.00  0.00    -0.121 C  
HETATM   33  C   UNL     1      -6.696   3.733  70.054  1.00  0.00    -0.034 A  
HETATM   34  O   UNL     1      -5.733   4.051  67.898  1.00  0.00    -0.020 OA 
HETATM   35  C   UNL     1      -7.701   4.040  70.984  1.00  0.00    -0.055 A  
HETATM   36  H   UNL     1      -5.094   3.376  68.096  1.00  0.00     0.000 HD 
HETATM   37  C   UNL     1      -7.114   8.611  67.709  1.00  0.00    -0.079 C  
HETATM   38  C   UNL     1      -6.465   8.856  66.507  1.00  0.00    -0.063 C  
HETATM   39  C   UNL     1      -7.364   7.936  62.844  1.00  0.00    -0.103 C  
HETATM   40  C   UNL     1      -9.012   7.895  66.673  1.00  0.00    -0.179 C  
HETATM   41  C   UNL     1      -7.164   8.498  65.339  1.00  0.00    -0.083 C  
HETATM   42  C   UNL     1      -8.556   8.276  65.420  1.00  0.00    -0.176 C  
HETATM   43  C   UNL     1      -6.448   8.089  64.079  1.00  0.00    -0.066 C  
ENDROOT
BRANCH  15  44
HETATM   44  O   UNL     1     -12.898  10.326  71.102  1.00  0.00    -0.351 OA 
HETATM   45  C   UNL     1     -14.087  10.733  70.434  1.00  0.00     2.525 C  
ENDBRANCH  15  44
BRANCH  37  46
HETATM   46  O   UNL     1      -7.456   9.612  68.605  1.00  0.00    -0.074 OA 
HETATM   47  C   UNL     1      -6.977  10.926  68.376  1.00  0.00    -0.070 C  
ENDBRANCH  37  46
TORSDOF 2
ENDMDL
MODEL       99
REMARK 921   NORMALIZED FREE ENERGY PREDICTED BY IDOCK:   82.28 KCAL/MOL
REMARK 922        TOTAL FREE ENERGY PREDICTED BY IDOCK:   91.56 KCAL/MOL
REMARK 923 INTER-LIGAND FREE ENERGY PREDICTED BY IDOCK:   90.35 KCAL/MOL
REMARK 924 INTRA-LIGAND FREE ENERGY PREDICTED BY IDOCK:    1.21 KCAL/MOL
REMARK 927      BINDING AFFINITY PREDICTED BY RF-SCORE:    0.00 PKD
ROOT
HETATM    1  C   UNL     1      -8.762  16.567  72.031  1.00  0.00    11.217 C  
HETATM    2  C   UNL     1      -7.208  16.269  72.120  1.00  0.00     7.625 C  
HETATM    3  C   UNL     1      -6.669  14.978  71.559  1.00  0.00     1.280 A  
HETATM    4  C   UNL     1      -7.159  13.752  71.992  1.00  0.00     4.317 A  
HETATM    5  C   UNL     1      -7.216  12.694  71.093  1.00  0.00     5.035 A  
HETATM    6  C   UNL     1      -6.633  12.822  69.835  1.00  0.00     0.138 A  
HETATM    7  C   UNL     1      -5.716  13.851  69.649  1.00  0.00    -0.098 A  
HETATM    8  O   UNL     1      -7.135  11.965  68.885  1.00  0.00    -0.106 OA 
HETATM    9  C   UNL     1      -5.803  14.981  70.463  1.00  0.00    -0.126 A  
HETATM   10  C   UNL     1      -6.984  12.128  67.525  1.00  0.00    -0.138 A  
HETATM   11  C   UNL     1      -7.290  10.983  66.768  1.00  0.00    -0.139 A  
HETATM   12  C   UNL     1      -6.751  10.854  65.472  1.00  0.00     0.102 A  
HETATM   13  C   UNL     1      -6.857   9.564  64.711  1.00  0.00    -0.103 C  
HETATM   14  C   UNL     1      -6.049  11.909  64.913  1.00  0.00     3.577 A  
HETATM   15  C   UNL     1      -6.029  13.146  65.536  1.00  0.00     7.934 A  
HETATM   16  C   UNL     1      -7.935   8.598  65.176  1.00  0.00    -0.127 C  
HETATM   17  C   UNL     1      -6.574  13.258  66.818  1.00  0.00     1.376 A  
HETATM   18  C   UNL     1      -9.752  15.018  73.669  1.00  0.00     8.157 C  
HETATM   19  N   UNL     1      -8.164   8.576  66.689  1.00  0.00    -0.106 N  
HETATM   20  O   UNL     1      -6.787  14.523  67.300  1.00  0.00    -0.311 OA 
HETATM   21  N   UNL     1      -9.467  16.412  73.338  1.00  0.00    12.127 NA 
HETATM   22  C   UNL     1      -9.345   7.632  66.950  1.00  0.00    -0.161 C  
HETATM   23  C   UNL     1      -8.405  10.029  67.215  1.00  0.00    -0.121 C  
HETATM   24  C   UNL     1      -6.975   8.016  67.477  1.00  0.00    -0.075 C  
HETATM   25  C   UNL     1      -9.753  10.609  66.677  1.00  0.00    -0.225 C  
HETATM   26  H   UNL     1      -6.508  15.293  66.817  1.00  0.00     0.000 HD 
HETATM   27  C   UNL     1     -10.775  10.887  67.742  1.00  0.00    -0.279 A  
HETATM   28  C   UNL     1     -10.539  11.964  68.588  1.00  0.00    -0.259 A  
HETATM   29  C   UNL     1     -11.562  12.516  69.360  1.00  0.00    -0.305 A  
HETATM   30  C   UNL     1     -12.728  11.772  69.514  1.00  0.00     0.505 A  
HETATM   31  O   UNL     1     -11.366  13.751  69.940  1.00  0.00    -0.196 OA 
HETATM   32  C   UNL     1     -10.504  14.676  69.175  1.00  0.00    -0.233 C  
HETATM   33  C   UNL     1     -12.970  10.624  68.721  1.00  0.00     2.543 A  
HETATM   34  O   UNL     1     -13.637  12.084  70.482  1.00  0.00     1.070 OA 
HETATM   35  C   UNL     1     -12.006  10.230  67.781  1.00  0.00     1.485 A  
HETATM   36  H   UNL     1     -14.432  11.575  70.588  1.00  0.00     0.000 HD 
HETATM   37  C   UNL     1     -11.201  15.756  68.662  1.00  0.00    -0.351 C  
HETATM   38  C   UNL     1     -11.666  16.657  69.610  1.00  0.00     0.484 C  
HETATM   39  C   UNL     1     -10.693  17.238  73.324  1.00  0.00     4.230 C  
HETATM   40  C   UNL     1      -9.444  15.114  69.960  1.00  0.00     0.168 C  
HETATM   41  C   UNL     1     -10.972  16.682  70.835  1.00  0.00     0.308 C  
HETATM   42  C   UNL     1      -9.685  16.105  70.901  1.00  0.00     2.136 C  
HETATM   43  C   UNL     1     -11.651  17.060  72.125  1.00  0.00     0.610 C  
ENDROOT
BRANCH  15  44
HETATM   44  O   UNL     1      -5.495  14.299  65.024  1.00  0.00    12.802 OA 
HETATM   45  C   UNL     1      -5.223  15.336  65.959  1.00  0.00     4.955 C  
ENDBRANCH  15  44
BRANCH  37  46
HETATM   46  O   UNL     1     -10.711  16.143  67.424  1.00  0.00    -0.312 OA 
HETATM   47  C   UNL     1     -10.822  17.503  67.040  1.00  0.00    -0.054 C  
ENDBRANCH  37  46
TORSDOF 2
ENDMDL
MODEL      100
REMARK 921   NORMALIZED FREE ENERGY PREDICTED BY IDOCK:   82.86 KCAL/MOL
REMARK 922        TOTAL FREE ENERGY PREDICTED BY IDOCK:   92.21 KCAL/MOL
REMARK 923 INTER-LIGAND FREE ENERGY PREDICTED BY IDOCK:   92.50 KCAL/MOL
REMARK 924 INTRA-LIGAND FREE ENERGY PREDICTED BY IDOCK:   -0.29 KCAL/MOL
REMARK 927      BINDING AFFINITY PREDICTED BY RF-SCORE:    0.00 PKD
ROOT
HETATM    1  C   UNL     1      -7.659  13.421  72.032  1.00  0.00     8.562 C  
HETATM    2  C   UNL     1      -6.319  13.441  71.186  1.00  0.00     0.806 C  
HETATM    3  C   UNL     1      -5.889  12.197  70.451  1.00  0.00    -0.154 A  
HETATM    4  C   UNL     1      -5.712  10.995  71.124  1.00  0.00     0.082 A  
HETATM    5  C   UNL     1      -5.999   9.806  70.466  1.00  0.00    -0.072 A  
HETATM    6  C   UNL     1      -6.293   9.821  69.104  1.00  0.00    -0.040 A  
HETATM    7  C   UNL     1      -5.945  10.957  68.381  1.00  0.00    -0.042 A  
HETATM    8  O   UNL     1      -7.009   8.734  68.665  1.00  0.00    -0.062 OA 
HETATM    9  C   UNL     1      -5.838  12.174  69.055  1.00  0.00    -0.065 A  
HETATM   10  C   UNL     1      -7.707   8.683  67.479  1.00  0.00    -0.098 A  
HETATM   11  C   UNL     1      -8.087   7.388  67.084  1.00  0.00    -0.114 A  
HETATM   12  C   UNL     1      -8.371   7.140  65.727  1.00  0.00    -0.144 A  
HETATM   13  C   UNL     1      -8.559   5.742  65.214  1.00  0.00    -0.129 C  
HETATM   14  C   UNL     1      -8.411   8.195  64.830  1.00  0.00    -0.064 A  
HETATM   15  C   UNL     1      -8.356   9.502  65.284  1.00  0.00    -0.139 A  
HETATM   16  C   UNL     1      -8.890   4.685  66.256  1.00  0.00    -0.113 C  
HETATM   17  C   UNL     1      -8.079   9.730  66.635  1.00  0.00    -0.116 A  
HETATM   18  C   UNL     1      -7.103  12.020  73.980  1.00  0.00     8.292 C  
HETATM   19  N   UNL     1      -8.201   4.882  67.608  1.00  0.00    -0.105 N  
HETATM   20  O   UNL     1      -8.293  10.996  67.113  1.00  0.00    -0.126 OA 
HETATM   21  N   UNL     1      -7.424  13.364  73.505  1.00  0.00     6.255 NA 
HETATM   22  C   UNL     1      -8.734   3.792  68.548  1.00  0.00    -0.102 C  
HETATM   23  C   UNL     1      -8.459   6.333  68.134  1.00  0.00    -0.114 C  
HETATM   24  C   UNL     1      -6.681   4.702  67.549  1.00  0.00    -0.051 C  
HETATM   25  C   UNL     1      -9.967   6.546  68.489  1.00  0.00    -0.148 C  
HETATM   26  H   UNL     1      -8.546  11.710  66.539  1.00  0.00     0.000 HD 
HETATM   27  C   UNL     1     -10.228   6.807  69.944  1.00  0.00    -0.211 A  
HETATM   28  C   UNL     1      -9.836   8.038  70.453  1.00  0.00    -0.183 A  
HETATM   29  C   UNL     1     -10.336   8.512  71.666  1.00  0.00    -0.263 A  
HETATM   30  C   UNL     1     -10.968   7.600  72.505  1.00  0.00    -0.324 A  
HETATM   31  O   UNL     1     -10.167   9.844  71.981  1.00  0.00     0.911 OA 
HETATM   32  C   UNL     1     -10.166  10.768  70.828  1.00  0.00     1.736 C  
HETATM   33  C   UNL     1     -11.317   6.307  72.045  1.00  0.00    -0.348 A  
HETATM   34  O   UNL     1     -11.206   7.898  73.815  1.00  0.00    -0.247 OA 
HETATM   35  C   UNL     1     -11.001   5.946  70.726  1.00  0.00    -0.343 A  
HETATM   36  H   UNL     1     -11.638   7.275  74.388  1.00  0.00     0.000 HD 
HETATM   37  C   UNL     1     -11.278  11.592  70.801  1.00  0.00     1.122 C  
HETATM   38  C   UNL     1     -11.330  12.539  71.814  1.00  0.00     4.290 C  
HETATM   39  C   UNL     1      -8.601  13.928  74.200  1.00  0.00    10.087 C  
HETATM   40  C   UNL     1      -9.002  11.528  70.815  1.00  0.00     6.295 C  
HETATM   41  C   UNL     1     -10.096  12.907  72.383  1.00  0.00    15.367 C  
HETATM   42  C   UNL     1      -8.906  12.604  71.686  1.00  0.00    18.214 C  
HETATM   43  C   UNL     1      -9.987  13.368  73.813  1.00  0.00    13.195 C  
ENDROOT
BRANCH  15  44
HETATM   44  O   UNL     1      -8.524  10.629  64.523  1.00  0.00    -0.161 OA 
HETATM   45  C   UNL     1      -9.824  10.835  63.982  1.00  0.00    -0.332 C  
ENDBRANCH  15  44
BRANCH  37  46
HETATM   46  O   UNL     1     -11.700  11.843  69.504  1.00  0.00    -0.298 OA 
HETATM   47  C   UNL     1     -13.090  11.848  69.228  1.00  0.00     1.998 C  
ENDBRANCH  37  46
TORSDOF 2
ENDMDL
MODEL      101
REMARK 921   NORMALIZED FREE ENERGY PREDICTED BY IDOCK:   87.29 KCAL/MOL
REMARK 922        TOTAL FREE ENERGY PREDICTED BY IDOCK:   97.15 KCAL/MOL
REMARK 923 INTER-LIGAND FREE ENERGY PREDICTED BY IDOCK:   97.32 KCAL/MOL
REMARK 924 INTRA-LIGAND FREE ENERGY PREDICTED BY IDOCK:   -0.16 KCAL/MOL
REMARK 927      BINDING AFFINITY PREDICTED BY RF-SCORE:    0.00 PKD
ROOT
HETATM    1  C   UNL     1     -12.176   3.787  69.103  1.00  0.00    17.501 C  
HETATM    2  C   UNL     1     -12.959   4.714  68.083  1.00  0.00    20.645 C  
HETATM    3  C   UNL     1     -12.571   6.165  67.953  1.00  0.00     7.413 A  
HETATM    4  C   UNL     1     -12.566   7.004  69.061  1.00  0.00     3.517 A  
HETATM    5  C   UNL     1     -11.627   8.027  69.126  1.00  0.00     0.918 A  
HETATM    6  C   UNL     1     -10.827   8.304  68.020  1.00  0.00     0.059 A  
HETATM    7  C   UNL     1     -11.229   7.797  66.788  1.00  0.00     0.999 A  
HETATM    8  O   UNL     1      -9.656   8.960  68.315  1.00  0.00    -0.143 OA 
HETATM    9  C   UNL     1     -12.032   6.657  66.762  1.00  0.00     2.585 A  
HETATM   10  C   UNL     1      -8.566   9.031  67.477  1.00  0.00    -0.120 A  
HETATM   11  C   UNL     1      -7.621  10.009  67.837  1.00  0.00    -0.089 A  
HETATM   12  C   UNL     1      -6.736  10.501  66.858  1.00  0.00    -0.086 A  
HETATM   13  C   UNL     1      -5.866  11.695  67.125  1.00  0.00    -0.122 C  
HETATM   14  C   UNL     1      -6.712   9.921  65.600  1.00  0.00    -0.098 A  
HETATM   15  C   UNL     1      -7.414   8.752  65.355  1.00  0.00    -0.086 A  
HETATM   16  C   UNL     1      -5.639  12.045  68.587  1.00  0.00    -0.052 C  
HETATM   17  C   UNL     1      -8.283   8.274  66.340  1.00  0.00    -0.107 A  
HETATM   18  C   UNL     1     -12.940   4.567  71.311  1.00  0.00     8.687 C  
HETATM   19  N   UNL     1      -6.843  11.798  69.499  1.00  0.00    -0.073 N  
HETATM   20  O   UNL     1      -8.754   6.996  66.193  1.00  0.00    -0.137 OA 
HETATM   21  N   UNL     1     -12.957   3.478  70.337  1.00  0.00    19.844 NA 
HETATM   22  C   UNL     1      -6.391  12.105  70.932  1.00  0.00     1.078 C  
HETATM   23  C   UNL     1      -7.362  10.333  69.314  1.00  0.00    -0.099 C  
HETATM   24  C   UNL     1      -8.028  12.723  69.206  1.00  0.00     0.630 C  
HETATM   25  C   UNL     1      -6.320   9.293  69.840  1.00  0.00    -0.043 C  
HETATM   26  H   UNL     1      -8.561   6.480  65.419  1.00  0.00     0.000 HD 
HETATM   27  C   UNL     1      -6.793   8.486  71.015  1.00  0.00    -0.059 A  
HETATM   28  C   UNL     1      -7.772   7.529  70.780  1.00  0.00    -0.083 A  
HETATM   29  C   UNL     1      -8.022   6.508  71.698  1.00  0.00    -0.104 A  
HETATM   30  C   UNL     1      -7.509   6.656  72.983  1.00  0.00    -0.088 A  
HETATM   31  O   UNL     1      -8.770   5.422  71.298  1.00  0.00    -0.127 OA 
HETATM   32  C   UNL     1      -8.628   5.050  69.874  1.00  0.00    -0.098 C  
HETATM   33  C   UNL     1      -6.564   7.668  73.279  1.00  0.00    -0.072 A  
HETATM   34  O   UNL     1      -7.955   5.877  74.010  1.00  0.00    -0.105 OA 
HETATM   35  C   UNL     1      -6.158   8.540  72.257  1.00  0.00    -0.070 A  
HETATM   36  H   UNL     1      -7.605   5.978  74.888  1.00  0.00     0.000 HD 
HETATM   37  C   UNL     1      -7.981   3.839  69.700  1.00  0.00    -0.050 C  
HETATM   38  C   UNL     1      -8.693   2.727  70.126  1.00  0.00    -0.126 C  
HETATM   39  C   UNL     1     -12.459   2.212  70.915  1.00  0.00    10.819 C  
HETATM   40  C   UNL     1      -9.872   5.026  69.253  1.00  0.00    -0.266 C  
HETATM   41  C   UNL     1     -10.093   2.866  70.171  1.00  0.00     0.694 C  
HETATM   42  C   UNL     1     -10.695   3.930  69.464  1.00  0.00     2.387 C  
HETATM   43  C   UNL     1     -10.937   2.092  71.149  1.00  0.00     2.114 C  
ENDROOT
BRANCH  15  44
HETATM   44  O   UNL     1      -7.364   8.006  64.207  1.00  0.00    -0.084 OA 
HETATM   45  C   UNL     1      -8.467   8.143  63.318  1.00  0.00     0.096 C  
ENDBRANCH  15  44
BRANCH  37  46
HETATM   46  O   UNL     1      -7.184   3.842  68.565  1.00  0.00    -0.053 OA 
HETATM   47  C   UNL     1      -5.921   4.482  68.619  1.00  0.00    -0.026 C  
ENDBRANCH  37  46
TORSDOF 2
ENDMDL
MODEL      102
REMARK 921   NORMALIZED FREE ENERGY PREDICTED BY IDOCK:   88.24 KCAL/MOL
REMARK 922        TOTAL FREE ENERGY PREDICTED BY IDOCK:   98.21 KCAL/MOL
REMARK 923 INTER-LIGAND FREE ENERGY PREDICTED BY IDOCK:   98.00 KCAL/MOL
REMARK 924 INTRA-LIGAND FREE ENERGY PREDICTED BY IDOCK:    0.21 KCAL/MOL
REMARK 927      BINDING AFFINITY PREDICTED BY RF-SCORE:    0.00 PKD
ROOT
HETATM    1  C   UNL     1     -12.458  12.561  64.892  1.00  0.00    -0.450 C  
HETATM    2  C   UNL     1     -13.126  11.554  63.867  1.00  0.00     0.440 C  
HETATM    3  C   UNL     1     -12.427  10.260  63.538  1.00  0.00     6.276 A  
HETATM    4  C   UNL     1     -11.128  10.256  63.044  1.00  0.00     2.563 A  
HETATM    5  C   UNL     1     -10.283   9.205  63.381  1.00  0.00     3.766 A  
HETATM    6  C   UNL     1     -10.790   8.099  64.059  1.00  0.00    11.909 A  
HETATM    7  C   UNL     1     -12.169   7.918  64.062  1.00  0.00    23.479 A  
HETATM    8  O   UNL     1      -9.848   7.375  64.750  1.00  0.00     2.234 OA 
HETATM    9  C   UNL     1     -12.991   9.032  63.894  1.00  0.00    19.182 A  
HETATM   10  C   UNL     1     -10.133   6.476  65.754  1.00  0.00     0.816 A  
HETATM   11  C   UNL     1      -9.065   5.625  66.090  1.00  0.00    -0.158 A  
HETATM   12  C   UNL     1      -9.339   4.400  66.730  1.00  0.00    -0.173 A  
HETATM   13  C   UNL     1      -8.271   3.360  66.907  1.00  0.00    -0.092 C  
HETATM   14  C   UNL     1     -10.630   4.115  67.142  1.00  0.00     0.984 A  
HETATM   15  C   UNL     1     -11.611   5.092  67.098  1.00  0.00     3.000 A  
HETATM   16  C   UNL     1      -6.835   3.848  66.804  1.00  0.00    -0.058 C  
HETATM   17  C   UNL     1     -11.320   6.304  66.466  1.00  0.00     0.502 A  
HETATM   18  C   UNL     1     -10.547  13.487  63.645  1.00  0.00     0.815 C  
HETATM   19  N   UNL     1      -6.610   4.959  65.776  1.00  0.00    -0.043 N  
HETATM   20  O   UNL     1     -12.193   7.341  66.667  1.00  0.00     2.125 OA 
HETATM   21  N   UNL     1     -11.856  13.758  64.234  1.00  0.00    -0.415 NA 
HETATM   22  C   UNL     1      -5.141   5.387  65.892  1.00  0.00    -0.005 C  
HETATM   23  C   UNL     1      -7.617   6.131  66.025  1.00  0.00    -0.087 C  
HETATM   24  C   UNL     1      -6.819   4.502  64.329  1.00  0.00    -0.045 C  
HETATM   25  C   UNL     1      -7.319   6.855  67.378  1.00  0.00    -0.092 C  
HETATM   26  H   UNL     1     -13.002   7.224  67.152  1.00  0.00     0.000 HD 
HETATM   27  C   UNL     1      -6.892   8.287  67.230  1.00  0.00    -0.070 A  
HETATM   28  C   UNL     1      -7.860   9.206  66.842  1.00  0.00    -0.098 A  
HETATM   29  C   UNL     1      -7.668  10.577  67.014  1.00  0.00    -0.110 A  
HETATM   30  C   UNL     1      -6.374  11.020  67.273  1.00  0.00    -0.069 A  
HETATM   31  O   UNL     1      -8.752  11.420  66.905  1.00  0.00    -0.154 OA 
HETATM   32  C   UNL     1     -10.043  10.845  67.340  1.00  0.00    -0.191 C  
HETATM   33  C   UNL     1      -5.343  10.107  67.599  1.00  0.00    -0.037 A  
HETATM   34  O   UNL     1      -6.046  12.338  67.149  1.00  0.00    -0.150 OA 
HETATM   35  C   UNL     1      -5.636   8.735  67.643  1.00  0.00    -0.039 A  
HETATM   36  H   UNL     1      -5.163  12.641  67.326  1.00  0.00     0.000 HD 
HETATM   37  C   UNL     1     -10.530  11.435  68.493  1.00  0.00    -0.203 C  
HETATM   38  C   UNL     1     -10.939  12.753  68.350  1.00  0.00    -0.281 C  
HETATM   39  C   UNL     1     -11.803  14.867  65.210  1.00  0.00    -0.217 C  
HETATM   40  C   UNL     1     -10.982  10.933  66.319  1.00  0.00    -0.130 C  
HETATM   41  C   UNL     1     -11.309  13.150  67.051  1.00  0.00    -0.349 C  
HETATM   42  C   UNL     1     -11.596  12.155  66.090  1.00  0.00    -0.418 C  
HETATM   43  C   UNL     1     -11.154  14.572  66.580  1.00  0.00    -0.333 C  
ENDROOT
BRANCH  15  44
HETATM   44  O   UNL     1     -12.880   4.985  67.602  1.00  0.00    11.663 OA 
HETATM   45  C   UNL     1     -13.180   5.794  68.733  1.00  0.00    13.170 C  
ENDBRANCH  15  44
BRANCH  37  46
HETATM   46  O   UNL     1     -11.189  10.519  69.299  1.00  0.00    -0.231 OA 
HETATM   47  C   UNL     1     -12.416  10.897  69.900  1.00  0.00    -0.224 C  
ENDBRANCH  37  46
TORSDOF 2
ENDMDL
MODEL      103
REMARK 921   NORMALIZED FREE ENERGY PREDICTED BY IDOCK:   93.44 KCAL/MOL
REMARK 922        TOTAL FREE ENERGY PREDICTED BY IDOCK:  104.03 KCAL/MOL
REMARK 923 INTER-LIGAND FREE ENERGY PREDICTED BY IDOCK:  104.03 KCAL/MOL
REMARK 924 INTRA-LIGAND FREE ENERGY PREDICTED BY IDOCK:    0.00 KCAL/MOL
REMARK 927      BINDING AFFINITY PREDICTED BY RF-SCORE:    0.00 PKD
ROOT
HETATM    1  C   UNL     1     -11.495  14.250  64.837  1.00  0.00    -0.378 C  
HETATM    2  C   UNL     1     -12.216  15.606  64.446  1.00  0.00    -0.022 C  
HETATM    3  C   UNL     1     -12.629  16.565  65.533  1.00  0.00     3.776 A  
HETATM    4  C   UNL     1     -13.463  16.156  66.567  1.00  0.00     6.418 A  
HETATM    5  C   UNL     1     -13.296  16.716  67.828  1.00  0.00     5.982 A  
HETATM    6  C   UNL     1     -12.424  17.789  67.999  1.00  0.00     4.462 A  
HETATM    7  C   UNL     1     -12.026  18.486  66.864  1.00  0.00     2.960 A  
HETATM    8  O   UNL     1     -11.970  17.952  69.286  1.00  0.00     3.000 OA 
HETATM    9  C   UNL     1     -12.040  17.827  65.634  1.00  0.00     4.839 A  
HETATM   10  C   UNL     1     -10.862  18.692  69.637  1.00  0.00     1.727 A  
HETATM   11  C   UNL     1     -10.774  18.986  71.010  1.00  0.00     2.973 A  
HETATM   12  C   UNL     1      -9.995  20.083  71.427  1.00  0.00     2.411 A  
HETATM   13  C   UNL     1     -10.044  20.578  72.843  1.00  0.00     4.735 C  
HETATM   14  C   UNL     1      -9.219  20.765  70.503  1.00  0.00     2.234 A  
HETATM   15  C   UNL     1      -9.062  20.270  69.220  1.00  0.00     0.649 A  
HETATM   16  C   UNL     1     -10.578  19.599  73.877  1.00  0.00     4.969 C  
HETATM   17  C   UNL     1      -9.839  19.177  68.824  1.00  0.00    -0.439 A  
HETATM   18  C   UNL     1     -13.288  12.901  65.850  1.00  0.00     2.004 C  
HETATM   19  N   UNL     1     -11.707  18.695  73.379  1.00  0.00     2.908 N  
HETATM   20  O   UNL     1      -9.481  18.542  67.664  1.00  0.00    -0.274 OA 
HETATM   21  N   UNL     1     -12.381  13.055  64.715  1.00  0.00    -0.465 NA 
HETATM   22  C   UNL     1     -12.036  17.719  74.515  1.00  0.00     0.788 C  
HETATM   23  C   UNL     1     -11.276  17.981  72.055  1.00  0.00     2.926 C  
HETATM   24  C   UNL     1     -13.001  19.453  73.066  1.00  0.00    19.123 C  
HETATM   25  C   UNL     1     -10.117  16.964  72.312  1.00  0.00     6.462 C  
HETATM   26  H   UNL     1      -8.783  18.872  67.110  1.00  0.00     0.000 HD 
HETATM   27  C   UNL     1     -10.483  15.532  72.051  1.00  0.00     1.399 A  
HETATM   28  C   UNL     1     -10.655  15.147  70.727  1.00  0.00    -0.010 A  
HETATM   29  C   UNL     1     -10.644  13.802  70.357  1.00  0.00     1.466 A  
HETATM   30  C   UNL     1     -10.789  12.854  71.364  1.00  0.00     5.346 A  
HETATM   31  O   UNL     1     -10.511  13.480  69.023  1.00  0.00    -0.172 OA 
HETATM   32  C   UNL     1      -9.693  14.420  68.227  1.00  0.00    -0.222 C  
HETATM   33  C   UNL     1     -10.695  13.220  72.729  1.00  0.00     9.602 A  
HETATM   34  O   UNL     1     -11.096  11.557  71.070  1.00  0.00     0.656 OA 
HETATM   35  C   UNL     1     -10.469  14.565  73.058  1.00  0.00     4.206 A  
HETATM   36  H   UNL     1     -11.195  10.910  71.758  1.00  0.00     0.000 HD 
HETATM   37  C   UNL     1      -8.497  13.865  67.807  1.00  0.00    -0.183 C  
HETATM   38  C   UNL     1      -8.619  12.858  66.860  1.00  0.00    -0.132 C  
HETATM   39  C   UNL     1     -11.543  11.854  64.512  1.00  0.00    -0.271 C  
HETATM   40  C   UNL     1     -10.417  14.890  67.138  1.00  0.00    -0.271 C  
HETATM   41  C   UNL     1      -9.790  12.879  66.078  1.00  0.00    -0.256 C  
HETATM   42  C   UNL     1     -10.556  14.065  66.032  1.00  0.00    -0.297 C  
HETATM   43  C   UNL     1     -10.389  11.620  65.511  1.00  0.00    -0.309 C  
ENDROOT
BRANCH  15  44
HETATM   44  O   UNL     1      -8.220  20.767  68.261  1.00  0.00     0.247 OA 
HETATM   45  C   UNL     1      -6.991  20.072  68.080  1.00  0.00    -0.295 C  
ENDBRANCH  15  44
BRANCH  37  46
HETATM   46  O   UNL     1      -7.474  14.801  67.792  1.00  0.00    -0.130 OA 
HETATM   47  C   UNL     1      -6.783  15.076  68.999  1.00  0.00    -0.116 C  
ENDBRANCH  37  46
TORSDOF 2
ENDMDL
MODEL      104
REMARK 921   NORMALIZED FREE ENERGY PREDICTED BY IDOCK:   97.46 KCAL/MOL
REMARK 922        TOTAL FREE ENERGY PREDICTED BY IDOCK:  108.51 KCAL/MOL
REMARK 923 INTER-LIGAND FREE ENERGY PREDICTED BY IDOCK:  108.70 KCAL/MOL
REMARK 924 INTRA-LIGAND FREE ENERGY PREDICTED BY IDOCK:   -0.19 KCAL/MOL
REMARK 927      BINDING AFFINITY PREDICTED BY RF-SCORE:    0.00 PKD
ROOT
HETATM    1  C   UNL     1      -8.059  12.789  68.795  1.00  0.00     0.090 C  
HETATM    2  C   UNL     1      -7.776  11.846  70.037  1.00  0.00     1.788 C  
HETATM    3  C   UNL     1      -8.403  10.476  70.084  1.00  0.00     0.574 A  
HETATM    4  C   UNL     1      -9.780  10.318  69.990  1.00  0.00    -0.030 A  
HETATM    5  C   UNL     1     -10.286   9.185  69.363  1.00  0.00    -0.212 A  
HETATM    6  C   UNL     1      -9.424   8.154  68.995  1.00  0.00    -0.155 A  
HETATM    7  C   UNL     1      -8.161   8.129  69.575  1.00  0.00    -0.119 A  
HETATM    8  O   UNL     1      -9.905   7.341  67.997  1.00  0.00    -0.139 OA 
HETATM    9  C   UNL     1      -7.611   9.326  70.036  1.00  0.00    -0.099 A  
HETATM   10  C   UNL     1      -9.129   6.497  67.233  1.00  0.00    -0.117 A  
HETATM   11  C   UNL     1      -9.858   5.537  66.509  1.00  0.00    -0.194 A  
HETATM   12  C   UNL     1      -9.209   4.362  66.082  1.00  0.00    -0.141 A  
HETATM   13  C   UNL     1      -9.983   3.211  65.507  1.00  0.00     0.279 C  
HETATM   14  C   UNL     1      -7.841   4.231  66.256  1.00  0.00    -0.095 A  
HETATM   15  C   UNL     1      -7.082   5.311  66.675  1.00  0.00    -0.069 A  
HETATM   16  C   UNL     1     -11.374   3.533  64.985  1.00  0.00     1.752 C  
HETATM   17  C   UNL     1      -7.742   6.472  67.089  1.00  0.00    -0.100 A  
HETATM   18  C   UNL     1     -10.405  13.472  69.098  1.00  0.00     0.092 C  
HETATM   19  N   UNL     1     -12.129   4.594  65.789  1.00  0.00     3.163 N  
HETATM   20  O   UNL     1      -6.984   7.603  67.239  1.00  0.00    -0.078 OA 
HETATM   21  N   UNL     1      -9.008  13.899  69.103  1.00  0.00     0.251 NA 
HETATM   22  C   UNL     1     -13.451   4.856  65.055  1.00  0.00     9.697 C  
HETATM   23  C   UNL     1     -11.245   5.875  65.947  1.00  0.00     1.272 C  
HETATM   24  C   UNL     1     -12.497   4.138  67.204  1.00  0.00    15.312 C  
HETATM   25  C   UNL     1     -11.026   6.584  64.571  1.00  0.00     7.975 C  
HETATM   26  H   UNL     1      -6.038   7.586  67.141  1.00  0.00     0.000 HD 
HETATM   27  C   UNL     1     -11.629   7.957  64.481  1.00  0.00    16.082 A  
HETATM   28  C   UNL     1     -11.020   8.971  65.209  1.00  0.00     4.224 A  
HETATM   29  C   UNL     1     -11.271  10.315  64.928  1.00  0.00     1.784 A  
HETATM   30  C   UNL     1     -12.376  10.614  64.138  1.00  0.00     3.785 A  
HETATM   31  O   UNL     1     -10.431  11.273  65.454  1.00  0.00    -0.259 OA 
HETATM   32  C   UNL     1      -9.022  10.854  65.617  1.00  0.00    -0.194 C  
HETATM   33  C   UNL     1     -13.070   9.596  63.440  1.00  0.00    13.038 A  
HETATM   34  O   UNL     1     -12.868  11.885  64.071  1.00  0.00    -0.474 OA 
HETATM   35  C   UNL     1     -12.637   8.267  63.566  1.00  0.00    24.286 A  
HETATM   36  H   UNL     1     -13.623  12.089  63.532  1.00  0.00     0.000 HD 
HETATM   37  C   UNL     1      -8.164  11.514  64.755  1.00  0.00     0.946 C  
HETATM   38  C   UNL     1      -8.000  12.868  65.015  1.00  0.00     4.833 C  
HETATM   39  C   UNL     1      -8.768  15.012  68.159  1.00  0.00    -0.165 C  
HETATM   40  C   UNL     1      -8.614  11.030  66.934  1.00  0.00    -0.143 C  
HETATM   41  C   UNL     1      -8.254  13.282  66.336  1.00  0.00     0.722 C  
HETATM   42  C   UNL     1      -8.289  12.310  67.360  1.00  0.00    -0.177 C  
HETATM   43  C   UNL     1      -8.747  14.669  66.653  1.00  0.00    -0.197 C  
ENDROOT
BRANCH  15  44
HETATM   44  O   UNL     1      -5.715   5.355  66.753  1.00  0.00    -0.016 OA 
HETATM   45  C   UNL     1      -5.146   5.063  68.024  1.00  0.00    -0.003 C  
ENDBRANCH  15  44
BRANCH  37  46
HETATM   46  O   UNL     1      -7.132  10.692  64.328  1.00  0.00     0.052 OA 
HETATM   47  C   UNL     1      -7.062  10.341  62.957  1.00  0.00    -0.119 C  
ENDBRANCH  37  46
TORSDOF 2
ENDMDL
MODEL      105
REMARK 921   NORMALIZED FREE ENERGY PREDICTED BY IDOCK:  104.96 KCAL/MOL
REMARK 922        TOTAL FREE ENERGY PREDICTED BY IDOCK:  116.89 KCAL/MOL
REMARK 923 INTER-LIGAND FREE ENERGY PREDICTED BY IDOCK:  116.42 KCAL/MOL
REMARK 924 INTRA-LIGAND FREE ENERGY PREDICTED BY IDOCK:    0.47 KCAL/MOL
REMARK 927      BINDING AFFINITY PREDICTED BY RF-SCORE:    0.00 PKD
ROOT
HETATM    1  C   UNL     1     -13.071   9.073  71.480  1.00  0.00    -0.335 C  
HETATM    2  C   UNL     1     -13.890   9.097  70.123  1.00  0.00     1.625 C  
HETATM    3  C   UNL     1     -13.394   9.937  68.974  1.00  0.00     4.438 A  
HETATM    4  C   UNL     1     -13.174  11.300  69.129  1.00  0.00     2.344 A  
HETATM    5  C   UNL     1     -12.148  11.902  68.411  1.00  0.00    -0.086 A  
HETATM    6  C   UNL     1     -11.471  11.180  67.431  1.00  0.00    -0.180 A  
HETATM    7  C   UNL     1     -12.068  10.016  66.959  1.00  0.00     3.985 A  
HETATM    8  O   UNL     1     -10.219  11.661  67.133  1.00  0.00    -0.207 OA 
HETATM    9  C   UNL     1     -12.967   9.341  67.785  1.00  0.00    11.173 A  
HETATM   10  C   UNL     1      -9.240  10.945  66.480  1.00  0.00    -0.171 A  
HETATM   11  C   UNL     1      -8.175  11.726  65.998  1.00  0.00     0.251 A  
HETATM   12  C   UNL     1      -7.379  11.228  64.947  1.00  0.00     1.018 A  
HETATM   13  C   UNL     1      -6.380  12.102  64.247  1.00  0.00     6.073 C  
HETATM   14  C   UNL     1      -7.566   9.930  64.501  1.00  0.00    -0.139 A  
HETATM   15  C   UNL     1      -8.394   9.063  65.194  1.00  0.00    -0.158 A  
HETATM   16  C   UNL     1      -5.940  13.350  64.996  1.00  0.00    12.880 C  
HETATM   17  C   UNL     1      -9.172   9.573  66.238  1.00  0.00    -0.172 A  
HETATM   18  C   UNL     1     -13.478  11.297  72.453  1.00  0.00     0.322 C  
HETATM   19  N   UNL     1      -7.037  14.016  65.830  1.00  0.00     5.873 N  
HETATM   20  O   UNL     1      -9.770   8.666  67.074  1.00  0.00    -0.168 OA 
HETATM   21  N   UNL     1     -13.715   9.861  72.571  1.00  0.00    -0.162 NA 
HETATM   22  C   UNL     1      -6.382  15.180  66.585  1.00  0.00     1.855 C  
HETATM   23  C   UNL     1      -7.704  12.962  66.775  1.00  0.00     0.340 C  
HETATM   24  C   UNL     1      -8.162  14.620  64.984  1.00  0.00     6.370 C  
HETATM   25  C   UNL     1      -6.701  12.468  67.868  1.00  0.00    -0.103 C  
HETATM   26  H   UNL     1      -9.723   7.731  66.910  1.00  0.00     0.000 HD 
HETATM   27  C   UNL     1      -7.092  12.826  69.272  1.00  0.00     0.103 A  
HETATM   28  C   UNL     1      -8.175  12.154  69.826  1.00  0.00     1.845 A  
HETATM   29  C   UNL     1      -8.397  12.150  71.203  1.00  0.00    10.547 A  
HETATM   30  C   UNL     1      -7.716  13.090  71.970  1.00  0.00    11.143 A  
HETATM   31  O   UNL     1      -9.284  11.237  71.731  1.00  0.00     9.055 OA 
HETATM   32  C   UNL     1      -9.356   9.944  71.017  1.00  0.00     0.745 C  
HETATM   33  C   UNL     1      -6.654  13.849  71.420  1.00  0.00     1.170 A  
HETATM   34  O   UNL     1      -8.096  13.359  73.252  1.00  0.00     8.423 OA 
HETATM   35  C   UNL     1      -6.304  13.654  70.075  1.00  0.00    -0.065 A  
HETATM   36  H   UNL     1      -7.631  14.001  73.776  1.00  0.00     0.000 HD 
HETATM   37  C   UNL     1      -8.846   8.893  71.760  1.00  0.00    -0.101 C  
HETATM   38  C   UNL     1      -9.596   8.546  72.875  1.00  0.00    -0.187 C  
HETATM   39  C   UNL     1     -13.263   9.332  73.876  1.00  0.00     5.092 C  
HETATM   40  C   UNL     1     -10.665   9.674  70.634  1.00  0.00    -0.388 C  
HETATM   41  C   UNL     1     -10.961   8.887  72.836  1.00  0.00     0.885 C  
HETATM   42  C   UNL     1     -11.550   9.202  71.592  1.00  0.00    -0.449 C  
HETATM   43  C   UNL     1     -11.741   9.185  74.090  1.00  0.00     9.081 C  
ENDROOT
BRANCH  15  44
HETATM   44  O   UNL     1      -8.556   7.727  64.943  1.00  0.00    -0.059 OA 
HETATM   45  C   UNL     1      -9.896   7.269  64.799  1.00  0.00     3.101 C  
ENDBRANCH  15  44
BRANCH  37  46
HETATM   46  O   UNL     1      -8.202   7.963  70.958  1.00  0.00    -0.095 OA 
HETATM   47  C   UNL     1      -7.714   8.375  69.693  1.00  0.00    -0.095 C  
ENDBRANCH  37  46
TORSDOF 2
ENDMDL
MODEL      106
REMARK 921   NORMALIZED FREE ENERGY PREDICTED BY IDOCK:  108.46 KCAL/MOL
REMARK 922        TOTAL FREE ENERGY PREDICTED BY IDOCK:  120.80 KCAL/MOL
REMARK 923 INTER-LIGAND FREE ENERGY PREDICTED BY IDOCK:  119.34 KCAL/MOL
REMARK 924 INTRA-LIGAND FREE ENERGY PREDICTED BY IDOCK:    1.46 KCAL/MOL
REMARK 927      BINDING AFFINITY PREDICTED BY RF-SCORE:    0.00 PKD
ROOT
HETATM    1  C   UNL     1     -10.702  11.859  64.166  1.00  0.00    -0.351 C  
HETATM    2  C   UNL     1      -9.144  11.620  64.005  1.00  0.00     0.254 C  
HETATM    3  C   UNL     1      -8.258  11.668  65.224  1.00  0.00     0.762 A  
HETATM    4  C   UNL     1      -8.230  12.791  66.042  1.00  0.00     1.145 A  
HETATM    5  C   UNL     1      -8.020  12.624  67.406  1.00  0.00    -0.177 A  
HETATM    6  C   UNL     1      -7.675  11.371  67.906  1.00  0.00    -0.114 A  
HETATM    7  C   UNL     1      -7.206  10.422  67.003  1.00  0.00    -0.093 A  
HETATM    8  O   UNL     1      -7.955  11.193  69.239  1.00  0.00    -0.092 OA 
HETATM    9  C   UNL     1      -7.586  10.525  65.664  1.00  0.00    -0.134 A  
HETATM   10  C   UNL     1      -8.035   9.970  69.866  1.00  0.00    -0.171 A  
HETATM   11  C   UNL     1      -8.009  10.036  71.271  1.00  0.00     1.610 A  
HETATM   12  C   UNL     1      -7.619   8.898  72.004  1.00  0.00     0.064 A  
HETATM   13  C   UNL     1      -7.357   8.976  73.480  1.00  0.00     0.476 C  
HETATM   14  C   UNL     1      -7.405   7.698  71.346  1.00  0.00    -0.074 A  
HETATM   15  C   UNL     1      -7.745   7.561  70.010  1.00  0.00    -0.094 A  
HETATM   16  C   UNL     1      -7.963  10.166  74.207  1.00  0.00     5.381 C  
HETATM   17  C   UNL     1      -8.136   8.700  69.300  1.00  0.00    -0.112 A  
HETATM   18  C   UNL     1     -10.880  14.267  64.650  1.00  0.00    -0.368 C  
HETATM   19  N   UNL     1      -7.985  11.465  73.398  1.00  0.00    16.283 N  
HETATM   20  O   UNL     1      -8.720   8.504  68.075  1.00  0.00    -0.140 OA 
HETATM   21  N   UNL     1     -11.144  13.201  63.686  1.00  0.00    -0.244 NA 
HETATM   22  C   UNL     1      -8.720  12.510  74.248  1.00  0.00    15.901 C  
HETATM   23  C   UNL     1      -8.656  11.217  72.006  1.00  0.00    13.794 C  
HETATM   24  C   UNL     1      -6.591  12.032  73.117  1.00  0.00     6.430 C  
HETATM   25  C   UNL     1     -10.177  10.888  72.161  1.00  0.00     8.740 C  
HETATM   26  H   UNL     1      -8.789   7.638  67.689  1.00  0.00     0.000 HD 
HETATM   27  C   UNL     1     -11.094  11.908  71.552  1.00  0.00     4.382 A  
HETATM   28  C   UNL     1     -11.151  11.969  70.165  1.00  0.00     0.445 A  
HETATM   29  C   UNL     1     -12.202  12.613  69.511  1.00  0.00    -0.090 A  
HETATM   30  C   UNL     1     -13.005  13.465  70.263  1.00  0.00     0.251 A  
HETATM   31  O   UNL     1     -12.384  12.390  68.163  1.00  0.00    -0.200 OA 
HETATM   32  C   UNL     1     -12.000  11.043  67.690  1.00  0.00     0.412 C  
HETATM   33  C   UNL     1     -12.923  13.486  71.676  1.00  0.00    -0.447 A  
HETATM   34  O   UNL     1     -13.842  14.356  69.658  1.00  0.00     1.463 OA 
HETATM   35  C   UNL     1     -12.003  12.642  72.317  1.00  0.00     2.429 A  
HETATM   36  H   UNL     1     -14.390  14.939  70.171  1.00  0.00     0.000 HD 
HETATM   37  C   UNL     1     -13.088  10.285  67.294  1.00  0.00    10.698 C  
HETATM   38  C   UNL     1     -13.721  10.727  66.141  1.00  0.00    15.317 C  
HETATM   39  C   UNL     1     -12.575  13.132  63.318  1.00  0.00    -0.005 C  
HETATM   40  C   UNL     1     -11.075  11.137  66.657  1.00  0.00    -0.255 C  
HETATM   41  C   UNL     1     -12.938  11.494  65.258  1.00  0.00     3.182 C  
HETATM   42  C   UNL     1     -11.533  11.459  65.388  1.00  0.00     0.028 C  
HETATM   43  C   UNL     1     -13.546  12.542  64.364  1.00  0.00     1.170 C  
ENDROOT
BRANCH  15  44
HETATM   44  O   UNL     1      -7.716   6.400  69.285  1.00  0.00    -0.097 OA 
HETATM   45  C   UNL     1      -7.237   6.503  67.948  1.00  0.00    -0.087 C  
ENDBRANCH  15  44
BRANCH  37  46
HETATM   46  O   UNL     1     -12.917   8.943  67.601  1.00  0.00     9.069 OA 
HETATM   47  C   UNL     1     -11.702   8.310  67.240  1.00  0.00     2.996 C  
ENDBRANCH  37  46
TORSDOF 2
ENDMDL
MODEL      107
REMARK 921   NORMALIZED FREE ENERGY PREDICTED BY IDOCK:  110.41 KCAL/MOL
REMARK 922        TOTAL FREE ENERGY PREDICTED BY IDOCK:  122.98 KCAL/MOL
REMARK 923 INTER-LIGAND FREE ENERGY PREDICTED BY IDOCK:  121.32 KCAL/MOL
REMARK 924 INTRA-LIGAND FREE ENERGY PREDICTED BY IDOCK:    1.65 KCAL/MOL
REMARK 927      BINDING AFFINITY PREDICTED BY RF-SCORE:    0.00 PKD
ROOT
HETATM    1  C   UNL     1      -9.619  11.834  64.170  1.00  0.00    -0.072 C  
HETATM    2  C   UNL     1      -8.055  11.819  64.424  1.00  0.00     1.859 C  
HETATM    3  C   UNL     1      -7.408  12.983  65.131  1.00  0.00     7.491 A  
HETATM    4  C   UNL     1      -7.545  14.278  64.646  1.00  0.00    13.732 A  
HETATM    5  C   UNL     1      -7.587  15.334  65.548  1.00  0.00     5.249 A  
HETATM    6  C   UNL     1      -7.324  15.104  66.897  1.00  0.00     0.213 A  
HETATM    7  C   UNL     1      -6.686  13.915  67.237  1.00  0.00     0.214 A  
HETATM    8  O   UNL     1      -7.842  16.051  67.747  1.00  0.00    -0.133 OA 
HETATM    9  C   UNL     1      -6.815  12.818  66.385  1.00  0.00     1.771 A  
HETATM   10  C   UNL     1      -8.021  15.873  69.101  1.00  0.00    -0.233 A  
HETATM   11  C   UNL     1      -8.254  17.061  69.815  1.00  0.00     1.073 A  
HETATM   12  C   UNL     1      -7.992  17.093  71.199  1.00  0.00     6.959 A  
HETATM   13  C   UNL     1      -8.006  18.384  71.965  1.00  0.00    10.338 C  
HETATM   14  C   UNL     1      -7.646  15.924  71.859  1.00  0.00     6.631 A  
HETATM   15  C   UNL     1      -7.733  14.703  71.212  1.00  0.00     2.909 A  
HETATM   16  C   UNL     1      -8.749  19.540  71.315  1.00  0.00     3.501 C  
HETATM   17  C   UNL     1      -8.001  14.690  69.840  1.00  0.00     0.367 A  
HETATM   18  C   UNL     1      -9.912  13.535  62.414  1.00  0.00     9.349 C  
HETATM   19  N   UNL     1      -8.639  19.595  69.790  1.00  0.00     0.453 N  
HETATM   20  O   UNL     1      -8.348  13.488  69.281  1.00  0.00    -0.225 OA 
HETATM   21  N   UNL     1      -9.982  12.115  62.750  1.00  0.00     0.111 NA 
HETATM   22  C   UNL     1      -9.530  20.751  69.316  1.00  0.00     1.339 C  
HETATM   23  C   UNL     1      -9.040  18.213  69.174  1.00  0.00     0.091 C  
HETATM   24  C   UNL     1      -7.224  19.902  69.292  1.00  0.00    -0.206 C  
HETATM   25  C   UNL     1     -10.559  17.915  69.394  1.00  0.00     0.376 C  
HETATM   26  H   UNL     1      -8.334  12.682  69.785  1.00  0.00     0.000 HD 
HETATM   27  C   UNL     1     -11.361  17.835  68.127  1.00  0.00     0.600 A  
HETATM   28  C   UNL     1     -11.163  16.726  67.314  1.00  0.00     0.204 A  
HETATM   29  C   UNL     1     -12.084  16.381  66.324  1.00  0.00     2.148 A  
HETATM   30  C   UNL     1     -13.021  17.339  65.951  1.00  0.00     9.034 A  
HETATM   31  O   UNL     1     -12.012  15.127  65.756  1.00  0.00    -0.051 OA 
HETATM   32  C   UNL     1     -11.532  14.056  66.655  1.00  0.00    -0.364 C  
HETATM   33  C   UNL     1     -13.201  18.519  66.714  1.00  0.00     9.971 A  
HETATM   34  O   UNL     1     -13.744  17.204  64.802  1.00  0.00     7.379 OA 
HETATM   35  C   UNL     1     -12.404  18.722  67.850  1.00  0.00     4.504 A  
HETATM   36  H   UNL     1     -14.384  17.859  64.548  1.00  0.00     0.000 HD 
HETATM   37  C   UNL     1     -12.519  13.139  66.970  1.00  0.00     0.159 C  
HETATM   38  C   UNL     1     -12.935  12.340  65.915  1.00  0.00     2.009 C  
HETATM   39  C   UNL     1     -11.319  11.547  62.475  1.00  0.00     1.417 C  
HETATM   40  C   UNL     1     -10.434  13.411  66.098  1.00  0.00    -0.295 C  
HETATM   41  C   UNL     1     -12.013  12.168  64.865  1.00  0.00    -0.356 C  
HETATM   42  C   UNL     1     -10.655  12.479  65.094  1.00  0.00    -0.322 C  
HETATM   43  C   UNL     1     -12.459  11.920  63.449  1.00  0.00    -0.582 C  
ENDROOT
BRANCH  15  44
HETATM   44  O   UNL     1      -7.557  13.472  71.785  1.00  0.00     4.886 OA 
HETATM   45  C   UNL     1      -7.982  12.352  71.017  1.00  0.00     8.227 C  
ENDBRANCH  15  44
BRANCH  37  46
HETATM   46  O   UNL     1     -12.392  12.674  68.271  1.00  0.00    -0.085 OA 
HETATM   47  C   UNL     1     -11.635  13.435  69.196  1.00  0.00    -0.315 C  
ENDBRANCH  37  46
TORSDOF 2
ENDMDL
MODEL      108
REMARK 921   NORMALIZED FREE ENERGY PREDICTED BY IDOCK:  113.85 KCAL/MOL
REMARK 922        TOTAL FREE ENERGY PREDICTED BY IDOCK:  126.82 KCAL/MOL
REMARK 923 INTER-LIGAND FREE ENERGY PREDICTED BY IDOCK:  126.52 KCAL/MOL
REMARK 924 INTRA-LIGAND FREE ENERGY PREDICTED BY IDOCK:    0.30 KCAL/MOL
REMARK 927      BINDING AFFINITY PREDICTED BY RF-SCORE:    0.00 PKD
ROOT
HETATM    1  C   UNL     1      -6.085   7.544  71.034  1.00  0.00    -0.035 C  
HETATM    2  C   UNL     1      -5.244   6.965  69.822  1.00  0.00    -0.015 C  
HETATM    3  C   UNL     1      -5.908   6.786  68.480  1.00  0.00    -0.018 A  
HETATM    4  C   UNL     1      -7.055   6.014  68.349  1.00  0.00    -0.082 A  
HETATM    5  C   UNL     1      -8.004   6.373  67.398  1.00  0.00    -0.116 A  
HETATM    6  C   UNL     1      -7.720   7.387  66.486  1.00  0.00    -0.093 A  
HETATM    7  C   UNL     1      -6.389   7.756  66.323  1.00  0.00    -0.046 A  
HETATM    8  O   UNL     1      -8.829   7.983  65.935  1.00  0.00    -0.160 OA 
HETATM    9  C   UNL     1      -5.499   7.537  67.375  1.00  0.00    -0.030 A  
HETATM   10  C   UNL     1      -8.827   9.204  65.298  1.00  0.00    -0.199 A  
HETATM   11  C   UNL     1      -9.982   9.464  64.540  1.00  0.00     0.871 A  
HETATM   12  C   UNL     1      -9.921  10.413  63.501  1.00  0.00    -0.169 A  
HETATM   13  C   UNL     1     -11.048  10.567  62.520  1.00  0.00     2.146 C  
HETATM   14  C   UNL     1      -8.775  11.174  63.332  1.00  0.00     0.050 A  
HETATM   15  C   UNL     1      -7.767  11.140  64.280  1.00  0.00     0.855 A  
HETATM   16  C   UNL     1     -12.396  10.018  62.958  1.00  0.00     7.898 C  
HETATM   17  C   UNL     1      -7.847  10.196  65.308  1.00  0.00    -0.143 A  
HETATM   18  C   UNL     1      -7.610   5.704  71.625  1.00  0.00    -0.099 C  
HETATM   19  N   UNL     1     -12.325   8.740  63.796  1.00  0.00    18.393 N  
HETATM   20  O   UNL     1      -6.996  10.354  66.371  1.00  0.00    -0.099 OA 
HETATM   21  N   UNL     1      -6.461   6.506  72.039  1.00  0.00    -0.053 NA 
HETATM   22  C   UNL     1     -13.759   8.404  64.226  1.00  0.00    21.555 C  
HETATM   23  C   UNL     1     -11.350   8.945  65.003  1.00  0.00     8.110 C  
HETATM   24  C   UNL     1     -11.808   7.528  63.015  1.00  0.00    20.716 C  
HETATM   25  C   UNL     1     -11.920   9.985  66.020  1.00  0.00     4.628 C  
HETATM   26  H   UNL     1      -6.328  11.030  66.378  1.00  0.00     0.000 HD 
HETATM   27  C   UNL     1     -12.233   9.417  67.374  1.00  0.00     5.667 A  
HETATM   28  C   UNL     1     -11.160   9.068  68.185  1.00  0.00     0.157 A  
HETATM   29  C   UNL     1     -11.323   8.872  69.557  1.00  0.00     0.224 A  
HETATM   30  C   UNL     1     -12.619   8.709  70.036  1.00  0.00     1.408 A  
HETATM   31  O   UNL     1     -10.205   8.832  70.361  1.00  0.00    -0.186 OA 
HETATM   32  C   UNL     1      -9.078   9.679  69.916  1.00  0.00    -0.225 C  
HETATM   33  C   UNL     1     -13.740   8.982  69.215  1.00  0.00     6.384 A  
HETATM   34  O   UNL     1     -12.848   8.212  71.286  1.00  0.00    -0.438 OA 
HETATM   35  C   UNL     1     -13.529   9.408  67.895  1.00  0.00    14.372 A  
HETATM   36  H   UNL     1     -13.733   8.101  71.613  1.00  0.00     0.000 HD 
HETATM   37  C   UNL     1      -8.845  10.748  70.763  1.00  0.00     3.289 C  
HETATM   38  C   UNL     1      -8.353  10.407  72.015  1.00  0.00     6.269 C  
HETATM   39  C   UNL     1      -6.687   7.162  73.345  1.00  0.00    -0.065 C  
HETATM   40  C   UNL     1      -7.925   8.916  69.771  1.00  0.00    -0.100 C  
HETATM   41  C   UNL     1      -7.673   9.177  72.101  1.00  0.00     0.469 C  
HETATM   42  C   UNL     1      -7.218   8.565  70.912  1.00  0.00    -0.065 C  
HETATM   43  C   UNL     1      -7.649   8.370  73.372  1.00  0.00    -0.124 C  
ENDROOT
BRANCH  15  44
HETATM   44  O   UNL     1      -6.655  11.940  64.305  1.00  0.00     2.860 OA 
HETATM   45  C   UNL     1      -5.437  11.339  63.879  1.00  0.00     0.935 C  
ENDBRANCH  15  44
BRANCH  37  46
HETATM   46  O   UNL     1      -8.434  11.875  70.067  1.00  0.00     1.865 OA 
HETATM   47  C   UNL     1      -8.468  11.852  68.650  1.00  0.00    -0.045 C  
ENDBRANCH  37  46
TORSDOF 2
ENDMDL
MODEL      109
REMARK 921   NORMALIZED FREE ENERGY PREDICTED BY IDOCK:  114.67 KCAL/MOL
REMARK 922        TOTAL FREE ENERGY PREDICTED BY IDOCK:  127.73 KCAL/MOL
REMARK 923 INTER-LIGAND FREE ENERGY PREDICTED BY IDOCK:  127.76 KCAL/MOL
REMARK 924 INTRA-LIGAND FREE ENERGY PREDICTED BY IDOCK:   -0.03 KCAL/MOL
REMARK 927      BINDING AFFINITY PREDICTED BY RF-SCORE:    0.00 PKD
ROOT
HETATM    1  C   UNL     1      -6.757  19.169  71.545  1.00  0.00     1.810 C  
HETATM    2  C   UNL     1      -6.069  18.913  70.140  1.00  0.00    -0.156 C  
HETATM    3  C   UNL     1      -6.648  17.878  69.210  1.00  0.00    -0.235 A  
HETATM    4  C   UNL     1      -6.815  16.562  69.622  1.00  0.00    -0.081 A  
HETATM    5  C   UNL     1      -7.887  15.831  69.125  1.00  0.00    -0.227 A  
HETATM    6  C   UNL     1      -8.672  16.362  68.104  1.00  0.00    -0.191 A  
HETATM    7  C   UNL     1      -8.154  17.430  67.379  1.00  0.00    -0.213 A  
HETATM    8  O   UNL     1      -9.934  15.822  68.018  1.00  0.00    -0.220 OA 
HETATM    9  C   UNL     1      -7.201  18.250  67.982  1.00  0.00    -0.240 A  
HETATM   10  C   UNL     1     -10.988  16.402  67.348  1.00  0.00    -0.145 A  
HETATM   11  C   UNL     1     -12.073  15.537  67.117  1.00  0.00     0.643 A  
HETATM   12  C   UNL     1     -12.977  15.832  66.078  1.00  0.00     2.905 A  
HETATM   13  C   UNL     1     -14.013  14.837  65.642  1.00  0.00     3.292 C  
HETATM   14  C   UNL     1     -12.869  17.033  65.394  1.00  0.00     6.961 A  
HETATM   15  C   UNL     1     -12.003  18.017  65.841  1.00  0.00     4.218 A  
HETATM   16  C   UNL     1     -14.347  13.737  66.637  1.00  0.00    10.085 C  
HETATM   17  C   UNL     1     -11.117  17.708  66.878  1.00  0.00     0.328 A  
HETATM   18  C   UNL     1      -6.199  17.156  72.848  1.00  0.00     4.504 C  
HETATM   19  N   UNL     1     -13.159  13.241  67.464  1.00  0.00     2.234 N  
HETATM   20  O   UNL     1     -10.468  18.755  67.479  1.00  0.00    -0.391 OA 
HETATM   21  N   UNL     1      -5.991  18.593  72.689  1.00  0.00     1.192 NA 
HETATM   22  C   UNL     1     -13.707  12.222  68.471  1.00  0.00     8.026 C  
HETATM   23  C   UNL     1     -12.434  14.452  68.141  1.00  0.00     0.250 C  
HETATM   24  C   UNL     1     -12.102  12.508  66.632  1.00  0.00    -0.142 C  
HETATM   25  C   UNL     1     -13.343  15.122  69.222  1.00  0.00     1.701 C  
HETATM   26  H   UNL     1     -10.556  19.645  67.159  1.00  0.00     0.000 HD 
HETATM   27  C   UNL     1     -12.812  15.022  70.623  1.00  0.00    -0.413 A  
HETATM   28  C   UNL     1     -11.701  15.792  70.942  1.00  0.00    -0.441 A  
HETATM   29  C   UNL     1     -11.350  16.043  72.269  1.00  0.00     0.009 A  
HETATM   30  C   UNL     1     -11.930  15.247  73.251  1.00  0.00    -0.422 A  
HETATM   31  O   UNL     1     -10.443  17.044  72.540  1.00  0.00     3.567 OA 
HETATM   32  C   UNL     1     -10.474  18.191  71.607  1.00  0.00     3.612 C  
HETATM   33  C   UNL     1     -13.017  14.391  72.949  1.00  0.00    -0.575 A  
HETATM   34  O   UNL     1     -11.423  15.213  74.517  1.00  0.00     0.219 OA 
HETATM   35  C   UNL     1     -13.498  14.342  71.631  1.00  0.00    -0.456 A  
HETATM   36  H   UNL     1     -11.819  14.669  75.188  1.00  0.00     0.000 HD 
HETATM   37  C   UNL     1     -10.940  19.351  72.200  1.00  0.00     5.221 C  
HETATM   38  C   UNL     1     -10.099  19.898  73.158  1.00  0.00     3.736 C  
HETATM   39  C   UNL     1      -6.333  19.339  73.919  1.00  0.00     9.961 C  
HETATM   40  C   UNL     1      -9.215  18.402  71.056  1.00  0.00     5.537 C  
HETATM   41  C   UNL     1      -8.734  19.569  73.047  1.00  0.00     4.917 C  
HETATM   42  C   UNL     1      -8.257  19.046  71.826  1.00  0.00     6.749 C  
HETATM   43  C   UNL     1      -7.832  19.507  74.251  1.00  0.00     9.063 C  
ENDROOT
BRANCH  15  44
HETATM   44  O   UNL     1     -11.903  19.289  65.345  1.00  0.00     1.653 OA 
HETATM   45  C   UNL     1     -12.537  20.313  66.102  1.00  0.00     5.609 C  
ENDBRANCH  15  44
BRANCH  37  46
HETATM   46  O   UNL     1     -11.682  20.118  71.314  1.00  0.00     7.373 OA 
HETATM   47  C   UNL     1     -12.510  19.460  70.370  1.00  0.00    16.936 C  
ENDBRANCH  37  46
TORSDOF 2
ENDMDL
MODEL      110
REMARK 921   NORMALIZED FREE ENERGY PREDICTED BY IDOCK:  116.19 KCAL/MOL
REMARK 922        TOTAL FREE ENERGY PREDICTED BY IDOCK:  129.43 KCAL/MOL
REMARK 923 INTER-LIGAND FREE ENERGY PREDICTED BY IDOCK:  129.56 KCAL/MOL
REMARK 924 INTRA-LIGAND FREE ENERGY PREDICTED BY IDOCK:   -0.12 KCAL/MOL
REMARK 927      BINDING AFFINITY PREDICTED BY RF-SCORE:    0.00 PKD
ROOT
HETATM    1  C   UNL     1     -13.127  10.534  65.687  1.00  0.00    10.415 C  
HETATM    2  C   UNL     1     -14.232   9.422  65.919  1.00  0.00    26.542 C  
HETATM    3  C   UNL     1     -13.811   7.986  66.100  1.00  0.00    23.156 A  
HETATM    4  C   UNL     1     -13.041   7.341  65.139  1.00  0.00    16.601 A  
HETATM    5  C   UNL     1     -12.123   6.381  65.546  1.00  0.00     6.087 A  
HETATM    6  C   UNL     1     -12.105   5.958  66.873  1.00  0.00     3.480 A  
HETATM    7  C   UNL     1     -13.220   6.238  67.656  1.00  0.00    13.728 A  
HETATM    8  O   UNL     1     -10.913   5.405  67.278  1.00  0.00    -0.093 OA 
HETATM    9  C   UNL     1     -14.023   7.327  67.313  1.00  0.00    22.643 A  
HETATM   10  C   UNL     1     -10.533   5.241  68.591  1.00  0.00    -0.078 A  
HETATM   11  C   UNL     1      -9.441   4.373  68.773  1.00  0.00    -0.227 A  
HETATM   12  C   UNL     1      -9.252   3.762  70.028  1.00  0.00    -0.220 A  
HETATM   13  C   UNL     1      -8.246   2.664  70.215  1.00  0.00    -0.065 C  
HETATM   14  C   UNL     1     -10.054   4.129  71.097  1.00  0.00    -0.145 A  
HETATM   15  C   UNL     1     -10.909   5.212  70.992  1.00  0.00     0.023 A  
HETATM   16  C   UNL     1      -7.154   2.568  69.162  1.00  0.00    -0.044 C  
HETATM   17  C   UNL     1     -11.080   5.811  69.740  1.00  0.00    -0.248 A  
HETATM   18  C   UNL     1     -12.326  10.098  63.400  1.00  0.00     7.027 C  
HETATM   19  N   UNL     1      -7.604   2.914  67.741  1.00  0.00    -0.057 N  
HETATM   20  O   UNL     1     -11.708   7.028  69.708  1.00  0.00    -0.556 OA 
HETATM   21  N   UNL     1     -13.059  11.011  64.274  1.00  0.00     2.085 NA 
HETATM   22  C   UNL     1      -6.356   2.865  66.850  1.00  0.00    -0.035 C  
HETATM   23  C   UNL     1      -8.318   4.307  67.729  1.00  0.00    -0.098 C  
HETATM   24  C   UNL     1      -8.599   1.907  67.155  1.00  0.00    -0.102 C  
HETATM   25  C   UNL     1      -7.314   5.460  68.056  1.00  0.00    -0.073 C  
HETATM   26  H   UNL     1     -12.081   7.417  70.492  1.00  0.00     0.000 HD 
HETATM   27  C   UNL     1      -7.100   6.430  66.931  1.00  0.00    -0.073 A  
HETATM   28  C   UNL     1      -8.143   7.296  66.626  1.00  0.00    -0.113 A  
HETATM   29  C   UNL     1      -7.931   8.443  65.860  1.00  0.00    -0.099 A  
HETATM   30  C   UNL     1      -6.744   8.529  65.141  1.00  0.00    -0.064 A  
HETATM   31  O   UNL     1      -8.905   9.418  65.840  1.00  0.00    -0.144 OA 
HETATM   32  C   UNL     1      -9.684   9.557  67.089  1.00  0.00    -0.171 C  
HETATM   33  C   UNL     1      -5.685   7.617  65.370  1.00  0.00    -0.037 A  
HETATM   34  O   UNL     1      -6.592   9.448  64.144  1.00  0.00    -0.089 OA 
HETATM   35  C   UNL     1      -5.853   6.606  66.328  1.00  0.00    -0.025 A  
HETATM   36  H   UNL     1      -5.781   9.506  63.652  1.00  0.00     0.000 HD 
HETATM   37  C   UNL     1      -9.430  10.747  67.748  1.00  0.00    -0.155 C  
HETATM   38  C   UNL     1      -9.890  11.885  67.100  1.00  0.00    -0.206 C  
HETATM   39  C   UNL     1     -12.485  12.373  64.255  1.00  0.00    -0.437 C  
HETATM   40  C   UNL     1     -11.043   9.428  66.830  1.00  0.00     0.421 C  
HETATM   41  C   UNL     1     -10.959  11.699  66.203  1.00  0.00    -0.339 C  
HETATM   42  C   UNL     1     -11.716  10.511  66.282  1.00  0.00     1.671 C  
HETATM   43  C   UNL     1     -11.152  12.590  65.004  1.00  0.00    -0.335 C  
ENDROOT
BRANCH  15  44
HETATM   44  O   UNL     1     -11.646   5.761  72.008  1.00  0.00    -0.255 OA 
HETATM   45  C   UNL     1     -11.013   6.788  72.762  1.00  0.00    -0.270 C  
ENDBRANCH  15  44
BRANCH  37  46
HETATM   46  O   UNL     1      -9.468  10.589  69.125  1.00  0.00    -0.195 OA 
HETATM   47  C   UNL     1      -8.317  10.923  69.882  1.00  0.00     0.725 C  
ENDBRANCH  37  46
TORSDOF 2
ENDMDL
