MODEL        1
REMARK 921   NORMALIZED FREE ENERGY PREDICTED BY IDOCK:   -6.01 KCAL/MOL
REMARK 922        TOTAL FREE ENERGY PREDICTED BY IDOCK:   -8.38 KCAL/MOL
REMARK 923 INTER-LIGAND FREE ENERGY PREDICTED BY IDOCK:   -7.41 KCAL/MOL
REMARK 924 INTRA-LIGAND FREE ENERGY PREDICTED BY IDOCK:   -0.97 KCAL/MOL
REMARK 927      BINDING AFFINITY PREDICTED BY RF-SCORE:    0.00 PKD
ROOT
HETATM    1  C   UNL     1     -10.672  19.404  67.097  1.00  0.00    -0.593 C  
HETATM    2  C   UNL     1     -10.413  17.929  67.348  1.00  0.00    -0.390 C  
ENDROOT
BRANCH   2   3
HETATM    3  C   UNL     1     -10.054  17.666  68.807  1.00  0.00    -0.377 C  
BRANCH   3   4
HETATM    4  C   UNL     1     -10.212  16.203  69.134  1.00  0.00    -0.255 C  
HETATM    5  O   UNL     1      -9.245  15.518  69.468  1.00  0.00    -0.269 OA 
HETATM    6  N   UNL     1     -11.530  15.762  69.098  1.00  0.00    -0.355 N  
HETATM    7  H   UNL     1     -12.266  16.404  68.803  1.00  0.00     0.000 HD 
BRANCH   6   8
HETATM    8  C   UNL     1     -11.868  14.433  69.466  1.00  0.00    -0.329 A  
HETATM    9  C   UNL     1     -12.265  14.175  70.782  1.00  0.00    -0.365 A  
HETATM   10  C   UNL     1     -12.486  12.864  71.203  1.00  0.00    -0.344 A  
HETATM   11  I   UNL     1     -12.498  15.699  72.207  1.00  0.00    -0.654 I  
HETATM   12  C   UNL     1     -12.234  11.789  70.337  1.00  0.00    -0.330 A  
HETATM   13  C   UNL     1     -11.800  12.000  69.012  1.00  0.00    -0.372 A  
HETATM   14  I   UNL     1     -12.660   9.886  71.158  1.00  0.00    -0.466 I  
HETATM   15  C   UNL     1     -11.767  13.345  68.566  1.00  0.00    -0.357 A  
HETATM   16  I   UNL     1     -12.107  13.759  66.449  1.00  0.00    -0.421 I  
BRANCH  13  17
HETATM   17  C   UNL     1     -11.340  10.861  68.115  1.00  0.00    -0.383 C  
HETATM   18  C   UNL     1      -9.844  10.888  67.700  1.00  0.00    -0.192 C  
HETATM   19  C   UNL     1      -9.553   9.692  66.805  1.00  0.00    -0.173 C  
HETATM   20  C   UNL     1      -8.819  10.956  68.848  1.00  0.00    -0.143 C  
HETATM   21  C   UNL     1      -8.865   9.804  69.840  1.00  0.00    -0.248 C  
HETATM   22  O   UNL     1     -10.174   8.640  66.825  1.00  0.00    -0.270 OA 
HETATM   23  O   UNL     1      -8.509   9.891  65.968  1.00  0.00    -0.125 OA 
ENDBRANCH  13  17
ENDBRANCH   6   8
ENDBRANCH   3   4
ENDBRANCH   2   3
TORSDOF 4
ENDMDL
MODEL        2
REMARK 921   NORMALIZED FREE ENERGY PREDICTED BY IDOCK:   -5.69 KCAL/MOL
REMARK 922        TOTAL FREE ENERGY PREDICTED BY IDOCK:   -7.99 KCAL/MOL
REMARK 923 INTER-LIGAND FREE ENERGY PREDICTED BY IDOCK:   -7.09 KCAL/MOL
REMARK 924 INTRA-LIGAND FREE ENERGY PREDICTED BY IDOCK:   -0.90 KCAL/MOL
REMARK 927      BINDING AFFINITY PREDICTED BY RF-SCORE:    0.00 PKD
ROOT
HETATM    1  C   UNL     1     -10.076  19.899  68.627  1.00  0.00    -0.518 C  
HETATM    2  C   UNL     1      -9.728  18.421  68.622  1.00  0.00    -0.387 C  
ENDROOT
BRANCH   2   3
HETATM    3  C   UNL     1     -10.760  17.608  67.846  1.00  0.00    -0.341 C  
BRANCH   3   4
HETATM    4  C   UNL     1     -10.659  16.147  68.204  1.00  0.00    -0.290 C  
HETATM    5  O   UNL     1      -9.564  15.601  68.344  1.00  0.00    -0.195 OA 
HETATM    6  N   UNL     1     -11.889  15.542  68.429  1.00  0.00    -0.491 N  
HETATM    7  H   UNL     1     -12.746  16.076  68.282  1.00  0.00     0.000 HD 
BRANCH   6   8
HETATM    8  C   UNL     1     -11.973  14.191  68.861  1.00  0.00    -0.341 A  
HETATM    9  C   UNL     1     -12.246  13.928  70.207  1.00  0.00    -0.358 A  
HETATM   10  C   UNL     1     -12.214  12.618  70.685  1.00  0.00    -0.373 A  
HETATM   11  I   UNL     1     -12.657  15.452  71.593  1.00  0.00    -0.619 I  
HETATM   12  C   UNL     1     -11.829  11.565  69.843  1.00  0.00    -0.355 A  
HETATM   13  C   UNL     1     -11.513  11.788  68.486  1.00  0.00    -0.353 A  
HETATM   14  I   UNL     1     -11.876   9.655  70.751  1.00  0.00    -0.335 I  
HETATM   15  C   UNL     1     -11.736  13.099  67.995  1.00  0.00    -0.355 A  
HETATM   16  I   UNL     1     -12.260  13.356  65.890  1.00  0.00    -0.433 I  
BRANCH  13  17
HETATM   17  C   UNL     1     -10.915  10.705  67.601  1.00  0.00    -0.370 C  
HETATM   18  C   UNL     1      -9.456  10.948  67.127  1.00  0.00    -0.178 C  
HETATM   19  C   UNL     1      -9.016   9.783  66.252  1.00  0.00    -0.153 C  
HETATM   20  C   UNL     1      -8.414  11.207  68.232  1.00  0.00    -0.145 C  
HETATM   21  C   UNL     1      -8.247  10.093  69.254  1.00  0.00    -0.156 C  
HETATM   22  O   UNL     1      -9.466   8.650  66.323  1.00  0.00    -0.207 OA 
HETATM   23  O   UNL     1      -8.045  10.113  65.370  1.00  0.00    -0.137 OA 
ENDBRANCH  13  17
ENDBRANCH   6   8
ENDBRANCH   3   4
ENDBRANCH   2   3
TORSDOF 4
ENDMDL
MODEL        3
REMARK 921   NORMALIZED FREE ENERGY PREDICTED BY IDOCK:   -5.35 KCAL/MOL
REMARK 922        TOTAL FREE ENERGY PREDICTED BY IDOCK:   -7.56 KCAL/MOL
REMARK 923 INTER-LIGAND FREE ENERGY PREDICTED BY IDOCK:   -7.07 KCAL/MOL
REMARK 924 INTRA-LIGAND FREE ENERGY PREDICTED BY IDOCK:   -0.50 KCAL/MOL
REMARK 927      BINDING AFFINITY PREDICTED BY RF-SCORE:    0.00 PKD
ROOT
HETATM    1  C   UNL     1     -11.717   6.275  71.913  1.00  0.00    -0.370 C  
HETATM    2  C   UNL     1     -12.480   7.186  70.969  1.00  0.00    -0.359 C  
ENDROOT
BRANCH   2   3
HETATM    3  C   UNL     1     -12.964   8.447  71.679  1.00  0.00    -0.355 C  
BRANCH   3   4
HETATM    4  C   UNL     1     -12.140   9.638  71.262  1.00  0.00    -0.371 C  
HETATM    5  O   UNL     1     -10.996   9.800  71.687  1.00  0.00    -0.240 OA 
HETATM    6  N   UNL     1     -12.765  10.447  70.320  1.00  0.00    -0.526 N  
HETATM    7  H   UNL     1     -13.720  10.234  70.032  1.00  0.00     0.000 HD 
BRANCH   6   8
HETATM    8  C   UNL     1     -12.094  11.563  69.753  1.00  0.00    -0.306 A  
HETATM    9  C   UNL     1     -12.269  12.823  70.333  1.00  0.00    -0.293 A  
HETATM   10  C   UNL     1     -11.723  13.955  69.727  1.00  0.00    -0.372 A  
HETATM   11  I   UNL     1     -13.390  13.112  72.086  1.00  0.00    -0.327 I  
HETATM   12  C   UNL     1     -11.066  13.851  68.493  1.00  0.00    -0.265 A  
HETATM   13  C   UNL     1     -10.895  12.605  67.854  1.00  0.00    -0.244 A  
HETATM   14  I   UNL     1     -10.285  15.676  67.761  1.00  0.00    -0.267 I  
HETATM   15  C   UNL     1     -11.298  11.461  68.588  1.00  0.00    -0.265 A  
HETATM   16  I   UNL     1     -10.252   9.574  68.249  1.00  0.00    -0.261 I  
BRANCH  13  17
HETATM   17  C   UNL     1     -10.357  12.484  66.437  1.00  0.00    -0.261 C  
HETATM   18  C   UNL     1     -11.403  12.127  65.345  1.00  0.00    -0.388 C  
HETATM   19  C   UNL     1     -10.704  12.038  63.996  1.00  0.00    -0.375 C  
HETATM   20  C   UNL     1     -12.630  13.052  65.248  1.00  0.00    -0.516 C  
HETATM   21  C   UNL     1     -12.331  14.514  64.953  1.00  0.00    -0.378 C  
HETATM   22  O   UNL     1      -9.677  12.630  63.703  1.00  0.00    -0.225 OA 
HETATM   23  O   UNL     1     -11.341  11.234  63.115  1.00  0.00    -0.100 OA 
ENDBRANCH  13  17
ENDBRANCH   6   8
ENDBRANCH   3   4
ENDBRANCH   2   3
TORSDOF 4
ENDMDL
MODEL        4
REMARK 921   NORMALIZED FREE ENERGY PREDICTED BY IDOCK:   -5.18 KCAL/MOL
REMARK 922        TOTAL FREE ENERGY PREDICTED BY IDOCK:   -7.36 KCAL/MOL
REMARK 923 INTER-LIGAND FREE ENERGY PREDICTED BY IDOCK:   -6.67 KCAL/MOL
REMARK 924 INTRA-LIGAND FREE ENERGY PREDICTED BY IDOCK:   -0.69 KCAL/MOL
REMARK 927      BINDING AFFINITY PREDICTED BY RF-SCORE:    0.00 PKD
ROOT
HETATM    1  C   UNL     1     -10.642  15.571  65.025  1.00  0.00    -0.435 C  
HETATM    2  C   UNL     1      -9.789  15.143  66.206  1.00  0.00    -0.317 C  
ENDROOT
BRANCH   2   3
HETATM    3  C   UNL     1     -10.419  15.564  67.530  1.00  0.00    -0.282 C  
BRANCH   3   4
HETATM    4  C   UNL     1     -11.313  14.472  68.061  1.00  0.00    -0.306 C  
HETATM    5  O   UNL     1     -12.409  14.243  67.549  1.00  0.00    -0.287 OA 
HETATM    6  N   UNL     1     -10.743  13.736  69.092  1.00  0.00    -0.400 N  
HETATM    7  H   UNL     1      -9.828  14.006  69.455  1.00  0.00     0.000 HD 
BRANCH   6   8
HETATM    8  C   UNL     1     -11.412  12.613  69.649  1.00  0.00    -0.182 A  
HETATM    9  C   UNL     1     -12.320  12.816  70.693  1.00  0.00    -0.297 A  
HETATM   10  C   UNL     1     -12.900  11.725  71.339  1.00  0.00    -0.440 A  
HETATM   11  I   UNL     1     -12.825  14.732  71.390  1.00  0.00    -0.532 I  
HETATM   12  C   UNL     1     -12.517  10.417  71.005  1.00  0.00    -0.388 A  
HETATM   13  C   UNL     1     -11.580  10.166  69.981  1.00  0.00    -0.323 A  
HETATM   14  I   UNL     1     -13.535   8.906  72.079  1.00  0.00    -0.571 I  
HETATM   15  C   UNL     1     -11.156  11.288  69.226  1.00  0.00    -0.255 A  
HETATM   16  I   UNL     1     -10.584  10.993  67.138  1.00  0.00    -0.331 I  
BRANCH  13  17
HETATM   17  C   UNL     1     -11.008   8.780  69.724  1.00  0.00    -0.146 C  
HETATM   18  C   UNL     1      -9.492   8.610  70.016  1.00  0.00    -0.170 C  
HETATM   19  C   UNL     1      -9.082   7.178  69.702  1.00  0.00    -0.140 C  
HETATM   20  C   UNL     1      -9.021   9.000  71.430  1.00  0.00    -0.243 C  
HETATM   21  C   UNL     1      -9.666   8.232  72.573  1.00  0.00    -0.368 C  
HETATM   22  O   UNL     1      -9.834   6.216  69.734  1.00  0.00    -0.157 OA 
HETATM   23  O   UNL     1      -7.773   7.053  69.388  1.00  0.00    -0.103 OA 
ENDBRANCH  13  17
ENDBRANCH   6   8
ENDBRANCH   3   4
ENDBRANCH   2   3
TORSDOF 4
ENDMDL
MODEL        5
REMARK 921   NORMALIZED FREE ENERGY PREDICTED BY IDOCK:   -4.99 KCAL/MOL
REMARK 922        TOTAL FREE ENERGY PREDICTED BY IDOCK:   -7.12 KCAL/MOL
REMARK 923 INTER-LIGAND FREE ENERGY PREDICTED BY IDOCK:   -6.27 KCAL/MOL
REMARK 924 INTRA-LIGAND FREE ENERGY PREDICTED BY IDOCK:   -0.85 KCAL/MOL
REMARK 927      BINDING AFFINITY PREDICTED BY RF-SCORE:    0.00 PKD
ROOT
HETATM    1  C   UNL     1      -9.177  18.352  68.418  1.00  0.00    -0.341 C  
HETATM    2  C   UNL     1      -7.739  18.036  68.049  1.00  0.00    -0.250 C  
ENDROOT
BRANCH   2   3
HETATM    3  C   UNL     1      -7.255  16.761  68.733  1.00  0.00    -0.217 C  
BRANCH   3   4
HETATM    4  C   UNL     1      -7.822  15.545  68.045  1.00  0.00    -0.126 C  
HETATM    5  O   UNL     1      -7.852  15.465  66.817  1.00  0.00    -0.201 OA 
HETATM    6  N   UNL     1      -8.208  14.538  68.922  1.00  0.00    -0.232 N  
HETATM    7  H   UNL     1      -8.151  14.699  69.927  1.00  0.00     0.000 HD 
BRANCH   6   8
HETATM    8  C   UNL     1      -8.681  13.288  68.439  1.00  0.00    -0.126 A  
HETATM    9  C   UNL     1      -7.849  12.168  68.532  1.00  0.00    -0.122 A  
HETATM   10  C   UNL     1      -8.237  10.958  67.959  1.00  0.00    -0.121 A  
HETATM   11  I   UNL     1      -5.971  12.235  69.470  1.00  0.00    -0.128 I  
HETATM   12  C   UNL     1      -9.423  10.873  67.215  1.00  0.00    -0.159 A  
HETATM   13  C   UNL     1     -10.277  11.986  67.066  1.00  0.00    -0.224 A  
HETATM   14  I   UNL     1      -9.845   8.944  66.456  1.00  0.00    -0.288 I  
HETATM   15  C   UNL     1      -9.943  13.142  67.816  1.00  0.00    -0.227 A  
HETATM   16  I   UNL     1     -11.549  14.466  68.477  1.00  0.00    -0.358 I  
BRANCH  13  17
HETATM   17  C   UNL     1     -11.466  11.978  66.117  1.00  0.00    -0.401 C  
HETATM   18  C   UNL     1     -11.287  12.789  64.804  1.00  0.00    -0.346 C  
HETATM   19  C   UNL     1     -12.561  12.684  63.977  1.00  0.00    -0.338 C  
HETATM   20  C   UNL     1     -10.062  12.431  63.942  1.00  0.00    -0.349 C  
HETATM   21  C   UNL     1     -10.000  10.993  63.452  1.00  0.00    -0.428 C  
HETATM   22  O   UNL     1     -13.352  11.755  64.032  1.00  0.00    -0.541 OA 
HETATM   23  O   UNL     1     -12.743  13.731  63.141  1.00  0.00    -0.743 OA 
ENDBRANCH  13  17
ENDBRANCH   6   8
ENDBRANCH   3   4
ENDBRANCH   2   3
TORSDOF 4
ENDMDL
MODEL        6
REMARK 921   NORMALIZED FREE ENERGY PREDICTED BY IDOCK:   -4.98 KCAL/MOL
REMARK 922        TOTAL FREE ENERGY PREDICTED BY IDOCK:   -7.12 KCAL/MOL
REMARK 923 INTER-LIGAND FREE ENERGY PREDICTED BY IDOCK:   -7.27 KCAL/MOL
REMARK 924 INTRA-LIGAND FREE ENERGY PREDICTED BY IDOCK:    0.15 KCAL/MOL
REMARK 927      BINDING AFFINITY PREDICTED BY RF-SCORE:    0.00 PKD
ROOT
HETATM    1  C   UNL     1     -10.847   5.895  70.813  1.00  0.00    -0.352 C  
HETATM    2  C   UNL     1     -11.311   6.417  69.466  1.00  0.00    -0.460 C  
ENDROOT
BRANCH   2   3
HETATM    3  C   UNL     1     -10.301   7.390  68.866  1.00  0.00    -0.214 C  
BRANCH   3   4
HETATM    4  C   UNL     1     -10.399   8.736  69.539  1.00  0.00    -0.213 C  
HETATM    5  O   UNL     1      -9.535   9.116  70.329  1.00  0.00    -0.185 OA 
HETATM    6  N   UNL     1     -11.484   9.493  69.115  1.00  0.00    -0.439 N  
HETATM    7  H   UNL     1     -12.152   9.089  68.458  1.00  0.00     0.000 HD 
BRANCH   6   8
HETATM    8  C   UNL     1     -11.678  10.821  69.582  1.00  0.00    -0.323 A  
HETATM    9  C   UNL     1     -12.398  11.025  70.763  1.00  0.00    -0.398 A  
HETATM   10  C   UNL     1     -12.708  12.319  71.181  1.00  0.00    -0.340 A  
HETATM   11  I   UNL     1     -13.101   9.435  71.943  1.00  0.00    -0.572 I  
HETATM   12  C   UNL     1     -12.373  13.421  70.380  1.00  0.00    -0.312 A  
HETATM   13  C   UNL     1     -11.677  13.261  69.164  1.00  0.00    -0.379 A  
HETATM   14  I   UNL     1     -12.904  15.295  71.206  1.00  0.00    -0.615 I  
HETATM   15  C   UNL     1     -11.219  11.953  68.868  1.00  0.00    -0.254 A  
HETATM   16  I   UNL     1      -9.399  11.721  67.682  1.00  0.00    -0.204 I  
BRANCH  13  17
HETATM   17  C   UNL     1     -11.467  14.410  68.189  1.00  0.00    -0.337 C  
HETATM   18  C   UNL     1     -10.804  15.684  68.780  1.00  0.00    -0.262 C  
HETATM   19  C   UNL     1     -10.674  16.732  67.683  1.00  0.00    -0.305 C  
HETATM   20  C   UNL     1      -9.451  15.484  69.487  1.00  0.00    -0.269 C  
HETATM   21  C   UNL     1      -8.339  14.902  68.628  1.00  0.00    -0.164 C  
HETATM   22  O   UNL     1     -10.593  16.484  66.490  1.00  0.00    -0.292 OA 
HETATM   23  O   UNL     1     -10.643  17.999  68.154  1.00  0.00    -0.378 OA 
ENDBRANCH  13  17
ENDBRANCH   6   8
ENDBRANCH   3   4
ENDBRANCH   2   3
TORSDOF 4
ENDMDL
MODEL        7
REMARK 921   NORMALIZED FREE ENERGY PREDICTED BY IDOCK:   -4.96 KCAL/MOL
REMARK 922        TOTAL FREE ENERGY PREDICTED BY IDOCK:   -7.08 KCAL/MOL
REMARK 923 INTER-LIGAND FREE ENERGY PREDICTED BY IDOCK:   -7.21 KCAL/MOL
REMARK 924 INTRA-LIGAND FREE ENERGY PREDICTED BY IDOCK:    0.13 KCAL/MOL
REMARK 927      BINDING AFFINITY PREDICTED BY RF-SCORE:    0.00 PKD
ROOT
HETATM    1  C   UNL     1      -9.292   8.054  66.356  1.00  0.00    -0.259 C  
HETATM    2  C   UNL     1     -10.594   7.767  67.080  1.00  0.00    -0.396 C  
ENDROOT
BRANCH   2   3
HETATM    3  C   UNL     1     -10.364   7.528  68.569  1.00  0.00    -0.224 C  
BRANCH   3   4
HETATM    4  C   UNL     1     -10.439   8.828  69.330  1.00  0.00    -0.219 C  
HETATM    5  O   UNL     1      -9.573   9.135  70.150  1.00  0.00    -0.179 OA 
HETATM    6  N   UNL     1     -11.504   9.636  68.951  1.00  0.00    -0.456 N  
HETATM    7  H   UNL     1     -12.175   9.292  68.264  1.00  0.00     0.000 HD 
BRANCH   6   8
HETATM    8  C   UNL     1     -11.672  10.933  69.504  1.00  0.00    -0.328 A  
HETATM    9  C   UNL     1     -12.352  11.068  70.718  1.00  0.00    -0.398 A  
HETATM   10  C   UNL     1     -12.639  12.336  71.224  1.00  0.00    -0.336 A  
HETATM   11  I   UNL     1     -13.029   9.413  71.820  1.00  0.00    -0.566 I  
HETATM   12  C   UNL     1     -12.322  13.484  70.482  1.00  0.00    -0.342 A  
HETATM   13  C   UNL     1     -11.666  13.394  69.236  1.00  0.00    -0.383 A  
HETATM   14  I   UNL     1     -12.811  15.306  71.438  1.00  0.00    -0.628 I  
HETATM   15  C   UNL     1     -11.227  12.104  68.846  1.00  0.00    -0.269 A  
HETATM   16  I   UNL     1      -9.449  11.935  67.590  1.00  0.00    -0.206 I  
BRANCH  13  17
HETATM   17  C   UNL     1     -11.479  14.600  68.328  1.00  0.00    -0.337 C  
HETATM   18  C   UNL     1     -10.716  15.802  68.949  1.00  0.00    -0.248 C  
HETATM   19  C   UNL     1     -10.622  16.918  67.918  1.00  0.00    -0.361 C  
HETATM   20  C   UNL     1      -9.323  15.499  69.532  1.00  0.00    -0.276 C  
HETATM   21  C   UNL     1      -8.307  14.935  68.552  1.00  0.00    -0.160 C  
HETATM   22  O   UNL     1     -10.643  16.752  66.708  1.00  0.00    -0.288 OA 
HETATM   23  O   UNL     1     -10.498  18.147  68.469  1.00  0.00    -0.348 OA 
ENDBRANCH  13  17
ENDBRANCH   6   8
ENDBRANCH   3   4
ENDBRANCH   2   3
TORSDOF 4
ENDMDL
MODEL        8
REMARK 921   NORMALIZED FREE ENERGY PREDICTED BY IDOCK:   -4.95 KCAL/MOL
REMARK 922        TOTAL FREE ENERGY PREDICTED BY IDOCK:   -7.07 KCAL/MOL
REMARK 923 INTER-LIGAND FREE ENERGY PREDICTED BY IDOCK:   -6.69 KCAL/MOL
REMARK 924 INTRA-LIGAND FREE ENERGY PREDICTED BY IDOCK:   -0.38 KCAL/MOL
REMARK 927      BINDING AFFINITY PREDICTED BY RF-SCORE:    0.00 PKD
ROOT
HETATM    1  C   UNL     1     -10.977   8.857  71.870  1.00  0.00    -0.439 C  
HETATM    2  C   UNL     1     -12.359   9.055  71.273  1.00  0.00    -0.361 C  
ENDROOT
BRANCH   2   3
HETATM    3  C   UNL     1     -12.824  10.502  71.409  1.00  0.00    -0.551 C  
BRANCH   3   4
HETATM    4  C   UNL     1     -12.376  11.314  70.220  1.00  0.00    -0.307 C  
HETATM    5  O   UNL     1     -12.777  11.054  69.085  1.00  0.00    -0.277 OA 
HETATM    6  N   UNL     1     -11.565  12.392  70.554  1.00  0.00    -0.407 N  
HETATM    7  H   UNL     1     -11.281  12.523  71.525  1.00  0.00     0.000 HD 
BRANCH   6   8
HETATM    8  C   UNL     1     -11.126  13.313  69.566  1.00  0.00    -0.023 A  
HETATM    9  C   UNL     1     -11.377  14.676  69.753  1.00  0.00    -0.275 A  
HETATM   10  C   UNL     1     -11.067  15.590  68.746  1.00  0.00    -0.291 A  
HETATM   11  I   UNL     1     -12.270  15.428  71.499  1.00  0.00    -0.620 I  
HETATM   12  C   UNL     1     -10.579  15.144  67.509  1.00  0.00    -0.269 A  
HETATM   13  C   UNL     1     -10.343  13.775  67.264  1.00  0.00    -0.253 A  
HETATM   14  I   UNL     1     -10.144  16.688  66.131  1.00  0.00    -0.293 I  
HETATM   15  C   UNL     1     -10.493  12.901  68.370  1.00  0.00    -0.251 A  
HETATM   16  I   UNL     1      -9.275  11.090  68.451  1.00  0.00    -0.173 I  
BRANCH  13  17
HETATM   17  C   UNL     1      -9.996  13.244  65.881  1.00  0.00    -0.280 C  
HETATM   18  C   UNL     1     -11.124  12.462  65.154  1.00  0.00    -0.348 C  
HETATM   19  C   UNL     1     -10.614  11.997  63.797  1.00  0.00    -0.430 C  
HETATM   20  C   UNL     1     -12.469  13.194  64.995  1.00  0.00    -0.516 C  
HETATM   21  C   UNL     1     -12.419  14.500  64.216  1.00  0.00    -0.293 C  
HETATM   22  O   UNL     1      -9.730  12.548  63.160  1.00  0.00    -0.126 OA 
HETATM   23  O   UNL     1     -11.250  10.897  63.335  1.00  0.00     0.094 OA 
ENDBRANCH  13  17
ENDBRANCH   6   8
ENDBRANCH   3   4
ENDBRANCH   2   3
TORSDOF 4
ENDMDL
MODEL        9
REMARK 921   NORMALIZED FREE ENERGY PREDICTED BY IDOCK:   -4.94 KCAL/MOL
REMARK 922        TOTAL FREE ENERGY PREDICTED BY IDOCK:   -7.07 KCAL/MOL
REMARK 923 INTER-LIGAND FREE ENERGY PREDICTED BY IDOCK:   -6.10 KCAL/MOL
REMARK 924 INTRA-LIGAND FREE ENERGY PREDICTED BY IDOCK:   -0.97 KCAL/MOL
REMARK 927      BINDING AFFINITY PREDICTED BY RF-SCORE:    0.00 PKD
ROOT
HETATM    1  C   UNL     1     -10.627  19.096  67.088  1.00  0.00    -0.564 C  
HETATM    2  C   UNL     1      -9.699  18.044  66.506  1.00  0.00    -0.338 C  
ENDROOT
BRANCH   2   3
HETATM    3  C   UNL     1     -10.467  17.024  65.671  1.00  0.00    -0.229 C  
BRANCH   3   4
HETATM    4  C   UNL     1     -10.172  15.624  66.146  1.00  0.00    -0.311 C  
HETATM    5  O   UNL     1      -9.015  15.240  66.314  1.00  0.00    -0.299 OA 
HETATM    6  N   UNL     1     -11.311  14.883  66.439  1.00  0.00    -0.335 N  
HETATM    7  H   UNL     1     -12.231  15.286  66.261  1.00  0.00     0.000 HD 
BRANCH   6   8
HETATM    8  C   UNL     1     -11.214  13.574  66.982  1.00  0.00    -0.312 A  
HETATM    9  C   UNL     1     -11.334  13.404  68.364  1.00  0.00    -0.294 A  
HETATM   10  C   UNL     1     -11.122  12.151  68.938  1.00  0.00    -0.292 A  
HETATM   11  I   UNL     1     -11.773  14.998  69.661  1.00  0.00    -0.418 I  
HETATM   12  C   UNL     1     -10.708  11.070  68.146  1.00  0.00    -0.205 A  
HETATM   13  C   UNL     1     -10.542  11.203  66.751  1.00  0.00    -0.311 A  
HETATM   14  I   UNL     1     -10.473   9.251  69.201  1.00  0.00    -0.180 I  
HETATM   15  C   UNL     1     -10.945  12.437  66.184  1.00  0.00    -0.286 A  
HETATM   16  I   UNL     1     -11.682  12.457  64.128  1.00  0.00    -0.597 I  
BRANCH  13  17
HETATM   17  C   UNL     1      -9.918  10.108  65.899  1.00  0.00    -0.334 C  
HETATM   18  C   UNL     1      -8.539  10.445  65.270  1.00  0.00    -0.184 C  
HETATM   19  C   UNL     1      -8.062   9.256  64.448  1.00  0.00    -0.142 C  
HETATM   20  C   UNL     1      -7.435  10.894  66.246  1.00  0.00    -0.129 C  
HETATM   21  C   UNL     1      -7.067   9.892  67.329  1.00  0.00    -0.085 C  
HETATM   22  O   UNL     1      -8.387   8.096  64.648  1.00  0.00    -0.148 OA 
HETATM   23  O   UNL     1      -7.211   9.599  63.455  1.00  0.00    -0.105 OA 
ENDBRANCH  13  17
ENDBRANCH   6   8
ENDBRANCH   3   4
ENDBRANCH   2   3
TORSDOF 4
ENDMDL
MODEL       10
REMARK 921   NORMALIZED FREE ENERGY PREDICTED BY IDOCK:   -4.90 KCAL/MOL
REMARK 922        TOTAL FREE ENERGY PREDICTED BY IDOCK:   -7.01 KCAL/MOL
REMARK 923 INTER-LIGAND FREE ENERGY PREDICTED BY IDOCK:   -6.37 KCAL/MOL
REMARK 924 INTRA-LIGAND FREE ENERGY PREDICTED BY IDOCK:   -0.64 KCAL/MOL
REMARK 927      BINDING AFFINITY PREDICTED BY RF-SCORE:    0.00 PKD
ROOT
HETATM    1  C   UNL     1     -11.269   6.866  71.983  1.00  0.00    -0.292 C  
HETATM    2  C   UNL     1     -11.809   8.256  72.265  1.00  0.00    -0.451 C  
ENDROOT
BRANCH   2   3
HETATM    3  C   UNL     1     -10.875   9.337  71.728  1.00  0.00    -0.358 C  
BRANCH   3   4
HETATM    4  C   UNL     1     -11.460   9.975  70.493  1.00  0.00    -0.330 C  
HETATM    5  O   UNL     1     -12.657   9.862  70.226  1.00  0.00    -0.083 OA 
HETATM    6  N   UNL     1     -10.549  10.740  69.775  1.00  0.00    -0.426 N  
HETATM    7  H   UNL     1      -9.574  10.768  70.073  1.00  0.00     0.000 HD 
BRANCH   6   8
HETATM    8  C   UNL     1     -10.954  11.482  68.634  1.00  0.00    -0.223 A  
HETATM    9  C   UNL     1     -10.920  10.866  67.379  1.00  0.00    -0.293 A  
HETATM   10  C   UNL     1     -11.194  11.605  66.228  1.00  0.00    -0.332 A  
HETATM   11  I   UNL     1     -10.409   8.844  67.130  1.00  0.00    -0.232 I  
HETATM   12  C   UNL     1     -11.425  12.986  66.310  1.00  0.00    -0.337 A  
HETATM   13  C   UNL     1     -11.435  13.656  67.552  1.00  0.00    -0.360 A  
HETATM   14  I   UNL     1     -11.851  13.913  64.458  1.00  0.00    -0.443 I  
HETATM   15  C   UNL     1     -11.338  12.842  68.708  1.00  0.00    -0.288 A  
HETATM   16  I   UNL     1     -12.300  13.514  70.550  1.00  0.00    -0.201 I  
BRANCH  13  17
HETATM   17  C   UNL     1     -11.496  15.172  67.657  1.00  0.00    -0.319 C  
HETATM   18  C   UNL     1     -10.222  15.861  68.218  1.00  0.00    -0.227 C  
HETATM   19  C   UNL     1     -10.449  17.366  68.265  1.00  0.00    -0.385 C  
HETATM   20  C   UNL     1      -8.900  15.546  67.494  1.00  0.00    -0.191 C  
HETATM   21  C   UNL     1      -8.852  15.915  66.020  1.00  0.00    -0.298 C  
HETATM   22  O   UNL     1     -11.219  17.977  67.539  1.00  0.00    -0.072 OA 
HETATM   23  O   UNL     1      -9.696  17.992  69.197  1.00  0.00    -0.231 OA 
ENDBRANCH  13  17
ENDBRANCH   6   8
ENDBRANCH   3   4
ENDBRANCH   2   3
TORSDOF 4
ENDMDL
MODEL       11
REMARK 921   NORMALIZED FREE ENERGY PREDICTED BY IDOCK:   -4.87 KCAL/MOL
REMARK 922        TOTAL FREE ENERGY PREDICTED BY IDOCK:   -6.98 KCAL/MOL
REMARK 923 INTER-LIGAND FREE ENERGY PREDICTED BY IDOCK:   -6.28 KCAL/MOL
REMARK 924 INTRA-LIGAND FREE ENERGY PREDICTED BY IDOCK:   -0.70 KCAL/MOL
REMARK 927      BINDING AFFINITY PREDICTED BY RF-SCORE:    0.00 PKD
ROOT
HETATM    1  C   UNL     1     -11.456   5.775  72.430  1.00  0.00    -0.343 C  
HETATM    2  C   UNL     1     -10.359   5.548  71.406  1.00  0.00    -0.291 C  
ENDROOT
BRANCH   2   3
HETATM    3  C   UNL     1     -10.667   6.256  70.091  1.00  0.00    -0.346 C  
BRANCH   3   4
HETATM    4  C   UNL     1     -10.479   7.745  70.236  1.00  0.00    -0.225 C  
HETATM    5  O   UNL     1      -9.580   8.207  70.938  1.00  0.00    -0.159 OA 
HETATM    6  N   UNL     1     -11.346   8.495  69.451  1.00  0.00    -0.359 N  
HETATM    7  H   UNL     1     -12.064   8.022  68.903  1.00  0.00     0.000 HD 
BRANCH   6   8
HETATM    8  C   UNL     1     -11.247   9.911  69.399  1.00  0.00    -0.153 A  
HETATM    9  C   UNL     1     -11.952  10.674  70.336  1.00  0.00    -0.346 A  
HETATM   10  C   UNL     1     -11.972  12.064  70.235  1.00  0.00    -0.398 A  
HETATM   11  I   UNL     1     -13.056   9.802  71.895  1.00  0.00    -0.474 I  
HETATM   12  C   UNL     1     -11.356  12.706  69.150  1.00  0.00    -0.282 A  
HETATM   13  C   UNL     1     -10.662  11.975  68.163  1.00  0.00    -0.246 A  
HETATM   14  I   UNL     1     -11.474  14.817  69.199  1.00  0.00    -0.398 I  
HETATM   15  C   UNL     1     -10.507  10.586  68.400  1.00  0.00    -0.186 A  
HETATM   16  I   UNL     1      -8.740   9.577  67.607  1.00  0.00    -0.128 I  
BRANCH  13  17
HETATM   17  C   UNL     1     -10.149  12.619  66.884  1.00  0.00    -0.234 C  
HETATM   18  C   UNL     1     -10.865  12.187  65.575  1.00  0.00    -0.324 C  
HETATM   19  C   UNL     1     -10.230  12.913  64.397  1.00  0.00    -0.318 C  
HETATM   20  C   UNL     1     -12.395  12.361  65.544  1.00  0.00    -0.250 C  
HETATM   21  C   UNL     1     -12.900  13.781  65.743  1.00  0.00    -0.430 C  
HETATM   22  O   UNL     1      -9.661  13.992  64.469  1.00  0.00     0.020 OA 
HETATM   23  O   UNL     1     -10.362  12.251  63.226  1.00  0.00    -0.413 OA 
ENDBRANCH  13  17
ENDBRANCH   6   8
ENDBRANCH   3   4
ENDBRANCH   2   3
TORSDOF 4
ENDMDL
MODEL       12
REMARK 921   NORMALIZED FREE ENERGY PREDICTED BY IDOCK:   -4.86 KCAL/MOL
REMARK 922        TOTAL FREE ENERGY PREDICTED BY IDOCK:   -6.97 KCAL/MOL
REMARK 923 INTER-LIGAND FREE ENERGY PREDICTED BY IDOCK:   -5.97 KCAL/MOL
REMARK 924 INTRA-LIGAND FREE ENERGY PREDICTED BY IDOCK:   -1.00 KCAL/MOL
REMARK 927      BINDING AFFINITY PREDICTED BY RF-SCORE:    0.00 PKD
ROOT
HETATM    1  C   UNL     1     -10.568   7.520  72.995  1.00  0.00    -0.422 C  
HETATM    2  C   UNL     1      -9.256   8.233  72.726  1.00  0.00    -0.336 C  
ENDROOT
BRANCH   2   3
HETATM    3  C   UNL     1      -8.687   7.859  71.361  1.00  0.00    -0.148 C  
BRANCH   3   4
HETATM    4  C   UNL     1      -8.985   8.937  70.350  1.00  0.00    -0.182 C  
HETATM    5  O   UNL     1      -8.189   9.854  70.145  1.00  0.00    -0.186 OA 
HETATM    6  N   UNL     1     -10.168   8.734  69.651  1.00  0.00    -0.204 N  
HETATM    7  H   UNL     1     -10.767   7.945  69.896  1.00  0.00     0.000 HD 
BRANCH   6   8
HETATM    8  C   UNL     1     -10.558   9.607  68.600  1.00  0.00    -0.217 A  
HETATM    9  C   UNL     1     -10.244   9.261  67.282  1.00  0.00    -0.252 A  
HETATM   10  C   UNL     1     -10.504  10.153  66.242  1.00  0.00    -0.192 A  
HETATM   11  I   UNL     1      -9.326   7.439  66.784  1.00  0.00    -0.217 I  
HETATM   12  C   UNL     1     -11.005  11.434  66.516  1.00  0.00    -0.272 A  
HETATM   13  C   UNL     1     -11.305  11.839  67.834  1.00  0.00    -0.362 A  
HETATM   14  I   UNL     1     -11.359  12.621  64.801  1.00  0.00    -0.439 I  
HETATM   15  C   UNL     1     -11.203  10.843  68.837  1.00  0.00    -0.267 A  
HETATM   16  I   UNL     1     -12.506  10.976  70.585  1.00  0.00    -0.395 I  
BRANCH  13  17
HETATM   17  C   UNL     1     -11.669  13.275  68.181  1.00  0.00    -0.397 C  
HETATM   18  C   UNL     1     -10.609  14.062  68.999  1.00  0.00    -0.205 C  
HETATM   19  C   UNL     1     -11.129  15.467  69.266  1.00  0.00    -0.285 C  
HETATM   20  C   UNL     1      -9.192  14.124  68.399  1.00  0.00    -0.203 C  
HETATM   21  C   UNL     1      -9.087  14.763  67.023  1.00  0.00    -0.257 C  
HETATM   22  O   UNL     1     -11.935  16.057  68.563  1.00  0.00    -0.273 OA 
HETATM   23  O   UNL     1     -10.598  16.032  70.374  1.00  0.00    -0.262 OA 
ENDBRANCH  13  17
ENDBRANCH   6   8
ENDBRANCH   3   4
ENDBRANCH   2   3
TORSDOF 4
ENDMDL
MODEL       13
REMARK 921   NORMALIZED FREE ENERGY PREDICTED BY IDOCK:   -4.83 KCAL/MOL
REMARK 922        TOTAL FREE ENERGY PREDICTED BY IDOCK:   -6.93 KCAL/MOL
REMARK 923 INTER-LIGAND FREE ENERGY PREDICTED BY IDOCK:   -6.09 KCAL/MOL
REMARK 924 INTRA-LIGAND FREE ENERGY PREDICTED BY IDOCK:   -0.84 KCAL/MOL
REMARK 927      BINDING AFFINITY PREDICTED BY RF-SCORE:    0.00 PKD
ROOT
HETATM    1  C   UNL     1     -10.422  16.457  65.697  1.00  0.00    -0.364 C  
HETATM    2  C   UNL     1     -10.329  16.804  67.171  1.00  0.00    -0.297 C  
ENDROOT
BRANCH   2   3
HETATM    3  C   UNL     1      -9.105  16.163  67.819  1.00  0.00    -0.197 C  
BRANCH   3   4
HETATM    4  C   UNL     1      -9.461  14.821  68.408  1.00  0.00    -0.213 C  
HETATM    5  O   UNL     1      -8.602  14.105  68.923  1.00  0.00    -0.110 OA 
HETATM    6  N   UNL     1     -10.822  14.542  68.378  1.00  0.00    -0.237 N  
HETATM    7  H   UNL     1     -11.459  15.197  67.924  1.00  0.00     0.000 HD 
BRANCH   6   8
HETATM    8  C   UNL     1     -11.341  13.360  68.971  1.00  0.00    -0.287 A  
HETATM    9  C   UNL     1     -12.061  13.462  70.165  1.00  0.00    -0.344 A  
HETATM   10  C   UNL     1     -12.477  12.311  70.833  1.00  0.00    -0.371 A  
HETATM   11  I   UNL     1     -12.510  15.310  71.056  1.00  0.00    -0.590 I  
HETATM   12  C   UNL     1     -12.109  11.043  70.358  1.00  0.00    -0.373 A  
HETATM   13  C   UNL     1     -11.354  10.893  69.176  1.00  0.00    -0.350 A  
HETATM   14  I   UNL     1     -12.866   9.428  71.496  1.00  0.00    -0.477 I  
HETATM   15  C   UNL     1     -11.111  12.073  68.429  1.00  0.00    -0.245 A  
HETATM   16  I   UNL     1     -10.900  11.920  66.261  1.00  0.00    -0.354 I  
BRANCH  13  17
HETATM   17  C   UNL     1     -10.783   9.552  68.740  1.00  0.00    -0.218 C  
HETATM   18  C   UNL     1      -9.240   9.410  68.843  1.00  0.00    -0.140 C  
HETATM   19  C   UNL     1      -8.835   8.022  68.365  1.00  0.00    -0.134 C  
HETATM   20  C   UNL     1      -8.618   9.700  70.221  1.00  0.00    -0.234 C  
HETATM   21  C   UNL     1      -9.107   8.821  71.362  1.00  0.00    -0.313 C  
HETATM   22  O   UNL     1      -9.555   7.036  68.400  1.00  0.00    -0.136 OA 
HETATM   23  O   UNL     1      -7.568   7.967  67.895  1.00  0.00    -0.107 OA 
ENDBRANCH  13  17
ENDBRANCH   6   8
ENDBRANCH   3   4
ENDBRANCH   2   3
TORSDOF 4
ENDMDL
MODEL       14
REMARK 921   NORMALIZED FREE ENERGY PREDICTED BY IDOCK:   -4.77 KCAL/MOL
REMARK 922        TOTAL FREE ENERGY PREDICTED BY IDOCK:   -6.85 KCAL/MOL
REMARK 923 INTER-LIGAND FREE ENERGY PREDICTED BY IDOCK:   -6.04 KCAL/MOL
REMARK 924 INTRA-LIGAND FREE ENERGY PREDICTED BY IDOCK:   -0.81 KCAL/MOL
REMARK 927      BINDING AFFINITY PREDICTED BY RF-SCORE:    0.00 PKD
ROOT
HETATM    1  C   UNL     1     -12.985  10.379  70.651  1.00  0.00    -0.357 C  
HETATM    2  C   UNL     1     -12.015  11.516  70.390  1.00  0.00    -0.459 C  
ENDROOT
BRANCH   2   3
HETATM    3  C   UNL     1     -11.723  11.670  68.900  1.00  0.00    -0.397 C  
BRANCH   3   4
HETATM    4  C   UNL     1     -10.842  12.869  68.655  1.00  0.00    -0.258 C  
HETATM    5  O   UNL     1     -10.960  13.893  69.328  1.00  0.00    -0.243 OA 
HETATM    6  N   UNL     1      -9.872  12.659  67.683  1.00  0.00    -0.206 N  
HETATM    7  H   UNL     1      -9.856  11.776  67.172  1.00  0.00     0.000 HD 
BRANCH   6   8
HETATM    8  C   UNL     1      -8.902  13.653  67.389  1.00  0.00    -0.221 A  
HETATM    9  C   UNL     1      -7.597  13.487  67.863  1.00  0.00    -0.151 A  
HETATM   10  C   UNL     1      -6.655  14.502  67.695  1.00  0.00    -0.174 A  
HETATM   11  I   UNL     1      -6.984  11.761  68.891  1.00  0.00    -0.058 I  
HETATM   12  C   UNL     1      -7.028  15.727  67.124  1.00  0.00    -0.169 A  
HETATM   13  C   UNL     1      -8.342  15.952  66.662  1.00  0.00    -0.328 A  
HETATM   14  I   UNL     1      -5.447  17.120  66.931  1.00  0.00    -0.157 I  
HETATM   15  C   UNL     1      -9.216  14.837  66.681  1.00  0.00    -0.275 A  
HETATM   16  I   UNL     1     -10.800  14.719  65.181  1.00  0.00    -0.449 I  
BRANCH  13  17
HETATM   17  C   UNL     1      -8.822  17.324  66.213  1.00  0.00    -0.250 C  
HETATM   18  C   UNL     1      -9.806  18.044  67.177  1.00  0.00    -0.316 C  
HETATM   19  C   UNL     1     -10.192  19.390  66.580  1.00  0.00    -0.435 C  
HETATM   20  C   UNL     1      -9.329  18.223  68.630  1.00  0.00    -0.320 C  
HETATM   21  C   UNL     1      -8.048  19.023  68.809  1.00  0.00    -0.372 C  
HETATM   22  O   UNL     1      -9.501  20.031  65.804  1.00  0.00    -0.306 OA 
HETATM   23  O   UNL     1     -11.395  19.838  67.004  1.00  0.00    -0.141 OA 
ENDBRANCH  13  17
ENDBRANCH   6   8
ENDBRANCH   3   4
ENDBRANCH   2   3
TORSDOF 4
ENDMDL
MODEL       15
REMARK 921   NORMALIZED FREE ENERGY PREDICTED BY IDOCK:   -4.72 KCAL/MOL
REMARK 922        TOTAL FREE ENERGY PREDICTED BY IDOCK:   -6.79 KCAL/MOL
REMARK 923 INTER-LIGAND FREE ENERGY PREDICTED BY IDOCK:   -6.02 KCAL/MOL
REMARK 924 INTRA-LIGAND FREE ENERGY PREDICTED BY IDOCK:   -0.77 KCAL/MOL
REMARK 927      BINDING AFFINITY PREDICTED BY RF-SCORE:    0.00 PKD
ROOT
HETATM    1  C   UNL     1     -10.663   5.929  68.910  1.00  0.00    -0.370 C  
HETATM    2  C   UNL     1     -11.098   6.656  67.650  1.00  0.00    -0.357 C  
ENDROOT
BRANCH   2   3
HETATM    3  C   UNL     1      -9.983   6.683  66.609  1.00  0.00    -0.203 C  
BRANCH   3   4
HETATM    4  C   UNL     1      -9.167   7.944  66.742  1.00  0.00    -0.166 C  
HETATM    5  O   UNL     1      -7.991   7.981  66.380  1.00  0.00    -0.097 OA 
HETATM    6  N   UNL     1      -9.891   9.029  67.220  1.00  0.00    -0.181 N  
HETATM    7  H   UNL     1     -10.863   8.900  67.501  1.00  0.00     0.000 HD 
BRANCH   6   8
HETATM    8  C   UNL     1      -9.299  10.317  67.323  1.00  0.00    -0.149 A  
HETATM    9  C   UNL     1      -8.555  10.630  68.465  1.00  0.00    -0.137 A  
HETATM   10  C   UNL     1      -8.065  11.922  68.650  1.00  0.00    -0.086 A  
HETATM   11  I   UNL     1      -8.174   9.227  69.981  1.00  0.00    -0.228 I  
HETATM   12  C   UNL     1      -8.383  12.938  67.736  1.00  0.00    -0.178 A  
HETATM   13  C   UNL     1      -9.160  12.676  66.588  1.00  0.00    -0.193 A  
HETATM   14  I   UNL     1      -7.519  14.817  68.181  1.00  0.00    -0.184 I  
HETATM   15  C   UNL     1      -9.480  11.318  66.340  1.00  0.00    -0.200 A  
HETATM   16  I   UNL     1      -9.739  10.660  64.274  1.00  0.00    -0.394 I  
BRANCH  13  17
HETATM   17  C   UNL     1      -9.675  13.786  65.684  1.00  0.00    -0.136 C  
HETATM   18  C   UNL     1     -11.220  13.914  65.586  1.00  0.00    -0.306 C  
HETATM   19  C   UNL     1     -11.566  15.059  64.644  1.00  0.00    -0.386 C  
HETATM   20  C   UNL     1     -11.978  14.074  66.918  1.00  0.00    -0.479 C  
HETATM   21  C   UNL     1     -11.598  15.290  67.749  1.00  0.00    -0.277 C  
HETATM   22  O   UNL     1     -10.847  16.021  64.424  1.00  0.00    -0.522 OA 
HETATM   23  O   UNL     1     -12.780  14.925  64.062  1.00  0.00    -0.792 OA 
ENDBRANCH  13  17
ENDBRANCH   6   8
ENDBRANCH   3   4
ENDBRANCH   2   3
TORSDOF 4
ENDMDL
MODEL       16
REMARK 921   NORMALIZED FREE ENERGY PREDICTED BY IDOCK:   -4.68 KCAL/MOL
REMARK 922        TOTAL FREE ENERGY PREDICTED BY IDOCK:   -6.75 KCAL/MOL
REMARK 923 INTER-LIGAND FREE ENERGY PREDICTED BY IDOCK:   -6.07 KCAL/MOL
REMARK 924 INTRA-LIGAND FREE ENERGY PREDICTED BY IDOCK:   -0.68 KCAL/MOL
REMARK 927      BINDING AFFINITY PREDICTED BY RF-SCORE:    0.00 PKD
ROOT
HETATM    1  C   UNL     1     -12.544  11.871  63.460  1.00  0.00    -0.579 C  
HETATM    2  C   UNL     1     -11.904  13.039  64.186  1.00  0.00    -0.478 C  
ENDROOT
BRANCH   2   3
HETATM    3  C   UNL     1     -12.277  13.050  65.665  1.00  0.00    -0.521 C  
BRANCH   3   4
HETATM    4  C   UNL     1     -11.170  12.450  66.494  1.00  0.00    -0.319 C  
HETATM    5  O   UNL     1     -10.333  13.162  67.048  1.00  0.00    -0.246 OA 
HETATM    6  N   UNL     1     -11.255  11.068  66.620  1.00  0.00    -0.150 N  
HETATM    7  H   UNL     1     -11.984  10.562  66.117  1.00  0.00     0.000 HD 
BRANCH   6   8
HETATM    8  C   UNL     1     -10.343  10.350  67.440  1.00  0.00    -0.228 A  
HETATM    9  C   UNL     1      -9.126   9.933  66.893  1.00  0.00    -0.142 A  
HETATM   10  C   UNL     1      -8.265   9.124  67.634  1.00  0.00    -0.108 A  
HETATM   11  I   UNL     1      -8.538  10.433  64.939  1.00  0.00    -0.146 I  
HETATM   12  C   UNL     1      -8.648   8.654  68.899  1.00  0.00    -0.130 A  
HETATM   13  C   UNL     1      -9.881   9.022  69.477  1.00  0.00    -0.181 A  
HETATM   14  I   UNL     1      -7.190   7.468  69.870  1.00  0.00    -0.084 I  
HETATM   15  C   UNL     1     -10.642   9.990  68.775  1.00  0.00    -0.217 A  
HETATM   16  I   UNL     1     -11.937  11.333  69.911  1.00  0.00    -0.427 I  
BRANCH  13  17
HETATM   17  C   UNL     1     -10.403   8.384  70.755  1.00  0.00    -0.228 C  
HETATM   18  C   UNL     1     -11.604   7.413  70.584  1.00  0.00    -0.295 C  
HETATM   19  C   UNL     1     -12.005   6.872  71.950  1.00  0.00    -0.327 C  
HETATM   20  C   UNL     1     -11.409   6.254  69.589  1.00  0.00    -0.492 C  
HETATM   21  C   UNL     1     -10.260   5.307  69.900  1.00  0.00    -0.364 C  
HETATM   22  O   UNL     1     -11.252   6.768  72.906  1.00  0.00    -0.255 OA 
HETATM   23  O   UNL     1     -13.300   6.491  72.015  1.00  0.00    -0.150 OA 
ENDBRANCH  13  17
ENDBRANCH   6   8
ENDBRANCH   3   4
ENDBRANCH   2   3
TORSDOF 4
ENDMDL
MODEL       17
REMARK 921   NORMALIZED FREE ENERGY PREDICTED BY IDOCK:   -4.65 KCAL/MOL
REMARK 922        TOTAL FREE ENERGY PREDICTED BY IDOCK:   -6.70 KCAL/MOL
REMARK 923 INTER-LIGAND FREE ENERGY PREDICTED BY IDOCK:   -5.75 KCAL/MOL
REMARK 924 INTRA-LIGAND FREE ENERGY PREDICTED BY IDOCK:   -0.96 KCAL/MOL
REMARK 927      BINDING AFFINITY PREDICTED BY RF-SCORE:    0.00 PKD
ROOT
HETATM    1  C   UNL     1     -12.123  12.641  63.518  1.00  0.00    -0.648 C  
HETATM    2  C   UNL     1     -11.449  12.130  64.778  1.00  0.00    -0.377 C  
ENDROOT
BRANCH   2   3
HETATM    3  C   UNL     1     -10.443  11.027  64.465  1.00  0.00    -0.411 C  
BRANCH   3   4
HETATM    4  C   UNL     1     -10.033  10.312  65.728  1.00  0.00    -0.271 C  
HETATM    5  O   UNL     1     -10.158   9.092  65.838  1.00  0.00    -0.273 OA 
HETATM    6  N   UNL     1      -9.445  11.144  66.674  1.00  0.00    -0.179 N  
HETATM    7  H   UNL     1      -9.390  12.146  66.495  1.00  0.00     0.000 HD 
BRANCH   6   8
HETATM    8  C   UNL     1      -8.920  10.620  67.885  1.00  0.00    -0.138 A  
HETATM    9  C   UNL     1      -7.568  10.267  67.940  1.00  0.00    -0.089 A  
HETATM   10  C   UNL     1      -7.053   9.638  69.073  1.00  0.00    -0.066 A  
HETATM   11  I   UNL     1      -6.252  10.595  66.336  1.00  0.00    -0.134 I  
HETATM   12  C   UNL     1      -7.901   9.281  70.132  1.00  0.00    -0.125 A  
HETATM   13  C   UNL     1      -9.278   9.587  70.106  1.00  0.00    -0.281 A  
HETATM   14  I   UNL     1      -6.919   8.366  71.768  1.00  0.00    -0.089 I  
HETATM   15  C   UNL     1      -9.725  10.387  69.025  1.00  0.00    -0.206 A  
HETATM   16  I   UNL     1     -11.431  11.715  69.337  1.00  0.00    -0.375 I  
BRANCH  13  17
HETATM   17  C   UNL     1     -10.250   9.051  71.146  1.00  0.00    -0.363 C  
HETATM   18  C   UNL     1     -11.327   8.063  70.618  1.00  0.00    -0.256 C  
HETATM   19  C   UNL     1     -12.216   7.631  71.776  1.00  0.00    -0.311 C  
HETATM   20  C   UNL     1     -10.807   6.829  69.858  1.00  0.00    -0.310 C  
HETATM   21  C   UNL     1      -9.878   5.916  70.642  1.00  0.00    -0.230 C  
HETATM   22  O   UNL     1     -11.872   7.608  72.948  1.00  0.00    -0.225 OA 
HETATM   23  O   UNL     1     -13.453   7.250  71.386  1.00  0.00    -0.388 OA 
ENDBRANCH  13  17
ENDBRANCH   6   8
ENDBRANCH   3   4
ENDBRANCH   2   3
TORSDOF 4
ENDMDL
MODEL       18
REMARK 921   NORMALIZED FREE ENERGY PREDICTED BY IDOCK:   -4.64 KCAL/MOL
REMARK 922        TOTAL FREE ENERGY PREDICTED BY IDOCK:   -6.69 KCAL/MOL
REMARK 923 INTER-LIGAND FREE ENERGY PREDICTED BY IDOCK:   -5.84 KCAL/MOL
REMARK 924 INTRA-LIGAND FREE ENERGY PREDICTED BY IDOCK:   -0.85 KCAL/MOL
REMARK 927      BINDING AFFINITY PREDICTED BY RF-SCORE:    0.00 PKD
ROOT
HETATM    1  C   UNL     1     -13.205  15.783  73.439  1.00  0.00    -0.653 C  
HETATM    2  C   UNL     1     -13.679  14.824  72.362  1.00  0.00    -0.576 C  
ENDROOT
BRANCH   2   3
HETATM    3  C   UNL     1     -13.444  15.393  70.966  1.00  0.00    -0.510 C  
BRANCH   3   4
HETATM    4  C   UNL     1     -12.097  14.965  70.441  1.00  0.00    -0.330 C  
HETATM    5  O   UNL     1     -11.060  15.267  71.030  1.00  0.00    -0.330 OA 
HETATM    6  N   UNL     1     -12.170  14.155  69.314  1.00  0.00    -0.472 N  
HETATM    7  H   UNL     1     -13.078  13.962  68.892  1.00  0.00     0.000 HD 
BRANCH   6   8
HETATM    8  C   UNL     1     -10.999  13.590  68.742  1.00  0.00    -0.261 A  
HETATM    9  C   UNL     1     -10.719  12.238  68.968  1.00  0.00    -0.107 A  
HETATM   10  C   UNL     1      -9.519  11.687  68.522  1.00  0.00    -0.175 A  
HETATM   11  I   UNL     1     -12.028  10.978  70.023  1.00  0.00    -0.457 I  
HETATM   12  C   UNL     1      -8.547  12.498  67.916  1.00  0.00    -0.179 A  
HETATM   13  C   UNL     1      -8.772  13.873  67.698  1.00  0.00    -0.187 A  
HETATM   14  I   UNL     1      -6.813  11.464  67.285  1.00  0.00    -0.145 I  
HETATM   15  C   UNL     1     -10.072  14.354  67.995  1.00  0.00    -0.232 A  
HETATM   16  I   UNL     1     -10.855  16.042  66.850  1.00  0.00     0.050 I  
BRANCH  13  17
HETATM   17  C   UNL     1      -7.675  14.811  67.219  1.00  0.00    -0.214 C  
HETATM   18  C   UNL     1      -7.240  15.912  68.225  1.00  0.00    -0.118 C  
HETATM   19  C   UNL     1      -6.147  16.762  67.591  1.00  0.00    -0.146 C  
HETATM   20  C   UNL     1      -6.796  15.427  69.617  1.00  0.00    -0.185 C  
HETATM   21  C   UNL     1      -5.609  14.476  69.636  1.00  0.00    -0.095 C  
HETATM   22  O   UNL     1      -5.381  16.376  66.721  1.00  0.00    -0.348 OA 
HETATM   23  O   UNL     1      -6.084  18.015  68.095  1.00  0.00    -0.171 OA 
ENDBRANCH  13  17
ENDBRANCH   6   8
ENDBRANCH   3   4
ENDBRANCH   2   3
TORSDOF 4
ENDMDL
MODEL       19
REMARK 921   NORMALIZED FREE ENERGY PREDICTED BY IDOCK:   -4.63 KCAL/MOL
REMARK 922        TOTAL FREE ENERGY PREDICTED BY IDOCK:   -6.68 KCAL/MOL
REMARK 923 INTER-LIGAND FREE ENERGY PREDICTED BY IDOCK:   -5.78 KCAL/MOL
REMARK 924 INTRA-LIGAND FREE ENERGY PREDICTED BY IDOCK:   -0.91 KCAL/MOL
REMARK 927      BINDING AFFINITY PREDICTED BY RF-SCORE:    0.00 PKD
ROOT
HETATM    1  C   UNL     1      -8.485   5.656  70.103  1.00  0.00    -0.119 C  
HETATM    2  C   UNL     1      -9.147   6.994  70.379  1.00  0.00    -0.156 C  
ENDROOT
BRANCH   2   3
HETATM    3  C   UNL     1      -8.125   8.126  70.409  1.00  0.00    -0.108 C  
BRANCH   3   4
HETATM    4  C   UNL     1      -8.693   9.368  69.769  1.00  0.00    -0.181 C  
HETATM    5  O   UNL     1      -8.043  10.412  69.722  1.00  0.00    -0.146 OA 
HETATM    6  N   UNL     1      -9.942   9.176  69.193  1.00  0.00    -0.181 N  
HETATM    7  H   UNL     1     -10.406   8.273  69.289  1.00  0.00     0.000 HD 
BRANCH   6   8
HETATM    8  C   UNL     1     -10.584  10.218  68.470  1.00  0.00    -0.213 A  
HETATM    9  C   UNL     1     -10.363  10.322  67.093  1.00  0.00    -0.238 A  
HETATM   10  C   UNL     1     -10.880  11.403  66.381  1.00  0.00    -0.323 A  
HETATM   11  I   UNL     1      -9.214   8.923  66.028  1.00  0.00    -0.274 I  
HETATM   12  C   UNL     1     -11.554  12.436  67.049  1.00  0.00    -0.365 A  
HETATM   13  C   UNL     1     -11.771  12.390  68.442  1.00  0.00    -0.386 A  
HETATM   14  I   UNL     1     -12.285  13.965  65.784  1.00  0.00    -0.495 I  
HETATM   15  C   UNL     1     -11.395  11.191  69.099  1.00  0.00    -0.273 A  
HETATM   16  I   UNL     1     -12.504  10.577  70.877  1.00  0.00    -0.537 I  
BRANCH  13  17
HETATM   17  C   UNL     1     -12.328  13.573  69.218  1.00  0.00    -0.125 C  
HETATM   18  C   UNL     1     -11.310  14.340  70.105  1.00  0.00    -0.187 C  
HETATM   19  C   UNL     1     -12.026  15.481  70.813  1.00  0.00    -0.378 C  
HETATM   20  C   UNL     1     -10.046  14.863  69.398  1.00  0.00    -0.166 C  
HETATM   21  C   UNL     1     -10.287  15.838  68.255  1.00  0.00    -0.239 C  
HETATM   22  O   UNL     1     -13.031  16.037  70.397  1.00  0.00    -0.283 OA 
HETATM   23  O   UNL     1     -11.433  15.849  71.971  1.00  0.00    -0.401 OA 
ENDBRANCH  13  17
ENDBRANCH   6   8
ENDBRANCH   3   4
ENDBRANCH   2   3
TORSDOF 4
ENDMDL
MODEL       20
REMARK 921   NORMALIZED FREE ENERGY PREDICTED BY IDOCK:   -4.61 KCAL/MOL
REMARK 922        TOTAL FREE ENERGY PREDICTED BY IDOCK:   -6.66 KCAL/MOL
REMARK 923 INTER-LIGAND FREE ENERGY PREDICTED BY IDOCK:   -5.85 KCAL/MOL
REMARK 924 INTRA-LIGAND FREE ENERGY PREDICTED BY IDOCK:   -0.81 KCAL/MOL
REMARK 927      BINDING AFFINITY PREDICTED BY RF-SCORE:    0.00 PKD
ROOT
HETATM    1  C   UNL     1     -12.592  13.846  65.605  1.00  0.00    -0.553 C  
HETATM    2  C   UNL     1     -12.398  12.504  64.923  1.00  0.00    -0.539 C  
ENDROOT
BRANCH   2   3
HETATM    3  C   UNL     1     -10.964  12.328  64.433  1.00  0.00    -0.374 C  
BRANCH   3   4
HETATM    4  C   UNL     1     -10.065  11.908  65.569  1.00  0.00    -0.245 C  
HETATM    5  O   UNL     1      -9.339  12.721  66.140  1.00  0.00    -0.210 OA 
HETATM    6  N   UNL     1     -10.212  10.575  65.932  1.00  0.00    -0.256 N  
HETATM    7  H   UNL     1     -10.837   9.974  65.394  1.00  0.00     0.000 HD 
BRANCH   6   8
HETATM    8  C   UNL     1      -9.506  10.035  67.040  1.00  0.00    -0.164 A  
HETATM    9  C   UNL     1      -8.222   9.520  66.838  1.00  0.00    -0.113 A  
HETATM   10  C   UNL     1      -7.554   8.875  67.879  1.00  0.00    -0.093 A  
HETATM   11  I   UNL     1      -7.245   9.625  64.982  1.00  0.00    -0.134 I  
HETATM   12  C   UNL     1      -8.194   8.664  69.109  1.00  0.00    -0.117 A  
HETATM   13  C   UNL     1      -9.502   9.136  69.346  1.00  0.00    -0.161 A  
HETATM   14  I   UNL     1      -7.001   7.695  70.563  1.00  0.00    -0.047 I  
HETATM   15  C   UNL     1     -10.074   9.945  68.333  1.00  0.00    -0.167 A  
HETATM   16  I   UNL     1     -11.515  11.484  68.905  1.00  0.00    -0.452 I  
BRANCH  13  17
HETATM   17  C   UNL     1     -10.288   8.762  70.594  1.00  0.00    -0.253 C  
HETATM   18  C   UNL     1     -11.518   7.840  70.367  1.00  0.00    -0.171 C  
HETATM   19  C   UNL     1     -12.191   7.571  71.706  1.00  0.00    -0.314 C  
HETATM   20  C   UNL     1     -11.250   6.515  69.630  1.00  0.00    -0.446 C  
HETATM   21  C   UNL     1     -10.255   5.579  70.299  1.00  0.00    -0.326 C  
HETATM   22  O   UNL     1     -11.626   7.599  72.788  1.00  0.00    -0.337 OA 
HETATM   23  O   UNL     1     -13.506   7.275  71.593  1.00  0.00    -0.375 OA 
ENDBRANCH  13  17
ENDBRANCH   6   8
ENDBRANCH   3   4
ENDBRANCH   2   3
TORSDOF 4
ENDMDL
MODEL       21
REMARK 921   NORMALIZED FREE ENERGY PREDICTED BY IDOCK:   -4.60 KCAL/MOL
REMARK 922        TOTAL FREE ENERGY PREDICTED BY IDOCK:   -6.64 KCAL/MOL
REMARK 923 INTER-LIGAND FREE ENERGY PREDICTED BY IDOCK:   -5.60 KCAL/MOL
REMARK 924 INTRA-LIGAND FREE ENERGY PREDICTED BY IDOCK:   -1.05 KCAL/MOL
REMARK 927      BINDING AFFINITY PREDICTED BY RF-SCORE:    0.00 PKD
ROOT
HETATM    1  C   UNL     1     -10.341  15.725  65.523  1.00  0.00    -0.430 C  
HETATM    2  C   UNL     1      -9.720  15.918  66.895  1.00  0.00    -0.241 C  
ENDROOT
BRANCH   2   3
HETATM    3  C   UNL     1      -8.518  15.002  67.098  1.00  0.00    -0.244 C  
BRANCH   3   4
HETATM    4  C   UNL     1      -8.969  13.601  67.424  1.00  0.00    -0.218 C  
HETATM    5  O   UNL     1      -9.863  13.397  68.246  1.00  0.00    -0.228 OA 
HETATM    6  N   UNL     1      -8.345  12.622  66.661  1.00  0.00    -0.412 N  
HETATM    7  H   UNL     1      -7.609  12.889  66.007  1.00  0.00     0.000 HD 
BRANCH   6   8
HETATM    8  C   UNL     1      -8.715  11.256  66.778  1.00  0.00    -0.166 A  
HETATM    9  C   UNL     1      -9.690  10.743  65.916  1.00  0.00    -0.224 A  
HETATM   10  C   UNL     1     -10.161   9.441  66.085  1.00  0.00    -0.324 A  
HETATM   11  I   UNL     1     -10.541  11.885  64.372  1.00  0.00    -0.477 I  
HETATM   12  C   UNL     1      -9.723   8.664  67.168  1.00  0.00    -0.190 A  
HETATM   13  C   UNL     1      -8.766   9.152  68.082  1.00  0.00    -0.129 A  
HETATM   14  I   UNL     1     -10.533   6.711  67.227  1.00  0.00    -0.461 I  
HETATM   15  C   UNL     1      -8.177  10.403  67.770  1.00  0.00    -0.110 A  
HETATM   16  I   UNL     1      -6.130  10.792  68.424  1.00  0.00    -0.045 I  
BRANCH  13  17
HETATM   17  C   UNL     1      -8.414   8.412  69.364  1.00  0.00    -0.125 C  
HETATM   18  C   UNL     1      -8.845   9.106  70.685  1.00  0.00    -0.278 C  
HETATM   19  C   UNL     1      -8.414   8.244  71.864  1.00  0.00    -0.160 C  
HETATM   20  C   UNL     1     -10.337   9.470  70.810  1.00  0.00    -0.377 C  
HETATM   21  C   UNL     1     -11.309   8.304  70.717  1.00  0.00    -0.285 C  
HETATM   22  O   UNL     1      -8.255   7.034  71.820  1.00  0.00    -0.103 OA 
HETATM   23  O   UNL     1      -8.230   8.949  73.002  1.00  0.00    -0.371 OA 
ENDBRANCH  13  17
ENDBRANCH   6   8
ENDBRANCH   3   4
ENDBRANCH   2   3
TORSDOF 4
ENDMDL
MODEL       22
REMARK 921   NORMALIZED FREE ENERGY PREDICTED BY IDOCK:   -4.57 KCAL/MOL
REMARK 922        TOTAL FREE ENERGY PREDICTED BY IDOCK:   -6.60 KCAL/MOL
REMARK 923 INTER-LIGAND FREE ENERGY PREDICTED BY IDOCK:   -5.77 KCAL/MOL
REMARK 924 INTRA-LIGAND FREE ENERGY PREDICTED BY IDOCK:   -0.84 KCAL/MOL
REMARK 927      BINDING AFFINITY PREDICTED BY RF-SCORE:    0.00 PKD
ROOT
HETATM    1  C   UNL     1      -9.629  20.829  67.206  1.00  0.00    -0.494 C  
HETATM    2  C   UNL     1     -10.670  19.726  67.253  1.00  0.00    -0.532 C  
ENDROOT
BRANCH   2   3
HETATM    3  C   UNL     1     -10.685  18.917  65.959  1.00  0.00    -0.373 C  
BRANCH   3   4
HETATM    4  C   UNL     1     -10.017  17.581  66.164  1.00  0.00    -0.270 C  
HETATM    5  O   UNL     1     -10.141  16.675  65.341  1.00  0.00    -0.578 OA 
HETATM    6  N   UNL     1      -9.213  17.528  67.297  1.00  0.00    -0.237 N  
HETATM    7  H   UNL     1      -9.177  18.330  67.925  1.00  0.00     0.000 HD 
BRANCH   6   8
HETATM    8  C   UNL     1      -8.441  16.373  67.593  1.00  0.00    -0.169 A  
HETATM    9  C   UNL     1      -7.108  16.325  67.173  1.00  0.00    -0.209 A  
HETATM   10  C   UNL     1      -6.362  15.159  67.341  1.00  0.00    -0.005 A  
HETATM   11  I   UNL     1      -6.166  17.946  66.225  1.00  0.00    -0.294 I  
HETATM   12  C   UNL     1      -6.962  14.001  67.857  1.00  0.00    -0.161 A  
HETATM   13  C   UNL     1      -8.313  13.993  68.263  1.00  0.00    -0.162 A  
HETATM   14  I   UNL     1      -5.653  12.352  68.061  1.00  0.00    -0.108 I  
HETATM   15  C   UNL     1      -8.982  15.243  68.249  1.00  0.00    -0.176 A  
HETATM   16  I   UNL     1     -10.584  15.593  69.693  1.00  0.00    -0.350 I  
BRANCH  13  17
HETATM   17  C   UNL     1      -9.040  12.714  68.647  1.00  0.00     0.040 C  
HETATM   18  C   UNL     1     -10.309  12.381  67.815  1.00  0.00    -0.222 C  
HETATM   19  C   UNL     1     -10.915  11.083  68.329  1.00  0.00    -0.235 C  
HETATM   20  C   UNL     1     -10.124  12.313  66.287  1.00  0.00    -0.253 C  
HETATM   21  C   UNL     1      -9.123  11.281  65.790  1.00  0.00    -0.216 C  
HETATM   22  O   UNL     1     -10.290  10.197  68.892  1.00  0.00    -0.185 OA 
HETATM   23  O   UNL     1     -12.243  10.982  68.092  1.00  0.00    -0.578 OA 
ENDBRANCH  13  17
ENDBRANCH   6   8
ENDBRANCH   3   4
ENDBRANCH   2   3
TORSDOF 4
ENDMDL
MODEL       23
REMARK 921   NORMALIZED FREE ENERGY PREDICTED BY IDOCK:   -4.56 KCAL/MOL
REMARK 922        TOTAL FREE ENERGY PREDICTED BY IDOCK:   -6.60 KCAL/MOL
REMARK 923 INTER-LIGAND FREE ENERGY PREDICTED BY IDOCK:   -5.56 KCAL/MOL
REMARK 924 INTRA-LIGAND FREE ENERGY PREDICTED BY IDOCK:   -1.03 KCAL/MOL
REMARK 927      BINDING AFFINITY PREDICTED BY RF-SCORE:    0.00 PKD
ROOT
HETATM    1  C   UNL     1     -11.998  15.413  69.931  1.00  0.00    -0.384 C  
HETATM    2  C   UNL     1     -10.880  15.869  69.010  1.00  0.00    -0.266 C  
ENDROOT
BRANCH   2   3
HETATM    3  C   UNL     1     -11.103  15.386  67.581  1.00  0.00    -0.316 C  
BRANCH   3   4
HETATM    4  C   UNL     1     -10.497  14.019  67.385  1.00  0.00    -0.263 C  
HETATM    5  O   UNL     1      -9.296  13.823  67.570  1.00  0.00    -0.207 OA 
HETATM    6  N   UNL     1     -11.428  13.037  67.068  1.00  0.00    -0.315 N  
HETATM    7  H   UNL     1     -12.404  13.297  66.929  1.00  0.00     0.000 HD 
BRANCH   6   8
HETATM    8  C   UNL     1     -11.041  11.676  66.936  1.00  0.00    -0.308 A  
HETATM    9  C   UNL     1     -11.166  10.827  68.040  1.00  0.00    -0.307 A  
HETATM   10  C   UNL     1     -10.683   9.520  67.977  1.00  0.00    -0.266 A  
HETATM   11  I   UNL     1     -12.019  11.455  69.854  1.00  0.00    -0.389 I  
HETATM   12  C   UNL     1      -9.995   9.073  66.840  1.00  0.00    -0.246 A  
HETATM   13  C   UNL     1      -9.815   9.906  65.715  1.00  0.00    -0.356 A  
HETATM   14  I   UNL     1      -9.370   7.054  66.932  1.00  0.00    -0.217 I  
HETATM   15  C   UNL     1     -10.480  11.157  65.746  1.00  0.00    -0.246 A  
HETATM   16  I   UNL     1     -11.127  12.048  63.860  1.00  0.00    -0.587 I  
BRANCH  13  17
HETATM   17  C   UNL     1      -8.918   9.517  64.550  1.00  0.00    -0.256 C  
HETATM   18  C   UNL     1      -7.610  10.341  64.400  1.00  0.00    -0.094 C  
HETATM   19  C   UNL     1      -6.838   9.833  63.190  1.00  0.00    -0.115 C  
HETATM   20  C   UNL     1      -6.691  10.394  65.634  1.00  0.00    -0.127 C  
HETATM   21  C   UNL     1      -6.179   9.051  66.131  1.00  0.00    -0.063 C  
HETATM   22  O   UNL     1      -6.914   8.700  62.741  1.00  0.00    -0.091 OA 
HETATM   23  O   UNL     1      -6.025  10.765  62.645  1.00  0.00    -0.145 OA 
ENDBRANCH  13  17
ENDBRANCH   6   8
ENDBRANCH   3   4
ENDBRANCH   2   3
TORSDOF 4
ENDMDL
MODEL       24
REMARK 921   NORMALIZED FREE ENERGY PREDICTED BY IDOCK:   -4.49 KCAL/MOL
REMARK 922        TOTAL FREE ENERGY PREDICTED BY IDOCK:   -6.51 KCAL/MOL
REMARK 923 INTER-LIGAND FREE ENERGY PREDICTED BY IDOCK:   -5.64 KCAL/MOL
REMARK 924 INTRA-LIGAND FREE ENERGY PREDICTED BY IDOCK:   -0.87 KCAL/MOL
REMARK 927      BINDING AFFINITY PREDICTED BY RF-SCORE:    0.00 PKD
ROOT
HETATM    1  C   UNL     1     -10.576  19.953  66.680  1.00  0.00    -0.540 C  
HETATM    2  C   UNL     1      -9.599  20.484  67.714  1.00  0.00    -0.420 C  
ENDROOT
BRANCH   2   3
HETATM    3  C   UNL     1      -8.185  19.970  67.462  1.00  0.00    -0.369 C  
BRANCH   3   4
HETATM    4  C   UNL     1      -8.195  18.478  67.248  1.00  0.00    -0.249 C  
HETATM    5  O   UNL     1      -8.067  17.996  66.122  1.00  0.00    -0.420 OA 
HETATM    6  N   UNL     1      -8.277  17.746  68.426  1.00  0.00    -0.291 N  
HETATM    7  H   UNL     1      -8.387  18.236  69.314  1.00  0.00     0.000 HD 
BRANCH   6   8
HETATM    8  C   UNL     1      -8.210  16.327  68.414  1.00  0.00    -0.185 A  
HETATM    9  C   UNL     1      -6.959  15.709  68.513  1.00  0.00    -0.115 A  
HETATM   10  C   UNL     1      -6.850  14.325  68.381  1.00  0.00    -0.104 A  
HETATM   11  I   UNL     1      -5.185  16.794  68.800  1.00  0.00    -0.123 I  
HETATM   12  C   UNL     1      -7.978  13.551  68.069  1.00  0.00    -0.151 A  
HETATM   13  C   UNL     1      -9.253  14.136  67.927  1.00  0.00    -0.196 A  
HETATM   14  I   UNL     1      -7.606  11.472  67.944  1.00  0.00    -0.144 I  
HETATM   15  C   UNL     1      -9.354  15.513  68.250  1.00  0.00    -0.192 A  
HETATM   16  I   UNL     1     -11.247  16.271  69.034  1.00  0.00    -0.174 I  
BRANCH  13  17
HETATM   17  C   UNL     1     -10.453  13.358  67.408  1.00  0.00    -0.243 C  
HETATM   18  C   UNL     1     -11.101  13.905  66.107  1.00  0.00    -0.299 C  
HETATM   19  C   UNL     1     -12.283  13.022  65.730  1.00  0.00    -0.453 C  
HETATM   20  C   UNL     1     -10.163  14.080  64.898  1.00  0.00    -0.377 C  
HETATM   21  C   UNL     1      -9.468  12.817  64.415  1.00  0.00     0.475 C  
HETATM   22  O   UNL     1     -12.398  11.845  66.036  1.00  0.00    -0.339 OA 
HETATM   23  O   UNL     1     -13.218  13.665  64.995  1.00  0.00    -0.729 OA 
ENDBRANCH  13  17
ENDBRANCH   6   8
ENDBRANCH   3   4
ENDBRANCH   2   3
TORSDOF 4
ENDMDL
MODEL       25
REMARK 921   NORMALIZED FREE ENERGY PREDICTED BY IDOCK:   -4.48 KCAL/MOL
REMARK 922        TOTAL FREE ENERGY PREDICTED BY IDOCK:   -6.50 KCAL/MOL
REMARK 923 INTER-LIGAND FREE ENERGY PREDICTED BY IDOCK:   -5.76 KCAL/MOL
REMARK 924 INTRA-LIGAND FREE ENERGY PREDICTED BY IDOCK:   -0.74 KCAL/MOL
REMARK 927      BINDING AFFINITY PREDICTED BY RF-SCORE:    0.00 PKD
ROOT
HETATM    1  C   UNL     1      -9.018   4.634  69.886  1.00  0.00    -0.144 C  
HETATM    2  C   UNL     1     -10.029   5.081  70.925  1.00  0.00    -0.286 C  
ENDROOT
BRANCH   2   3
HETATM    3  C   UNL     1      -9.974   6.590  71.145  1.00  0.00    -0.202 C  
BRANCH   3   4
HETATM    4  C   UNL     1     -10.563   7.318  69.964  1.00  0.00    -0.233 C  
HETATM    5  O   UNL     1     -11.627   6.957  69.461  1.00  0.00    -0.162 OA 
HETATM    6  N   UNL     1      -9.839   8.443  69.585  1.00  0.00    -0.181 N  
HETATM    7  H   UNL     1      -8.963   8.659  70.061  1.00  0.00     0.000 HD 
BRANCH   6   8
HETATM    8  C   UNL     1     -10.301   9.295  68.547  1.00  0.00    -0.209 A  
HETATM    9  C   UNL     1     -10.002   8.968  67.220  1.00  0.00    -0.216 A  
HETATM   10  C   UNL     1     -10.336   9.847  66.190  1.00  0.00    -0.223 A  
HETATM   11  I   UNL     1      -9.001   7.199  66.694  1.00  0.00    -0.189 I  
HETATM   12  C   UNL     1     -10.898  11.099  66.480  1.00  0.00    -0.245 A  
HETATM   13  C   UNL     1     -11.185  11.485  67.806  1.00  0.00    -0.343 A  
HETATM   14  I   UNL     1     -11.358  12.268  64.778  1.00  0.00    -0.392 I  
HETATM   15  C   UNL     1     -11.005  10.495  68.804  1.00  0.00    -0.251 A  
HETATM   16  I   UNL     1     -12.269  10.555  70.584  1.00  0.00    -0.491 I  
BRANCH  13  17
HETATM   17  C   UNL     1     -11.617  12.899  68.167  1.00  0.00    -0.378 C  
HETATM   18  C   UNL     1     -10.576  13.743  68.953  1.00  0.00    -0.224 C  
HETATM   19  C   UNL     1     -11.164  15.118  69.238  1.00  0.00    -0.278 C  
HETATM   20  C   UNL     1      -9.184  13.883  68.309  1.00  0.00    -0.207 C  
HETATM   21  C   UNL     1      -9.158  14.526  66.931  1.00  0.00    -0.274 C  
HETATM   22  O   UNL     1     -12.023  15.662  68.561  1.00  0.00    -0.313 OA 
HETATM   23  O   UNL     1     -10.630  15.712  70.329  1.00  0.00    -0.316 OA 
ENDBRANCH  13  17
ENDBRANCH   6   8
ENDBRANCH   3   4
ENDBRANCH   2   3
TORSDOF 4
ENDMDL
MODEL       26
REMARK 921   NORMALIZED FREE ENERGY PREDICTED BY IDOCK:   -4.47 KCAL/MOL
REMARK 922        TOTAL FREE ENERGY PREDICTED BY IDOCK:   -6.49 KCAL/MOL
REMARK 923 INTER-LIGAND FREE ENERGY PREDICTED BY IDOCK:   -5.58 KCAL/MOL
REMARK 924 INTRA-LIGAND FREE ENERGY PREDICTED BY IDOCK:   -0.90 KCAL/MOL
REMARK 927      BINDING AFFINITY PREDICTED BY RF-SCORE:    0.00 PKD
ROOT
HETATM    1  C   UNL     1      -9.050  19.508  66.850  1.00  0.00    -0.392 C  
HETATM    2  C   UNL     1     -10.074  18.396  66.713  1.00  0.00    -0.391 C  
ENDROOT
BRANCH   2   3
HETATM    3  C   UNL     1     -10.646  17.993  68.069  1.00  0.00    -0.361 C  
BRANCH   3   4
HETATM    4  C   UNL     1     -10.361  16.540  68.352  1.00  0.00    -0.294 C  
HETATM    5  O   UNL     1      -9.231  16.161  68.661  1.00  0.00    -0.201 OA 
HETATM    6  N   UNL     1     -11.491  15.732  68.307  1.00  0.00    -0.360 N  
HETATM    7  H   UNL     1     -12.387  16.136  68.034  1.00  0.00     0.000 HD 
BRANCH   6   8
HETATM    8  C   UNL     1     -11.418  14.351  68.635  1.00  0.00    -0.287 A  
HETATM    9  C   UNL     1     -11.955  13.915  69.850  1.00  0.00    -0.341 A  
HETATM   10  C   UNL     1     -11.791  12.591  70.253  1.00  0.00    -0.305 A  
HETATM   11  I   UNL     1     -12.977  15.204  71.157  1.00  0.00    -0.567 I  
HETATM   12  C   UNL     1     -11.018  11.706  69.486  1.00  0.00    -0.098 A  
HETATM   13  C   UNL     1     -10.429  12.111  68.271  1.00  0.00    -0.225 A  
HETATM   14  I   UNL     1     -10.919   9.738  70.255  1.00  0.00    -0.415 I  
HETATM   15  C   UNL     1     -10.772  13.405  67.805  1.00  0.00    -0.248 A  
HETATM   16  I   UNL     1     -10.804  13.771  65.652  1.00  0.00    -0.336 I  
BRANCH  13  17
HETATM   17  C   UNL     1      -9.437  11.239  67.517  1.00  0.00    -0.177 C  
HETATM   18  C   UNL     1      -7.980  11.774  67.450  1.00  0.00    -0.155 C  
HETATM   19  C   UNL     1      -7.125  10.793  66.660  1.00  0.00    -0.133 C  
HETATM   20  C   UNL     1      -7.310  12.098  68.798  1.00  0.00    -0.090 C  
HETATM   21  C   UNL     1      -7.190  10.934  69.770  1.00  0.00    -0.061 C  
HETATM   22  O   UNL     1      -7.355   9.597  66.554  1.00  0.00    -0.089 OA 
HETATM   23  O   UNL     1      -6.050  11.369  66.078  1.00  0.00    -0.055 OA 
ENDBRANCH  13  17
ENDBRANCH   6   8
ENDBRANCH   3   4
ENDBRANCH   2   3
TORSDOF 4
ENDMDL
MODEL       27
REMARK 921   NORMALIZED FREE ENERGY PREDICTED BY IDOCK:   -4.45 KCAL/MOL
REMARK 922        TOTAL FREE ENERGY PREDICTED BY IDOCK:   -6.46 KCAL/MOL
REMARK 923 INTER-LIGAND FREE ENERGY PREDICTED BY IDOCK:   -5.77 KCAL/MOL
REMARK 924 INTRA-LIGAND FREE ENERGY PREDICTED BY IDOCK:   -0.69 KCAL/MOL
REMARK 927      BINDING AFFINITY PREDICTED BY RF-SCORE:    0.00 PKD
ROOT
HETATM    1  C   UNL     1      -5.189  19.087  71.424  1.00  0.00    -0.321 C  
HETATM    2  C   UNL     1      -5.536  18.504  70.066  1.00  0.00    -0.233 C  
ENDROOT
BRANCH   2   3
HETATM    3  C   UNL     1      -6.515  19.396  69.309  1.00  0.00    -0.347 C  
BRANCH   3   4
HETATM    4  C   UNL     1      -7.123  18.650  68.149  1.00  0.00    -0.249 C  
HETATM    5  O   UNL     1      -6.660  18.754  67.013  1.00  0.00    -0.193 OA 
HETATM    6  N   UNL     1      -8.163  17.804  68.514  1.00  0.00    -0.294 N  
HETATM    7  H   UNL     1      -8.481  17.789  69.483  1.00  0.00     0.000 HD 
BRANCH   6   8
HETATM    8  C   UNL     1      -8.790  16.959  67.559  1.00  0.00    -0.209 A  
HETATM    9  C   UNL     1      -9.821  17.479  66.770  1.00  0.00    -0.306 A  
HETATM   10  C   UNL     1     -10.536  16.644  65.912  1.00  0.00    -0.324 A  
HETATM   11  I   UNL     1     -10.398  19.497  66.856  1.00  0.00    -0.643 I  
HETATM   12  C   UNL     1     -10.283  15.264  65.892  1.00  0.00    -0.332 A  
HETATM   13  C   UNL     1      -9.276  14.691  66.696  1.00  0.00    -0.291 A  
HETATM   14  I   UNL     1     -11.452  14.180  64.502  1.00  0.00    -0.278 I  
HETATM   15  C   UNL     1      -8.451  15.594  67.412  1.00  0.00    -0.172 A  
HETATM   16  I   UNL     1      -6.385  15.022  67.832  1.00  0.00    -0.133 I  
BRANCH  13  17
HETATM   17  C   UNL     1      -9.105  13.186  66.836  1.00  0.00    -0.231 C  
HETATM   18  C   UNL     1      -9.462  12.592  68.227  1.00  0.00    -0.203 C  
HETATM   19  C   UNL     1      -9.231  11.088  68.200  1.00  0.00    -0.165 C  
HETATM   20  C   UNL     1     -10.873  12.904  68.760  1.00  0.00    -0.277 C  
HETATM   21  C   UNL     1     -12.026  12.425  67.891  1.00  0.00    -0.260 C  
HETATM   22  O   UNL     1      -9.279  10.393  67.196  1.00  0.00    -0.142 OA 
HETATM   23  O   UNL     1      -8.973  10.565  69.420  1.00  0.00    -0.170 OA 
ENDBRANCH  13  17
ENDBRANCH   6   8
ENDBRANCH   3   4
ENDBRANCH   2   3
TORSDOF 4
ENDMDL
MODEL       28
REMARK 921   NORMALIZED FREE ENERGY PREDICTED BY IDOCK:   -4.41 KCAL/MOL
REMARK 922        TOTAL FREE ENERGY PREDICTED BY IDOCK:   -6.41 KCAL/MOL
REMARK 923 INTER-LIGAND FREE ENERGY PREDICTED BY IDOCK:   -5.77 KCAL/MOL
REMARK 924 INTRA-LIGAND FREE ENERGY PREDICTED BY IDOCK:   -0.65 KCAL/MOL
REMARK 927      BINDING AFFINITY PREDICTED BY RF-SCORE:    0.00 PKD
ROOT
HETATM    1  C   UNL     1      -9.820  20.104  67.263  1.00  0.00    -0.580 C  
HETATM    2  C   UNL     1     -10.425  18.892  66.577  1.00  0.00    -0.500 C  
ENDROOT
BRANCH   2   3
HETATM    3  C   UNL     1     -10.361  17.656  67.470  1.00  0.00    -0.365 C  
BRANCH   3   4
HETATM    4  C   UNL     1      -9.868  16.465  66.688  1.00  0.00    -0.261 C  
HETATM    5  O   UNL     1      -9.079  16.600  65.753  1.00  0.00    -0.503 OA 
HETATM    6  N   UNL     1     -10.323  15.248  67.181  1.00  0.00    -0.261 N  
HETATM    7  H   UNL     1     -10.982  15.236  67.960  1.00  0.00     0.000 HD 
BRANCH   6   8
HETATM    8  C   UNL     1      -9.885  14.019  66.618  1.00  0.00    -0.284 A  
HETATM    9  C   UNL     1     -10.535  13.525  65.483  1.00  0.00    -0.299 A  
HETATM   10  C   UNL     1     -10.209  12.266  64.981  1.00  0.00    -0.312 A  
HETATM   11  I   UNL     1     -12.058  14.590  64.504  1.00  0.00    -0.216 I  
HETATM   12  C   UNL     1      -9.287  11.451  65.654  1.00  0.00    -0.222 A  
HETATM   13  C   UNL     1      -8.631  11.895  66.822  1.00  0.00    -0.181 A  
HETATM   14  I   UNL     1      -8.908   9.594  64.714  1.00  0.00    -0.260 I  
HETATM   15  C   UNL     1      -8.850  13.245  67.193  1.00  0.00    -0.222 A  
HETATM   16  I   UNL     1      -7.266  14.314  68.249  1.00  0.00    -0.184 I  
BRANCH  13  17
HETATM   17  C   UNL     1      -7.774  10.971  67.674  1.00  0.00    -0.112 C  
HETATM   18  C   UNL     1      -8.313  10.674  69.100  1.00  0.00    -0.140 C  
HETATM   19  C   UNL     1      -7.341   9.748  69.818  1.00  0.00    -0.116 C  
HETATM   20  C   UNL     1      -9.744  10.112  69.186  1.00  0.00    -0.225 C  
HETATM   21  C   UNL     1      -9.977   8.794  68.463  1.00  0.00    -0.200 C  
HETATM   22  O   UNL     1      -6.587   8.964  69.261  1.00  0.00    -0.048 OA 
HETATM   23  O   UNL     1      -7.391   9.859  71.164  1.00  0.00    -0.275 OA 
ENDBRANCH  13  17
ENDBRANCH   6   8
ENDBRANCH   3   4
ENDBRANCH   2   3
TORSDOF 4
ENDMDL
MODEL       29
REMARK 921   NORMALIZED FREE ENERGY PREDICTED BY IDOCK:   -4.37 KCAL/MOL
REMARK 922        TOTAL FREE ENERGY PREDICTED BY IDOCK:   -6.36 KCAL/MOL
REMARK 923 INTER-LIGAND FREE ENERGY PREDICTED BY IDOCK:   -5.44 KCAL/MOL
REMARK 924 INTRA-LIGAND FREE ENERGY PREDICTED BY IDOCK:   -0.92 KCAL/MOL
REMARK 927      BINDING AFFINITY PREDICTED BY RF-SCORE:    0.00 PKD
ROOT
HETATM    1  C   UNL     1     -11.911   6.238  72.093  1.00  0.00    -0.365 C  
HETATM    2  C   UNL     1     -12.022   7.751  72.139  1.00  0.00    -0.362 C  
ENDROOT
BRANCH   2   3
HETATM    3  C   UNL     1     -10.656   8.406  72.318  1.00  0.00    -0.412 C  
BRANCH   3   4
HETATM    4  C   UNL     1     -10.161   8.962  71.007  1.00  0.00    -0.254 C  
HETATM    5  O   UNL     1      -8.979   9.267  70.851  1.00  0.00    -0.235 OA 
HETATM    6  N   UNL     1     -11.136   9.008  70.017  1.00  0.00    -0.345 N  
HETATM    7  H   UNL     1     -12.093   8.739  70.243  1.00  0.00     0.000 HD 
BRANCH   6   8
HETATM    8  C   UNL     1     -10.819   9.422  68.695  1.00  0.00    -0.109 A  
HETATM    9  C   UNL     1     -10.525   8.450  67.734  1.00  0.00    -0.220 A  
HETATM   10  C   UNL     1     -10.093   8.830  66.463  1.00  0.00    -0.349 A  
HETATM   11  I   UNL     1     -10.653   6.393  68.136  1.00  0.00    -0.410 I  
HETATM   12  C   UNL     1      -9.871  10.182  66.165  1.00  0.00    -0.237 A  
HETATM   13  C   UNL     1     -10.122  11.195  67.115  1.00  0.00    -0.223 A  
HETATM   14  I   UNL     1      -9.248  10.548  64.176  1.00  0.00    -0.338 I  
HETATM   15  C   UNL     1     -10.734  10.785  68.325  1.00  0.00    -0.213 A  
HETATM   16  I   UNL     1     -12.034  12.192  69.374  1.00  0.00    -0.144 I  
BRANCH  13  17
HETATM   17  C   UNL     1      -9.715  12.643  66.886  1.00  0.00    -0.234 C  
HETATM   18  C   UNL     1      -8.810  13.271  67.981  1.00  0.00    -0.190 C  
HETATM   19  C   UNL     1      -8.504  14.714  67.607  1.00  0.00    -0.180 C  
HETATM   20  C   UNL     1      -7.506  12.518  68.304  1.00  0.00    -0.122 C  
HETATM   21  C   UNL     1      -6.543  12.342  67.141  1.00  0.00    -0.109 C  
HETATM   22  O   UNL     1      -8.495  15.151  66.466  1.00  0.00    -0.244 OA 
HETATM   23  O   UNL     1      -8.223  15.496  68.674  1.00  0.00    -0.144 OA 
ENDBRANCH  13  17
ENDBRANCH   6   8
ENDBRANCH   3   4
ENDBRANCH   2   3
TORSDOF 4
ENDMDL
MODEL       30
REMARK 921   NORMALIZED FREE ENERGY PREDICTED BY IDOCK:   -4.34 KCAL/MOL
REMARK 922        TOTAL FREE ENERGY PREDICTED BY IDOCK:   -6.33 KCAL/MOL
REMARK 923 INTER-LIGAND FREE ENERGY PREDICTED BY IDOCK:   -5.41 KCAL/MOL
REMARK 924 INTRA-LIGAND FREE ENERGY PREDICTED BY IDOCK:   -0.92 KCAL/MOL
REMARK 927      BINDING AFFINITY PREDICTED BY RF-SCORE:    0.00 PKD
ROOT
HETATM    1  C   UNL     1     -10.072   3.003  72.702  1.00  0.00    -0.231 C  
HETATM    2  C   UNL     1      -9.849   4.354  72.047  1.00  0.00    -0.240 C  
ENDROOT
BRANCH   2   3
HETATM    3  C   UNL     1     -11.032   5.289  72.278  1.00  0.00    -0.249 C  
BRANCH   3   4
HETATM    4  C   UNL     1     -10.992   6.442  71.307  1.00  0.00    -0.271 C  
HETATM    5  O   UNL     1     -11.249   6.278  70.114  1.00  0.00    -0.343 OA 
HETATM    6  N   UNL     1     -10.727   7.667  71.906  1.00  0.00    -0.215 N  
HETATM    7  H   UNL     1     -10.520   7.703  72.904  1.00  0.00     0.000 HD 
BRANCH   6   8
HETATM    8  C   UNL     1     -10.740   8.870  71.151  1.00  0.00    -0.263 A  
HETATM    9  C   UNL     1     -11.919   9.620  71.094  1.00  0.00    -0.367 A  
HETATM   10  C   UNL     1     -11.998  10.739  70.264  1.00  0.00    -0.438 A  
HETATM   11  I   UNL     1     -13.639   9.100  72.180  1.00  0.00    -0.487 I  
HETATM   12  C   UNL     1     -10.928  11.074  69.421  1.00  0.00    -0.248 A  
HETATM   13  C   UNL     1      -9.732  10.326  69.421  1.00  0.00    -0.242 A  
HETATM   14  I   UNL     1     -11.236  12.820  68.268  1.00  0.00    -0.394 I  
HETATM   15  C   UNL     1      -9.621   9.314  70.407  1.00  0.00    -0.244 A  
HETATM   16  I   UNL     1      -7.640   8.809  71.177  1.00  0.00    -0.097 I  
BRANCH  13  17
HETATM   17  C   UNL     1      -8.633  10.548  68.392  1.00  0.00    -0.132 C  
HETATM   18  C   UNL     1      -8.390   9.377  67.401  1.00  0.00    -0.125 C  
HETATM   19  C   UNL     1      -7.262   9.756  66.450  1.00  0.00    -0.095 C  
HETATM   20  C   UNL     1      -9.615   8.891  66.605  1.00  0.00    -0.281 C  
HETATM   21  C   UNL     1     -10.285   9.934  65.725  1.00  0.00    -0.251 C  
HETATM   22  O   UNL     1      -6.962  10.901  66.148  1.00  0.00    -0.135 OA 
HETATM   23  O   UNL     1      -6.609   8.687  65.943  1.00  0.00    -0.056 OA 
ENDBRANCH  13  17
ENDBRANCH   6   8
ENDBRANCH   3   4
ENDBRANCH   2   3
TORSDOF 4
ENDMDL
MODEL       31
REMARK 921   NORMALIZED FREE ENERGY PREDICTED BY IDOCK:   -4.33 KCAL/MOL
REMARK 922        TOTAL FREE ENERGY PREDICTED BY IDOCK:   -6.31 KCAL/MOL
REMARK 923 INTER-LIGAND FREE ENERGY PREDICTED BY IDOCK:   -5.25 KCAL/MOL
REMARK 924 INTRA-LIGAND FREE ENERGY PREDICTED BY IDOCK:   -1.06 KCAL/MOL
REMARK 927      BINDING AFFINITY PREDICTED BY RF-SCORE:    0.00 PKD
ROOT
HETATM    1  C   UNL     1     -12.657  14.077  65.514  1.00  0.00    -0.543 C  
HETATM    2  C   UNL     1     -11.545  14.184  66.541  1.00  0.00    -0.389 C  
ENDROOT
BRANCH   2   3
HETATM    3  C   UNL     1     -11.810  13.288  67.746  1.00  0.00    -0.394 C  
BRANCH   3   4
HETATM    4  C   UNL     1     -11.278  11.898  67.499  1.00  0.00    -0.296 C  
HETATM    5  O   UNL     1     -11.942  10.903  67.789  1.00  0.00    -0.553 OA 
HETATM    6  N   UNL     1     -10.046  11.879  66.857  1.00  0.00    -0.206 N  
HETATM    7  H   UNL     1      -9.568  12.759  66.662  1.00  0.00     0.000 HD 
BRANCH   6   8
HETATM    8  C   UNL     1      -9.441  10.653  66.469  1.00  0.00    -0.169 A  
HETATM    9  C   UNL     1      -9.494  10.269  65.126  1.00  0.00    -0.252 A  
HETATM   10  C   UNL     1      -9.018   9.018  64.736  1.00  0.00    -0.146 A  
HETATM   11  I   UNL     1     -10.328  11.492  63.635  1.00  0.00    -0.540 I  
HETATM   12  C   UNL     1      -8.558   8.103  65.695  1.00  0.00    -0.158 A  
HETATM   13  C   UNL     1      -8.518   8.436  67.066  1.00  0.00    -0.122 A  
HETATM   14  I   UNL     1      -7.851   6.277  64.896  1.00  0.00    -0.105 I  
HETATM   15  C   UNL     1      -8.835   9.776  67.398  1.00  0.00    -0.132 A  
HETATM   16  I   UNL     1      -7.900  10.670  69.159  1.00  0.00    -0.063 I  
BRANCH  13  17
HETATM   17  C   UNL     1      -8.205   7.408  68.143  1.00  0.00    -0.124 C  
HETATM   18  C   UNL     1      -9.384   7.031  69.081  1.00  0.00    -0.140 C  
HETATM   19  C   UNL     1      -8.904   6.006  70.098  1.00  0.00    -0.143 C  
HETATM   20  C   UNL     1     -10.671   6.537  68.394  1.00  0.00    -0.339 C  
HETATM   21  C   UNL     1     -10.522   5.291  67.535  1.00  0.00    -0.193 C  
HETATM   22  O   UNL     1      -7.978   5.229  69.919  1.00  0.00    -0.081 OA 
HETATM   23  O   UNL     1      -9.617   6.017  71.246  1.00  0.00    -0.166 OA 
ENDBRANCH  13  17
ENDBRANCH   6   8
ENDBRANCH   3   4
ENDBRANCH   2   3
TORSDOF 4
ENDMDL
MODEL       32
REMARK 921   NORMALIZED FREE ENERGY PREDICTED BY IDOCK:   -4.32 KCAL/MOL
REMARK 922        TOTAL FREE ENERGY PREDICTED BY IDOCK:   -6.30 KCAL/MOL
REMARK 923 INTER-LIGAND FREE ENERGY PREDICTED BY IDOCK:   -6.24 KCAL/MOL
REMARK 924 INTRA-LIGAND FREE ENERGY PREDICTED BY IDOCK:   -0.05 KCAL/MOL
REMARK 927      BINDING AFFINITY PREDICTED BY RF-SCORE:    0.00 PKD
ROOT
HETATM    1  C   UNL     1     -12.011  10.460  70.608  1.00  0.00    -0.448 C  
HETATM    2  C   UNL     1     -10.877  10.717  69.632  1.00  0.00    -0.318 C  
ENDROOT
BRANCH   2   3
HETATM    3  C   UNL     1     -11.404  11.106  68.254  1.00  0.00    -0.365 C  
BRANCH   3   4
HETATM    4  C   UNL     1     -11.253  12.590  68.031  1.00  0.00    -0.270 C  
HETATM    5  O   UNL     1     -11.939  13.180  67.196  1.00  0.00    -0.371 OA 
HETATM    6  N   UNL     1     -10.352  13.196  68.898  1.00  0.00    -0.423 N  
HETATM    7  H   UNL     1      -9.824  12.621  69.555  1.00  0.00     0.000 HD 
BRANCH   6   8
HETATM    8  C   UNL     1     -10.155  14.602  68.884  1.00  0.00    -0.234 A  
HETATM    9  C   UNL     1     -11.002  15.412  69.647  1.00  0.00    -0.284 A  
HETATM   10  C   UNL     1     -10.911  16.801  69.558  1.00  0.00    -0.225 A  
HETATM   11  I   UNL     1     -12.482  14.620  70.909  1.00  0.00    -0.492 I  
HETATM   12  C   UNL     1     -10.027  17.397  68.646  1.00  0.00    -0.340 A  
HETATM   13  C   UNL     1      -9.177  16.619  67.833  1.00  0.00    -0.219 A  
HETATM   14  I   UNL     1     -10.019  19.512  68.691  1.00  0.00    -0.356 I  
HETATM   15  C   UNL     1      -9.167  15.224  68.084  1.00  0.00    -0.183 A  
HETATM   16  I   UNL     1      -7.335  14.100  67.697  1.00  0.00    -0.095 I  
BRANCH  13  17
HETATM   17  C   UNL     1      -8.350  17.224  66.709  1.00  0.00    -0.276 C  
HETATM   18  C   UNL     1      -7.442  18.420  67.107  1.00  0.00    -0.228 C  
HETATM   19  C   UNL     1      -6.694  18.909  65.874  1.00  0.00    -0.255 C  
HETATM   20  C   UNL     1      -6.457  18.174  68.264  1.00  0.00    -0.196 C  
HETATM   21  C   UNL     1      -5.451  17.055  68.045  1.00  0.00    -0.123 C  
HETATM   22  O   UNL     1      -6.422  18.217  64.905  1.00  0.00    -0.348 OA 
HETATM   23  O   UNL     1      -6.332  20.209  65.949  1.00  0.00    -0.194 OA 
ENDBRANCH  13  17
ENDBRANCH   6   8
ENDBRANCH   3   4
ENDBRANCH   2   3
TORSDOF 4
ENDMDL
MODEL       33
REMARK 921   NORMALIZED FREE ENERGY PREDICTED BY IDOCK:   -4.32 KCAL/MOL
REMARK 922        TOTAL FREE ENERGY PREDICTED BY IDOCK:   -6.29 KCAL/MOL
REMARK 923 INTER-LIGAND FREE ENERGY PREDICTED BY IDOCK:   -6.26 KCAL/MOL
REMARK 924 INTRA-LIGAND FREE ENERGY PREDICTED BY IDOCK:   -0.04 KCAL/MOL
REMARK 927      BINDING AFFINITY PREDICTED BY RF-SCORE:    0.00 PKD
ROOT
HETATM    1  C   UNL     1      -9.386  19.900  66.547  1.00  0.00    -0.501 C  
HETATM    2  C   UNL     1     -10.572  19.065  66.994  1.00  0.00    -0.543 C  
ENDROOT
BRANCH   2   3
HETATM    3  C   UNL     1     -10.406  18.586  68.433  1.00  0.00    -0.359 C  
BRANCH   3   4
HETATM    4  C   UNL     1     -10.106  17.109  68.467  1.00  0.00    -0.329 C  
HETATM    5  O   UNL     1      -9.004  16.692  68.822  1.00  0.00    -0.239 OA 
HETATM    6  N   UNL     1     -11.198  16.311  68.147  1.00  0.00    -0.333 N  
HETATM    7  H   UNL     1     -12.073  16.750  67.859  1.00  0.00     0.000 HD 
BRANCH   6   8
HETATM    8  C   UNL     1     -11.116  14.895  68.216  1.00  0.00    -0.282 A  
HETATM    9  C   UNL     1     -11.630  14.241  69.340  1.00  0.00    -0.306 A  
HETATM   10  C   UNL     1     -11.455  12.866  69.492  1.00  0.00    -0.292 A  
HETATM   11  I   UNL     1     -12.631  15.263  70.878  1.00  0.00    -0.544 I  
HETATM   12  C   UNL     1     -10.694  12.141  68.563  1.00  0.00    -0.232 A  
HETATM   13  C   UNL     1     -10.127  12.765  67.432  1.00  0.00    -0.219 A  
HETATM   14  I   UNL     1     -10.576  10.066  68.957  1.00  0.00    -0.281 I  
HETATM   15  C   UNL     1     -10.482  14.120  67.216  1.00  0.00    -0.272 A  
HETATM   16  I   UNL     1     -10.555  14.873  65.167  1.00  0.00    -0.384 I  
BRANCH  13  17
HETATM   17  C   UNL     1      -9.147  12.050  66.514  1.00  0.00    -0.202 C  
HETATM   18  C   UNL     1      -9.643  10.707  65.911  1.00  0.00    -0.253 C  
HETATM   19  C   UNL     1      -8.548  10.123  65.029  1.00  0.00    -0.167 C  
HETATM   20  C   UNL     1     -10.976  10.754  65.142  1.00  0.00     0.066 C  
HETATM   21  C   UNL     1     -11.011  11.686  63.942  1.00  0.00    -0.478 C  
HETATM   22  O   UNL     1      -7.686  10.778  64.464  1.00  0.00     0.064 OA 
HETATM   23  O   UNL     1      -8.618   8.778  64.909  1.00  0.00    -0.173 OA 
ENDBRANCH  13  17
ENDBRANCH   6   8
ENDBRANCH   3   4
ENDBRANCH   2   3
TORSDOF 4
ENDMDL
MODEL       34
REMARK 921   NORMALIZED FREE ENERGY PREDICTED BY IDOCK:   -4.30 KCAL/MOL
REMARK 922        TOTAL FREE ENERGY PREDICTED BY IDOCK:   -6.27 KCAL/MOL
REMARK 923 INTER-LIGAND FREE ENERGY PREDICTED BY IDOCK:   -5.20 KCAL/MOL
REMARK 924 INTRA-LIGAND FREE ENERGY PREDICTED BY IDOCK:   -1.08 KCAL/MOL
REMARK 927      BINDING AFFINITY PREDICTED BY RF-SCORE:    0.00 PKD
ROOT
HETATM    1  C   UNL     1     -12.203  14.604  64.355  1.00  0.00    -0.473 C  
HETATM    2  C   UNL     1     -10.919  15.083  65.006  1.00  0.00    -0.436 C  
ENDROOT
BRANCH   2   3
HETATM    3  C   UNL     1     -10.901  14.773  66.500  1.00  0.00    -0.319 C  
BRANCH   3   4
HETATM    4  C   UNL     1     -10.593  13.315  66.733  1.00  0.00    -0.276 C  
HETATM    5  O   UNL     1     -11.384  12.587  67.333  1.00  0.00    -0.275 OA 
HETATM    6  N   UNL     1      -9.407  12.895  66.145  1.00  0.00    -0.441 N  
HETATM    7  H   UNL     1      -8.812  13.576  65.672  1.00  0.00     0.000 HD 
BRANCH   6   8
HETATM    8  C   UNL     1      -9.008  11.532  66.192  1.00  0.00    -0.197 A  
HETATM    9  C   UNL     1      -9.309  10.702  65.108  1.00  0.00    -0.212 A  
HETATM   10  C   UNL     1      -9.040   9.335  65.176  1.00  0.00    -0.263 A  
HETATM   11  I   UNL     1     -10.220  11.421  63.357  1.00  0.00    -0.396 I  
HETATM   12  C   UNL     1      -8.542   8.769  66.359  1.00  0.00    -0.128 A  
HETATM   13  C   UNL     1      -8.256   9.563  67.489  1.00  0.00    -0.121 A  
HETATM   14  I   UNL     1      -8.173   6.689  66.245  1.00  0.00    -0.136 I  
HETATM   15  C   UNL     1      -8.367  10.965  67.318  1.00  0.00    -0.123 A  
HETATM   16  I   UNL     1      -7.080  12.272  68.504  1.00  0.00    -0.093 I  
BRANCH  13  17
HETATM   17  C   UNL     1      -7.897   8.958  68.838  1.00  0.00    -0.096 C  
HETATM   18  C   UNL     1      -8.944   9.156  69.968  1.00  0.00    -0.201 C  
HETATM   19  C   UNL     1      -8.431   8.502  71.243  1.00  0.00    -0.163 C  
HETATM   20  C   UNL     1     -10.376   8.676  69.663  1.00  0.00    -0.213 C  
HETATM   21  C   UNL     1     -10.518   7.197  69.336  1.00  0.00    -0.232 C  
HETATM   22  O   UNL     1      -7.647   7.566  71.279  1.00  0.00    -0.079 OA 
HETATM   23  O   UNL     1      -8.941   9.052  72.368  1.00  0.00    -0.326 OA 
ENDBRANCH  13  17
ENDBRANCH   6   8
ENDBRANCH   3   4
ENDBRANCH   2   3
TORSDOF 4
ENDMDL
MODEL       35
REMARK 921   NORMALIZED FREE ENERGY PREDICTED BY IDOCK:   -4.27 KCAL/MOL
REMARK 922        TOTAL FREE ENERGY PREDICTED BY IDOCK:   -6.23 KCAL/MOL
REMARK 923 INTER-LIGAND FREE ENERGY PREDICTED BY IDOCK:   -5.25 KCAL/MOL
REMARK 924 INTRA-LIGAND FREE ENERGY PREDICTED BY IDOCK:   -0.99 KCAL/MOL
REMARK 927      BINDING AFFINITY PREDICTED BY RF-SCORE:    0.00 PKD
ROOT
HETATM    1  C   UNL     1     -11.521  15.838  69.085  1.00  0.00    -0.383 C  
HETATM    2  C   UNL     1     -11.506  14.881  67.907  1.00  0.00    -0.357 C  
ENDROOT
BRANCH   2   3
HETATM    3  C   UNL     1     -12.145  13.543  68.267  1.00  0.00    -0.295 C  
BRANCH   3   4
HETATM    4  C   UNL     1     -11.474  12.419  67.519  1.00  0.00    -0.346 C  
HETATM    5  O   UNL     1     -11.829  11.251  67.675  1.00  0.00    -0.614 OA 
HETATM    6  N   UNL     1     -10.512  12.848  66.613  1.00  0.00    -0.260 N  
HETATM    7  H   UNL     1     -10.281  13.840  66.558  1.00  0.00     0.000 HD 
BRANCH   6   8
HETATM    8  C   UNL     1      -9.845  11.927  65.762  1.00  0.00    -0.238 A  
HETATM    9  C   UNL     1     -10.370  11.679  64.490  1.00  0.00    -0.300 A  
HETATM   10  C   UNL     1      -9.808  10.692  63.680  1.00  0.00    -0.392 A  
HETATM   11  I   UNL     1     -12.042  12.706  63.741  1.00  0.00    -0.630 I  
HETATM   12  C   UNL     1      -8.767   9.886  64.163  1.00  0.00    -0.206 A  
HETATM   13  C   UNL     1      -8.228  10.079  65.453  1.00  0.00    -0.149 A  
HETATM   14  I   UNL     1      -8.036   8.472  62.770  1.00  0.00    -0.139 I  
HETATM   15  C   UNL     1      -8.698  11.207  66.170  1.00  0.00    -0.186 A  
HETATM   16  I   UNL     1      -7.358  12.178  67.595  1.00  0.00    -0.158 I  
BRANCH  13  17
HETATM   17  C   UNL     1      -7.234   9.108  66.072  1.00  0.00    -0.094 C  
HETATM   18  C   UNL     1      -7.716   8.372  67.352  1.00  0.00    -0.098 C  
HETATM   19  C   UNL     1      -6.608   7.451  67.844  1.00  0.00    -0.054 C  
HETATM   20  C   UNL     1      -9.040   7.595  67.234  1.00  0.00    -0.142 C  
HETATM   21  C   UNL     1      -9.064   6.490  66.189  1.00  0.00    -0.146 C  
HETATM   22  O   UNL     1      -5.742   6.963  67.135  1.00  0.00    -0.016 OA 
HETATM   23  O   UNL     1      -6.672   7.200  69.171  1.00  0.00    -0.046 OA 
ENDBRANCH  13  17
ENDBRANCH   6   8
ENDBRANCH   3   4
ENDBRANCH   2   3
TORSDOF 4
ENDMDL
MODEL       36
REMARK 921   NORMALIZED FREE ENERGY PREDICTED BY IDOCK:   -4.26 KCAL/MOL
REMARK 922        TOTAL FREE ENERGY PREDICTED BY IDOCK:   -6.23 KCAL/MOL
REMARK 923 INTER-LIGAND FREE ENERGY PREDICTED BY IDOCK:   -5.34 KCAL/MOL
REMARK 924 INTRA-LIGAND FREE ENERGY PREDICTED BY IDOCK:   -0.89 KCAL/MOL
REMARK 927      BINDING AFFINITY PREDICTED BY RF-SCORE:    0.00 PKD
ROOT
HETATM    1  C   UNL     1     -13.075  15.623  71.878  1.00  0.00    -0.545 C  
HETATM    2  C   UNL     1     -11.783  15.811  71.103  1.00  0.00    -0.476 C  
ENDROOT
BRANCH   2   3
HETATM    3  C   UNL     1     -12.010  15.684  69.600  1.00  0.00    -0.367 C  
BRANCH   3   4
HETATM    4  C   UNL     1     -11.359  14.431  69.072  1.00  0.00    -0.269 C  
HETATM    5  O   UNL     1     -11.598  13.331  69.571  1.00  0.00    -0.283 OA 
HETATM    6  N   UNL     1     -10.563  14.645  67.953  1.00  0.00    -0.242 N  
HETATM    7  H   UNL     1     -10.420  15.596  67.614  1.00  0.00     0.000 HD 
BRANCH   6   8
HETATM    8  C   UNL     1      -9.946  13.560  67.275  1.00  0.00    -0.236 A  
HETATM    9  C   UNL     1     -10.572  13.024  66.146  1.00  0.00    -0.277 A  
HETATM   10  C   UNL     1     -10.054  11.883  65.532  1.00  0.00    -0.277 A  
HETATM   11  I   UNL     1     -12.332  13.839  65.340  1.00  0.00    -0.520 I  
HETATM   12  C   UNL     1      -8.951  11.218  66.088  1.00  0.00    -0.202 A  
HETATM   13  C   UNL     1      -8.308  11.704  67.245  1.00  0.00    -0.158 A  
HETATM   14  I   UNL     1      -8.303   9.530  64.989  1.00  0.00    -0.205 I  
HETATM   15  C   UNL     1      -8.747  12.962  67.729  1.00  0.00    -0.188 A  
HETATM   16  I   UNL     1      -7.317  14.244  68.769  1.00  0.00    -0.100 I  
BRANCH  13  17
HETATM   17  C   UNL     1      -7.236  10.909  67.974  1.00  0.00    -0.086 C  
HETATM   18  C   UNL     1      -7.543  10.561  69.457  1.00  0.00    -0.148 C  
HETATM   19  C   UNL     1      -6.375   9.776  70.037  1.00  0.00    -0.064 C  
HETATM   20  C   UNL     1      -8.866   9.820  69.723  1.00  0.00    -0.241 C  
HETATM   21  C   UNL     1      -9.018   8.474  69.031  1.00  0.00    -0.146 C  
HETATM   22  O   UNL     1      -5.605   9.089  69.383  1.00  0.00    -0.034 OA 
HETATM   23  O   UNL     1      -6.264   9.895  71.379  1.00  0.00    -0.278 OA 
ENDBRANCH  13  17
ENDBRANCH   6   8
ENDBRANCH   3   4
ENDBRANCH   2   3
TORSDOF 4
ENDMDL
MODEL       37
REMARK 921   NORMALIZED FREE ENERGY PREDICTED BY IDOCK:   -4.25 KCAL/MOL
REMARK 922        TOTAL FREE ENERGY PREDICTED BY IDOCK:   -6.21 KCAL/MOL
REMARK 923 INTER-LIGAND FREE ENERGY PREDICTED BY IDOCK:   -5.46 KCAL/MOL
REMARK 924 INTRA-LIGAND FREE ENERGY PREDICTED BY IDOCK:   -0.75 KCAL/MOL
REMARK 927      BINDING AFFINITY PREDICTED BY RF-SCORE:    0.00 PKD
ROOT
HETATM    1  C   UNL     1     -11.677  14.770  70.248  1.00  0.00    -0.351 C  
HETATM    2  C   UNL     1     -12.069  13.547  69.438  1.00  0.00    -0.340 C  
ENDROOT
BRANCH   2   3
HETATM    3  C   UNL     1     -11.960  13.812  67.940  1.00  0.00    -0.391 C  
BRANCH   3   4
HETATM    4  C   UNL     1     -10.878  12.957  67.330  1.00  0.00    -0.255 C  
HETATM    5  O   UNL     1      -9.728  13.378  67.208  1.00  0.00    -0.222 OA 
HETATM    6  N   UNL     1     -11.296  11.670  67.015  1.00  0.00    -0.317 N  
HETATM    7  H   UNL     1     -12.275  11.413  67.147  1.00  0.00     0.000 HD 
BRANCH   6   8
HETATM    8  C   UNL     1     -10.383  10.704  66.514  1.00  0.00    -0.241 A  
HETATM    9  C   UNL     1     -10.124  10.668  65.140  1.00  0.00    -0.307 A  
HETATM   10  C   UNL     1      -9.327   9.656  64.604  1.00  0.00    -0.271 A  
HETATM   11  I   UNL     1     -10.941  12.065  63.802  1.00  0.00    -0.573 I  
HETATM   12  C   UNL     1      -8.847   8.623  65.422  1.00  0.00    -0.155 A  
HETATM   13  C   UNL     1      -9.112   8.601  66.808  1.00  0.00    -0.183 A  
HETATM   14  I   UNL     1      -7.635   7.206  64.422  1.00  0.00    -0.108 I  
HETATM   15  C   UNL     1      -9.764   9.739  67.343  1.00  0.00    -0.163 A  
HETATM   16  I   UNL     1      -9.357  10.307  69.412  1.00  0.00    -0.072 I  
BRANCH  13  17
HETATM   17  C   UNL     1      -8.768   7.405  67.682  1.00  0.00    -0.125 C  
HETATM   18  C   UNL     1      -9.977   6.641  68.289  1.00  0.00    -0.148 C  
HETATM   19  C   UNL     1      -9.462   5.486  69.137  1.00  0.00    -0.129 C  
HETATM   20  C   UNL     1     -11.036   6.137  67.291  1.00  0.00    -0.418 C  
HETATM   21  C   UNL     1     -10.534   5.170  66.231  1.00  0.00    -0.341 C  
HETATM   22  O   UNL     1      -8.390   4.923  68.970  1.00  0.00    -0.082 OA 
HETATM   23  O   UNL     1     -10.320   5.115  70.113  1.00  0.00    -0.273 OA 
ENDBRANCH  13  17
ENDBRANCH   6   8
ENDBRANCH   3   4
ENDBRANCH   2   3
TORSDOF 4
ENDMDL
MODEL       38
REMARK 921   NORMALIZED FREE ENERGY PREDICTED BY IDOCK:   -4.21 KCAL/MOL
REMARK 922        TOTAL FREE ENERGY PREDICTED BY IDOCK:   -6.16 KCAL/MOL
REMARK 923 INTER-LIGAND FREE ENERGY PREDICTED BY IDOCK:   -5.14 KCAL/MOL
REMARK 924 INTRA-LIGAND FREE ENERGY PREDICTED BY IDOCK:   -1.02 KCAL/MOL
REMARK 927      BINDING AFFINITY PREDICTED BY RF-SCORE:    0.00 PKD
ROOT
HETATM    1  C   UNL     1     -11.734  13.450  68.098  1.00  0.00    -0.397 C  
HETATM    2  C   UNL     1     -11.747  11.932  68.064  1.00  0.00    -0.382 C  
ENDROOT
BRANCH   2   3
HETATM    3  C   UNL     1     -10.342  11.366  67.880  1.00  0.00    -0.204 C  
BRANCH   3   4
HETATM    4  C   UNL     1     -10.130  10.176  68.782  1.00  0.00    -0.187 C  
HETATM    5  O   UNL     1      -9.068  10.017  69.385  1.00  0.00    -0.189 OA 
HETATM    6  N   UNL     1     -11.252   9.367  68.911  1.00  0.00    -0.451 N  
HETATM    7  H   UNL     1     -12.088   9.577  68.365  1.00  0.00     0.000 HD 
BRANCH   6   8
HETATM    8  C   UNL     1     -11.254   8.252  69.792  1.00  0.00     0.036 A  
HETATM    9  C   UNL     1     -11.829   8.392  71.059  1.00  0.00    -0.252 A  
HETATM   10  C   UNL     1     -11.738   7.356  71.988  1.00  0.00    -0.325 A  
HETATM   11  I   UNL     1     -12.800  10.152  71.668  1.00  0.00    -0.519 I  
HETATM   12  C   UNL     1     -11.002   6.200  71.691  1.00  0.00    -0.267 A  
HETATM   13  C   UNL     1     -10.377   6.030  70.438  1.00  0.00    -0.282 A  
HETATM   14  I   UNL     1     -11.014   4.737  73.219  1.00  0.00    -0.387 I  
HETATM   15  C   UNL     1     -10.647   7.019  69.459  1.00  0.00    -0.234 A  
HETATM   16  I   UNL     1     -10.633   6.443  67.352  1.00  0.00    -0.496 I  
BRANCH  13  17
HETATM   17  C   UNL     1      -9.421   4.880  70.155  1.00  0.00    -0.240 C  
HETATM   18  C   UNL     1      -7.933   5.274  69.945  1.00  0.00    -0.083 C  
HETATM   19  C   UNL     1      -7.120   4.018  69.667  1.00  0.00    -0.046 C  
HETATM   20  C   UNL     1      -7.279   6.093  71.074  1.00  0.00    -0.075 C  
HETATM   21  C   UNL     1      -7.254   5.427  72.441  1.00  0.00    -0.093 C  
HETATM   22  O   UNL     1      -7.419   2.896  70.048  1.00  0.00    -0.043 OA 
HETATM   23  O   UNL     1      -5.997   4.255  68.953  1.00  0.00    -0.021 OA 
ENDBRANCH  13  17
ENDBRANCH   6   8
ENDBRANCH   3   4
ENDBRANCH   2   3
TORSDOF 4
ENDMDL
MODEL       39
REMARK 921   NORMALIZED FREE ENERGY PREDICTED BY IDOCK:   -4.21 KCAL/MOL
REMARK 922        TOTAL FREE ENERGY PREDICTED BY IDOCK:   -6.16 KCAL/MOL
REMARK 923 INTER-LIGAND FREE ENERGY PREDICTED BY IDOCK:   -5.06 KCAL/MOL
REMARK 924 INTRA-LIGAND FREE ENERGY PREDICTED BY IDOCK:   -1.09 KCAL/MOL
REMARK 927      BINDING AFFINITY PREDICTED BY RF-SCORE:    0.00 PKD
ROOT
HETATM    1  C   UNL     1     -13.154  10.839  71.946  1.00  0.00    -0.557 C  
HETATM    2  C   UNL     1     -13.400   9.353  71.754  1.00  0.00    -0.489 C  
ENDROOT
BRANCH   2   3
HETATM    3  C   UNL     1     -12.207   8.525  72.221  1.00  0.00    -0.454 C  
BRANCH   3   4
HETATM    4  C   UNL     1     -11.017   8.762  71.326  1.00  0.00    -0.275 C  
HETATM    5  O   UNL     1      -9.907   9.014  71.796  1.00  0.00    -0.310 OA 
HETATM    6  N   UNL     1     -11.292   8.587  69.975  1.00  0.00    -0.450 N  
HETATM    7  H   UNL     1     -12.247   8.385  69.679  1.00  0.00     0.000 HD 
BRANCH   6   8
HETATM    8  C   UNL     1     -10.264   8.685  68.999  1.00  0.00    -0.207 A  
HETATM    9  C   UNL     1      -9.606   7.521  68.590  1.00  0.00    -0.151 A  
HETATM   10  C   UNL     1      -8.514   7.600  67.726  1.00  0.00    -0.122 A  
HETATM   11  I   UNL     1     -10.162   5.614  69.272  1.00  0.00    -0.337 I  
HETATM   12  C   UNL     1      -8.014   8.848  67.327  1.00  0.00    -0.097 A  
HETATM   13  C   UNL     1      -8.625  10.050  67.742  1.00  0.00    -0.118 A  
HETATM   14  I   UNL     1      -6.375   8.749  65.994  1.00  0.00    -0.057 I  
HETATM   15  C   UNL     1      -9.838   9.924  68.464  1.00  0.00    -0.156 A  
HETATM   16  I   UNL     1     -11.331  11.509  68.294  1.00  0.00    -0.398 I  
BRANCH  13  17
HETATM   17  C   UNL     1      -8.000  11.412  67.481  1.00  0.00    -0.127 C  
HETATM   18  C   UNL     1      -7.504  12.179  68.738  1.00  0.00    -0.075 C  
HETATM   19  C   UNL     1      -6.917  13.516  68.305  1.00  0.00    -0.108 C  
HETATM   20  C   UNL     1      -6.510  11.431  69.645  1.00  0.00    -0.133 C  
HETATM   21  C   UNL     1      -5.209  11.003  68.985  1.00  0.00    -0.041 C  
HETATM   22  O   UNL     1      -6.433  13.741  67.207  1.00  0.00    -0.281 OA 
HETATM   23  O   UNL     1      -6.966  14.459  69.272  1.00  0.00    -0.120 OA 
ENDBRANCH  13  17
ENDBRANCH   6   8
ENDBRANCH   3   4
ENDBRANCH   2   3
TORSDOF 4
ENDMDL
MODEL       40
REMARK 921   NORMALIZED FREE ENERGY PREDICTED BY IDOCK:   -4.20 KCAL/MOL
REMARK 922        TOTAL FREE ENERGY PREDICTED BY IDOCK:   -6.14 KCAL/MOL
REMARK 923 INTER-LIGAND FREE ENERGY PREDICTED BY IDOCK:   -5.27 KCAL/MOL
REMARK 924 INTRA-LIGAND FREE ENERGY PREDICTED BY IDOCK:   -0.88 KCAL/MOL
REMARK 927      BINDING AFFINITY PREDICTED BY RF-SCORE:    0.00 PKD
ROOT
HETATM    1  C   UNL     1     -10.739   4.389  65.153  1.00  0.00    -0.144 C  
HETATM    2  C   UNL     1     -10.290   5.054  66.441  1.00  0.00    -0.335 C  
ENDROOT
BRANCH   2   3
HETATM    3  C   UNL     1      -8.954   5.769  66.263  1.00  0.00    -0.149 C  
BRANCH   3   4
HETATM    4  C   UNL     1      -9.106   7.246  66.528  1.00  0.00    -0.155 C  
HETATM    5  O   UNL     1     -10.139   7.701  67.019  1.00  0.00    -0.214 OA 
HETATM    6  N   UNL     1      -7.963   7.984  66.245  1.00  0.00    -0.102 N  
HETATM    7  H   UNL     1      -7.154   7.518  65.834  1.00  0.00     0.000 HD 
BRANCH   6   8
HETATM    8  C   UNL     1      -7.902   9.376  66.519  1.00  0.00    -0.097 A  
HETATM    9  C   UNL     1      -7.179   9.816  67.632  1.00  0.00    -0.089 A  
HETATM   10  C   UNL     1      -7.202  11.162  67.996  1.00  0.00    -0.079 A  
HETATM   11  I   UNL     1      -6.075   8.506  68.847  1.00  0.00    -0.045 I  
HETATM   12  C   UNL     1      -8.014  12.070  67.301  1.00  0.00    -0.174 A  
HETATM   13  C   UNL     1      -8.787  11.665  66.193  1.00  0.00    -0.139 A  
HETATM   14  I   UNL     1      -7.882  14.066  67.990  1.00  0.00    -0.217 I  
HETATM   15  C   UNL     1      -8.593  10.335  65.742  1.00  0.00    -0.154 A  
HETATM   16  I   UNL     1      -8.875   9.894  63.622  1.00  0.00    -0.264 I  
BRANCH  13  17
HETATM   17  C   UNL     1      -9.813  12.578  65.540  1.00  0.00    -0.197 C  
HETATM   18  C   UNL     1     -11.301  12.181  65.749  1.00  0.00    -0.402 C  
HETATM   19  C   UNL     1     -12.190  13.186  65.031  1.00  0.00    -0.440 C  
HETATM   20  C   UNL     1     -11.762  12.010  67.209  1.00  0.00    -0.339 C  
HETATM   21  C   UNL     1     -11.622  13.241  68.092  1.00  0.00    -0.373 C  
HETATM   22  O   UNL     1     -11.883  14.344  64.795  1.00  0.00    -0.389 OA 
HETATM   23  O   UNL     1     -13.392  12.678  64.675  1.00  0.00    -0.767 OA 
ENDBRANCH  13  17
ENDBRANCH   6   8
ENDBRANCH   3   4
ENDBRANCH   2   3
TORSDOF 4
ENDMDL
MODEL       41
REMARK 921   NORMALIZED FREE ENERGY PREDICTED BY IDOCK:   -4.19 KCAL/MOL
REMARK 922        TOTAL FREE ENERGY PREDICTED BY IDOCK:   -6.14 KCAL/MOL
REMARK 923 INTER-LIGAND FREE ENERGY PREDICTED BY IDOCK:   -5.20 KCAL/MOL
REMARK 924 INTRA-LIGAND FREE ENERGY PREDICTED BY IDOCK:   -0.94 KCAL/MOL
REMARK 927      BINDING AFFINITY PREDICTED BY RF-SCORE:    0.00 PKD
ROOT
HETATM    1  C   UNL     1     -13.728  13.788  72.396  1.00  0.00    -0.692 C  
HETATM    2  C   UNL     1     -12.858  12.962  71.465  1.00  0.00    -0.380 C  
ENDROOT
BRANCH   2   3
HETATM    3  C   UNL     1     -13.023  11.468  71.728  1.00  0.00    -0.500 C  
BRANCH   3   4
HETATM    4  C   UNL     1     -12.382  10.664  70.625  1.00  0.00    -0.369 C  
HETATM    5  O   UNL     1     -13.033   9.850  69.971  1.00  0.00     0.199 OA 
HETATM    6  N   UNL     1     -11.053  10.999  70.391  1.00  0.00    -0.433 N  
HETATM    7  H   UNL     1     -10.595  11.685  70.992  1.00  0.00     0.000 HD 
BRANCH   6   8
HETATM    8  C   UNL     1     -10.323  10.401  69.330  1.00  0.00    -0.230 A  
HETATM    9  C   UNL     1     -10.362  10.994  68.064  1.00  0.00    -0.185 A  
HETATM   10  C   UNL     1      -9.756  10.365  66.977  1.00  0.00    -0.216 A  
HETATM   11  I   UNL     1     -11.362  12.804  67.698  1.00  0.00    -0.432 I  
HETATM   12  C   UNL     1      -9.175   9.097  67.124  1.00  0.00    -0.133 A  
HETATM   13  C   UNL     1      -9.142   8.446  68.376  1.00  0.00    -0.135 A  
HETATM   14  I   UNL     1      -8.284   8.332  65.365  1.00  0.00    -0.153 I  
HETATM   15  C   UNL     1      -9.600   9.195  69.488  1.00  0.00    -0.168 A  
HETATM   16  I   UNL     1      -8.733   8.795  71.452  1.00  0.00    -0.128 I  
BRANCH  13  17
HETATM   17  C   UNL     1      -8.690   7.002  68.529  1.00  0.00    -0.122 C  
HETATM   18  C   UNL     1      -9.798   5.985  68.918  1.00  0.00    -0.173 C  
HETATM   19  C   UNL     1      -9.182   4.598  69.037  1.00  0.00    -0.129 C  
HETATM   20  C   UNL     1     -11.035   5.940  68.001  1.00  0.00    -0.252 C  
HETATM   21  C   UNL     1     -10.763   5.592  66.546  1.00  0.00    -0.309 C  
HETATM   22  O   UNL     1      -8.178   4.229  68.447  1.00  0.00    -0.084 OA 
HETATM   23  O   UNL     1      -9.866   3.778  69.866  1.00  0.00    -0.179 OA 
ENDBRANCH  13  17
ENDBRANCH   6   8
ENDBRANCH   3   4
ENDBRANCH   2   3
TORSDOF 4
ENDMDL
MODEL       42
REMARK 921   NORMALIZED FREE ENERGY PREDICTED BY IDOCK:   -4.14 KCAL/MOL
REMARK 922        TOTAL FREE ENERGY PREDICTED BY IDOCK:   -6.07 KCAL/MOL
REMARK 923 INTER-LIGAND FREE ENERGY PREDICTED BY IDOCK:   -5.11 KCAL/MOL
REMARK 924 INTRA-LIGAND FREE ENERGY PREDICTED BY IDOCK:   -0.96 KCAL/MOL
REMARK 927      BINDING AFFINITY PREDICTED BY RF-SCORE:    0.00 PKD
ROOT
HETATM    1  C   UNL     1      -7.216  15.667  68.289  1.00  0.00    -0.118 C  
HETATM    2  C   UNL     1      -8.275  14.905  67.513  1.00  0.00    -0.199 C  
ENDROOT
BRANCH   2   3
HETATM    3  C   UNL     1      -7.826  13.479  67.208  1.00  0.00    -0.106 C  
BRANCH   3   4
HETATM    4  C   UNL     1      -8.523  12.500  68.118  1.00  0.00    -0.180 C  
HETATM    5  O   UNL     1      -7.910  11.911  69.008  1.00  0.00    -0.039 OA 
HETATM    6  N   UNL     1      -9.893  12.412  67.898  1.00  0.00    -0.196 N  
HETATM    7  H   UNL     1     -10.312  12.937  67.130  1.00  0.00     0.000 HD 
BRANCH   6   8
HETATM    8  C   UNL     1     -10.717  11.603  68.724  1.00  0.00    -0.219 A  
HETATM    9  C   UNL     1     -11.586  12.223  69.627  1.00  0.00    -0.278 A  
HETATM   10  C   UNL     1     -12.317  11.457  70.535  1.00  0.00    -0.439 A  
HETATM   11  I   UNL     1     -11.809  14.309  69.724  1.00  0.00    -0.405 I  
HETATM   12  C   UNL     1     -12.128  10.069  70.606  1.00  0.00    -0.292 A  
HETATM   13  C   UNL     1     -11.236   9.405  69.738  1.00  0.00    -0.139 A  
HETATM   14  I   UNL     1     -13.353   9.090  72.025  1.00  0.00    -0.597 I  
HETATM   15  C   UNL     1     -10.655  10.189  68.711  1.00  0.00    -0.213 A  
HETATM   16  I   UNL     1     -10.131   9.226  66.822  1.00  0.00    -0.283 I  
BRANCH  13  17
HETATM   17  C   UNL     1     -10.871   7.939  69.914  1.00  0.00    -0.221 C  
HETATM   18  C   UNL     1      -9.394   7.652  70.301  1.00  0.00    -0.157 C  
HETATM   19  C   UNL     1      -9.195   6.149  70.430  1.00  0.00    -0.153 C  
HETATM   20  C   UNL     1      -8.868   8.367  71.560  1.00  0.00    -0.239 C  
HETATM   21  C   UNL     1      -9.613   8.062  72.850  1.00  0.00    -0.348 C  
HETATM   22  O   UNL     1     -10.077   5.351  70.708  1.00  0.00    -0.193 OA 
HETATM   23  O   UNL     1      -7.919   5.757  70.216  1.00  0.00    -0.100 OA 
ENDBRANCH  13  17
ENDBRANCH   6   8
ENDBRANCH   3   4
ENDBRANCH   2   3
TORSDOF 4
ENDMDL
MODEL       43
REMARK 921   NORMALIZED FREE ENERGY PREDICTED BY IDOCK:   -4.04 KCAL/MOL
REMARK 922        TOTAL FREE ENERGY PREDICTED BY IDOCK:   -5.96 KCAL/MOL
REMARK 923 INTER-LIGAND FREE ENERGY PREDICTED BY IDOCK:   -6.22 KCAL/MOL
REMARK 924 INTRA-LIGAND FREE ENERGY PREDICTED BY IDOCK:    0.26 KCAL/MOL
REMARK 927      BINDING AFFINITY PREDICTED BY RF-SCORE:    0.00 PKD
ROOT
HETATM    1  C   UNL     1     -13.786  15.381  72.361  1.00  0.00    -0.661 C  
HETATM    2  C   UNL     1     -13.303  14.554  71.184  1.00  0.00    -0.415 C  
ENDROOT
BRANCH   2   3
HETATM    3  C   UNL     1     -12.624  15.424  70.131  1.00  0.00    -0.329 C  
BRANCH   3   4
HETATM    4  C   UNL     1     -11.588  14.630  69.377  1.00  0.00    -0.305 C  
HETATM    5  O   UNL     1     -10.408  14.627  69.730  1.00  0.00    -0.088 OA 
HETATM    6  N   UNL     1     -12.113  13.870  68.339  1.00  0.00    -0.478 N  
HETATM    7  H   UNL     1     -13.106  13.943  68.117  1.00  0.00     0.000 HD 
BRANCH   6   8
HETATM    8  C   UNL     1     -11.290  12.995  67.582  1.00  0.00    -0.300 A  
HETATM    9  C   UNL     1     -10.555  13.514  66.511  1.00  0.00    -0.281 A  
HETATM   10  C   UNL     1      -9.835  12.660  65.676  1.00  0.00    -0.213 A  
HETATM   11  I   UNL     1     -10.528  15.563  66.052  1.00  0.00    -0.381 I  
HETATM   12  C   UNL     1      -9.905  11.270  65.852  1.00  0.00    -0.232 A  
HETATM   13  C   UNL     1     -10.661  10.700  66.898  1.00  0.00    -0.311 A  
HETATM   14  I   UNL     1      -8.717  10.156  64.503  1.00  0.00    -0.273 I  
HETATM   15  C   UNL     1     -11.225  11.604  67.833  1.00  0.00    -0.269 A  
HETATM   16  I   UNL     1     -11.505  10.943  69.896  1.00  0.00    -0.406 I  
BRANCH  13  17
HETATM   17  C   UNL     1     -10.907   9.203  67.001  1.00  0.00    -0.056 C  
HETATM   18  C   UNL     1      -9.637   8.310  67.038  1.00  0.00    -0.249 C  
HETATM   19  C   UNL     1     -10.058   6.850  67.134  1.00  0.00    -0.209 C  
HETATM   20  C   UNL     1      -8.603   8.638  68.131  1.00  0.00    -0.141 C  
HETATM   21  C   UNL     1      -9.109   8.552  69.563  1.00  0.00    -0.150 C  
HETATM   22  O   UNL     1     -11.108   6.458  67.619  1.00  0.00    -0.339 OA 
HETATM   23  O   UNL     1      -9.138   5.994  66.634  1.00  0.00    -0.128 OA 
ENDBRANCH  13  17
ENDBRANCH   6   8
ENDBRANCH   3   4
ENDBRANCH   2   3
TORSDOF 4
ENDMDL
MODEL       44
REMARK 921   NORMALIZED FREE ENERGY PREDICTED BY IDOCK:   -4.01 KCAL/MOL
REMARK 922        TOTAL FREE ENERGY PREDICTED BY IDOCK:   -5.91 KCAL/MOL
REMARK 923 INTER-LIGAND FREE ENERGY PREDICTED BY IDOCK:   -4.98 KCAL/MOL
REMARK 924 INTRA-LIGAND FREE ENERGY PREDICTED BY IDOCK:   -0.94 KCAL/MOL
REMARK 927      BINDING AFFINITY PREDICTED BY RF-SCORE:    0.00 PKD
ROOT
HETATM    1  C   UNL     1     -12.367  12.472  64.679  1.00  0.00    -0.547 C  
HETATM    2  C   UNL     1     -11.321  12.010  65.678  1.00  0.00    -0.381 C  
ENDROOT
BRANCH   2   3
HETATM    3  C   UNL     1     -11.712  12.378  67.106  1.00  0.00    -0.415 C  
BRANCH   3   4
HETATM    4  C   UNL     1     -10.963  11.522  68.096  1.00  0.00    -0.228 C  
HETATM    5  O   UNL     1      -9.858  11.859  68.520  1.00  0.00    -0.208 OA 
HETATM    6  N   UNL     1     -11.674  10.404  68.516  1.00  0.00    -0.508 N  
HETATM    7  H   UNL     1     -12.584  10.203  68.102  1.00  0.00     0.000 HD 
BRANCH   6   8
HETATM    8  C   UNL     1     -11.153   9.537  69.513  1.00  0.00    -0.142 A  
HETATM    9  C   UNL     1     -11.518   9.744  70.847  1.00  0.00    -0.369 A  
HETATM   10  C   UNL     1     -10.929   8.987  71.860  1.00  0.00    -0.423 A  
HETATM   11  I   UNL     1     -12.904  11.213  71.421  1.00  0.00    -0.241 I  
HETATM   12  C   UNL     1      -9.909   8.072  71.560  1.00  0.00    -0.170 A  
HETATM   13  C   UNL     1      -9.485   7.855  70.232  1.00  0.00    -0.163 A  
HETATM   14  I   UNL     1      -9.171   7.005  73.231  1.00  0.00    -0.240 I  
HETATM   15  C   UNL     1     -10.233   8.503  69.218  1.00  0.00    -0.208 A  
HETATM   16  I   UNL     1     -10.384   7.556  67.256  1.00  0.00    -0.377 I  
BRANCH  13  17
HETATM   17  C   UNL     1      -8.263   7.015  69.896  1.00  0.00    -0.130 C  
HETATM   18  C   UNL     1      -7.079   7.776  69.239  1.00  0.00    -0.076 C  
HETATM   19  C   UNL     1      -5.948   6.796  68.962  1.00  0.00    -0.022 C  
HETATM   20  C   UNL     1      -6.546   9.001  70.005  1.00  0.00    -0.043 C  
HETATM   21  C   UNL     1      -6.022   8.724  71.406  1.00  0.00    -0.052 C  
HETATM   22  O   UNL     1      -5.754   5.763  69.584  1.00  0.00    -0.014 OA 
HETATM   23  O   UNL     1      -5.142   7.181  67.947  1.00  0.00    -0.017 OA 
ENDBRANCH  13  17
ENDBRANCH   6   8
ENDBRANCH   3   4
ENDBRANCH   2   3
TORSDOF 4
ENDMDL
MODEL       45
REMARK 921   NORMALIZED FREE ENERGY PREDICTED BY IDOCK:   -3.97 KCAL/MOL
REMARK 922        TOTAL FREE ENERGY PREDICTED BY IDOCK:   -5.87 KCAL/MOL
REMARK 923 INTER-LIGAND FREE ENERGY PREDICTED BY IDOCK:   -6.07 KCAL/MOL
REMARK 924 INTRA-LIGAND FREE ENERGY PREDICTED BY IDOCK:    0.20 KCAL/MOL
REMARK 927      BINDING AFFINITY PREDICTED BY RF-SCORE:    0.00 PKD
ROOT
HETATM    1  C   UNL     1     -14.335  14.222  72.064  1.00  0.00    -0.629 C  
HETATM    2  C   UNL     1     -12.970  13.568  71.949  1.00  0.00    -0.431 C  
ENDROOT
BRANCH   2   3
HETATM    3  C   UNL     1     -13.071  12.048  72.024  1.00  0.00    -0.456 C  
BRANCH   3   4
HETATM    4  C   UNL     1     -12.608  11.423  70.732  1.00  0.00    -0.316 C  
HETATM    5  O   UNL     1     -13.232  10.497  70.214  1.00  0.00    -0.175 OA 
HETATM    6  N   UNL     1     -11.494  12.045  70.180  1.00  0.00    -0.526 N  
HETATM    7  H   UNL     1     -11.040  12.804  70.688  1.00  0.00     0.000 HD 
BRANCH   6   8
HETATM    8  C   UNL     1     -10.978  11.640  68.920  1.00  0.00    -0.233 A  
HETATM    9  C   UNL     1     -10.972  12.558  67.865  1.00  0.00    -0.227 A  
HETATM   10  C   UNL     1     -10.586  12.155  66.587  1.00  0.00    -0.266 A  
HETATM   11  I   UNL     1     -11.585  14.553  68.104  1.00  0.00    -0.336 I  
HETATM   12  C   UNL     1     -10.280  10.810  66.330  1.00  0.00    -0.240 A  
HETATM   13  C   UNL     1     -10.305   9.843  67.357  1.00  0.00    -0.301 A  
HETATM   14  I   UNL     1      -9.689  10.412  64.339  1.00  0.00    -0.275 I  
HETATM   15  C   UNL     1     -10.520  10.325  68.672  1.00  0.00    -0.193 A  
HETATM   16  I   UNL     1      -9.633   9.239  70.347  1.00  0.00    -0.310 I  
BRANCH  13  17
HETATM   17  C   UNL     1     -10.163   8.355  67.076  1.00  0.00    -0.377 C  
HETATM   18  C   UNL     1      -8.874   7.930  66.320  1.00  0.00    -0.188 C  
HETATM   19  C   UNL     1      -8.891   6.422  66.114  1.00  0.00    -0.150 C  
HETATM   20  C   UNL     1      -7.538   8.366  66.951  1.00  0.00    -0.091 C  
HETATM   21  C   UNL     1      -7.278   7.854  68.359  1.00  0.00    -0.089 C  
HETATM   22  O   UNL     1      -9.482   5.628  66.829  1.00  0.00    -0.131 OA 
HETATM   23  O   UNL     1      -8.164   6.019  65.047  1.00  0.00    -0.132 OA 
ENDBRANCH  13  17
ENDBRANCH   6   8
ENDBRANCH   3   4
ENDBRANCH   2   3
TORSDOF 4
ENDMDL
MODEL       46
REMARK 921   NORMALIZED FREE ENERGY PREDICTED BY IDOCK:   -3.96 KCAL/MOL
REMARK 922        TOTAL FREE ENERGY PREDICTED BY IDOCK:   -5.86 KCAL/MOL
REMARK 923 INTER-LIGAND FREE ENERGY PREDICTED BY IDOCK:   -6.60 KCAL/MOL
REMARK 924 INTRA-LIGAND FREE ENERGY PREDICTED BY IDOCK:    0.75 KCAL/MOL
REMARK 927      BINDING AFFINITY PREDICTED BY RF-SCORE:    0.00 PKD
ROOT
HETATM    1  C   UNL     1      -9.276   7.857  66.281  1.00  0.00    -0.231 C  
HETATM    2  C   UNL     1     -10.399   7.762  67.298  1.00  0.00    -0.371 C  
ENDROOT
BRANCH   2   3
HETATM    3  C   UNL     1      -9.856   7.650  68.720  1.00  0.00    -0.165 C  
BRANCH   3   4
HETATM    4  C   UNL     1     -10.065   8.942  69.469  1.00  0.00    -0.198 C  
HETATM    5  O   UNL     1      -9.297   9.287  70.367  1.00  0.00    -0.211 OA 
HETATM    6  N   UNL     1     -11.126   9.699  68.989  1.00  0.00    -0.422 N  
HETATM    7  H   UNL     1     -11.711   9.326  68.241  1.00  0.00     0.000 HD 
BRANCH   6   8
HETATM    8  C   UNL     1     -11.408  10.986  69.522  1.00  0.00    -0.287 A  
HETATM    9  C   UNL     1     -12.265  11.089  70.622  1.00  0.00    -0.385 A  
HETATM   10  C   UNL     1     -12.657  12.342  71.090  1.00  0.00    -0.349 A  
HETATM   11  I   UNL     1     -13.057   9.404  71.595  1.00  0.00    -0.536 I  
HETATM   12  C   UNL     1     -12.262  13.507  70.415  1.00  0.00    -0.356 A  
HETATM   13  C   UNL     1     -11.425  13.449  69.281  1.00  0.00    -0.345 A  
HETATM   14  I   UNL     1     -12.935  15.305  71.303  1.00  0.00    -0.603 I  
HETATM   15  C   UNL     1     -10.900  12.175  68.949  1.00  0.00    -0.200 A  
HETATM   16  I   UNL     1      -8.950  12.064  67.972  1.00  0.00    -0.181 I  
BRANCH  13  17
HETATM   17  C   UNL     1     -11.134  14.670  68.421  1.00  0.00    -0.270 C  
HETATM   18  C   UNL     1     -10.685  14.379  66.963  1.00  0.00    -0.285 C  
HETATM   19  C   UNL     1     -10.429  15.698  66.248  1.00  0.00    -0.306 C  
HETATM   20  C   UNL     1     -11.623  13.491  66.124  1.00  0.00    -0.371 C  
HETATM   21  C   UNL     1     -13.035  14.022  65.934  1.00  0.00    -0.223 C  
HETATM   22  O   UNL     1     -10.961  16.759  66.534  1.00  0.00    -0.064 OA 
HETATM   23  O   UNL     1      -9.548  15.591  65.228  1.00  0.00    -0.244 OA 
ENDBRANCH  13  17
ENDBRANCH   6   8
ENDBRANCH   3   4
ENDBRANCH   2   3
TORSDOF 4
ENDMDL
MODEL       47
REMARK 921   NORMALIZED FREE ENERGY PREDICTED BY IDOCK:   -3.94 KCAL/MOL
REMARK 922        TOTAL FREE ENERGY PREDICTED BY IDOCK:   -5.83 KCAL/MOL
REMARK 923 INTER-LIGAND FREE ENERGY PREDICTED BY IDOCK:   -5.05 KCAL/MOL
REMARK 924 INTRA-LIGAND FREE ENERGY PREDICTED BY IDOCK:   -0.78 KCAL/MOL
REMARK 927      BINDING AFFINITY PREDICTED BY RF-SCORE:    0.00 PKD
ROOT
HETATM    1  C   UNL     1     -13.158  11.148  71.924  1.00  0.00    -0.513 C  
HETATM    2  C   UNL     1     -13.620   9.712  71.752  1.00  0.00    -0.424 C  
ENDROOT
BRANCH   2   3
HETATM    3  C   UNL     1     -12.606   8.727  72.327  1.00  0.00    -0.460 C  
BRANCH   3   4
HETATM    4  C   UNL     1     -11.353   8.710  71.489  1.00  0.00    -0.289 C  
HETATM    5  O   UNL     1     -10.278   9.100  71.944  1.00  0.00    -0.332 OA 
HETATM    6  N   UNL     1     -11.531   8.148  70.230  1.00  0.00    -0.457 N  
HETATM    7  H   UNL     1     -12.465   7.857  69.938  1.00  0.00     0.000 HD 
BRANCH   6   8
HETATM    8  C   UNL     1     -10.435   7.972  69.344  1.00  0.00    -0.220 A  
HETATM    9  C   UNL     1     -10.113   9.001  68.453  1.00  0.00    -0.191 A  
HETATM   10  C   UNL     1      -9.122   8.810  67.491  1.00  0.00    -0.146 A  
HETATM   11  I   UNL     1     -11.113  10.848  68.457  1.00  0.00    -0.399 I  
HETATM   12  C   UNL     1      -8.498   7.561  67.354  1.00  0.00    -0.115 A  
HETATM   13  C   UNL     1      -8.815   6.484  68.209  1.00  0.00    -0.119 A  
HETATM   14  I   UNL     1      -7.004   7.489  65.858  1.00  0.00    -0.063 I  
HETATM   15  C   UNL     1      -9.688   6.772  69.287  1.00  0.00    -0.151 A  
HETATM   16  I   UNL     1      -9.483   5.629  71.137  1.00  0.00    -0.222 I  
BRANCH  13  17
HETATM   17  C   UNL     1      -8.297   5.075  67.967  1.00  0.00    -0.100 C  
HETATM   18  C   UNL     1      -9.366   4.020  67.570  1.00  0.00    -0.219 C  
HETATM   19  C   UNL     1      -8.687   2.672  67.374  1.00  0.00    -0.117 C  
HETATM   20  C   UNL     1     -10.237   4.360  66.345  1.00  0.00    -0.184 C  
HETATM   21  C   UNL     1      -9.484   4.575  65.042  1.00  0.00    -0.156 C  
HETATM   22  O   UNL     1      -7.517   2.521  67.058  1.00  0.00    -0.063 OA 
HETATM   23  O   UNL     1      -9.516   1.622  67.572  1.00  0.00    -0.111 OA 
ENDBRANCH  13  17
ENDBRANCH   6   8
ENDBRANCH   3   4
ENDBRANCH   2   3
TORSDOF 4
ENDMDL
MODEL       48
REMARK 921   NORMALIZED FREE ENERGY PREDICTED BY IDOCK:   -3.90 KCAL/MOL
REMARK 922        TOTAL FREE ENERGY PREDICTED BY IDOCK:   -5.78 KCAL/MOL
REMARK 923 INTER-LIGAND FREE ENERGY PREDICTED BY IDOCK:   -4.79 KCAL/MOL
REMARK 924 INTRA-LIGAND FREE ENERGY PREDICTED BY IDOCK:   -0.99 KCAL/MOL
REMARK 927      BINDING AFFINITY PREDICTED BY RF-SCORE:    0.00 PKD
ROOT
HETATM    1  C   UNL     1     -12.169  13.814  64.126  1.00  0.00    -0.443 C  
HETATM    2  C   UNL     1     -11.915  12.446  63.519  1.00  0.00    -0.627 C  
ENDROOT
BRANCH   2   3
HETATM    3  C   UNL     1     -10.422  12.163  63.383  1.00  0.00    -0.450 C  
BRANCH   3   4
HETATM    4  C   UNL     1      -9.940  11.306  64.525  1.00  0.00    -0.284 C  
HETATM    5  O   UNL     1     -10.523  10.265  64.829  1.00  0.00    -0.200 OA 
HETATM    6  N   UNL     1      -8.767  11.766  65.111  1.00  0.00    -0.214 N  
HETATM    7  H   UNL     1      -8.359  12.645  64.794  1.00  0.00     0.000 HD 
BRANCH   6   8
HETATM    8  C   UNL     1      -8.126  11.030  66.143  1.00  0.00    -0.141 A  
HETATM    9  C   UNL     1      -7.053  10.196  65.814  1.00  0.00    -0.127 A  
HETATM   10  C   UNL     1      -6.484   9.371  66.784  1.00  0.00    -0.067 A  
HETATM   11  I   UNL     1      -6.271  10.082  63.868  1.00  0.00    -0.088 I  
HETATM   12  C   UNL     1      -7.033   9.309  68.073  1.00  0.00    -0.076 A  
HETATM   13  C   UNL     1      -8.136  10.107  68.440  1.00  0.00    -0.104 A  
HETATM   14  I   UNL     1      -6.005   8.021  69.400  1.00  0.00    -0.034 I  
HETATM   15  C   UNL     1      -8.567  11.064  67.487  1.00  0.00    -0.128 A  
HETATM   16  I   UNL     1      -9.479  12.916  68.198  1.00  0.00    -0.135 I  
BRANCH  13  17
HETATM   17  C   UNL     1      -8.867   9.926  69.762  1.00  0.00    -0.229 C  
HETATM   18  C   UNL     1     -10.320   9.387  69.663  1.00  0.00    -0.229 C  
HETATM   19  C   UNL     1     -10.906   9.272  71.063  1.00  0.00    -0.314 C  
HETATM   20  C   UNL     1     -10.506   8.062  68.899  1.00  0.00    -0.207 C  
HETATM   21  C   UNL     1      -9.749   6.868  69.458  1.00  0.00    -0.159 C  
HETATM   22  O   UNL     1     -10.250   9.110  72.081  1.00  0.00    -0.227 OA 
HETATM   23  O   UNL     1     -12.255   9.355  71.087  1.00  0.00    -0.306 OA 
ENDBRANCH  13  17
ENDBRANCH   6   8
ENDBRANCH   3   4
ENDBRANCH   2   3
TORSDOF 4
ENDMDL
MODEL       49
REMARK 921   NORMALIZED FREE ENERGY PREDICTED BY IDOCK:   -3.90 KCAL/MOL
REMARK 922        TOTAL FREE ENERGY PREDICTED BY IDOCK:   -5.78 KCAL/MOL
REMARK 923 INTER-LIGAND FREE ENERGY PREDICTED BY IDOCK:   -4.69 KCAL/MOL
REMARK 924 INTRA-LIGAND FREE ENERGY PREDICTED BY IDOCK:   -1.08 KCAL/MOL
REMARK 927      BINDING AFFINITY PREDICTED BY RF-SCORE:    0.00 PKD
ROOT
HETATM    1  C   UNL     1      -8.012   5.522  63.766  1.00  0.00    -0.112 C  
HETATM    2  C   UNL     1      -7.329   6.701  64.436  1.00  0.00    -0.087 C  
ENDROOT
BRANCH   2   3
HETATM    3  C   UNL     1      -7.652   8.011  63.724  1.00  0.00    -0.129 C  
BRANCH   3   4
HETATM    4  C   UNL     1      -8.471   8.909  64.617  1.00  0.00    -0.168 C  
HETATM    5  O   UNL     1      -9.342   9.644  64.152  1.00  0.00    -0.236 OA 
HETATM    6  N   UNL     1      -8.195   8.752  65.970  1.00  0.00    -0.114 N  
HETATM    7  H   UNL     1      -7.449   8.120  66.260  1.00  0.00     0.000 HD 
BRANCH   6   8
HETATM    8  C   UNL     1      -8.937   9.456  66.955  1.00  0.00    -0.130 A  
HETATM    9  C   UNL     1     -10.010   8.815  67.581  1.00  0.00    -0.193 A  
HETATM   10  C   UNL     1     -10.831   9.519  68.462  1.00  0.00    -0.175 A  
HETATM   11  I   UNL     1     -10.494   6.805  67.209  1.00  0.00    -0.447 I  
HETATM   12  C   UNL     1     -10.638  10.894  68.665  1.00  0.00    -0.195 A  
HETATM   13  C   UNL     1      -9.589  11.589  68.029  1.00  0.00    -0.180 A  
HETATM   14  I   UNL     1     -11.966  11.767  70.060  1.00  0.00    -0.233 I  
HETATM   15  C   UNL     1      -8.668  10.804  67.290  1.00  0.00    -0.130 A  
HETATM   16  I   UNL     1      -6.599  11.485  67.130  1.00  0.00    -0.122 I  
BRANCH  13  17
HETATM   17  C   UNL     1      -9.469  13.105  68.080  1.00  0.00    -0.222 C  
HETATM   18  C   UNL     1      -9.627  13.842  66.722  1.00  0.00    -0.288 C  
HETATM   19  C   UNL     1      -9.474  15.340  66.948  1.00  0.00    -0.234 C  
HETATM   20  C   UNL     1     -10.918  13.553  65.935  1.00  0.00    -0.284 C  
HETATM   21  C   UNL     1     -12.216  13.896  66.650  1.00  0.00    -0.465 C  
HETATM   22  O   UNL     1      -9.713  15.914  67.999  1.00  0.00    -0.214 OA 
HETATM   23  O   UNL     1      -9.049  16.005  65.850  1.00  0.00    -0.333 OA 
ENDBRANCH  13  17
ENDBRANCH   6   8
ENDBRANCH   3   4
ENDBRANCH   2   3
TORSDOF 4
ENDMDL
MODEL       50
REMARK 921   NORMALIZED FREE ENERGY PREDICTED BY IDOCK:   -3.87 KCAL/MOL
REMARK 922        TOTAL FREE ENERGY PREDICTED BY IDOCK:   -5.74 KCAL/MOL
REMARK 923 INTER-LIGAND FREE ENERGY PREDICTED BY IDOCK:   -4.74 KCAL/MOL
REMARK 924 INTRA-LIGAND FREE ENERGY PREDICTED BY IDOCK:   -1.00 KCAL/MOL
REMARK 927      BINDING AFFINITY PREDICTED BY RF-SCORE:    0.00 PKD
ROOT
HETATM    1  C   UNL     1      -9.042   9.725  62.344  1.00  0.00    -0.300 C  
HETATM    2  C   UNL     1      -8.095  10.193  63.434  1.00  0.00    -0.161 C  
ENDROOT
BRANCH   2   3
HETATM    3  C   UNL     1      -7.550   9.019  64.242  1.00  0.00    -0.117 C  
BRANCH   3   4
HETATM    4  C   UNL     1      -8.103   9.041  65.645  1.00  0.00    -0.115 C  
HETATM    5  O   UNL     1      -7.358   9.127  66.621  1.00  0.00    -0.085 OA 
HETATM    6  N   UNL     1      -9.492   9.039  65.696  1.00  0.00    -0.392 N  
HETATM    7  H   UNL     1     -10.026   8.960  64.831  1.00  0.00     0.000 HD 
BRANCH   6   8
HETATM    8  C   UNL     1     -10.179   9.146  66.935  1.00  0.00    -0.266 A  
HETATM    9  C   UNL     1     -10.653  10.398  67.340  1.00  0.00    -0.269 A  
HETATM   10  C   UNL     1     -11.223  10.557  68.603  1.00  0.00    -0.328 A  
HETATM   11  I   UNL     1     -10.496  12.107  66.129  1.00  0.00    -0.321 I  
HETATM   12  C   UNL     1     -11.251   9.485  69.508  1.00  0.00    -0.074 A  
HETATM   13  C   UNL     1     -10.753   8.213  69.155  1.00  0.00    -0.117 A  
HETATM   14  I   UNL     1     -12.184   9.924  71.355  1.00  0.00    -0.484 I  
HETATM   15  C   UNL     1     -10.355   8.045  67.805  1.00  0.00    -0.231 A  
HETATM   16  I   UNL     1     -10.535   6.067  66.896  1.00  0.00    -0.333 I  
BRANCH  13  17
HETATM   17  C   UNL     1     -10.599   7.090  70.169  1.00  0.00    -0.249 C  
HETATM   18  C   UNL     1      -9.142   6.629  70.449  1.00  0.00    -0.152 C  
HETATM   19  C   UNL     1      -9.165   5.503  71.474  1.00  0.00    -0.146 C  
HETATM   20  C   UNL     1      -8.151   7.724  70.885  1.00  0.00    -0.102 C  
HETATM   21  C   UNL     1      -8.512   8.469  72.161  1.00  0.00    -0.221 C  
HETATM   22  O   UNL     1     -10.041   5.339  72.309  1.00  0.00    -0.178 OA 
HETATM   23  O   UNL     1      -8.095   4.681  71.389  1.00  0.00    -0.095 OA 
ENDBRANCH  13  17
ENDBRANCH   6   8
ENDBRANCH   3   4
ENDBRANCH   2   3
TORSDOF 4
ENDMDL
MODEL       51
REMARK 921   NORMALIZED FREE ENERGY PREDICTED BY IDOCK:   -3.85 KCAL/MOL
REMARK 922        TOTAL FREE ENERGY PREDICTED BY IDOCK:   -5.71 KCAL/MOL
REMARK 923 INTER-LIGAND FREE ENERGY PREDICTED BY IDOCK:   -5.51 KCAL/MOL
REMARK 924 INTRA-LIGAND FREE ENERGY PREDICTED BY IDOCK:   -0.20 KCAL/MOL
REMARK 927      BINDING AFFINITY PREDICTED BY RF-SCORE:    0.00 PKD
ROOT
HETATM    1  C   UNL     1     -13.890  15.783  72.815  1.00  0.00    -0.600 C  
HETATM    2  C   UNL     1     -14.387  14.667  71.915  1.00  0.00    -0.656 C  
ENDROOT
BRANCH   2   3
HETATM    3  C   UNL     1     -13.901  14.849  70.480  1.00  0.00     0.291 C  
BRANCH   3   4
HETATM    4  C   UNL     1     -12.458  14.431  70.354  1.00  0.00    -0.357 C  
HETATM    5  O   UNL     1     -11.684  14.524  71.306  1.00  0.00    -0.311 OA 
HETATM    6  N   UNL     1     -12.144  13.877  69.119  1.00  0.00    -0.372 N  
HETATM    7  H   UNL     1     -12.854  13.848  68.387  1.00  0.00     0.000 HD 
BRANCH   6   8
HETATM    8  C   UNL     1     -10.850  13.350  68.860  1.00  0.00    -0.220 A  
HETATM    9  C   UNL     1      -9.832  14.222  68.460  1.00  0.00    -0.231 A  
HETATM   10  C   UNL     1      -8.588  13.719  68.082  1.00  0.00    -0.175 A  
HETATM   11  I   UNL     1     -10.110  16.301  68.344  1.00  0.00    -0.278 I  
HETATM   12  C   UNL     1      -8.371  12.334  68.021  1.00  0.00    -0.165 A  
HETATM   13  C   UNL     1      -9.380  11.417  68.383  1.00  0.00    -0.194 A  
HETATM   14  I   UNL     1      -6.410  11.779  67.456  1.00  0.00    -0.139 I  
HETATM   15  C   UNL     1     -10.563  11.967  68.937  1.00  0.00    -0.159 A  
HETATM   16  I   UNL     1     -11.692  10.787  70.386  1.00  0.00    -0.375 I  
BRANCH  13  17
HETATM   17  C   UNL     1      -9.240   9.920  68.150  1.00  0.00    -0.131 C  
HETATM   18  C   UNL     1     -10.323   9.274  67.243  1.00  0.00    -0.332 C  
HETATM   19  C   UNL     1     -10.043   7.782  67.119  1.00  0.00    -0.258 C  
HETATM   20  C   UNL     1     -10.506   9.898  65.848  1.00  0.00    -0.072 C  
HETATM   21  C   UNL     1      -9.276   9.884  64.953  1.00  0.00    -0.301 C  
HETATM   22  O   UNL     1      -8.941   7.269  67.235  1.00  0.00    -0.122 OA 
HETATM   23  O   UNL     1     -11.148   7.051  66.849  1.00  0.00    -0.359 OA 
ENDBRANCH  13  17
ENDBRANCH   6   8
ENDBRANCH   3   4
ENDBRANCH   2   3
TORSDOF 4
ENDMDL
MODEL       52
REMARK 921   NORMALIZED FREE ENERGY PREDICTED BY IDOCK:   -3.83 KCAL/MOL
REMARK 922        TOTAL FREE ENERGY PREDICTED BY IDOCK:   -5.69 KCAL/MOL
REMARK 923 INTER-LIGAND FREE ENERGY PREDICTED BY IDOCK:   -5.85 KCAL/MOL
REMARK 924 INTRA-LIGAND FREE ENERGY PREDICTED BY IDOCK:    0.16 KCAL/MOL
REMARK 927      BINDING AFFINITY PREDICTED BY RF-SCORE:    0.00 PKD
ROOT
HETATM    1  C   UNL     1     -12.020   6.502  72.172  1.00  0.00    -0.334 C  
HETATM    2  C   UNL     1     -11.668   7.972  72.034  1.00  0.00    -0.375 C  
ENDROOT
BRANCH   2   3
HETATM    3  C   UNL     1     -10.163   8.174  71.888  1.00  0.00    -0.289 C  
BRANCH   3   4
HETATM    4  C   UNL     1      -9.853   8.959  70.639  1.00  0.00    -0.212 C  
HETATM    5  O   UNL     1      -8.800   9.586  70.526  1.00  0.00    -0.233 OA 
HETATM    6  N   UNL     1     -10.814   8.825  69.644  1.00  0.00    -0.347 N  
HETATM    7  H   UNL     1     -11.660   8.287  69.832  1.00  0.00     0.000 HD 
BRANCH   6   8
HETATM    8  C   UNL     1     -10.637   9.426  68.369  1.00  0.00    -0.204 A  
HETATM    9  C   UNL     1     -10.449   8.604  67.253  1.00  0.00    -0.289 A  
HETATM   10  C   UNL     1     -10.153   9.165  66.012  1.00  0.00    -0.204 A  
HETATM   11  I   UNL     1     -10.539   6.509  67.370  1.00  0.00    -0.493 I  
HETATM   12  C   UNL     1      -9.960  10.549  65.886  1.00  0.00    -0.254 A  
HETATM   13  C   UNL     1     -10.106  11.413  66.991  1.00  0.00    -0.237 A  
HETATM   14  I   UNL     1      -9.549  11.200  63.916  1.00  0.00    -0.286 I  
HETATM   15  C   UNL     1     -10.588  10.829  68.189  1.00  0.00    -0.203 A  
HETATM   16  I   UNL     1     -11.767  12.058  69.557  1.00  0.00    -0.293 I  
BRANCH  13  17
HETATM   17  C   UNL     1      -9.723  12.884  66.930  1.00  0.00    -0.240 C  
HETATM   18  C   UNL     1     -10.470  13.733  65.866  1.00  0.00    -0.300 C  
HETATM   19  C   UNL     1      -9.967  15.169  65.931  1.00  0.00    -0.328 C  
HETATM   20  C   UNL     1     -12.008  13.706  65.928  1.00  0.00    -0.438 C  
HETATM   21  C   UNL     1     -12.623  14.194  67.230  1.00  0.00     0.249 C  
HETATM   22  O   UNL     1      -9.491  15.695  66.925  1.00  0.00    -0.216 OA 
HETATM   23  O   UNL     1     -10.106  15.838  64.765  1.00  0.00    -0.330 OA 
ENDBRANCH  13  17
ENDBRANCH   6   8
ENDBRANCH   3   4
ENDBRANCH   2   3
TORSDOF 4
ENDMDL
MODEL       53
REMARK 921   NORMALIZED FREE ENERGY PREDICTED BY IDOCK:   -3.83 KCAL/MOL
REMARK 922        TOTAL FREE ENERGY PREDICTED BY IDOCK:   -5.69 KCAL/MOL
REMARK 923 INTER-LIGAND FREE ENERGY PREDICTED BY IDOCK:   -4.74 KCAL/MOL
REMARK 924 INTRA-LIGAND FREE ENERGY PREDICTED BY IDOCK:   -0.95 KCAL/MOL
REMARK 927      BINDING AFFINITY PREDICTED BY RF-SCORE:    0.00 PKD
ROOT
HETATM    1  C   UNL     1     -12.043  12.869  63.331  1.00  0.00    -0.610 C  
HETATM    2  C   UNL     1     -12.025  13.350  64.771  1.00  0.00    -0.429 C  
ENDROOT
BRANCH   2   3
HETATM    3  C   UNL     1     -10.637  13.830  65.182  1.00  0.00    -0.385 C  
BRANCH   3   4
HETATM    4  C   UNL     1      -9.933  12.776  65.998  1.00  0.00    -0.271 C  
HETATM    5  O   UNL     1      -9.488  11.757  65.472  1.00  0.00    -0.227 OA 
HETATM    6  N   UNL     1      -9.780  13.117  67.337  1.00  0.00    -0.215 N  
HETATM    7  H   UNL     1     -10.190  13.985  67.684  1.00  0.00     0.000 HD 
BRANCH   6   8
HETATM    8  C   UNL     1      -9.062  12.277  68.229  1.00  0.00    -0.187 A  
HETATM    9  C   UNL     1      -7.742  12.607  68.553  1.00  0.00    -0.114 A  
HETATM   10  C   UNL     1      -6.973  11.739  69.328  1.00  0.00    -0.065 A  
HETATM   11  I   UNL     1      -6.818  14.363  67.866  1.00  0.00    -0.191 I  
HETATM   12  C   UNL     1      -7.488  10.494  69.721  1.00  0.00    -0.119 A  
HETATM   13  C   UNL     1      -8.802  10.105  69.388  1.00  0.00    -0.197 A  
HETATM   14  I   UNL     1      -6.176   9.342  70.915  1.00  0.00    -0.068 I  
HETATM   15  C   UNL     1      -9.611  11.087  68.762  1.00  0.00    -0.187 A  
HETATM   16  I   UNL     1     -11.769  11.038  69.093  1.00  0.00    -0.342 I  
BRANCH  13  17
HETATM   17  C   UNL     1      -9.321   8.697  69.634  1.00  0.00    -0.161 C  
HETATM   18  C   UNL     1      -9.705   7.886  68.366  1.00  0.00    -0.170 C  
HETATM   19  C   UNL     1     -10.208   6.512  68.786  1.00  0.00    -0.171 C  
HETATM   20  C   UNL     1      -8.612   7.746  67.289  1.00  0.00    -0.128 C  
HETATM   21  C   UNL     1      -7.328   7.067  67.739  1.00  0.00    -0.097 C  
HETATM   22  O   UNL     1      -9.891   5.940  69.818  1.00  0.00    -0.156 OA 
HETATM   23  O   UNL     1     -11.051   5.954  67.888  1.00  0.00    -0.250 OA 
ENDBRANCH  13  17
ENDBRANCH   6   8
ENDBRANCH   3   4
ENDBRANCH   2   3
TORSDOF 4
ENDMDL
MODEL       54
REMARK 921   NORMALIZED FREE ENERGY PREDICTED BY IDOCK:   -3.83 KCAL/MOL
REMARK 922        TOTAL FREE ENERGY PREDICTED BY IDOCK:   -5.69 KCAL/MOL
REMARK 923 INTER-LIGAND FREE ENERGY PREDICTED BY IDOCK:   -5.60 KCAL/MOL
REMARK 924 INTRA-LIGAND FREE ENERGY PREDICTED BY IDOCK:   -0.09 KCAL/MOL
REMARK 927      BINDING AFFINITY PREDICTED BY RF-SCORE:    0.00 PKD
ROOT
HETATM    1  C   UNL     1      -8.968  20.461  67.179  1.00  0.00    -0.453 C  
HETATM    2  C   UNL     1     -10.121  19.910  66.360  1.00  0.00    -0.615 C  
ENDROOT
BRANCH   2   3
HETATM    3  C   UNL     1     -10.776  18.718  67.050  1.00  0.00    -0.435 C  
BRANCH   3   4
HETATM    4  C   UNL     1      -9.975  17.463  66.812  1.00  0.00    -0.307 C  
HETATM    5  O   UNL     1      -9.604  17.151  65.681  1.00  0.00    -0.535 OA 
HETATM    6  N   UNL     1      -9.650  16.780  67.977  1.00  0.00    -0.231 N  
HETATM    7  H   UNL     1     -10.009  17.114  68.872  1.00  0.00     0.000 HD 
BRANCH   6   8
HETATM    8  C   UNL     1      -8.824  15.625  67.943  1.00  0.00    -0.171 A  
HETATM    9  C   UNL     1      -7.455  15.764  68.193  1.00  0.00    -0.124 A  
HETATM   10  C   UNL     1      -6.601  14.671  68.047  1.00  0.00    -0.155 A  
HETATM   11  I   UNL     1      -6.590  17.599  68.738  1.00  0.00    -0.239 I  
HETATM   12  C   UNL     1      -7.092  13.446  67.571  1.00  0.00    -0.144 A  
HETATM   13  C   UNL     1      -8.460  13.270  67.274  1.00  0.00    -0.203 A  
HETATM   14  I   UNL     1      -5.643  11.910  67.451  1.00  0.00    -0.127 I  
HETATM   15  C   UNL     1      -9.322  14.343  67.611  1.00  0.00    -0.200 A  
HETATM   16  I   UNL     1     -11.390  13.899  68.152  1.00  0.00    -0.396 I  
BRANCH  13  17
HETATM   17  C   UNL     1      -8.987  12.021  66.583  1.00  0.00    -0.204 C  
HETATM   18  C   UNL     1      -8.580  10.668  67.229  1.00  0.00    -0.126 C  
HETATM   19  C   UNL     1      -9.180   9.529  66.417  1.00  0.00    -0.166 C  
HETATM   20  C   UNL     1      -8.921  10.495  68.720  1.00  0.00    -0.166 C  
HETATM   21  C   UNL     1     -10.396  10.599  69.075  1.00  0.00    -0.237 C  
HETATM   22  O   UNL     1     -10.191   9.615  65.737  1.00  0.00    -0.261 OA 
HETATM   23  O   UNL     1      -8.486   8.373  66.523  1.00  0.00    -0.107 OA 
ENDBRANCH  13  17
ENDBRANCH   6   8
ENDBRANCH   3   4
ENDBRANCH   2   3
TORSDOF 4
ENDMDL
MODEL       55
REMARK 921   NORMALIZED FREE ENERGY PREDICTED BY IDOCK:   -3.83 KCAL/MOL
REMARK 922        TOTAL FREE ENERGY PREDICTED BY IDOCK:   -5.69 KCAL/MOL
REMARK 923 INTER-LIGAND FREE ENERGY PREDICTED BY IDOCK:   -5.82 KCAL/MOL
REMARK 924 INTRA-LIGAND FREE ENERGY PREDICTED BY IDOCK:    0.13 KCAL/MOL
REMARK 927      BINDING AFFINITY PREDICTED BY RF-SCORE:    0.00 PKD
ROOT
HETATM    1  C   UNL     1     -12.091  14.487  64.257  1.00  0.00    -0.448 C  
HETATM    2  C   UNL     1     -12.902  13.921  65.409  1.00  0.00    -0.466 C  
ENDROOT
BRANCH   2   3
HETATM    3  C   UNL     1     -12.156  14.052  66.734  1.00  0.00    -0.480 C  
BRANCH   3   4
HETATM    4  C   UNL     1     -11.139  12.948  66.878  1.00  0.00    -0.278 C  
HETATM    5  O   UNL     1     -10.004  13.180  67.294  1.00  0.00    -0.225 OA 
HETATM    6  N   UNL     1     -11.640  11.686  66.582  1.00  0.00    -0.220 N  
HETATM    7  H   UNL     1     -12.596  11.593  66.239  1.00  0.00     0.000 HD 
BRANCH   6   8
HETATM    8  C   UNL     1     -10.842  10.523  66.751  1.00  0.00    -0.142 A  
HETATM    9  C   UNL     1     -10.011  10.114  65.703  1.00  0.00    -0.279 A  
HETATM   10  C   UNL     1      -9.310   8.912  65.793  1.00  0.00    -0.286 A  
HETATM   11  I   UNL     1      -9.805  11.223  63.931  1.00  0.00    -0.400 I  
HETATM   12  C   UNL     1      -9.493   8.065  66.895  1.00  0.00    -0.191 A  
HETATM   13  C   UNL     1     -10.347   8.420  67.960  1.00  0.00    -0.270 A  
HETATM   14  I   UNL     1      -8.316   6.308  66.854  1.00  0.00    -0.113 I  
HETATM   15  C   UNL     1     -10.895   9.727  67.920  1.00  0.00    -0.242 A  
HETATM   16  I   UNL     1     -11.341  10.738  69.803  1.00  0.00    -0.405 I  
BRANCH  13  17
HETATM   17  C   UNL     1     -10.710   7.447  69.072  1.00  0.00    -0.164 C  
HETATM   18  C   UNL     1      -9.513   6.802  69.823  1.00  0.00    -0.144 C  
HETATM   19  C   UNL     1     -10.046   5.856  70.890  1.00  0.00    -0.197 C  
HETATM   20  C   UNL     1      -8.489   7.774  70.437  1.00  0.00    -0.132 C  
HETATM   21  C   UNL     1      -9.041   8.746  71.469  1.00  0.00    -0.322 C  
HETATM   22  O   UNL     1     -11.137   5.960  71.430  1.00  0.00    -0.276 OA 
HETATM   23  O   UNL     1      -9.180   4.868  71.210  1.00  0.00    -0.137 OA 
ENDBRANCH  13  17
ENDBRANCH   6   8
ENDBRANCH   3   4
ENDBRANCH   2   3
TORSDOF 4
ENDMDL
MODEL       56
REMARK 921   NORMALIZED FREE ENERGY PREDICTED BY IDOCK:   -3.81 KCAL/MOL
REMARK 922        TOTAL FREE ENERGY PREDICTED BY IDOCK:   -5.67 KCAL/MOL
REMARK 923 INTER-LIGAND FREE ENERGY PREDICTED BY IDOCK:   -5.58 KCAL/MOL
REMARK 924 INTRA-LIGAND FREE ENERGY PREDICTED BY IDOCK:   -0.09 KCAL/MOL
REMARK 927      BINDING AFFINITY PREDICTED BY RF-SCORE:    0.00 PKD
ROOT
HETATM    1  C   UNL     1      -9.392   3.390  71.644  1.00  0.00    -0.206 C  
HETATM    2  C   UNL     1      -8.624   4.366  70.771  1.00  0.00    -0.117 C  
ENDROOT
BRANCH   2   3
HETATM    3  C   UNL     1      -9.301   4.556  69.417  1.00  0.00    -0.217 C  
BRANCH   3   4
HETATM    4  C   UNL     1     -10.106   5.830  69.403  1.00  0.00    -0.213 C  
HETATM    5  O   UNL     1     -11.283   5.835  69.042  1.00  0.00    -0.236 OA 
HETATM    6  N   UNL     1      -9.418   6.930  69.902  1.00  0.00    -0.157 N  
HETATM    7  H   UNL     1      -8.439   6.829  70.172  1.00  0.00     0.000 HD 
BRANCH   6   8
HETATM    8  C   UNL     1     -10.056   8.191  70.043  1.00  0.00    -0.196 A  
HETATM    9  C   UNL     1     -10.605   8.537  71.281  1.00  0.00    -0.234 A  
HETATM   10  C   UNL     1     -11.342   9.713  71.417  1.00  0.00    -0.444 A  
HETATM   11  I   UNL     1     -10.416   7.314  72.979  1.00  0.00    -0.446 I  
HETATM   12  C   UNL     1     -11.609  10.516  70.298  1.00  0.00    -0.332 A  
HETATM   13  C   UNL     1     -11.103  10.189  69.022  1.00  0.00    -0.249 A  
HETATM   14  I   UNL     1     -12.715  12.269  70.722  1.00  0.00     0.160 I  
HETATM   15  C   UNL     1     -10.208   9.091  68.962  1.00  0.00    -0.205 A  
HETATM   16  I   UNL     1      -8.657   9.085  67.425  1.00  0.00    -0.122 I  
BRANCH  13  17
HETATM   17  C   UNL     1     -11.528  10.931  67.764  1.00  0.00    -0.323 C  
HETATM   18  C   UNL     1     -11.437  12.480  67.831  1.00  0.00    -0.369 C  
HETATM   19  C   UNL     1     -11.901  13.063  66.503  1.00  0.00    -0.403 C  
HETATM   20  C   UNL     1     -10.068  13.068  68.220  1.00  0.00    -0.239 C  
HETATM   21  C   UNL     1      -8.912  12.709  67.299  1.00  0.00    -0.194 C  
HETATM   22  O   UNL     1     -11.847  12.482  65.430  1.00  0.00    -0.388 OA 
HETATM   23  O   UNL     1     -12.382  14.322  66.611  1.00  0.00    -0.446 OA 
ENDBRANCH  13  17
ENDBRANCH   6   8
ENDBRANCH   3   4
ENDBRANCH   2   3
TORSDOF 4
ENDMDL
MODEL       57
REMARK 921   NORMALIZED FREE ENERGY PREDICTED BY IDOCK:   -3.79 KCAL/MOL
REMARK 922        TOTAL FREE ENERGY PREDICTED BY IDOCK:   -5.65 KCAL/MOL
REMARK 923 INTER-LIGAND FREE ENERGY PREDICTED BY IDOCK:   -5.94 KCAL/MOL
REMARK 924 INTRA-LIGAND FREE ENERGY PREDICTED BY IDOCK:    0.29 KCAL/MOL
REMARK 927      BINDING AFFINITY PREDICTED BY RF-SCORE:    0.00 PKD
ROOT
HETATM    1  C   UNL     1      -9.997   8.591  66.790  1.00  0.00    -0.351 C  
HETATM    2  C   UNL     1     -10.339  10.070  66.753  1.00  0.00    -0.283 C  
ENDROOT
BRANCH   2   3
HETATM    3  C   UNL     1      -9.096  10.935  66.942  1.00  0.00    -0.164 C  
BRANCH   3   4
HETATM    4  C   UNL     1      -9.485  12.367  67.210  1.00  0.00    -0.191 C  
HETATM    5  O   UNL     1      -9.892  12.718  68.317  1.00  0.00    -0.221 OA 
HETATM    6  N   UNL     1      -9.258  13.217  66.135  1.00  0.00    -0.466 N  
HETATM    7  H   UNL     1      -8.922  12.831  65.252  1.00  0.00     0.000 HD 
BRANCH   6   8
HETATM    8  C   UNL     1      -9.485  14.615  66.245  1.00  0.00    -0.293 A  
HETATM    9  C   UNL     1     -10.769  15.113  66.002  1.00  0.00    -0.329 A  
HETATM   10  C   UNL     1     -10.995  16.488  65.984  1.00  0.00     0.057 A  
HETATM   11  I   UNL     1     -12.406  13.859  65.599  1.00  0.00    -0.467 I  
HETATM   12  C   UNL     1      -9.926  17.385  66.126  1.00  0.00    -0.270 A  
HETATM   13  C   UNL     1      -8.608  16.928  66.339  1.00  0.00    -0.328 A  
HETATM   14  I   UNL     1     -10.484  19.425  66.100  1.00  0.00    -0.404 I  
HETATM   15  C   UNL     1      -8.450  15.533  66.537  1.00  0.00    -0.248 A  
HETATM   16  I   UNL     1      -6.813  14.831  67.802  1.00  0.00    -0.142 I  
BRANCH  13  17
HETATM   17  C   UNL     1      -7.408  17.862  66.310  1.00  0.00    -0.327 C  
HETATM   18  C   UNL     1      -7.508  19.118  67.219  1.00  0.00    -0.246 C  
HETATM   19  C   UNL     1      -6.238  19.944  67.067  1.00  0.00    -0.182 C  
HETATM   20  C   UNL     1      -7.800  18.861  68.709  1.00  0.00    -0.359 C  
HETATM   21  C   UNL     1      -6.779  18.004  69.441  1.00  0.00    -0.162 C  
HETATM   22  O   UNL     1      -5.149  19.494  66.744  1.00  0.00    -0.161 OA 
HETATM   23  O   UNL     1      -6.417  21.256  67.341  1.00  0.00    -0.399 OA 
ENDBRANCH  13  17
ENDBRANCH   6   8
ENDBRANCH   3   4
ENDBRANCH   2   3
TORSDOF 4
ENDMDL
MODEL       58
REMARK 921   NORMALIZED FREE ENERGY PREDICTED BY IDOCK:   -3.79 KCAL/MOL
REMARK 922        TOTAL FREE ENERGY PREDICTED BY IDOCK:   -5.64 KCAL/MOL
REMARK 923 INTER-LIGAND FREE ENERGY PREDICTED BY IDOCK:   -5.90 KCAL/MOL
REMARK 924 INTRA-LIGAND FREE ENERGY PREDICTED BY IDOCK:    0.26 KCAL/MOL
REMARK 927      BINDING AFFINITY PREDICTED BY RF-SCORE:    0.00 PKD
ROOT
HETATM    1  C   UNL     1      -9.625  16.770  66.444  1.00  0.00    -0.303 C  
HETATM    2  C   UNL     1     -10.439  15.662  67.088  1.00  0.00    -0.303 C  
ENDROOT
BRANCH   2   3
HETATM    3  C   UNL     1     -10.407  14.387  66.251  1.00  0.00    -0.300 C  
BRANCH   3   4
HETATM    4  C   UNL     1     -11.041  13.245  67.004  1.00  0.00    -0.282 C  
HETATM    5  O   UNL     1     -12.087  12.728  66.613  1.00  0.00    -0.468 OA 
HETATM    6  N   UNL     1     -10.293  12.812  68.092  1.00  0.00    -0.232 N  
HETATM    7  H   UNL     1      -9.438  13.309  68.344  1.00  0.00     0.000 HD 
BRANCH   6   8
HETATM    8  C   UNL     1     -10.699  11.687  68.860  1.00  0.00    -0.207 A  
HETATM    9  C   UNL     1     -11.623  11.872  69.893  1.00  0.00    -0.256 A  
HETATM   10  C   UNL     1     -11.948  10.812  70.740  1.00  0.00    -0.464 A  
HETATM   11  I   UNL     1     -12.529  13.728  70.277  1.00  0.00    -0.142 I  
HETATM   12  C   UNL     1     -11.292   9.579  70.616  1.00  0.00    -0.301 A  
HETATM   13  C   UNL     1     -10.329   9.358  69.610  1.00  0.00    -0.229 A  
HETATM   14  I   UNL     1     -11.951   8.097  71.974  1.00  0.00    -0.465 I  
HETATM   15  C   UNL     1     -10.163  10.394  68.657  1.00  0.00    -0.181 A  
HETATM   16  I   UNL     1      -9.552   9.868  66.628  1.00  0.00    -0.283 I  
BRANCH  13  17
HETATM   17  C   UNL     1      -9.470   8.102  69.567  1.00  0.00    -0.156 C  
HETATM   18  C   UNL     1     -10.244   6.756  69.537  1.00  0.00    -0.202 C  
HETATM   19  C   UNL     1      -9.245   5.608  69.504  1.00  0.00    -0.129 C  
HETATM   20  C   UNL     1     -11.282   6.590  68.412  1.00  0.00    -0.274 C  
HETATM   21  C   UNL     1     -10.738   6.690  66.995  1.00  0.00    -0.437 C  
HETATM   22  O   UNL     1      -8.111   5.684  69.055  1.00  0.00    -0.095 OA 
HETATM   23  O   UNL     1      -9.735   4.457  70.016  1.00  0.00    -0.186 OA 
ENDBRANCH  13  17
ENDBRANCH   6   8
ENDBRANCH   3   4
ENDBRANCH   2   3
TORSDOF 4
ENDMDL
MODEL       59
REMARK 921   NORMALIZED FREE ENERGY PREDICTED BY IDOCK:   -3.78 KCAL/MOL
REMARK 922        TOTAL FREE ENERGY PREDICTED BY IDOCK:   -5.63 KCAL/MOL
REMARK 923 INTER-LIGAND FREE ENERGY PREDICTED BY IDOCK:   -5.71 KCAL/MOL
REMARK 924 INTRA-LIGAND FREE ENERGY PREDICTED BY IDOCK:    0.07 KCAL/MOL
REMARK 927      BINDING AFFINITY PREDICTED BY RF-SCORE:    0.00 PKD
ROOT
HETATM    1  C   UNL     1     -13.889  15.321  71.721  1.00  0.00    -0.622 C  
HETATM    2  C   UNL     1     -12.972  14.408  70.928  1.00  0.00    -0.413 C  
ENDROOT
BRANCH   2   3
HETATM    3  C   UNL     1     -12.388  15.122  69.713  1.00  0.00    -0.278 C  
BRANCH   3   4
HETATM    4  C   UNL     1     -11.750  14.131  68.773  1.00  0.00    -0.345 C  
HETATM    5  O   UNL     1     -12.121  14.035  67.603  1.00  0.00    -0.382 OA 
HETATM    6  N   UNL     1     -10.689  13.432  69.336  1.00  0.00    -0.446 N  
HETATM    7  H   UNL     1     -10.458  13.576  70.319  1.00  0.00     0.000 HD 
BRANCH   6   8
HETATM    8  C   UNL     1      -9.919  12.522  68.563  1.00  0.00    -0.165 A  
HETATM    9  C   UNL     1      -8.825  13.006  67.839  1.00  0.00    -0.193 A  
HETATM   10  C   UNL     1      -8.126  12.161  66.978  1.00  0.00    -0.154 A  
HETATM   11  I   UNL     1      -8.200  15.009  67.946  1.00  0.00    -0.196 I  
HETATM   12  C   UNL     1      -8.561  10.844  66.768  1.00  0.00    -0.137 A  
HETATM   13  C   UNL     1      -9.680  10.324  67.451  1.00  0.00    -0.189 A  
HETATM   14  I   UNL     1      -7.347   9.721  65.450  1.00  0.00    -0.134 I  
HETATM   15  C   UNL     1     -10.249  11.151  68.452  1.00  0.00    -0.188 A  
HETATM   16  I   UNL     1     -11.217  10.209  70.168  1.00  0.00    -0.407 I  
BRANCH  13  17
HETATM   17  C   UNL     1     -10.286   8.971  67.107  1.00  0.00    -0.342 C  
HETATM   18  C   UNL     1      -9.298   7.773  67.091  1.00  0.00    -0.185 C  
HETATM   19  C   UNL     1     -10.058   6.506  66.725  1.00  0.00    -0.176 C  
HETATM   20  C   UNL     1      -8.477   7.548  68.374  1.00  0.00    -0.125 C  
HETATM   21  C   UNL     1      -9.285   7.292  69.637  1.00  0.00    -0.143 C  
HETATM   22  O   UNL     1     -11.250   6.327  66.924  1.00  0.00    -0.335 OA 
HETATM   23  O   UNL     1      -9.278   5.559  66.155  1.00  0.00    -0.152 OA 
ENDBRANCH  13  17
ENDBRANCH   6   8
ENDBRANCH   3   4
ENDBRANCH   2   3
TORSDOF 4
ENDMDL
MODEL       60
REMARK 921   NORMALIZED FREE ENERGY PREDICTED BY IDOCK:   -3.77 KCAL/MOL
REMARK 922        TOTAL FREE ENERGY PREDICTED BY IDOCK:   -5.62 KCAL/MOL
REMARK 923 INTER-LIGAND FREE ENERGY PREDICTED BY IDOCK:   -5.57 KCAL/MOL
REMARK 924 INTRA-LIGAND FREE ENERGY PREDICTED BY IDOCK:   -0.05 KCAL/MOL
REMARK 927      BINDING AFFINITY PREDICTED BY RF-SCORE:    0.00 PKD
ROOT
HETATM    1  C   UNL     1     -10.439  19.995  66.324  1.00  0.00    -0.536 C  
HETATM    2  C   UNL     1      -9.358  20.389  67.313  1.00  0.00    -0.547 C  
ENDROOT
BRANCH   2   3
HETATM    3  C   UNL     1      -7.970  20.015  66.801  1.00  0.00    -0.349 C  
BRANCH   3   4
HETATM    4  C   UNL     1      -7.801  18.517  66.778  1.00  0.00    -0.242 C  
HETATM    5  O   UNL     1      -7.447  17.933  65.753  1.00  0.00    -0.520 OA 
HETATM    6  N   UNL     1      -7.999  17.915  68.014  1.00  0.00    -0.243 N  
HETATM    7  H   UNL     1      -8.297  18.483  68.807  1.00  0.00     0.000 HD 
BRANCH   6   8
HETATM    8  C   UNL     1      -7.793  16.520  68.191  1.00  0.00    -0.168 A  
HETATM    9  C   UNL     1      -6.649  16.086  68.868  1.00  0.00    -0.130 A  
HETATM   10  C   UNL     1      -6.359  14.724  68.951  1.00  0.00    -0.087 A  
HETATM   11  I   UNL     1      -5.283  17.420  69.743  1.00  0.00    -0.233 I  
HETATM   12  C   UNL     1      -7.163  13.786  68.288  1.00  0.00    -0.114 A  
HETATM   13  C   UNL     1      -8.308  14.181  67.564  1.00  0.00    -0.194 A  
HETATM   14  I   UNL     1      -6.570  11.774  68.563  1.00  0.00    -0.078 I  
HETATM   15  C   UNL     1      -8.672  15.548  67.659  1.00  0.00    -0.175 A  
HETATM   16  I   UNL     1     -10.782  16.086  67.495  1.00  0.00    -0.203 I  
BRANCH  13  17
HETATM   17  C   UNL     1      -9.088  13.216  66.684  1.00  0.00    -0.180 C  
HETATM   18  C   UNL     1      -9.665  11.965  67.401  1.00  0.00    -0.189 C  
HETATM   19  C   UNL     1     -10.405  11.106  66.385  1.00  0.00    -0.252 C  
HETATM   20  C   UNL     1     -10.561  12.232  68.625  1.00  0.00    -0.249 C  
HETATM   21  C   UNL     1     -11.806  13.063  68.360  1.00  0.00    -0.370 C  
HETATM   22  O   UNL     1     -10.917  11.526  65.359  1.00  0.00    -0.282 OA 
HETATM   23  O   UNL     1     -10.462   9.799  66.730  1.00  0.00    -0.231 OA 
ENDBRANCH  13  17
ENDBRANCH   6   8
ENDBRANCH   3   4
ENDBRANCH   2   3
TORSDOF 4
ENDMDL
MODEL       61
REMARK 921   NORMALIZED FREE ENERGY PREDICTED BY IDOCK:   -3.76 KCAL/MOL
REMARK 922        TOTAL FREE ENERGY PREDICTED BY IDOCK:   -5.60 KCAL/MOL
REMARK 923 INTER-LIGAND FREE ENERGY PREDICTED BY IDOCK:   -6.04 KCAL/MOL
REMARK 924 INTRA-LIGAND FREE ENERGY PREDICTED BY IDOCK:    0.43 KCAL/MOL
REMARK 927      BINDING AFFINITY PREDICTED BY RF-SCORE:    0.00 PKD
ROOT
HETATM    1  C   UNL     1     -13.628  15.755  73.095  1.00  0.00    -0.588 C  
HETATM    2  C   UNL     1     -14.292  15.033  71.937  1.00  0.00    -0.677 C  
ENDROOT
BRANCH   2   3
HETATM    3  C   UNL     1     -13.660  15.420  70.603  1.00  0.00    -0.130 C  
BRANCH   3   4
HETATM    4  C   UNL     1     -12.402  14.624  70.364  1.00  0.00    -0.339 C  
HETATM    5  O   UNL     1     -11.452  14.687  71.144  1.00  0.00    -0.265 OA 
HETATM    6  N   UNL     1     -12.473  13.788  69.256  1.00  0.00    -0.327 N  
HETATM    7  H   UNL     1     -13.303  13.809  68.664  1.00  0.00     0.000 HD 
BRANCH   6   8
HETATM    8  C   UNL     1     -11.409  12.903  68.937  1.00  0.00    -0.288 A  
HETATM    9  C   UNL     1     -10.341  13.378  68.170  1.00  0.00    -0.247 A  
HETATM   10  C   UNL     1      -9.344  12.503  67.739  1.00  0.00    -0.198 A  
HETATM   11  I   UNL     1     -10.188  15.386  67.572  1.00  0.00    -0.255 I  
HETATM   12  C   UNL     1      -9.445  11.129  68.000  1.00  0.00    -0.174 A  
HETATM   13  C   UNL     1     -10.523  10.600  68.741  1.00  0.00    -0.215 A  
HETATM   14  I   UNL     1      -7.817   9.980  67.288  1.00  0.00    -0.101 I  
HETATM   15  C   UNL     1     -11.412  11.540  69.318  1.00  0.00    -0.305 A  
HETATM   16  I   UNL     1     -12.424  11.022  71.183  1.00  0.00    -0.357 I  
BRANCH  13  17
HETATM   17  C   UNL     1     -10.758   9.103  68.879  1.00  0.00    -0.167 C  
HETATM   18  C   UNL     1      -9.555   8.276  69.410  1.00  0.00    -0.171 C  
HETATM   19  C   UNL     1      -9.953   6.808  69.481  1.00  0.00    -0.162 C  
HETATM   20  C   UNL     1      -8.954   8.730  70.753  1.00  0.00    -0.231 C  
HETATM   21  C   UNL     1      -9.909   8.721  71.937  1.00  0.00    -0.395 C  
HETATM   22  O   UNL     1     -11.096   6.403  69.620  1.00  0.00    -0.327 OA 
HETATM   23  O   UNL     1      -8.901   5.964  69.387  1.00  0.00    -0.121 OA 
ENDBRANCH  13  17
ENDBRANCH   6   8
ENDBRANCH   3   4
ENDBRANCH   2   3
TORSDOF 4
ENDMDL
MODEL       62
REMARK 921   NORMALIZED FREE ENERGY PREDICTED BY IDOCK:   -3.75 KCAL/MOL
REMARK 922        TOTAL FREE ENERGY PREDICTED BY IDOCK:   -5.60 KCAL/MOL
REMARK 923 INTER-LIGAND FREE ENERGY PREDICTED BY IDOCK:   -4.68 KCAL/MOL
REMARK 924 INTRA-LIGAND FREE ENERGY PREDICTED BY IDOCK:   -0.92 KCAL/MOL
REMARK 927      BINDING AFFINITY PREDICTED BY RF-SCORE:    0.00 PKD
ROOT
HETATM    1  C   UNL     1     -10.594   4.967  72.253  1.00  0.00    -0.251 C  
HETATM    2  C   UNL     1     -11.369   6.215  71.870  1.00  0.00    -0.350 C  
ENDROOT
BRANCH   2   3
HETATM    3  C   UNL     1     -10.744   7.468  72.476  1.00  0.00    -0.335 C  
BRANCH   3   4
HETATM    4  C   UNL     1     -10.132   8.326  71.398  1.00  0.00    -0.200 C  
HETATM    5  O   UNL     1     -10.391   9.527  71.318  1.00  0.00    -0.312 OA 
HETATM    6  N   UNL     1      -9.220   7.650  70.597  1.00  0.00    -0.161 N  
HETATM    7  H   UNL     1      -9.075   6.650  70.736  1.00  0.00     0.000 HD 
BRANCH   6   8
HETATM    8  C   UNL     1      -8.485   8.329  69.589  1.00  0.00    -0.125 A  
HETATM    9  C   UNL     1      -7.162   8.701  69.850  1.00  0.00    -0.051 A  
HETATM   10  C   UNL     1      -6.457   9.474  68.929  1.00  0.00    -0.046 A  
HETATM   11  I   UNL     1      -6.179   8.187  71.633  1.00  0.00    -0.058 I  
HETATM   12  C   UNL     1      -7.090   9.954  67.772  1.00  0.00    -0.087 A  
HETATM   13  C   UNL     1      -8.433   9.632  67.484  1.00  0.00    -0.125 A  
HETATM   14  I   UNL     1      -5.839  11.080  66.492  1.00  0.00    -0.120 I  
HETATM   15  C   UNL     1      -9.056   8.696  68.347  1.00  0.00    -0.138 A  
HETATM   16  I   UNL     1     -10.617   7.399  67.540  1.00  0.00    -0.247 I  
BRANCH  13  17
HETATM   17  C   UNL     1      -9.199  10.285  66.344  1.00  0.00    -0.186 C  
HETATM   18  C   UNL     1     -10.326  11.269  66.763  1.00  0.00    -0.278 C  
HETATM   19  C   UNL     1     -10.993  11.824  65.512  1.00  0.00    -0.290 C  
HETATM   20  C   UNL     1      -9.913  12.419  67.701  1.00  0.00    -0.200 C  
HETATM   21  C   UNL     1      -8.841  13.354  67.163  1.00  0.00    -0.225 C  
HETATM   22  O   UNL     1     -10.452  11.925  64.422  1.00  0.00    -0.273 OA 
HETATM   23  O   UNL     1     -12.268  12.221  65.718  1.00  0.00    -0.622 OA 
ENDBRANCH  13  17
ENDBRANCH   6   8
ENDBRANCH   3   4
ENDBRANCH   2   3
TORSDOF 4
ENDMDL
MODEL       63
REMARK 921   NORMALIZED FREE ENERGY PREDICTED BY IDOCK:   -3.75 KCAL/MOL
REMARK 922        TOTAL FREE ENERGY PREDICTED BY IDOCK:   -5.59 KCAL/MOL
REMARK 923 INTER-LIGAND FREE ENERGY PREDICTED BY IDOCK:   -4.99 KCAL/MOL
REMARK 924 INTRA-LIGAND FREE ENERGY PREDICTED BY IDOCK:   -0.60 KCAL/MOL
REMARK 927      BINDING AFFINITY PREDICTED BY RF-SCORE:    0.00 PKD
ROOT
HETATM    1  C   UNL     1      -8.403   5.963  65.910  1.00  0.00    -0.136 C  
HETATM    2  C   UNL     1      -7.708   5.917  67.259  1.00  0.00    -0.101 C  
ENDROOT
BRANCH   2   3
HETATM    3  C   UNL     1      -8.270   6.966  68.213  1.00  0.00    -0.123 C  
BRANCH   3   4
HETATM    4  C   UNL     1      -7.779   8.341  67.835  1.00  0.00    -0.103 C  
HETATM    5  O   UNL     1      -6.791   8.487  67.115  1.00  0.00    -0.065 OA 
HETATM    6  N   UNL     1      -8.587   9.370  68.303  1.00  0.00    -0.120 N  
HETATM    7  H   UNL     1      -9.385   9.150  68.899  1.00  0.00     0.000 HD 
BRANCH   6   8
HETATM    8  C   UNL     1      -8.320  10.723  67.965  1.00  0.00    -0.120 A  
HETATM    9  C   UNL     1      -7.390  11.440  68.725  1.00  0.00    -0.114 A  
HETATM   10  C   UNL     1      -7.197  12.802  68.493  1.00  0.00    -0.114 A  
HETATM   11  I   UNL     1      -6.281  10.557  70.274  1.00  0.00    -0.072 I  
HETATM   12  C   UNL     1      -7.988  13.481  67.556  1.00  0.00    -0.181 A  
HETATM   13  C   UNL     1      -8.962  12.806  66.790  1.00  0.00    -0.188 A  
HETATM   14  I   UNL     1      -7.517  15.531  67.334  1.00  0.00    -0.216 I  
HETATM   15  C   UNL     1      -8.999  11.395  66.921  1.00  0.00    -0.171 A  
HETATM   16  I   UNL     1      -9.646  10.198  65.212  1.00  0.00    -0.375 I  
BRANCH  13  17
HETATM   17  C   UNL     1      -9.958  13.543  65.908  1.00  0.00    -0.295 C  
HETATM   18  C   UNL     1     -11.440  13.486  66.368  1.00  0.00    -0.356 C  
HETATM   19  C   UNL     1     -12.299  14.261  65.379  1.00  0.00    -0.415 C  
HETATM   20  C   UNL     1     -11.727  13.959  67.806  1.00  0.00    -0.401 C  
HETATM   21  C   UNL     1     -11.340  15.397  68.115  1.00  0.00    -0.353 C  
HETATM   22  O   UNL     1     -11.900  15.179  64.680  1.00  0.00    -0.402 OA 
HETATM   23  O   UNL     1     -13.585  13.844  65.346  1.00  0.00    -0.571 OA 
ENDBRANCH  13  17
ENDBRANCH   6   8
ENDBRANCH   3   4
ENDBRANCH   2   3
TORSDOF 4
ENDMDL
MODEL       64
REMARK 921   NORMALIZED FREE ENERGY PREDICTED BY IDOCK:   -3.73 KCAL/MOL
REMARK 922        TOTAL FREE ENERGY PREDICTED BY IDOCK:   -5.57 KCAL/MOL
REMARK 923 INTER-LIGAND FREE ENERGY PREDICTED BY IDOCK:   -4.70 KCAL/MOL
REMARK 924 INTRA-LIGAND FREE ENERGY PREDICTED BY IDOCK:   -0.88 KCAL/MOL
REMARK 927      BINDING AFFINITY PREDICTED BY RF-SCORE:    0.00 PKD
ROOT
HETATM    1  C   UNL     1     -10.772  15.130  66.739  1.00  0.00    -0.311 C  
HETATM    2  C   UNL     1      -9.837  14.006  66.328  1.00  0.00    -0.318 C  
ENDROOT
BRANCH   2   3
HETATM    3  C   UNL     1     -10.386  13.233  65.132  1.00  0.00    -0.336 C  
BRANCH   3   4
HETATM    4  C   UNL     1     -10.106  11.760  65.282  1.00  0.00    -0.262 C  
HETATM    5  O   UNL     1     -11.014  10.931  65.227  1.00  0.00    -0.119 OA 
HETATM    6  N   UNL     1      -8.754  11.458  65.398  1.00  0.00    -0.391 N  
HETATM    7  H   UNL     1      -8.073  12.216  65.440  1.00  0.00     0.000 HD 
BRANCH   6   8
HETATM    8  C   UNL     1      -8.306  10.111  65.459  1.00  0.00    -0.158 A  
HETATM    9  C   UNL     1      -7.875   9.488  64.283  1.00  0.00    -0.129 A  
HETATM   10  C   UNL     1      -7.546   8.133  64.289  1.00  0.00    -0.116 A  
HETATM   11  I   UNL     1      -7.748  10.505  62.450  1.00  0.00    -0.164 I  
HETATM   12  C   UNL     1      -7.722   7.365  65.450  1.00  0.00    -0.110 A  
HETATM   13  C   UNL     1      -8.186   7.944  66.649  1.00  0.00    -0.119 A  
HETATM   14  I   UNL     1      -7.136   5.342  65.258  1.00  0.00    -0.069 I  
HETATM   15  C   UNL     1      -8.332   9.354  66.653  1.00  0.00    -0.119 A  
HETATM   16  I   UNL     1      -8.050  10.433  68.531  1.00  0.00    -0.139 I  
BRANCH  13  17
HETATM   17  C   UNL     1      -8.564   7.109  67.863  1.00  0.00    -0.123 C  
HETATM   18  C   UNL     1     -10.085   6.989  68.155  1.00  0.00    -0.193 C  
HETATM   19  C   UNL     1     -10.288   6.133  69.397  1.00  0.00    -0.227 C  
HETATM   20  C   UNL     1     -10.962   6.469  67.001  1.00  0.00    -0.466 C  
HETATM   21  C   UNL     1     -10.616   5.082  66.484  1.00  0.00    -0.289 C  
HETATM   22  O   UNL     1      -9.511   5.275  69.785  1.00  0.00    -0.135 OA 
HETATM   23  O   UNL     1     -11.443   6.400  70.047  1.00  0.00    -0.401 OA 
ENDBRANCH  13  17
ENDBRANCH   6   8
ENDBRANCH   3   4
ENDBRANCH   2   3
TORSDOF 4
ENDMDL
MODEL       65
REMARK 921   NORMALIZED FREE ENERGY PREDICTED BY IDOCK:   -3.72 KCAL/MOL
REMARK 922        TOTAL FREE ENERGY PREDICTED BY IDOCK:   -5.56 KCAL/MOL
REMARK 923 INTER-LIGAND FREE ENERGY PREDICTED BY IDOCK:   -4.47 KCAL/MOL
REMARK 924 INTRA-LIGAND FREE ENERGY PREDICTED BY IDOCK:   -1.08 KCAL/MOL
REMARK 927      BINDING AFFINITY PREDICTED BY RF-SCORE:    0.00 PKD
ROOT
HETATM    1  C   UNL     1     -11.019  16.593  68.081  1.00  0.00    -0.327 C  
HETATM    2  C   UNL     1     -11.712  15.302  68.476  1.00  0.00    -0.352 C  
ENDROOT
BRANCH   2   3
HETATM    3  C   UNL     1     -11.984  14.420  67.261  1.00  0.00    -0.409 C  
BRANCH   3   4
HETATM    4  C   UNL     1     -10.971  13.307  67.178  1.00  0.00    -0.272 C  
HETATM    5  O   UNL     1     -10.774  12.704  66.123  1.00  0.00    -0.261 OA 
HETATM    6  N   UNL     1     -10.261  13.110  68.356  1.00  0.00    -0.248 N  
HETATM    7  H   UNL     1     -10.500  13.657  69.183  1.00  0.00     0.000 HD 
BRANCH   6   8
HETATM    8  C   UNL     1      -9.207  12.160  68.426  1.00  0.00    -0.154 A  
HETATM    9  C   UNL     1      -7.897  12.584  68.179  1.00  0.00    -0.151 A  
HETATM   10  C   UNL     1      -6.859  11.654  68.121  1.00  0.00    -0.068 A  
HETATM   11  I   UNL     1      -7.411  14.597  67.827  1.00  0.00    -0.224 I  
HETATM   12  C   UNL     1      -7.130  10.282  68.228  1.00  0.00    -0.079 A  
HETATM   13  C   UNL     1      -8.440   9.807  68.444  1.00  0.00    -0.114 A  
HETATM   14  I   UNL     1      -5.417   9.043  68.145  1.00  0.00    -0.038 I  
HETATM   15  C   UNL     1      -9.435  10.788  68.682  1.00  0.00    -0.188 A  
HETATM   16  I   UNL     1     -11.135  10.273  69.953  1.00  0.00    -0.400 I  
BRANCH  13  17
HETATM   17  C   UNL     1      -8.791   8.328  68.377  1.00  0.00    -0.137 C  
HETATM   18  C   UNL     1      -9.719   7.906  67.205  1.00  0.00    -0.249 C  
HETATM   19  C   UNL     1      -9.975   6.408  67.287  1.00  0.00    -0.146 C  
HETATM   20  C   UNL     1      -9.247   8.288  65.789  1.00  0.00    -0.142 C  
HETATM   21  C   UNL     1      -7.903   7.717  65.367  1.00  0.00    -0.115 C  
HETATM   22  O   UNL     1      -9.220   5.600  67.804  1.00  0.00    -0.108 OA 
HETATM   23  O   UNL     1     -11.139   6.032  66.711  1.00  0.00    -0.291 OA 
ENDBRANCH  13  17
ENDBRANCH   6   8
ENDBRANCH   3   4
ENDBRANCH   2   3
TORSDOF 4
ENDMDL
MODEL       66
REMARK 921   NORMALIZED FREE ENERGY PREDICTED BY IDOCK:   -3.71 KCAL/MOL
REMARK 922        TOTAL FREE ENERGY PREDICTED BY IDOCK:   -5.55 KCAL/MOL
REMARK 923 INTER-LIGAND FREE ENERGY PREDICTED BY IDOCK:   -4.94 KCAL/MOL
REMARK 924 INTRA-LIGAND FREE ENERGY PREDICTED BY IDOCK:   -0.61 KCAL/MOL
REMARK 927      BINDING AFFINITY PREDICTED BY RF-SCORE:    0.00 PKD
ROOT
HETATM    1  C   UNL     1      -8.352   8.596  62.623  1.00  0.00    -0.187 C  
HETATM    2  C   UNL     1      -7.691   8.712  63.984  1.00  0.00    -0.134 C  
ENDROOT
BRANCH   2   3
HETATM    3  C   UNL     1      -7.874  10.106  64.576  1.00  0.00    -0.141 C  
BRANCH   3   4
HETATM    4  C   UNL     1      -9.065  10.136  65.500  1.00  0.00    -0.178 C  
HETATM    5  O   UNL     1     -10.214  10.109  65.058  1.00  0.00    -0.309 OA 
HETATM    6  N   UNL     1      -8.727  10.111  66.848  1.00  0.00    -0.129 N  
HETATM    7  H   UNL     1      -7.744  10.140  67.119  1.00  0.00     0.000 HD 
BRANCH   6   8
HETATM    8  C   UNL     1      -9.728  10.045  67.854  1.00  0.00    -0.146 A  
HETATM    9  C   UNL     1     -10.279  11.235  68.338  1.00  0.00    -0.195 A  
HETATM   10  C   UNL     1     -11.173  11.209  69.408  1.00  0.00    -0.334 A  
HETATM   11  I   UNL     1      -9.773  13.115  67.549  1.00  0.00    -0.237 I  
HETATM   12  C   UNL     1     -11.463  10.001  70.060  1.00  0.00    -0.248 A  
HETATM   13  C   UNL     1     -10.904   8.781  69.627  1.00  0.00    -0.175 A  
HETATM   14  I   UNL     1     -12.864  10.172  71.636  1.00  0.00    -0.519 I  
HETATM   15  C   UNL     1     -10.151   8.823  68.427  1.00  0.00    -0.190 A  
HETATM   16  I   UNL     1     -10.098   7.047  67.157  1.00  0.00    -0.347 I  
BRANCH  13  17
HETATM   17  C   UNL     1     -11.049   7.492  70.422  1.00  0.00    -0.277 C  
HETATM   18  C   UNL     1      -9.721   6.817  70.863  1.00  0.00    -0.186 C  
HETATM   19  C   UNL     1     -10.042   5.545  71.636  1.00  0.00    -0.195 C  
HETATM   20  C   UNL     1      -8.744   7.694  71.667  1.00  0.00    -0.132 C  
HETATM   21  C   UNL     1      -9.282   8.251  72.976  1.00  0.00    -0.316 C  
HETATM   22  O   UNL     1     -11.076   5.349  72.256  1.00  0.00    -0.238 OA 
HETATM   23  O   UNL     1      -9.052   4.626  71.588  1.00  0.00    -0.129 OA 
ENDBRANCH  13  17
ENDBRANCH   6   8
ENDBRANCH   3   4
ENDBRANCH   2   3
TORSDOF 4
ENDMDL
MODEL       67
REMARK 921   NORMALIZED FREE ENERGY PREDICTED BY IDOCK:   -3.70 KCAL/MOL
REMARK 922        TOTAL FREE ENERGY PREDICTED BY IDOCK:   -5.54 KCAL/MOL
REMARK 923 INTER-LIGAND FREE ENERGY PREDICTED BY IDOCK:   -4.52 KCAL/MOL
REMARK 924 INTRA-LIGAND FREE ENERGY PREDICTED BY IDOCK:   -1.02 KCAL/MOL
REMARK 927      BINDING AFFINITY PREDICTED BY RF-SCORE:    0.00 PKD
ROOT
HETATM    1  C   UNL     1      -7.936  15.840  67.876  1.00  0.00    -0.147 C  
HETATM    2  C   UNL     1      -8.593  14.528  67.489  1.00  0.00    -0.198 C  
ENDROOT
BRANCH   2   3
HETATM    3  C   UNL     1      -9.786  14.214  68.386  1.00  0.00    -0.231 C  
BRANCH   3   4
HETATM    4  C   UNL     1      -9.999  12.725  68.481  1.00  0.00    -0.164 C  
HETATM    5  O   UNL     1     -10.981  12.259  69.060  1.00  0.00    -0.233 OA 
HETATM    6  N   UNL     1      -9.045  11.980  67.798  1.00  0.00    -0.179 N  
HETATM    7  H   UNL     1      -8.262  12.457  67.352  1.00  0.00     0.000 HD 
BRANCH   6   8
HETATM    8  C   UNL     1      -9.144  10.566  67.711  1.00  0.00    -0.138 A  
HETATM    9  C   UNL     1      -9.739   9.998  66.580  1.00  0.00    -0.200 A  
HETATM   10  C   UNL     1      -9.960   8.622  66.520  1.00  0.00    -0.353 A  
HETATM   11  I   UNL     1     -10.383  11.151  64.946  1.00  0.00    -0.342 I  
HETATM   12  C   UNL     1      -9.664   7.808  67.624  1.00  0.00    -0.155 A  
HETATM   13  C   UNL     1      -9.094   8.343  68.798  1.00  0.00    -0.143 A  
HETATM   14  I   UNL     1     -10.043   5.750  67.319  1.00  0.00    -0.328 I  
HETATM   15  C   UNL     1      -8.715   9.708  68.750  1.00  0.00    -0.126 A  
HETATM   16  I   UNL     1      -7.028  10.372  69.968  1.00  0.00     0.040 I  
BRANCH  13  17
HETATM   17  C   UNL     1      -8.938   7.525  70.071  1.00  0.00    -0.144 C  
HETATM   18  C   UNL     1      -9.795   7.987  71.281  1.00  0.00    -0.200 C  
HETATM   19  C   UNL     1      -9.517   7.074  72.467  1.00  0.00    -0.142 C  
HETATM   20  C   UNL     1     -11.313   8.097  71.040  1.00  0.00    -0.293 C  
HETATM   21  C   UNL     1     -12.006   6.811  70.615  1.00  0.00    -0.418 C  
HETATM   22  O   UNL     1      -9.135   5.917  72.380  1.00  0.00    -0.141 OA 
HETATM   23  O   UNL     1      -9.745   7.664  73.662  1.00  0.00    -0.287 OA 
ENDBRANCH  13  17
ENDBRANCH   6   8
ENDBRANCH   3   4
ENDBRANCH   2   3
TORSDOF 4
ENDMDL
MODEL       68
REMARK 921   NORMALIZED FREE ENERGY PREDICTED BY IDOCK:   -3.68 KCAL/MOL
REMARK 922        TOTAL FREE ENERGY PREDICTED BY IDOCK:   -5.51 KCAL/MOL
REMARK 923 INTER-LIGAND FREE ENERGY PREDICTED BY IDOCK:   -4.86 KCAL/MOL
REMARK 924 INTRA-LIGAND FREE ENERGY PREDICTED BY IDOCK:   -0.65 KCAL/MOL
REMARK 927      BINDING AFFINITY PREDICTED BY RF-SCORE:    0.00 PKD
ROOT
HETATM    1  C   UNL     1     -10.605   9.297  69.269  1.00  0.00    -0.234 C  
HETATM    2  C   UNL     1     -10.754  10.794  69.066  1.00  0.00    -0.265 C  
ENDROOT
BRANCH   2   3
HETATM    3  C   UNL     1     -11.000  11.136  67.600  1.00  0.00    -0.323 C  
BRANCH   3   4
HETATM    4  C   UNL     1     -11.312  12.603  67.445  1.00  0.00    -0.313 C  
HETATM    5  O   UNL     1     -12.388  13.067  67.823  1.00  0.00    -0.144 OA 
HETATM    6  N   UNL     1     -10.258  13.345  66.926  1.00  0.00    -0.249 N  
HETATM    7  H   UNL     1      -9.405  12.869  66.635  1.00  0.00     0.000 HD 
BRANCH   6   8
HETATM    8  C   UNL     1     -10.351  14.757  66.797  1.00  0.00    -0.268 A  
HETATM    9  C   UNL     1     -10.973  15.293  65.665  1.00  0.00    -0.344 A  
HETATM   10  C   UNL     1     -10.971  16.671  65.452  1.00  0.00    -0.096 A  
HETATM   11  I   UNL     1     -11.887  14.091  64.206  1.00  0.00    -0.266 I  
HETATM   12  C   UNL     1     -10.277  17.523  66.323  1.00  0.00    -0.355 A  
HETATM   13  C   UNL     1      -9.606  17.023  67.459  1.00  0.00    -0.249 A  
HETATM   14  I   UNL     1     -10.423  19.578  65.841  1.00  0.00    -0.146 I  
HETATM   15  C   UNL     1      -9.787  15.646  67.742  1.00  0.00    -0.220 A  
HETATM   16  I   UNL     1      -9.708  14.982  69.821  1.00  0.00     0.387 I  
BRANCH  13  17
HETATM   17  C   UNL     1      -8.694  17.891  68.313  1.00  0.00    -0.277 C  
HETATM   18  C   UNL     1      -7.178  17.560  68.234  1.00  0.00    -0.217 C  
HETATM   19  C   UNL     1      -6.413  18.508  69.146  1.00  0.00    -0.263 C  
HETATM   20  C   UNL     1      -6.553  17.556  66.826  1.00  0.00    -0.234 C  
HETATM   21  C   UNL     1      -6.645  18.867  66.062  1.00  0.00    -0.264 C  
HETATM   22  O   UNL     1      -6.790  19.626  69.462  1.00  0.00    -0.342 OA 
HETATM   23  O   UNL     1      -5.239  18.000  69.582  1.00  0.00    -0.177 OA 
ENDBRANCH  13  17
ENDBRANCH   6   8
ENDBRANCH   3   4
ENDBRANCH   2   3
TORSDOF 4
ENDMDL
MODEL       69
REMARK 921   NORMALIZED FREE ENERGY PREDICTED BY IDOCK:   -3.67 KCAL/MOL
REMARK 922        TOTAL FREE ENERGY PREDICTED BY IDOCK:   -5.49 KCAL/MOL
REMARK 923 INTER-LIGAND FREE ENERGY PREDICTED BY IDOCK:   -4.73 KCAL/MOL
REMARK 924 INTRA-LIGAND FREE ENERGY PREDICTED BY IDOCK:   -0.76 KCAL/MOL
REMARK 927      BINDING AFFINITY PREDICTED BY RF-SCORE:    0.00 PKD
ROOT
HETATM    1  C   UNL     1      -7.864   9.108  64.224  1.00  0.00    -0.127 C  
HETATM    2  C   UNL     1      -7.181  10.454  64.384  1.00  0.00     0.002 C  
ENDROOT
BRANCH   2   3
HETATM    3  C   UNL     1      -6.351  10.510  65.663  1.00  0.00    -0.126 C  
BRANCH   3   4
HETATM    4  C   UNL     1      -7.137  11.156  66.775  1.00  0.00    -0.139 C  
HETATM    5  O   UNL     1      -7.077  10.729  67.928  1.00  0.00    -0.083 OA 
HETATM    6  N   UNL     1      -7.837  12.290  66.378  1.00  0.00    -0.312 N  
HETATM    7  H   UNL     1      -7.831  12.564  65.396  1.00  0.00     0.000 HD 
BRANCH   6   8
HETATM    8  C   UNL     1      -8.559  13.072  67.319  1.00  0.00    -0.206 A  
HETATM    9  C   UNL     1      -9.844  12.665  67.692  1.00  0.00    -0.210 A  
HETATM   10  C   UNL     1     -10.623  13.475  68.518  1.00  0.00    -0.257 A  
HETATM   11  I   UNL     1     -10.702  10.875  67.008  1.00  0.00    -0.266 I  
HETATM   12  C   UNL     1     -10.159  14.739  68.914  1.00  0.00    -0.237 A  
HETATM   13  C   UNL     1      -8.883  15.204  68.534  1.00  0.00    -0.185 A  
HETATM   14  I   UNL     1     -11.476  15.795  70.188  1.00  0.00    -0.409 I  
HETATM   15  C   UNL     1      -8.052  14.280  67.853  1.00  0.00    -0.151 A  
HETATM   16  I   UNL     1      -5.886  14.440  68.092  1.00  0.00    -0.116 I  
BRANCH  13  17
HETATM   17  C   UNL     1      -8.429  16.634  68.788  1.00  0.00    -0.255 C  
HETATM   18  C   UNL     1      -8.163  17.493  67.522  1.00  0.00    -0.213 C  
HETATM   19  C   UNL     1      -7.714  18.884  67.949  1.00  0.00    -0.261 C  
HETATM   20  C   UNL     1      -9.321  17.596  66.511  1.00  0.00    -0.286 C  
HETATM   21  C   UNL     1     -10.613  18.191  67.048  1.00  0.00    -0.346 C  
HETATM   22  O   UNL     1      -8.003  19.413  69.011  1.00  0.00    -0.351 OA 
HETATM   23  O   UNL     1      -6.955  19.509  67.021  1.00  0.00    -0.197 OA 
ENDBRANCH  13  17
ENDBRANCH   6   8
ENDBRANCH   3   4
ENDBRANCH   2   3
TORSDOF 4
ENDMDL
MODEL       70
REMARK 921   NORMALIZED FREE ENERGY PREDICTED BY IDOCK:   -3.66 KCAL/MOL
REMARK 922        TOTAL FREE ENERGY PREDICTED BY IDOCK:   -5.48 KCAL/MOL
REMARK 923 INTER-LIGAND FREE ENERGY PREDICTED BY IDOCK:   -5.79 KCAL/MOL
REMARK 924 INTRA-LIGAND FREE ENERGY PREDICTED BY IDOCK:    0.30 KCAL/MOL
REMARK 927      BINDING AFFINITY PREDICTED BY RF-SCORE:    0.00 PKD
ROOT
HETATM    1  C   UNL     1     -13.539  15.215  71.218  1.00  0.00    -0.559 C  
HETATM    2  C   UNL     1     -12.349  14.882  70.337  1.00  0.00    -0.401 C  
ENDROOT
BRANCH   2   3
HETATM    3  C   UNL     1     -12.231  13.379  70.103  1.00  0.00    -0.385 C  
BRANCH   3   4
HETATM    4  C   UNL     1     -11.347  13.097  68.915  1.00  0.00    -0.289 C  
HETATM    5  O   UNL     1     -10.263  13.664  68.780  1.00  0.00    -0.223 OA 
HETATM    6  N   UNL     1     -11.841  12.105  68.076  1.00  0.00    -0.333 N  
HETATM    7  H   UNL     1     -12.755  11.696  68.267  1.00  0.00     0.000 HD 
BRANCH   6   8
HETATM    8  C   UNL     1     -11.092  11.653  66.956  1.00  0.00    -0.302 A  
HETATM    9  C   UNL     1     -11.209  12.338  65.743  1.00  0.00    -0.337 A  
HETATM   10  C   UNL     1     -10.583  11.847  64.598  1.00  0.00    -0.353 A  
HETATM   11  I   UNL     1     -12.356  14.087  65.542  1.00  0.00    -0.445 I  
HETATM   12  C   UNL     1      -9.901  10.622  64.633  1.00  0.00    -0.321 A  
HETATM   13  C   UNL     1      -9.786   9.879  65.827  1.00  0.00    -0.356 A  
HETATM   14  I   UNL     1      -8.997  10.071  62.802  1.00  0.00    -0.317 I  
HETATM   15  C   UNL     1     -10.274  10.500  67.004  1.00  0.00    -0.226 A  
HETATM   16  I   UNL     1      -9.331  10.018  68.914  1.00  0.00    -0.211 I  
BRANCH  13  17
HETATM   17  C   UNL     1      -9.219   8.468  65.856  1.00  0.00    -0.245 C  
HETATM   18  C   UNL     1      -7.789   8.302  65.273  1.00  0.00    -0.120 C  
HETATM   19  C   UNL     1      -7.378   6.839  65.371  1.00  0.00    -0.080 C  
HETATM   20  C   UNL     1      -6.697   9.203  65.878  1.00  0.00    -0.079 C  
HETATM   21  C   UNL     1      -6.464   9.043  67.372  1.00  0.00    -0.064 C  
HETATM   22  O   UNL     1      -7.809   6.049  66.196  1.00  0.00    -0.100 OA 
HETATM   23  O   UNL     1      -6.458   6.479  64.448  1.00  0.00    -0.039 OA 
ENDBRANCH  13  17
ENDBRANCH   6   8
ENDBRANCH   3   4
ENDBRANCH   2   3
TORSDOF 4
ENDMDL
MODEL       71
REMARK 921   NORMALIZED FREE ENERGY PREDICTED BY IDOCK:   -3.66 KCAL/MOL
REMARK 922        TOTAL FREE ENERGY PREDICTED BY IDOCK:   -5.48 KCAL/MOL
REMARK 923 INTER-LIGAND FREE ENERGY PREDICTED BY IDOCK:   -4.43 KCAL/MOL
REMARK 924 INTRA-LIGAND FREE ENERGY PREDICTED BY IDOCK:   -1.05 KCAL/MOL
REMARK 927      BINDING AFFINITY PREDICTED BY RF-SCORE:    0.00 PKD
ROOT
HETATM    1  C   UNL     1      -7.249   6.540  64.557  1.00  0.00    -0.064 C  
HETATM    2  C   UNL     1      -6.506   7.618  65.324  1.00  0.00    -0.041 C  
ENDROOT
BRANCH   2   3
HETATM    3  C   UNL     1      -6.496   8.940  64.563  1.00  0.00    -0.071 C  
BRANCH   3   4
HETATM    4  C   UNL     1      -7.496   9.900  65.158  1.00  0.00    -0.133 C  
HETATM    5  O   UNL     1      -8.314  10.485  64.449  1.00  0.00    -0.163 OA 
HETATM    6  N   UNL     1      -7.440   9.975  66.544  1.00  0.00    -0.103 N  
HETATM    7  H   UNL     1      -6.720   9.454  67.046  1.00  0.00     0.000 HD 
BRANCH   6   8
HETATM    8  C   UNL     1      -8.369  10.764  67.274  1.00  0.00    -0.124 A  
HETATM    9  C   UNL     1      -9.581  10.189  67.668  1.00  0.00    -0.148 A  
HETATM   10  C   UNL     1     -10.562  10.971  68.277  1.00  0.00    -0.220 A  
HETATM   11  I   UNL     1     -10.032   8.166  67.329  1.00  0.00    -0.368 I  
HETATM   12  C   UNL     1     -10.376  12.354  68.425  1.00  0.00    -0.229 A  
HETATM   13  C   UNL     1      -9.182  12.982  68.012  1.00  0.00    -0.212 A  
HETATM   14  I   UNL     1     -11.966  13.352  69.400  1.00  0.00    -0.209 I  
HETATM   15  C   UNL     1      -8.141  12.128  67.570  1.00  0.00    -0.163 A  
HETATM   16  I   UNL     1      -6.070  12.759  67.861  1.00  0.00    -0.148 I  
BRANCH  13  17
HETATM   17  C   UNL     1      -9.026  14.495  67.987  1.00  0.00    -0.180 C  
HETATM   18  C   UNL     1      -8.869  15.135  66.580  1.00  0.00    -0.312 C  
HETATM   19  C   UNL     1      -8.717  16.642  66.732  1.00  0.00    -0.226 C  
HETATM   20  C   UNL     1      -9.973  14.812  65.556  1.00  0.00    -0.390 C  
HETATM   21  C   UNL     1     -11.381  15.230  65.953  1.00  0.00    -0.172 C  
HETATM   22  O   UNL     1      -9.155  17.294  67.667  1.00  0.00    -0.225 OA 
HETATM   23  O   UNL     1      -8.048  17.218  65.709  1.00  0.00    -0.527 OA 
ENDBRANCH  13  17
ENDBRANCH   6   8
ENDBRANCH   3   4
ENDBRANCH   2   3
TORSDOF 4
ENDMDL
MODEL       72
REMARK 921   NORMALIZED FREE ENERGY PREDICTED BY IDOCK:   -3.64 KCAL/MOL
REMARK 922        TOTAL FREE ENERGY PREDICTED BY IDOCK:   -5.46 KCAL/MOL
REMARK 923 INTER-LIGAND FREE ENERGY PREDICTED BY IDOCK:   -5.65 KCAL/MOL
REMARK 924 INTRA-LIGAND FREE ENERGY PREDICTED BY IDOCK:    0.19 KCAL/MOL
REMARK 927      BINDING AFFINITY PREDICTED BY RF-SCORE:    0.00 PKD
ROOT
HETATM    1  C   UNL     1     -12.042  14.880  69.495  1.00  0.00    -0.315 C  
HETATM    2  C   UNL     1     -11.624  15.420  68.139  1.00  0.00    -0.331 C  
ENDROOT
BRANCH   2   3
HETATM    3  C   UNL     1     -11.988  14.453  67.017  1.00  0.00    -0.424 C  
BRANCH   3   4
HETATM    4  C   UNL     1     -11.022  13.296  66.981  1.00  0.00    -0.276 C  
HETATM    5  O   UNL     1      -9.851  13.436  67.332  1.00  0.00    -0.220 OA 
HETATM    6  N   UNL     1     -11.607  12.093  66.605  1.00  0.00    -0.365 N  
HETATM    7  H   UNL     1     -12.588  12.077  66.326  1.00  0.00     0.000 HD 
BRANCH   6   8
HETATM    8  C   UNL     1     -10.861  10.884  66.605  1.00  0.00    -0.197 A  
HETATM    9  C   UNL     1     -10.106  10.556  65.474  1.00  0.00    -0.283 A  
HETATM   10  C   UNL     1      -9.462   9.321  65.396  1.00  0.00    -0.281 A  
HETATM   11  I   UNL     1      -9.935  11.841  63.821  1.00  0.00    -0.346 I  
HETATM   12  C   UNL     1      -9.631   8.368  66.411  1.00  0.00    -0.237 A  
HETATM   13  C   UNL     1     -10.411   8.643  67.554  1.00  0.00    -0.336 A  
HETATM   14  I   UNL     1      -8.546   6.575  66.117  1.00  0.00    -0.139 I  
HETATM   15  C   UNL     1     -10.894   9.969  67.683  1.00  0.00    -0.278 A  
HETATM   16  I   UNL     1     -11.192  10.788  69.686  1.00  0.00    -0.390 I  
BRANCH  13  17
HETATM   17  C   UNL     1     -10.764   7.572  68.574  1.00  0.00    -0.115 C  
HETATM   18  C   UNL     1      -9.564   6.802  69.190  1.00  0.00    -0.139 C  
HETATM   19  C   UNL     1     -10.088   5.769  70.178  1.00  0.00    -0.212 C  
HETATM   20  C   UNL     1      -8.469   7.661  69.850  1.00  0.00    -0.137 C  
HETATM   21  C   UNL     1      -8.927   8.537  71.005  1.00  0.00    -0.219 C  
HETATM   22  O   UNL     1     -11.146   5.858  70.782  1.00  0.00    -0.293 OA 
HETATM   23  O   UNL     1      -9.254   4.719  70.347  1.00  0.00    -0.121 OA 
ENDBRANCH  13  17
ENDBRANCH   6   8
ENDBRANCH   3   4
ENDBRANCH   2   3
TORSDOF 4
ENDMDL
MODEL       73
REMARK 921   NORMALIZED FREE ENERGY PREDICTED BY IDOCK:   -3.64 KCAL/MOL
REMARK 922        TOTAL FREE ENERGY PREDICTED BY IDOCK:   -5.46 KCAL/MOL
REMARK 923 INTER-LIGAND FREE ENERGY PREDICTED BY IDOCK:   -5.61 KCAL/MOL
REMARK 924 INTRA-LIGAND FREE ENERGY PREDICTED BY IDOCK:    0.16 KCAL/MOL
REMARK 927      BINDING AFFINITY PREDICTED BY RF-SCORE:    0.00 PKD
ROOT
HETATM    1  C   UNL     1      -9.313   6.762  69.451  1.00  0.00    -0.148 C  
HETATM    2  C   UNL     1      -8.806   7.838  70.394  1.00  0.00    -0.146 C  
ENDROOT
BRANCH   2   3
HETATM    3  C   UNL     1      -7.374   8.244  70.061  1.00  0.00    -0.063 C  
BRANCH   3   4
HETATM    4  C   UNL     1      -7.363   9.438  69.140  1.00  0.00    -0.071 C  
HETATM    5  O   UNL     1      -6.782   9.399  68.056  1.00  0.00    -0.062 OA 
HETATM    6  N   UNL     1      -8.124  10.505  69.602  1.00  0.00    -0.352 N  
HETATM    7  H   UNL     1      -8.566  10.446  70.520  1.00  0.00     0.000 HD 
BRANCH   6   8
HETATM    8  C   UNL     1      -8.295  11.677  68.818  1.00  0.00    -0.039 A  
HETATM    9  C   UNL     1      -7.366  12.714  68.940  1.00  0.00    -0.016 A  
HETATM   10  C   UNL     1      -7.573  13.923  68.276  1.00  0.00    -0.130 A  
HETATM   11  I   UNL     1      -5.656  12.559  70.150  1.00  0.00    -0.152 I  
HETATM   12  C   UNL     1      -8.753  14.138  67.548  1.00  0.00    -0.204 A  
HETATM   13  C   UNL     1      -9.734  13.132  67.425  1.00  0.00    -0.220 A  
HETATM   14  I   UNL     1      -8.860  16.022  66.592  1.00  0.00    -0.388 I  
HETATM   15  C   UNL     1      -9.402  11.861  67.957  1.00  0.00    -0.193 A  
HETATM   16  I   UNL     1     -10.258  10.078  67.028  1.00  0.00    -0.293 I  
BRANCH  13  17
HETATM   17  C   UNL     1     -11.097  13.396  66.805  1.00  0.00    -0.308 C  
HETATM   18  C   UNL     1     -11.084  13.933  65.347  1.00  0.00    -0.310 C  
HETATM   19  C   UNL     1     -12.518  14.149  64.883  1.00  0.00    -0.401 C  
HETATM   20  C   UNL     1     -10.314  13.087  64.316  1.00  0.00    -0.385 C  
HETATM   21  C   UNL     1     -10.804  11.659  64.137  1.00  0.00    -0.433 C  
HETATM   22  O   UNL     1     -13.488  13.547  65.316  1.00  0.00    -0.485 OA 
HETATM   23  O   UNL     1     -12.631  15.084  63.913  1.00  0.00    -0.813 OA 
ENDBRANCH  13  17
ENDBRANCH   6   8
ENDBRANCH   3   4
ENDBRANCH   2   3
TORSDOF 4
ENDMDL
MODEL       74
REMARK 921   NORMALIZED FREE ENERGY PREDICTED BY IDOCK:   -3.63 KCAL/MOL
REMARK 922        TOTAL FREE ENERGY PREDICTED BY IDOCK:   -5.45 KCAL/MOL
REMARK 923 INTER-LIGAND FREE ENERGY PREDICTED BY IDOCK:   -4.55 KCAL/MOL
REMARK 924 INTRA-LIGAND FREE ENERGY PREDICTED BY IDOCK:   -0.90 KCAL/MOL
REMARK 927      BINDING AFFINITY PREDICTED BY RF-SCORE:    0.00 PKD
ROOT
HETATM    1  C   UNL     1     -12.155  12.728  63.446  1.00  0.00    -0.619 C  
HETATM    2  C   UNL     1     -10.728  12.235  63.600  1.00  0.00    -0.513 C  
ENDROOT
BRANCH   2   3
HETATM    3  C   UNL     1     -10.177  12.542  64.989  1.00  0.00    -0.301 C  
BRANCH   3   4
HETATM    4  C   UNL     1      -9.936  11.267  65.756  1.00  0.00    -0.237 C  
HETATM    5  O   UNL     1     -10.846  10.718  66.377  1.00  0.00    -0.204 OA 
HETATM    6  N   UNL     1      -8.648  10.766  65.615  1.00  0.00    -0.181 N  
HETATM    7  H   UNL     1      -7.958  11.297  65.083  1.00  0.00     0.000 HD 
BRANCH   6   8
HETATM    8  C   UNL     1      -8.276   9.526  66.200  1.00  0.00    -0.115 A  
HETATM    9  C   UNL     1      -8.062   8.423  65.367  1.00  0.00    -0.133 A  
HETATM   10  C   UNL     1      -7.816   7.166  65.919  1.00  0.00    -0.106 A  
HETATM   11  I   UNL     1      -8.151   8.558  63.273  1.00  0.00    -0.049 I  
HETATM   12  C   UNL     1      -7.861   6.980  67.308  1.00  0.00    -0.110 A  
HETATM   13  C   UNL     1      -8.106   8.058  68.185  1.00  0.00    -0.129 A  
HETATM   14  I   UNL     1      -7.429   5.009  67.942  1.00  0.00    -0.079 I  
HETATM   15  C   UNL     1      -8.167   9.346  67.599  1.00  0.00    -0.114 A  
HETATM   16  I   UNL     1      -7.545  11.071  68.786  1.00  0.00    -0.116 I  
BRANCH  13  17
HETATM   17  C   UNL     1      -8.347   7.856  69.674  1.00  0.00    -0.131 C  
HETATM   18  C   UNL     1      -9.773   8.205  70.181  1.00  0.00    -0.175 C  
HETATM   19  C   UNL     1      -9.842   7.957  71.682  1.00  0.00    -0.167 C  
HETATM   20  C   UNL     1     -10.942   7.499  69.471  1.00  0.00    -0.127 C  
HETATM   21  C   UNL     1     -10.931   5.979  69.537  1.00  0.00    -0.467 C  
HETATM   22  O   UNL     1      -9.144   7.159  72.288  1.00  0.00    -0.132 OA 
HETATM   23  O   UNL     1     -10.779   8.706  72.305  1.00  0.00    -0.344 OA 
ENDBRANCH  13  17
ENDBRANCH   6   8
ENDBRANCH   3   4
ENDBRANCH   2   3
TORSDOF 4
ENDMDL
MODEL       75
REMARK 921   NORMALIZED FREE ENERGY PREDICTED BY IDOCK:   -3.60 KCAL/MOL
REMARK 922        TOTAL FREE ENERGY PREDICTED BY IDOCK:   -5.41 KCAL/MOL
REMARK 923 INTER-LIGAND FREE ENERGY PREDICTED BY IDOCK:   -5.58 KCAL/MOL
REMARK 924 INTRA-LIGAND FREE ENERGY PREDICTED BY IDOCK:    0.18 KCAL/MOL
REMARK 927      BINDING AFFINITY PREDICTED BY RF-SCORE:    0.00 PKD
ROOT
HETATM    1  C   UNL     1      -8.172   4.273  68.324  1.00  0.00    -0.090 C  
HETATM    2  C   UNL     1      -9.566   4.870  68.259  1.00  0.00    -0.196 C  
ENDROOT
BRANCH   2   3
HETATM    3  C   UNL     1     -10.059   5.289  69.641  1.00  0.00    -0.327 C  
BRANCH   3   4
HETATM    4  C   UNL     1      -9.989   6.787  69.795  1.00  0.00    -0.177 C  
HETATM    5  O   UNL     1      -9.007   7.329  70.303  1.00  0.00    -0.150 OA 
HETATM    6  N   UNL     1     -11.076   7.456  69.245  1.00  0.00    -0.443 N  
HETATM    7  H   UNL     1     -11.847   6.919  68.849  1.00  0.00     0.000 HD 
BRANCH   6   8
HETATM    8  C   UNL     1     -11.129   8.875  69.224  1.00  0.00     0.092 A  
HETATM    9  C   UNL     1     -11.631   9.550  70.341  1.00  0.00    -0.212 A  
HETATM   10  C   UNL     1     -11.809  10.932  70.304  1.00  0.00    -0.450 A  
HETATM   11  I   UNL     1     -12.198   8.551  72.100  1.00  0.00    -0.395 I  
HETATM   12  C   UNL     1     -11.564  11.647  69.121  1.00  0.00    -0.314 A  
HETATM   13  C   UNL     1     -11.088  11.003  67.960  1.00  0.00    -0.343 A  
HETATM   14  I   UNL     1     -11.864  13.735  69.282  1.00  0.00    -0.364 I  
HETATM   15  C   UNL     1     -10.745   9.634  68.094  1.00  0.00    -0.217 A  
HETATM   16  I   UNL     1      -9.162   8.820  66.829  1.00  0.00    -0.276 I  
BRANCH  13  17
HETATM   17  C   UNL     1     -10.993  11.713  66.618  1.00  0.00    -0.349 C  
HETATM   18  C   UNL     1     -10.152  13.019  66.602  1.00  0.00    -0.251 C  
HETATM   19  C   UNL     1     -10.165  13.602  65.196  1.00  0.00    -0.328 C  
HETATM   20  C   UNL     1      -8.706  12.906  67.118  1.00  0.00    -0.205 C  
HETATM   21  C   UNL     1      -7.813  11.930  66.367  1.00  0.00     0.167 C  
HETATM   22  O   UNL     1     -10.324  12.953  64.174  1.00  0.00    -0.410 OA 
HETATM   23  O   UNL     1      -9.966  14.939  65.170  1.00  0.00    -0.345 OA 
ENDBRANCH  13  17
ENDBRANCH   6   8
ENDBRANCH   3   4
ENDBRANCH   2   3
TORSDOF 4
ENDMDL
MODEL       76
REMARK 921   NORMALIZED FREE ENERGY PREDICTED BY IDOCK:   -3.57 KCAL/MOL
REMARK 922        TOTAL FREE ENERGY PREDICTED BY IDOCK:   -5.37 KCAL/MOL
REMARK 923 INTER-LIGAND FREE ENERGY PREDICTED BY IDOCK:   -4.35 KCAL/MOL
REMARK 924 INTRA-LIGAND FREE ENERGY PREDICTED BY IDOCK:   -1.02 KCAL/MOL
REMARK 927      BINDING AFFINITY PREDICTED BY RF-SCORE:    0.00 PKD
ROOT
HETATM    1  C   UNL     1     -13.175   9.557  71.397  1.00  0.00    -0.448 C  
HETATM    2  C   UNL     1     -12.581  10.953  71.451  1.00  0.00    -0.508 C  
ENDROOT
BRANCH   2   3
HETATM    3  C   UNL     1     -12.491  11.575  70.061  1.00  0.00    -0.192 C  
BRANCH   3   4
HETATM    4  C   UNL     1     -11.454  10.863  69.229  1.00  0.00    -0.302 C  
HETATM    5  O   UNL     1     -11.748  10.350  68.150  1.00  0.00    -0.363 OA 
HETATM    6  N   UNL     1     -10.172  10.928  69.762  1.00  0.00    -0.438 N  
HETATM    7  H   UNL     1     -10.028  11.371  70.669  1.00  0.00     0.000 HD 
BRANCH   6   8
HETATM    8  C   UNL     1      -9.060  10.386  69.063  1.00  0.00    -0.187 A  
HETATM    9  C   UNL     1      -8.395  11.185  68.128  1.00  0.00    -0.136 A  
HETATM   10  C   UNL     1      -7.379  10.643  67.341  1.00  0.00    -0.093 A  
HETATM   11  I   UNL     1      -8.899  13.198  67.804  1.00  0.00    -0.225 I  
HETATM   12  C   UNL     1      -7.072   9.277  67.421  1.00  0.00    -0.079 A  
HETATM   13  C   UNL     1      -7.741   8.426  68.326  1.00  0.00    -0.106 A  
HETATM   14  I   UNL     1      -5.482   8.662  66.168  1.00  0.00    -0.035 I  
HETATM   15  C   UNL     1      -8.632   9.049  69.235  1.00  0.00    -0.136 A  
HETATM   16  I   UNL     1      -8.929   8.144  71.200  1.00  0.00    -0.233 I  
BRANCH  13  17
HETATM   17  C   UNL     1      -7.564   6.915  68.304  1.00  0.00    -0.107 C  
HETATM   18  C   UNL     1      -8.792   6.098  67.816  1.00  0.00    -0.110 C  
HETATM   19  C   UNL     1      -8.453   4.615  67.862  1.00  0.00    -0.102 C  
HETATM   20  C   UNL     1      -9.355   6.472  66.432  1.00  0.00    -0.175 C  
HETATM   21  C   UNL     1      -8.385   6.337  65.269  1.00  0.00    -0.138 C  
HETATM   22  O   UNL     1      -7.325   4.155  67.773  1.00  0.00    -0.066 OA 
HETATM   23  O   UNL     1      -9.539   3.822  68.001  1.00  0.00    -0.173 OA 
ENDBRANCH  13  17
ENDBRANCH   6   8
ENDBRANCH   3   4
ENDBRANCH   2   3
TORSDOF 4
ENDMDL
MODEL       77
REMARK 921   NORMALIZED FREE ENERGY PREDICTED BY IDOCK:   -3.56 KCAL/MOL
REMARK 922        TOTAL FREE ENERGY PREDICTED BY IDOCK:   -5.36 KCAL/MOL
REMARK 923 INTER-LIGAND FREE ENERGY PREDICTED BY IDOCK:   -5.39 KCAL/MOL
REMARK 924 INTRA-LIGAND FREE ENERGY PREDICTED BY IDOCK:    0.03 KCAL/MOL
REMARK 927      BINDING AFFINITY PREDICTED BY RF-SCORE:    0.00 PKD
ROOT
HETATM    1  C   UNL     1     -12.339  12.800  64.881  1.00  0.00    -0.551 C  
HETATM    2  C   UNL     1     -11.456  12.044  65.856  1.00  0.00    -0.392 C  
ENDROOT
BRANCH   2   3
HETATM    3  C   UNL     1     -11.691  12.502  67.292  1.00  0.00    -0.431 C  
BRANCH   3   4
HETATM    4  C   UNL     1     -10.953  11.611  68.259  1.00  0.00    -0.226 C  
HETATM    5  O   UNL     1      -9.856  11.937  68.713  1.00  0.00    -0.169 OA 
HETATM    6  N   UNL     1     -11.663  10.474  68.623  1.00  0.00    -0.510 N  
HETATM    7  H   UNL     1     -12.566  10.285  68.188  1.00  0.00     0.000 HD 
BRANCH   6   8
HETATM    8  C   UNL     1     -11.152   9.570  69.593  1.00  0.00    -0.171 A  
HETATM    9  C   UNL     1     -11.520   9.736  70.932  1.00  0.00    -0.369 A  
HETATM   10  C   UNL     1     -10.940   8.942  71.921  1.00  0.00    -0.439 A  
HETATM   11  I   UNL     1     -12.896  11.198  71.550  1.00  0.00    -0.206 I  
HETATM   12  C   UNL     1      -9.927   8.029  71.594  1.00  0.00    -0.184 A  
HETATM   13  C   UNL     1      -9.501   7.852  70.261  1.00  0.00    -0.163 A  
HETATM   14  I   UNL     1      -9.203   6.902  73.232  1.00  0.00    -0.217 I  
HETATM   15  C   UNL     1     -10.240   8.539  69.267  1.00  0.00    -0.208 A  
HETATM   16  I   UNL     1     -10.393   7.658  67.274  1.00  0.00    -0.358 I  
BRANCH  13  17
HETATM   17  C   UNL     1      -8.284   7.013  69.901  1.00  0.00    -0.130 C  
HETATM   18  C   UNL     1      -8.279   5.560  70.451  1.00  0.00    -0.104 C  
HETATM   19  C   UNL     1      -6.998   4.865  70.009  1.00  0.00    -0.049 C  
HETATM   20  C   UNL     1      -9.502   4.693  70.100  1.00  0.00    -0.246 C  
HETATM   21  C   UNL     1      -9.757   4.482  68.616  1.00  0.00    -0.203 C  
HETATM   22  O   UNL     1      -6.358   5.155  69.010  1.00  0.00    -0.029 OA 
HETATM   23  O   UNL     1      -6.623   3.861  70.832  1.00  0.00    -0.029 OA 
ENDBRANCH  13  17
ENDBRANCH   6   8
ENDBRANCH   3   4
ENDBRANCH   2   3
TORSDOF 4
ENDMDL
MODEL       78
REMARK 921   NORMALIZED FREE ENERGY PREDICTED BY IDOCK:   -3.54 KCAL/MOL
REMARK 922        TOTAL FREE ENERGY PREDICTED BY IDOCK:   -5.33 KCAL/MOL
REMARK 923 INTER-LIGAND FREE ENERGY PREDICTED BY IDOCK:   -5.47 KCAL/MOL
REMARK 924 INTRA-LIGAND FREE ENERGY PREDICTED BY IDOCK:    0.13 KCAL/MOL
REMARK 927      BINDING AFFINITY PREDICTED BY RF-SCORE:    0.00 PKD
ROOT
HETATM    1  C   UNL     1      -6.165  21.102  67.610  1.00  0.00    -0.426 C  
HETATM    2  C   UNL     1      -6.374  20.341  68.907  1.00  0.00    -0.351 C  
ENDROOT
BRANCH   2   3
HETATM    3  C   UNL     1      -5.745  18.953  68.847  1.00  0.00    -0.215 C  
BRANCH   3   4
HETATM    4  C   UNL     1      -6.577  18.032  67.991  1.00  0.00    -0.196 C  
HETATM    5  O   UNL     1      -6.142  17.583  66.931  1.00  0.00    -0.139 OA 
HETATM    6  N   UNL     1      -7.802  17.699  68.558  1.00  0.00    -0.274 N  
HETATM    7  H   UNL     1      -8.079  18.128  69.441  1.00  0.00     0.000 HD 
BRANCH   6   8
HETATM    8  C   UNL     1      -8.673  16.772  67.927  1.00  0.00    -0.203 A  
HETATM    9  C   UNL     1      -9.586  17.241  66.977  1.00  0.00    -0.261 A  
HETATM   10  C   UNL     1     -10.535  16.376  66.431  1.00  0.00    -0.288 A  
HETATM   11  I   UNL     1      -9.636  19.246  66.355  1.00  0.00    -0.403 I  
HETATM   12  C   UNL     1     -10.636  15.054  66.888  1.00  0.00    -0.297 A  
HETATM   13  C   UNL     1      -9.758  14.548  67.869  1.00  0.00    -0.218 A  
HETATM   14  I   UNL     1     -12.116  13.901  65.911  1.00  0.00    -0.498 I  
HETATM   15  C   UNL     1      -8.694  15.398  68.262  1.00  0.00    -0.164 A  
HETATM   16  I   UNL     1      -6.815  14.496  68.915  1.00  0.00    -0.122 I  
BRANCH  13  17
HETATM   17  C   UNL     1      -9.960  13.186  68.517  1.00  0.00    -0.182 C  
HETATM   18  C   UNL     1     -10.122  11.990  67.539  1.00  0.00    -0.205 C  
HETATM   19  C   UNL     1     -10.321  10.713  68.343  1.00  0.00    -0.175 C  
HETATM   20  C   UNL     1      -8.998  11.797  66.504  1.00  0.00    -0.196 C  
HETATM   21  C   UNL     1      -7.608  11.569  67.077  1.00  0.00    -0.154 C  
HETATM   22  O   UNL     1      -9.913  10.536  69.481  1.00  0.00    -0.217 OA 
HETATM   23  O   UNL     1     -10.997   9.756  67.668  1.00  0.00    -0.280 OA 
ENDBRANCH  13  17
ENDBRANCH   6   8
ENDBRANCH   3   4
ENDBRANCH   2   3
TORSDOF 4
ENDMDL
MODEL       79
REMARK 921   NORMALIZED FREE ENERGY PREDICTED BY IDOCK:   -3.52 KCAL/MOL
REMARK 922        TOTAL FREE ENERGY PREDICTED BY IDOCK:   -5.32 KCAL/MOL
REMARK 923 INTER-LIGAND FREE ENERGY PREDICTED BY IDOCK:   -4.31 KCAL/MOL
REMARK 924 INTRA-LIGAND FREE ENERGY PREDICTED BY IDOCK:   -1.01 KCAL/MOL
REMARK 927      BINDING AFFINITY PREDICTED BY RF-SCORE:    0.00 PKD
ROOT
HETATM    1  C   UNL     1     -12.120  11.777  63.623  1.00  0.00    -0.486 C  
HETATM    2  C   UNL     1     -11.139  11.633  64.772  1.00  0.00    -0.328 C  
ENDROOT
BRANCH   2   3
HETATM    3  C   UNL     1     -10.233  10.420  64.583  1.00  0.00    -0.305 C  
BRANCH   3   4
HETATM    4  C   UNL     1      -9.779   9.887  65.918  1.00  0.00    -0.262 C  
HETATM    5  O   UNL     1      -8.587   9.876  66.226  1.00  0.00    -0.126 OA 
HETATM    6  N   UNL     1     -10.824   9.507  66.751  1.00  0.00    -0.053 N  
HETATM    7  H   UNL     1     -11.783   9.547  66.404  1.00  0.00     0.000 HD 
BRANCH   6   8
HETATM    8  C   UNL     1     -10.580   9.065  68.079  1.00  0.00    -0.186 A  
HETATM    9  C   UNL     1     -10.771   9.960  69.136  1.00  0.00    -0.224 A  
HETATM   10  C   UNL     1     -10.423   9.594  70.436  1.00  0.00    -0.352 A  
HETATM   11  I   UNL     1     -11.524  11.899  68.848  1.00  0.00    -0.439 I  
HETATM   12  C   UNL     1      -9.804   8.360  70.683  1.00  0.00    -0.181 A  
HETATM   13  C   UNL     1      -9.561   7.439  69.643  1.00  0.00    -0.156 A  
HETATM   14  I   UNL     1      -9.386   7.983  72.723  1.00  0.00    -0.338 I  
HETATM   15  C   UNL     1     -10.095   7.769  68.372  1.00  0.00    -0.192 A  
HETATM   16  I   UNL     1     -10.681   6.151  67.027  1.00  0.00    -0.293 I  
BRANCH  13  17
HETATM   17  C   UNL     1      -8.728   6.182  69.846  1.00  0.00    -0.136 C  
HETATM   18  C   UNL     1      -7.397   6.116  69.048  1.00  0.00    -0.085 C  
HETATM   19  C   UNL     1      -6.695   4.802  69.357  1.00  0.00    -0.045 C  
HETATM   20  C   UNL     1      -6.426   7.296  69.241  1.00  0.00    -0.036 C  
HETATM   21  C   UNL     1      -5.945   7.526  70.665  1.00  0.00    -0.031 C  
HETATM   22  O   UNL     1      -6.832   4.166  70.391  1.00  0.00    -0.032 OA 
HETATM   23  O   UNL     1      -5.871   4.390  68.368  1.00  0.00    -0.023 OA 
ENDBRANCH  13  17
ENDBRANCH   6   8
ENDBRANCH   3   4
ENDBRANCH   2   3
TORSDOF 4
ENDMDL
MODEL       80
REMARK 921   NORMALIZED FREE ENERGY PREDICTED BY IDOCK:   -3.50 KCAL/MOL
REMARK 922        TOTAL FREE ENERGY PREDICTED BY IDOCK:   -5.29 KCAL/MOL
REMARK 923 INTER-LIGAND FREE ENERGY PREDICTED BY IDOCK:   -4.53 KCAL/MOL
REMARK 924 INTRA-LIGAND FREE ENERGY PREDICTED BY IDOCK:   -0.76 KCAL/MOL
REMARK 927      BINDING AFFINITY PREDICTED BY RF-SCORE:    0.00 PKD
ROOT
HETATM    1  C   UNL     1     -13.138   9.929  72.030  1.00  0.00    -0.545 C  
HETATM    2  C   UNL     1     -12.697   8.499  72.288  1.00  0.00    -0.420 C  
ENDROOT
BRANCH   2   3
HETATM    3  C   UNL     1     -11.195   8.416  72.542  1.00  0.00    -0.406 C  
BRANCH   3   4
HETATM    4  C   UNL     1     -10.436   8.456  71.240  1.00  0.00    -0.216 C  
HETATM    5  O   UNL     1     -10.609   7.596  70.377  1.00  0.00    -0.221 OA 
HETATM    6  N   UNL     1      -9.621   9.573  71.105  1.00  0.00    -0.246 N  
HETATM    7  H   UNL     1      -9.537  10.231  71.880  1.00  0.00     0.000 HD 
BRANCH   6   8
HETATM    8  C   UNL     1      -8.902   9.814  69.903  1.00  0.00    -0.225 A  
HETATM    9  C   UNL     1      -7.663   9.192  69.720  1.00  0.00    -0.082 A  
HETATM   10  C   UNL     1      -6.880   9.503  68.608  1.00  0.00    -0.057 A  
HETATM   11  I   UNL     1      -6.877   7.818  71.100  1.00  0.00    -0.054 I  
HETATM   12  C   UNL     1      -7.290  10.500  67.710  1.00  0.00    -0.086 A  
HETATM   13  C   UNL     1      -8.516  11.177  67.873  1.00  0.00    -0.131 A  
HETATM   14  I   UNL     1      -5.978  10.798  66.077  1.00  0.00    -0.058 I  
HETATM   15  C   UNL     1      -9.364  10.704  68.905  1.00  0.00    -0.184 A  
HETATM   16  I   UNL     1     -11.526  10.904  68.663  1.00  0.00    -0.278 I  
BRANCH  13  17
HETATM   17  C   UNL     1      -8.898  12.384  67.030  1.00  0.00    -0.210 C  
HETATM   18  C   UNL     1      -9.026  13.730  67.795  1.00  0.00    -0.194 C  
HETATM   19  C   UNL     1      -9.418  14.825  66.813  1.00  0.00    -0.254 C  
HETATM   20  C   UNL     1      -7.799  14.167  68.617  1.00  0.00    -0.137 C  
HETATM   21  C   UNL     1      -6.512  14.356  67.830  1.00  0.00    -0.181 C  
HETATM   22  O   UNL     1      -9.168  14.811  65.617  1.00  0.00    -0.103 OA 
HETATM   23  O   UNL     1     -10.074  15.855  67.394  1.00  0.00    -0.244 OA 
ENDBRANCH  13  17
ENDBRANCH   6   8
ENDBRANCH   3   4
ENDBRANCH   2   3
TORSDOF 4
ENDMDL
MODEL       81
REMARK 921   NORMALIZED FREE ENERGY PREDICTED BY IDOCK:   -3.49 KCAL/MOL
REMARK 922        TOTAL FREE ENERGY PREDICTED BY IDOCK:   -5.27 KCAL/MOL
REMARK 923 INTER-LIGAND FREE ENERGY PREDICTED BY IDOCK:   -4.46 KCAL/MOL
REMARK 924 INTRA-LIGAND FREE ENERGY PREDICTED BY IDOCK:   -0.81 KCAL/MOL
REMARK 927      BINDING AFFINITY PREDICTED BY RF-SCORE:    0.00 PKD
ROOT
HETATM    1  C   UNL     1     -10.872  12.200  63.473  1.00  0.00    -0.518 C  
HETATM    2  C   UNL     1     -10.671  11.314  64.689  1.00  0.00    -0.371 C  
ENDROOT
BRANCH   2   3
HETATM    3  C   UNL     1      -9.623  10.237  64.428  1.00  0.00    -0.378 C  
BRANCH   3   4
HETATM    4  C   UNL     1      -9.470   9.345  65.634  1.00  0.00    -0.262 C  
HETATM    5  O   UNL     1     -10.454   8.890  66.217  1.00  0.00    -0.170 OA 
HETATM    6  N   UNL     1      -8.149   9.043  65.941  1.00  0.00    -0.106 N  
HETATM    7  H   UNL     1      -7.398   9.474  65.401  1.00  0.00     0.000 HD 
BRANCH   6   8
HETATM    8  C   UNL     1      -7.827   8.145  66.993  1.00  0.00    -0.104 A  
HETATM    9  C   UNL     1      -7.336   6.876  66.673  1.00  0.00    -0.077 A  
HETATM   10  C   UNL     1      -7.127   5.931  67.677  1.00  0.00    -0.074 A  
HETATM   11  I   UNL     1      -6.938   6.288  64.696  1.00  0.00    -0.059 I  
HETATM   12  C   UNL     1      -7.484   6.215  69.003  1.00  0.00    -0.087 A  
HETATM   13  C   UNL     1      -8.015   7.471  69.367  1.00  0.00    -0.123 A  
HETATM   14  I   UNL     1      -7.058   4.663  70.376  1.00  0.00    -0.051 I  
HETATM   15  C   UNL     1      -8.038   8.463  68.356  1.00  0.00    -0.123 A  
HETATM   16  I   UNL     1      -7.854  10.560  68.937  1.00  0.00    -0.142 I  
BRANCH  13  17
HETATM   17  C   UNL     1      -8.583   7.743  70.752  1.00  0.00    -0.133 C  
HETATM   18  C   UNL     1     -10.123   7.925  70.827  1.00  0.00    -0.201 C  
HETATM   19  C   UNL     1     -10.524   8.195  72.270  1.00  0.00    -0.302 C  
HETATM   20  C   UNL     1     -10.975   6.782  70.244  1.00  0.00    -0.339 C  
HETATM   21  C   UNL     1     -10.773   5.418  70.885  1.00  0.00    -0.243 C  
HETATM   22  O   UNL     1      -9.893   7.825  73.249  1.00  0.00    -0.269 OA 
HETATM   23  O   UNL     1     -11.678   8.890  72.384  1.00  0.00    -0.331 OA 
ENDBRANCH  13  17
ENDBRANCH   6   8
ENDBRANCH   3   4
ENDBRANCH   2   3
TORSDOF 4
ENDMDL
MODEL       82
REMARK 921   NORMALIZED FREE ENERGY PREDICTED BY IDOCK:   -3.48 KCAL/MOL
REMARK 922        TOTAL FREE ENERGY PREDICTED BY IDOCK:   -5.26 KCAL/MOL
REMARK 923 INTER-LIGAND FREE ENERGY PREDICTED BY IDOCK:   -4.32 KCAL/MOL
REMARK 924 INTRA-LIGAND FREE ENERGY PREDICTED BY IDOCK:   -0.94 KCAL/MOL
REMARK 927      BINDING AFFINITY PREDICTED BY RF-SCORE:    0.00 PKD
ROOT
HETATM    1  C   UNL     1     -10.277  10.696  64.310  1.00  0.00    -0.391 C  
HETATM    2  C   UNL     1      -9.888   9.739  65.422  1.00  0.00    -0.365 C  
ENDROOT
BRANCH   2   3
HETATM    3  C   UNL     1     -10.815   9.876  66.626  1.00  0.00    -0.031 C  
BRANCH   3   4
HETATM    4  C   UNL     1     -10.196   9.239  67.844  1.00  0.00    -0.214 C  
HETATM    5  O   UNL     1      -9.917   8.040  67.862  1.00  0.00    -0.164 OA 
HETATM    6  N   UNL     1      -9.915  10.140  68.863  1.00  0.00    -0.189 N  
HETATM    7  H   UNL     1     -10.191  11.117  68.759  1.00  0.00     0.000 HD 
BRANCH   6   8
HETATM    8  C   UNL     1      -9.251   9.724  70.048  1.00  0.00    -0.229 A  
HETATM    9  C   UNL     1      -7.874   9.939  70.162  1.00  0.00    -0.171 A  
HETATM   10  C   UNL     1      -7.174   9.434  71.257  1.00  0.00     0.060 A  
HETATM   11  I   UNL     1      -6.769  10.966  68.700  1.00  0.00    -0.076 I  
HETATM   12  C   UNL     1      -7.828   8.637  72.210  1.00  0.00    -0.001 A  
HETATM   13  C   UNL     1      -9.209   8.366  72.117  1.00  0.00    -0.313 A  
HETATM   14  I   UNL     1      -6.597   7.996  73.807  1.00  0.00    -0.151 I  
HETATM   15  C   UNL     1      -9.918   9.048  71.096  1.00  0.00    -0.295 A  
HETATM   16  I   UNL     1     -12.023   9.529  71.422  1.00  0.00    -0.496 I  
BRANCH  13  17
HETATM   17  C   UNL     1      -9.903   7.359  73.022  1.00  0.00    -0.279 C  
HETATM   18  C   UNL     1     -10.442   6.081  72.323  1.00  0.00    -0.241 C  
HETATM   19  C   UNL     1     -11.109   5.189  73.361  1.00  0.00    -0.320 C  
HETATM   20  C   UNL     1      -9.422   5.270  71.502  1.00  0.00    -0.191 C  
HETATM   21  C   UNL     1      -8.224   4.742  72.277  1.00  0.00    -0.115 C  
HETATM   22  O   UNL     1     -10.831   5.178  74.550  1.00  0.00    -0.311 OA 
HETATM   23  O   UNL     1     -12.054   4.376  72.839  1.00  0.00     0.160 OA 
ENDBRANCH  13  17
ENDBRANCH   6   8
ENDBRANCH   3   4
ENDBRANCH   2   3
TORSDOF 4
ENDMDL
MODEL       83
REMARK 921   NORMALIZED FREE ENERGY PREDICTED BY IDOCK:   -3.47 KCAL/MOL
REMARK 922        TOTAL FREE ENERGY PREDICTED BY IDOCK:   -5.25 KCAL/MOL
REMARK 923 INTER-LIGAND FREE ENERGY PREDICTED BY IDOCK:   -5.26 KCAL/MOL
REMARK 924 INTRA-LIGAND FREE ENERGY PREDICTED BY IDOCK:    0.01 KCAL/MOL
REMARK 927      BINDING AFFINITY PREDICTED BY RF-SCORE:    0.00 PKD
ROOT
HETATM    1  C   UNL     1     -11.037  15.307  64.924  1.00  0.00    -0.435 C  
HETATM    2  C   UNL     1     -11.245  15.188  66.423  1.00  0.00    -0.277 C  
ENDROOT
BRANCH   2   3
HETATM    3  C   UNL     1     -12.226  14.070  66.763  1.00  0.00    -0.439 C  
BRANCH   3   4
HETATM    4  C   UNL     1     -11.485  12.799  67.092  1.00  0.00    -0.337 C  
HETATM    5  O   UNL     1     -11.598  11.797  66.385  1.00  0.00    -0.462 OA 
HETATM    6  N   UNL     1     -10.635  12.914  68.185  1.00  0.00    -0.230 N  
HETATM    7  H   UNL     1     -10.613  13.787  68.713  1.00  0.00     0.000 HD 
BRANCH   6   8
HETATM    8  C   UNL     1      -9.796  11.838  68.578  1.00  0.00    -0.189 A  
HETATM    9  C   UNL     1      -8.415  11.954  68.391  1.00  0.00    -0.155 A  
HETATM   10  C   UNL     1      -7.579  10.869  68.653  1.00  0.00    -0.114 A  
HETATM   11  I   UNL     1      -7.520  13.709  67.663  1.00  0.00    -0.127 I  
HETATM   12  C   UNL     1      -8.121   9.630  69.027  1.00  0.00    -0.103 A  
HETATM   13  C   UNL     1      -9.511   9.458  69.195  1.00  0.00    -0.163 A  
HETATM   14  I   UNL     1      -6.683   8.125  69.408  1.00  0.00    -0.043 I  
HETATM   15  C   UNL     1     -10.306  10.627  69.101  1.00  0.00    -0.221 A  
HETATM   16  I   UNL     1     -12.156  10.734  70.257  1.00  0.00    -0.448 I  
BRANCH  13  17
HETATM   17  C   UNL     1     -10.140   8.091  69.415  1.00  0.00    -0.197 C  
HETATM   18  C   UNL     1      -9.546   7.253  70.580  1.00  0.00    -0.172 C  
HETATM   19  C   UNL     1     -10.278   5.920  70.659  1.00  0.00    -0.209 C  
HETATM   20  C   UNL     1      -9.523   7.929  71.964  1.00  0.00    -0.230 C  
HETATM   21  C   UNL     1     -10.878   8.347  72.515  1.00  0.00    -0.375 C  
HETATM   22  O   UNL     1     -11.422   5.730  70.276  1.00  0.00    -0.180 OA 
HETATM   23  O   UNL     1      -9.537   4.936  71.216  1.00  0.00    -0.152 OA 
ENDBRANCH  13  17
ENDBRANCH   6   8
ENDBRANCH   3   4
ENDBRANCH   2   3
TORSDOF 4
ENDMDL
MODEL       84
REMARK 921   NORMALIZED FREE ENERGY PREDICTED BY IDOCK:   -3.47 KCAL/MOL
REMARK 922        TOTAL FREE ENERGY PREDICTED BY IDOCK:   -5.25 KCAL/MOL
REMARK 923 INTER-LIGAND FREE ENERGY PREDICTED BY IDOCK:   -4.65 KCAL/MOL
REMARK 924 INTRA-LIGAND FREE ENERGY PREDICTED BY IDOCK:   -0.60 KCAL/MOL
REMARK 927      BINDING AFFINITY PREDICTED BY RF-SCORE:    0.00 PKD
ROOT
HETATM    1  C   UNL     1      -9.859  20.155  66.339  1.00  0.00    -0.560 C  
HETATM    2  C   UNL     1     -10.663  19.037  66.977  1.00  0.00    -0.516 C  
ENDROOT
BRANCH   2   3
HETATM    3  C   UNL     1     -10.364  17.691  66.324  1.00  0.00    -0.342 C  
BRANCH   3   4
HETATM    4  C   UNL     1      -9.531  16.832  67.241  1.00  0.00    -0.230 C  
HETATM    5  O   UNL     1      -9.501  17.040  68.454  1.00  0.00    -0.251 OA 
HETATM    6  N   UNL     1      -8.898  15.777  66.595  1.00  0.00    -0.260 N  
HETATM    7  H   UNL     1      -8.977  15.690  65.581  1.00  0.00     0.000 HD 
BRANCH   6   8
HETATM    8  C   UNL     1      -8.144  14.818  67.323  1.00  0.00    -0.207 A  
HETATM    9  C   UNL     1      -6.791  15.069  67.571  1.00  0.00    -0.168 A  
HETATM   10  C   UNL     1      -5.997  14.094  68.175  1.00  0.00    -0.133 A  
HETATM   11  I   UNL     1      -5.858  16.867  67.016  1.00  0.00    -0.115 I  
HETATM   12  C   UNL     1      -6.526  12.827  68.464  1.00  0.00    -0.082 A  
HETATM   13  C   UNL     1      -7.877  12.519  68.199  1.00  0.00    -0.151 A  
HETATM   14  I   UNL     1      -5.169  11.506  69.405  1.00  0.00    -0.053 I  
HETATM   15  C   UNL     1      -8.694  13.590  67.759  1.00  0.00    -0.189 A  
HETATM   16  I   UNL     1     -10.820  13.564  68.260  1.00  0.00    -0.317 I  
BRANCH  13  17
HETATM   17  C   UNL     1      -8.428  11.106  68.325  1.00  0.00    -0.145 C  
HETATM   18  C   UNL     1      -9.015  10.492  67.024  1.00  0.00    -0.149 C  
HETATM   19  C   UNL     1      -9.526   9.089  67.323  1.00  0.00    -0.149 C  
HETATM   20  C   UNL     1      -8.082  10.468  65.799  1.00  0.00    -0.158 C  
HETATM   21  C   UNL     1      -6.785   9.693  65.975  1.00  0.00    -0.084 C  
HETATM   22  O   UNL     1      -9.105   8.370  68.216  1.00  0.00    -0.139 OA 
HETATM   23  O   UNL     1     -10.507   8.687  66.483  1.00  0.00    -0.249 OA 
ENDBRANCH  13  17
ENDBRANCH   6   8
ENDBRANCH   3   4
ENDBRANCH   2   3
TORSDOF 4
ENDMDL
MODEL       85
REMARK 921   NORMALIZED FREE ENERGY PREDICTED BY IDOCK:   -3.45 KCAL/MOL
REMARK 922        TOTAL FREE ENERGY PREDICTED BY IDOCK:   -5.23 KCAL/MOL
REMARK 923 INTER-LIGAND FREE ENERGY PREDICTED BY IDOCK:   -5.21 KCAL/MOL
REMARK 924 INTRA-LIGAND FREE ENERGY PREDICTED BY IDOCK:   -0.02 KCAL/MOL
REMARK 927      BINDING AFFINITY PREDICTED BY RF-SCORE:    0.00 PKD
ROOT
HETATM    1  C   UNL     1      -6.807  19.805  69.257  1.00  0.00    -0.370 C  
HETATM    2  C   UNL     1      -6.285  18.393  69.458  1.00  0.00    -0.262 C  
ENDROOT
BRANCH   2   3
HETATM    3  C   UNL     1      -5.384  17.962  68.305  1.00  0.00    -0.155 C  
BRANCH   3   4
HETATM    4  C   UNL     1      -5.993  16.797  67.566  1.00  0.00    -0.152 C  
HETATM    5  O   UNL     1      -5.658  16.530  66.412  1.00  0.00    -0.263 OA 
HETATM    6  N   UNL     1      -6.871  16.045  68.337  1.00  0.00    -0.121 N  
HETATM    7  H   UNL     1      -7.092  16.349  69.286  1.00  0.00     0.000 HD 
BRANCH   6   8
HETATM    8  C   UNL     1      -7.466  14.861  67.826  1.00  0.00    -0.163 A  
HETATM    9  C   UNL     1      -6.846  13.632  68.071  1.00  0.00    -0.138 A  
HETATM   10  C   UNL     1      -7.339  12.468  67.481  1.00  0.00    -0.151 A  
HETATM   11  I   UNL     1      -5.131  13.455  69.270  1.00  0.00    -0.076 I  
HETATM   12  C   UNL     1      -8.407  12.531  66.574  1.00  0.00     0.152 A  
HETATM   13  C   UNL     1      -9.042  13.753  66.271  1.00  0.00    -0.012 A  
HETATM   14  I   UNL     1      -9.022  10.654  65.816  1.00  0.00    -0.232 I  
HETATM   15  C   UNL     1      -8.635  14.880  67.029  1.00  0.00    -0.238 A  
HETATM   16  I   UNL     1     -10.085  16.468  67.411  1.00  0.00    -0.293 I  
BRANCH  13  17
HETATM   17  C   UNL     1     -10.072  13.881  65.159  1.00  0.00    -0.330 C  
HETATM   18  C   UNL     1     -11.222  12.837  65.180  1.00  0.00    -0.327 C  
HETATM   19  C   UNL     1     -12.154  13.099  64.005  1.00  0.00    -0.446 C  
HETATM   20  C   UNL     1     -12.030  12.738  66.487  1.00  0.00    -0.428 C  
HETATM   21  C   UNL     1     -12.734  14.013  66.925  1.00  0.00     0.248 C  
HETATM   22  O   UNL     1     -12.310  14.186  63.469  1.00  0.00    -0.738 OA 
HETATM   23  O   UNL     1     -12.827  11.999  63.600  1.00  0.00    -0.713 OA 
ENDBRANCH  13  17
ENDBRANCH   6   8
ENDBRANCH   3   4
ENDBRANCH   2   3
TORSDOF 4
ENDMDL
MODEL       86
REMARK 921   NORMALIZED FREE ENERGY PREDICTED BY IDOCK:   -3.43 KCAL/MOL
REMARK 922        TOTAL FREE ENERGY PREDICTED BY IDOCK:   -5.21 KCAL/MOL
REMARK 923 INTER-LIGAND FREE ENERGY PREDICTED BY IDOCK:   -4.27 KCAL/MOL
REMARK 924 INTRA-LIGAND FREE ENERGY PREDICTED BY IDOCK:   -0.94 KCAL/MOL
REMARK 927      BINDING AFFINITY PREDICTED BY RF-SCORE:    0.00 PKD
ROOT
HETATM    1  C   UNL     1     -14.115   8.556  71.805  1.00  0.00    -0.515 C  
HETATM    2  C   UNL     1     -13.082   9.577  72.246  1.00  0.00    -0.492 C  
ENDROOT
BRANCH   2   3
HETATM    3  C   UNL     1     -12.151   9.960  71.099  1.00  0.00    -0.466 C  
BRANCH   3   4
HETATM    4  C   UNL     1     -11.167   8.851  70.824  1.00  0.00    -0.272 C  
HETATM    5  O   UNL     1     -11.408   7.980  69.988  1.00  0.00    -0.161 OA 
HETATM    6  N   UNL     1      -9.978   8.972  71.532  1.00  0.00    -0.319 N  
HETATM    7  H   UNL     1      -9.873   9.727  72.210  1.00  0.00     0.000 HD 
BRANCH   6   8
HETATM    8  C   UNL     1      -8.907   8.062  71.327  1.00  0.00    -0.139 A  
HETATM    9  C   UNL     1      -7.919   8.381  70.390  1.00  0.00    -0.099 A  
HETATM   10  C   UNL     1      -6.923   7.455  70.079  1.00  0.00    -0.060 A  
HETATM   11  I   UNL     1      -7.891  10.211  69.360  1.00  0.00    -0.159 I  
HETATM   12  C   UNL     1      -6.950   6.170  70.641  1.00  0.00    -0.064 A  
HETATM   13  C   UNL     1      -7.947   5.793  71.565  1.00  0.00    -0.113 A  
HETATM   14  I   UNL     1      -5.336   4.929  70.065  1.00  0.00     0.000 I  
HETATM   15  C   UNL     1      -8.828   6.817  71.994  1.00  0.00    -0.134 A  
HETATM   16  I   UNL     1      -9.676   6.699  74.003  1.00  0.00    -0.356 I  
BRANCH  13  17
HETATM   17  C   UNL     1      -8.112   4.359  72.044  1.00  0.00    -0.099 C  
HETATM   18  C   UNL     1      -9.421   3.646  71.605  1.00  0.00    -0.215 C  
HETATM   19  C   UNL     1      -9.432   2.232  72.170  1.00  0.00    -0.106 C  
HETATM   20  C   UNL     1      -9.708   3.616  70.092  1.00  0.00    -0.188 C  
HETATM   21  C   UNL     1      -8.655   2.929  69.236  1.00  0.00    -0.114 C  
HETATM   22  O   UNL     1      -8.433   1.585  72.445  1.00  0.00    -0.052 OA 
HETATM   23  O   UNL     1     -10.677   1.731  72.334  1.00  0.00    -0.147 OA 
ENDBRANCH  13  17
ENDBRANCH   6   8
ENDBRANCH   3   4
ENDBRANCH   2   3
TORSDOF 4
ENDMDL
MODEL       87
REMARK 921   NORMALIZED FREE ENERGY PREDICTED BY IDOCK:   -3.43 KCAL/MOL
REMARK 922        TOTAL FREE ENERGY PREDICTED BY IDOCK:   -5.20 KCAL/MOL
REMARK 923 INTER-LIGAND FREE ENERGY PREDICTED BY IDOCK:   -4.54 KCAL/MOL
REMARK 924 INTRA-LIGAND FREE ENERGY PREDICTED BY IDOCK:   -0.67 KCAL/MOL
REMARK 927      BINDING AFFINITY PREDICTED BY RF-SCORE:    0.00 PKD
ROOT
HETATM    1  C   UNL     1     -10.109  18.330  68.554  1.00  0.00    -0.419 C  
HETATM    2  C   UNL     1     -10.165  16.825  68.366  1.00  0.00    -0.296 C  
ENDROOT
BRANCH   2   3
HETATM    3  C   UNL     1      -8.767  16.219  68.293  1.00  0.00    -0.190 C  
BRANCH   3   4
HETATM    4  C   UNL     1      -8.822  14.833  67.702  1.00  0.00    -0.179 C  
HETATM    5  O   UNL     1      -8.250  14.570  66.644  1.00  0.00    -0.027 OA 
HETATM    6  N   UNL     1      -9.493  13.913  68.498  1.00  0.00    -0.281 N  
HETATM    7  H   UNL     1      -9.942  14.227  69.359  1.00  0.00     0.000 HD 
BRANCH   6   8
HETATM    8  C   UNL     1      -9.563  12.541  68.134  1.00  0.00    -0.215 A  
HETATM    9  C   UNL     1     -10.549  12.130  67.232  1.00  0.00    -0.227 A  
HETATM   10  C   UNL     1     -10.719  10.775  66.950  1.00  0.00    -0.309 A  
HETATM   11  I   UNL     1     -11.857  13.483  66.299  1.00  0.00    -0.485 I  
HETATM   12  C   UNL     1      -9.961   9.809  67.627  1.00  0.00    -0.174 A  
HETATM   13  C   UNL     1      -8.978  10.176  68.570  1.00  0.00    -0.127 A  
HETATM   14  I   UNL     1     -10.350   7.817  67.032  1.00  0.00    -0.238 I  
HETATM   15  C   UNL     1      -8.708  11.562  68.691  1.00  0.00    -0.103 A  
HETATM   16  I   UNL     1      -6.696  12.193  69.262  1.00  0.00     0.077 I  
BRANCH  13  17
HETATM   17  C   UNL     1      -8.276   9.155  69.452  1.00  0.00    -0.118 C  
HETATM   18  C   UNL     1      -8.537   9.287  70.978  1.00  0.00    -0.166 C  
HETATM   19  C   UNL     1      -7.760   8.202  71.711  1.00  0.00    -0.102 C  
HETATM   20  C   UNL     1     -10.012   9.277  71.421  1.00  0.00    -0.323 C  
HETATM   21  C   UNL     1     -10.800   8.029  71.059  1.00  0.00    -0.259 C  
HETATM   22  O   UNL     1      -7.436   7.129  71.226  1.00  0.00    -0.078 OA 
HETATM   23  O   UNL     1      -7.462   8.529  72.989  1.00  0.00    -0.294 OA 
ENDBRANCH  13  17
ENDBRANCH   6   8
ENDBRANCH   3   4
ENDBRANCH   2   3
TORSDOF 4
ENDMDL
MODEL       88
REMARK 921   NORMALIZED FREE ENERGY PREDICTED BY IDOCK:   -3.43 KCAL/MOL
REMARK 922        TOTAL FREE ENERGY PREDICTED BY IDOCK:   -5.20 KCAL/MOL
REMARK 923 INTER-LIGAND FREE ENERGY PREDICTED BY IDOCK:   -4.52 KCAL/MOL
REMARK 924 INTRA-LIGAND FREE ENERGY PREDICTED BY IDOCK:   -0.68 KCAL/MOL
REMARK 927      BINDING AFFINITY PREDICTED BY RF-SCORE:    0.00 PKD
ROOT
HETATM    1  C   UNL     1     -10.945  15.973  67.853  1.00  0.00    -0.327 C  
HETATM    2  C   UNL     1     -11.292  14.602  68.403  1.00  0.00    -0.312 C  
ENDROOT
BRANCH   2   3
HETATM    3  C   UNL     1     -10.581  13.494  67.631  1.00  0.00    -0.246 C  
BRANCH   3   4
HETATM    4  C   UNL     1     -11.053  12.140  68.095  1.00  0.00    -0.248 C  
HETATM    5  O   UNL     1     -11.913  11.518  67.472  1.00  0.00    -0.629 OA 
HETATM    6  N   UNL     1     -10.371  11.663  69.208  1.00  0.00    -0.431 N  
HETATM    7  H   UNL     1      -9.675  12.255  69.661  1.00  0.00     0.000 HD 
BRANCH   6   8
HETATM    8  C   UNL     1     -10.627  10.365  69.724  1.00  0.00    -0.258 A  
HETATM    9  C   UNL     1     -11.661  10.198  70.652  1.00  0.00    -0.343 A  
HETATM   10  C   UNL     1     -11.857   8.961  71.266  1.00  0.00    -0.371 A  
HETATM   11  I   UNL     1     -12.930  11.772  71.220  1.00  0.00     0.136 I  
HETATM   12  C   UNL     1     -10.973   7.900  71.023  1.00  0.00    -0.244 A  
HETATM   13  C   UNL     1      -9.897   8.034  70.121  1.00  0.00    -0.184 A  
HETATM   14  I   UNL     1     -11.464   6.104  72.028  1.00  0.00    -0.271 I  
HETATM   15  C   UNL     1      -9.842   9.240  69.380  1.00  0.00    -0.174 A  
HETATM   16  I   UNL     1      -8.960   9.206  67.382  1.00  0.00    -0.141 I  
BRANCH  13  17
HETATM   17  C   UNL     1      -8.818   6.971  69.979  1.00  0.00    -0.142 C  
HETATM   18  C   UNL     1      -7.393   7.389  70.434  1.00  0.00    -0.077 C  
HETATM   19  C   UNL     1      -6.439   6.222  70.220  1.00  0.00    -0.040 C  
HETATM   20  C   UNL     1      -7.265   7.924  71.872  1.00  0.00    -0.076 C  
HETATM   21  C   UNL     1      -7.693   6.964  72.972  1.00  0.00    -0.091 C  
HETATM   22  O   UNL     1      -6.769   5.046  70.211  1.00  0.00    -0.034 OA 
HETATM   23  O   UNL     1      -5.154   6.606  70.049  1.00  0.00    -0.013 OA 
ENDBRANCH  13  17
ENDBRANCH   6   8
ENDBRANCH   3   4
ENDBRANCH   2   3
TORSDOF 4
ENDMDL
MODEL       89
REMARK 921   NORMALIZED FREE ENERGY PREDICTED BY IDOCK:   -3.42 KCAL/MOL
REMARK 922        TOTAL FREE ENERGY PREDICTED BY IDOCK:   -5.18 KCAL/MOL
REMARK 923 INTER-LIGAND FREE ENERGY PREDICTED BY IDOCK:   -4.26 KCAL/MOL
REMARK 924 INTRA-LIGAND FREE ENERGY PREDICTED BY IDOCK:   -0.92 KCAL/MOL
REMARK 927      BINDING AFFINITY PREDICTED BY RF-SCORE:    0.00 PKD
ROOT
HETATM    1  C   UNL     1      -6.704   6.091  66.030  1.00  0.00    -0.056 C  
HETATM    2  C   UNL     1      -7.280   7.421  65.579  1.00  0.00    -0.066 C  
ENDROOT
BRANCH   2   3
HETATM    3  C   UNL     1      -6.389   8.586  65.999  1.00  0.00    -0.053 C  
BRANCH   3   4
HETATM    4  C   UNL     1      -7.138   9.890  65.889  1.00  0.00    -0.107 C  
HETATM    5  O   UNL     1      -6.550  10.969  65.967  1.00  0.00    -0.111 OA 
HETATM    6  N   UNL     1      -8.491   9.735  65.617  1.00  0.00    -0.134 N  
HETATM    7  H   UNL     1      -8.891   8.797  65.576  1.00  0.00     0.000 HD 
BRANCH   6   8
HETATM    8  C   UNL     1      -9.328  10.862  65.394  1.00  0.00    -0.208 A  
HETATM    9  C   UNL     1      -9.615  11.241  64.079  1.00  0.00    -0.232 A  
HETATM   10  C   UNL     1     -10.331  12.411  63.828  1.00  0.00    -0.454 A  
HETATM   11  I   UNL     1      -8.957  10.136  62.418  1.00  0.00    -0.348 I  
HETATM   12  C   UNL     1     -10.698  13.258  64.884  1.00  0.00    -0.351 A  
HETATM   13  C   UNL     1     -10.400  12.933  66.224  1.00  0.00    -0.278 A  
HETATM   14  I   UNL     1     -11.804  14.963  64.295  1.00  0.00     0.149 I  
HETATM   15  C   UNL     1      -9.838  11.651  66.450  1.00  0.00    -0.207 A  
HETATM   16  I   UNL     1     -10.245  10.647  68.347  1.00  0.00    -0.247 I  
BRANCH  13  17
HETATM   17  C   UNL     1     -10.616  13.913  67.366  1.00  0.00    -0.267 C  
HETATM   18  C   UNL     1      -9.329  14.539  67.972  1.00  0.00    -0.201 C  
HETATM   19  C   UNL     1      -9.719  15.484  69.100  1.00  0.00    -0.252 C  
HETATM   20  C   UNL     1      -8.387  15.251  66.983  1.00  0.00    -0.267 C  
HETATM   21  C   UNL     1      -8.994  16.418  66.219  1.00  0.00    -0.368 C  
HETATM   22  O   UNL     1     -10.792  16.062  69.185  1.00  0.00    -0.242 OA 
HETATM   23  O   UNL     1      -8.744  15.646  70.022  1.00  0.00     0.041 OA 
ENDBRANCH  13  17
ENDBRANCH   6   8
ENDBRANCH   3   4
ENDBRANCH   2   3
TORSDOF 4
ENDMDL
MODEL       90
REMARK 921   NORMALIZED FREE ENERGY PREDICTED BY IDOCK:   -3.38 KCAL/MOL
REMARK 922        TOTAL FREE ENERGY PREDICTED BY IDOCK:   -5.13 KCAL/MOL
REMARK 923 INTER-LIGAND FREE ENERGY PREDICTED BY IDOCK:   -5.29 KCAL/MOL
REMARK 924 INTRA-LIGAND FREE ENERGY PREDICTED BY IDOCK:    0.15 KCAL/MOL
REMARK 927      BINDING AFFINITY PREDICTED BY RF-SCORE:    0.00 PKD
ROOT
HETATM    1  C   UNL     1     -10.503  14.101  67.339  1.00  0.00    -0.271 C  
HETATM    2  C   UNL     1     -11.868  13.967  67.988  1.00  0.00    -0.403 C  
ENDROOT
BRANCH   2   3
HETATM    3  C   UNL     1     -11.777  13.273  69.343  1.00  0.00    -0.383 C  
BRANCH   3   4
HETATM    4  C   UNL     1     -11.736  11.776  69.169  1.00  0.00    -0.325 C  
HETATM    5  O   UNL     1     -12.402  11.220  68.296  1.00  0.00    -0.542 OA 
HETATM    6  N   UNL     1     -10.835  11.141  70.015  1.00  0.00    -0.456 N  
HETATM    7  H   UNL     1     -10.331  11.688  70.712  1.00  0.00     0.000 HD 
BRANCH   6   8
HETATM    8  C   UNL     1     -10.606   9.742  69.923  1.00  0.00    -0.265 A  
HETATM    9  C   UNL     1     -11.418   8.873  70.658  1.00  0.00    -0.242 A  
HETATM   10  C   UNL     1     -11.140   7.507  70.684  1.00  0.00    -0.280 A  
HETATM   11  I   UNL     1     -13.046   9.549  71.801  1.00  0.00    -0.570 I  
HETATM   12  C   UNL     1     -10.000   7.003  70.041  1.00  0.00    -0.181 A  
HETATM   13  C   UNL     1      -9.133   7.847  69.316  1.00  0.00    -0.148 A  
HETATM   14  I   UNL     1      -9.776   4.904  70.173  1.00  0.00    -0.324 I  
HETATM   15  C   UNL     1      -9.549   9.193  69.159  1.00  0.00    -0.161 A  
HETATM   16  I   UNL     1      -8.940  10.278  67.364  1.00  0.00    -0.149 I  
BRANCH  13  17
HETATM   17  C   UNL     1      -7.797   7.366  68.770  1.00  0.00    -0.121 C  
HETATM   18  C   UNL     1      -7.853   6.112  67.855  1.00  0.00    -0.106 C  
HETATM   19  C   UNL     1      -6.442   5.761  67.404  1.00  0.00    -0.044 C  
HETATM   20  C   UNL     1      -8.795   6.195  66.639  1.00  0.00    -0.127 C  
HETATM   21  C   UNL     1      -8.496   7.312  65.651  1.00  0.00    -0.138 C  
HETATM   22  O   UNL     1      -5.523   6.560  67.309  1.00  0.00    -0.011 OA 
HETATM   23  O   UNL     1      -6.289   4.454  67.094  1.00  0.00    -0.038 OA 
ENDBRANCH  13  17
ENDBRANCH   6   8
ENDBRANCH   3   4
ENDBRANCH   2   3
TORSDOF 4
ENDMDL
MODEL       91
REMARK 921   NORMALIZED FREE ENERGY PREDICTED BY IDOCK:   -3.34 KCAL/MOL
REMARK 922        TOTAL FREE ENERGY PREDICTED BY IDOCK:   -5.09 KCAL/MOL
REMARK 923 INTER-LIGAND FREE ENERGY PREDICTED BY IDOCK:   -4.53 KCAL/MOL
REMARK 924 INTRA-LIGAND FREE ENERGY PREDICTED BY IDOCK:   -0.56 KCAL/MOL
REMARK 927      BINDING AFFINITY PREDICTED BY RF-SCORE:    0.00 PKD
ROOT
HETATM    1  C   UNL     1     -10.675   4.231  65.291  1.00  0.00    -0.118 C  
HETATM    2  C   UNL     1     -10.305   4.956  66.572  1.00  0.00    -0.311 C  
ENDROOT
BRANCH   2   3
HETATM    3  C   UNL     1     -10.849   6.381  66.584  1.00  0.00    -0.252 C  
BRANCH   3   4
HETATM    4  C   UNL     1      -9.750   7.364  66.895  1.00  0.00    -0.205 C  
HETATM    5  O   UNL     1      -8.581   7.131  66.585  1.00  0.00    -0.115 OA 
HETATM    6  N   UNL     1     -10.204   8.545  67.469  1.00  0.00    -0.224 N  
HETATM    7  H   UNL     1     -11.193   8.645  67.696  1.00  0.00     0.000 HD 
BRANCH   6   8
HETATM    8  C   UNL     1      -9.312   9.616  67.745  1.00  0.00    -0.127 A  
HETATM    9  C   UNL     1      -8.550   9.577  68.918  1.00  0.00    -0.128 A  
HETATM   10  C   UNL     1      -7.759  10.668  69.275  1.00  0.00    -0.142 A  
HETATM   11  I   UNL     1      -8.584   7.936  70.229  1.00  0.00    -0.140 I  
HETATM   12  C   UNL     1      -7.782  11.842  68.509  1.00  0.00    -0.135 A  
HETATM   13  C   UNL     1      -8.561  11.939  67.337  1.00  0.00    -0.164 A  
HETATM   14  I   UNL     1      -6.489  13.366  69.203  1.00  0.00    -0.059 I  
HETATM   15  C   UNL     1      -9.203  10.751  66.908  1.00  0.00    -0.156 A  
HETATM   16  I   UNL     1      -9.551  10.458  64.771  1.00  0.00    -0.399 I  
BRANCH  13  17
HETATM   17  C   UNL     1      -8.752  13.252  66.593  1.00  0.00    -0.015 C  
HETATM   18  C   UNL     1     -10.216  13.760  66.485  1.00  0.00    -0.284 C  
HETATM   19  C   UNL     1     -10.232  15.071  65.711  1.00  0.00    -0.338 C  
HETATM   20  C   UNL     1     -10.984  13.916  67.811  1.00  0.00    -0.271 C  
HETATM   21  C   UNL     1     -10.374  14.880  68.816  1.00  0.00    -0.245 C  
HETATM   22  O   UNL     1      -9.296  15.853  65.646  1.00  0.00    -0.343 OA 
HETATM   23  O   UNL     1     -11.410  15.313  65.093  1.00  0.00    -0.357 OA 
ENDBRANCH  13  17
ENDBRANCH   6   8
ENDBRANCH   3   4
ENDBRANCH   2   3
TORSDOF 4
ENDMDL
MODEL       92
REMARK 921   NORMALIZED FREE ENERGY PREDICTED BY IDOCK:   -3.32 KCAL/MOL
REMARK 922        TOTAL FREE ENERGY PREDICTED BY IDOCK:   -5.07 KCAL/MOL
REMARK 923 INTER-LIGAND FREE ENERGY PREDICTED BY IDOCK:   -5.25 KCAL/MOL
REMARK 924 INTRA-LIGAND FREE ENERGY PREDICTED BY IDOCK:    0.19 KCAL/MOL
REMARK 927      BINDING AFFINITY PREDICTED BY RF-SCORE:    0.00 PKD
ROOT
HETATM    1  C   UNL     1      -9.281   4.913  72.714  1.00  0.00    -0.145 C  
HETATM    2  C   UNL     1     -10.458   5.710  72.182  1.00  0.00    -0.265 C  
ENDROOT
BRANCH   2   3
HETATM    3  C   UNL     1     -10.604   7.042  72.911  1.00  0.00    -0.302 C  
BRANCH   3   4
HETATM    4  C   UNL     1     -10.394   8.192  71.958  1.00  0.00    -0.254 C  
HETATM    5  O   UNL     1      -9.515   9.030  72.158  1.00  0.00    -0.340 OA 
HETATM    6  N   UNL     1     -11.214   8.145  70.837  1.00  0.00    -0.263 N  
HETATM    7  H   UNL     1     -11.919   7.411  70.762  1.00  0.00     0.000 HD 
BRANCH   6   8
HETATM    8  C   UNL     1     -11.086   9.101  69.795  1.00  0.00    -0.125 A  
HETATM    9  C   UNL     1     -11.779  10.311  69.898  1.00  0.00    -0.225 A  
HETATM   10  C   UNL     1     -11.771  11.217  68.838  1.00  0.00    -0.406 A  
HETATM   11  I   UNL     1     -12.908  10.822  71.595  1.00  0.00    -0.282 I  
HETATM   12  C   UNL     1     -11.137  10.888  67.630  1.00  0.00    -0.313 A  
HETATM   13  C   UNL     1     -10.454   9.664  67.469  1.00  0.00    -0.321 A  
HETATM   14  I   UNL     1     -11.212  12.408  66.161  1.00  0.00    -0.430 I  
HETATM   15  C   UNL     1     -10.328   8.856  68.626  1.00  0.00    -0.204 A  
HETATM   16  I   UNL     1      -8.578   7.563  68.818  1.00  0.00    -0.126 I  
BRANCH  13  17
HETATM   17  C   UNL     1      -9.922   9.201  66.121  1.00  0.00    -0.338 C  
HETATM   18  C   UNL     1      -9.020  10.216  65.366  1.00  0.00    -0.208 C  
HETATM   19  C   UNL     1      -8.581   9.604  64.043  1.00  0.00    -0.200 C  
HETATM   20  C   UNL     1      -7.797  10.748  66.137  1.00  0.00    -0.155 C  
HETATM   21  C   UNL     1      -6.799   9.696  66.595  1.00  0.00    -0.084 C  
HETATM   22  O   UNL     1      -8.484   8.405  63.829  1.00  0.00    -0.104 OA 
HETATM   23  O   UNL     1      -8.286  10.525  63.099  1.00  0.00    -0.163 OA 
ENDBRANCH  13  17
ENDBRANCH   6   8
ENDBRANCH   3   4
ENDBRANCH   2   3
TORSDOF 4
ENDMDL
MODEL       93
REMARK 921   NORMALIZED FREE ENERGY PREDICTED BY IDOCK:   -3.32 KCAL/MOL
REMARK 922        TOTAL FREE ENERGY PREDICTED BY IDOCK:   -5.06 KCAL/MOL
REMARK 923 INTER-LIGAND FREE ENERGY PREDICTED BY IDOCK:   -5.29 KCAL/MOL
REMARK 924 INTRA-LIGAND FREE ENERGY PREDICTED BY IDOCK:    0.23 KCAL/MOL
REMARK 927      BINDING AFFINITY PREDICTED BY RF-SCORE:    0.00 PKD
ROOT
HETATM    1  C   UNL     1      -9.733   4.004  63.843  1.00  0.00    -0.157 C  
HETATM    2  C   UNL     1      -8.981   4.462  65.079  1.00  0.00    -0.145 C  
ENDROOT
BRANCH   2   3
HETATM    3  C   UNL     1      -8.232   5.767  64.825  1.00  0.00    -0.135 C  
BRANCH   3   4
HETATM    4  C   UNL     1      -8.452   6.733  65.961  1.00  0.00    -0.142 C  
HETATM    5  O   UNL     1      -7.503   7.255  66.545  1.00  0.00    -0.084 OA 
HETATM    6  N   UNL     1      -9.792   7.014  66.202  1.00  0.00    -0.413 N  
HETATM    7  H   UNL     1     -10.511   6.526  65.668  1.00  0.00     0.000 HD 
BRANCH   6   8
HETATM    8  C   UNL     1     -10.175   7.972  67.179  1.00  0.00    -0.292 A  
HETATM    9  C   UNL     1     -10.344   7.557  68.503  1.00  0.00    -0.199 A  
HETATM   10  C   UNL     1     -10.836   8.445  69.459  1.00  0.00    -0.126 A  
HETATM   11  I   UNL     1      -9.933   5.594  69.130  1.00  0.00    -0.311 I  
HETATM   12  C   UNL     1     -11.243   9.735  69.085  1.00  0.00    -0.061 A  
HETATM   13  C   UNL     1     -11.123  10.185  67.754  1.00  0.00    -0.293 A  
HETATM   14  I   UNL     1     -11.931  10.934  70.686  1.00  0.00    -0.348 I  
HETATM   15  C   UNL     1     -10.449   9.322  66.855  1.00  0.00    -0.214 A  
HETATM   16  I   UNL     1      -9.342  10.198  65.188  1.00  0.00    -0.369 I  
BRANCH  13  17
HETATM   17  C   UNL     1     -11.725  11.500  67.282  1.00  0.00    -0.193 C  
HETATM   18  C   UNL     1     -11.262  12.769  68.051  1.00  0.00    -0.310 C  
HETATM   19  C   UNL     1     -11.958  13.988  67.463  1.00  0.00    -0.395 C  
HETATM   20  C   UNL     1      -9.742  13.007  68.122  1.00  0.00    -0.228 C  
HETATM   21  C   UNL     1      -9.036  13.156  66.783  1.00  0.00    -0.183 C  
HETATM   22  O   UNL     1     -12.367  14.071  66.315  1.00  0.00    -0.456 OA 
HETATM   23  O   UNL     1     -12.078  15.010  68.341  1.00  0.00    -0.242 OA 
ENDBRANCH  13  17
ENDBRANCH   6   8
ENDBRANCH   3   4
ENDBRANCH   2   3
TORSDOF 4
ENDMDL
MODEL       94
REMARK 921   NORMALIZED FREE ENERGY PREDICTED BY IDOCK:   -3.31 KCAL/MOL
REMARK 922        TOTAL FREE ENERGY PREDICTED BY IDOCK:   -5.05 KCAL/MOL
REMARK 923 INTER-LIGAND FREE ENERGY PREDICTED BY IDOCK:   -4.98 KCAL/MOL
REMARK 924 INTRA-LIGAND FREE ENERGY PREDICTED BY IDOCK:   -0.07 KCAL/MOL
REMARK 927      BINDING AFFINITY PREDICTED BY RF-SCORE:    0.00 PKD
ROOT
HETATM    1  C   UNL     1     -10.945  14.109  66.381  1.00  0.00    -0.311 C  
HETATM    2  C   UNL     1     -11.926  13.767  67.487  1.00  0.00    -0.411 C  
ENDROOT
BRANCH   2   3
HETATM    3  C   UNL     1     -11.238  13.040  68.638  1.00  0.00    -0.316 C  
BRANCH   3   4
HETATM    4  C   UNL     1     -11.285  11.548  68.425  1.00  0.00    -0.255 C  
HETATM    5  O   UNL     1     -12.357  10.946  68.375  1.00  0.00    -0.477 OA 
HETATM    6  N   UNL     1     -10.036  10.975  68.215  1.00  0.00    -0.171 N  
HETATM    7  H   UNL     1      -9.200  11.556  68.281  1.00  0.00     0.000 HD 
BRANCH   6   8
HETATM    8  C   UNL     1      -9.905   9.594  67.911  1.00  0.00    -0.154 A  
HETATM    9  C   UNL     1      -9.877   9.197  66.570  1.00  0.00    -0.264 A  
HETATM   10  C   UNL     1      -9.872   7.842  66.241  1.00  0.00    -0.111 A  
HETATM   11  I   UNL     1      -9.898  10.576  64.986  1.00  0.00    -0.380 I  
HETATM   12  C   UNL     1      -9.978   6.868  67.245  1.00  0.00    -0.172 A  
HETATM   13  C   UNL     1     -10.043   7.223  68.608  1.00  0.00    -0.182 A  
HETATM   14  I   UNL     1      -9.921   4.874  66.539  1.00  0.00    -0.308 I  
HETATM   15  C   UNL     1      -9.858   8.595  68.911  1.00  0.00    -0.179 A  
HETATM   16  I   UNL     1      -8.961   9.136  70.827  1.00  0.00    -0.175 I  
BRANCH  13  17
HETATM   17  C   UNL     1     -10.345   6.208  69.700  1.00  0.00    -0.277 C  
HETATM   18  C   UNL     1      -9.418   4.962  69.740  1.00  0.00    -0.223 C  
HETATM   19  C   UNL     1      -9.858   4.050  70.877  1.00  0.00    -0.159 C  
HETATM   20  C   UNL     1      -7.906   5.239  69.835  1.00  0.00    -0.080 C  
HETATM   21  C   UNL     1      -7.457   6.024  71.058  1.00  0.00    -0.092 C  
HETATM   22  O   UNL     1     -10.442   4.423  71.882  1.00  0.00    -0.142 OA 
HETATM   23  O   UNL     1      -9.526   2.754  70.682  1.00  0.00    -0.143 OA 
ENDBRANCH  13  17
ENDBRANCH   6   8
ENDBRANCH   3   4
ENDBRANCH   2   3
TORSDOF 4
ENDMDL
MODEL       95
REMARK 921   NORMALIZED FREE ENERGY PREDICTED BY IDOCK:   -3.31 KCAL/MOL
REMARK 922        TOTAL FREE ENERGY PREDICTED BY IDOCK:   -5.05 KCAL/MOL
REMARK 923 INTER-LIGAND FREE ENERGY PREDICTED BY IDOCK:   -5.22 KCAL/MOL
REMARK 924 INTRA-LIGAND FREE ENERGY PREDICTED BY IDOCK:    0.17 KCAL/MOL
REMARK 927      BINDING AFFINITY PREDICTED BY RF-SCORE:    0.00 PKD
ROOT
HETATM    1  C   UNL     1      -9.981  17.971  67.152  1.00  0.00    -0.326 C  
HETATM    2  C   UNL     1      -9.281  16.683  66.760  1.00  0.00    -0.259 C  
ENDROOT
BRANCH   2   3
HETATM    3  C   UNL     1     -10.119  15.869  65.778  1.00  0.00    -0.389 C  
BRANCH   3   4
HETATM    4  C   UNL     1     -10.341  14.474  66.303  1.00  0.00    -0.294 C  
HETATM    5  O   UNL     1     -11.374  14.178  66.905  1.00  0.00    -0.307 OA 
HETATM    6  N   UNL     1      -9.329  13.583  65.968  1.00  0.00    -0.493 N  
HETATM    7  H   UNL     1      -8.506  13.924  65.470  1.00  0.00     0.000 HD 
BRANCH   6   8
HETATM    8  C   UNL     1      -9.421  12.207  66.307  1.00  0.00    -0.232 A  
HETATM    9  C   UNL     1     -10.126  11.347  65.459  1.00  0.00    -0.247 A  
HETATM   10  C   UNL     1     -10.337  10.019  65.827  1.00  0.00    -0.191 A  
HETATM   11  I   UNL     1     -10.952  11.989  63.638  1.00  0.00    -0.512 I  
HETATM   12  C   UNL     1      -9.917   9.554  67.082  1.00  0.00    -0.204 A  
HETATM   13  C   UNL     1      -9.232  10.396  67.984  1.00  0.00    -0.142 A  
HETATM   14  I   UNL     1     -10.304   7.504  67.432  1.00  0.00    -0.367 I  
HETATM   15  C   UNL     1      -8.874  11.679  67.501  1.00  0.00    -0.158 A  
HETATM   16  I   UNL     1      -7.075  12.634  68.289  1.00  0.00    -0.145 I  
BRANCH  13  17
HETATM   17  C   UNL     1      -8.932   9.980  69.416  1.00  0.00    -0.205 C  
HETATM   18  C   UNL     1      -8.256   8.592  69.589  1.00  0.00    -0.114 C  
HETATM   19  C   UNL     1      -8.033   8.329  71.072  1.00  0.00    -0.101 C  
HETATM   20  C   UNL     1      -6.948   8.367  68.807  1.00  0.00    -0.063 C  
HETATM   21  C   UNL     1      -5.815   9.329  69.129  1.00  0.00    -0.035 C  
HETATM   22  O   UNL     1      -7.899   9.196  71.921  1.00  0.00    -0.335 OA 
HETATM   23  O   UNL     1      -7.981   7.013  71.379  1.00  0.00    -0.102 OA 
ENDBRANCH  13  17
ENDBRANCH   6   8
ENDBRANCH   3   4
ENDBRANCH   2   3
TORSDOF 4
ENDMDL
MODEL       96
REMARK 921   NORMALIZED FREE ENERGY PREDICTED BY IDOCK:   -3.31 KCAL/MOL
REMARK 922        TOTAL FREE ENERGY PREDICTED BY IDOCK:   -5.05 KCAL/MOL
REMARK 923 INTER-LIGAND FREE ENERGY PREDICTED BY IDOCK:   -4.68 KCAL/MOL
REMARK 924 INTRA-LIGAND FREE ENERGY PREDICTED BY IDOCK:   -0.37 KCAL/MOL
REMARK 927      BINDING AFFINITY PREDICTED BY RF-SCORE:    0.00 PKD
ROOT
HETATM    1  C   UNL     1      -5.567   6.797  68.940  1.00  0.00    -0.017 C  
HETATM    2  C   UNL     1      -5.282   8.150  69.565  1.00  0.00    -0.026 C  
ENDROOT
BRANCH   2   3
HETATM    3  C   UNL     1      -6.552   8.985  69.693  1.00  0.00    -0.043 C  
BRANCH   3   4
HETATM    4  C   UNL     1      -6.409  10.283  68.941  1.00  0.00    -0.047 C  
HETATM    5  O   UNL     1      -5.505  10.448  68.122  1.00  0.00    -0.035 OA 
HETATM    6  N   UNL     1      -7.422  11.197  69.208  1.00  0.00    -0.259 N  
HETATM    7  H   UNL     1      -8.128  10.973  69.910  1.00  0.00     0.000 HD 
BRANCH   6   8
HETATM    8  C   UNL     1      -7.490  12.437  68.519  1.00  0.00    -0.112 A  
HETATM    9  C   UNL     1      -6.731  13.514  68.988  1.00  0.00    -0.112 A  
HETATM   10  C   UNL     1      -6.870  14.774  68.407  1.00  0.00    -0.104 A  
HETATM   11  I   UNL     1      -5.397  13.335  70.600  1.00  0.00    -0.179 I  
HETATM   12  C   UNL     1      -7.828  14.992  67.406  1.00  0.00    -0.200 A  
HETATM   13  C   UNL     1      -8.640  13.943  66.927  1.00  0.00    -0.138 A  
HETATM   14  I   UNL     1      -7.857  16.963  66.637  1.00  0.00    -0.359 I  
HETATM   15  C   UNL     1      -8.341  12.644  67.408  1.00  0.00    -0.184 A  
HETATM   16  I   UNL     1      -8.744  10.928  66.119  1.00  0.00    -0.186 I  
BRANCH  13  17
HETATM   17  C   UNL     1      -9.809  14.186  65.983  1.00  0.00    -0.329 C  
HETATM   18  C   UNL     1     -11.165  13.563  66.414  1.00  0.00    -0.322 C  
HETATM   19  C   UNL     1     -12.219  13.890  65.365  1.00  0.00    -0.444 C  
HETATM   20  C   UNL     1     -11.675  13.942  67.817  1.00  0.00    -0.401 C  
HETATM   21  C   UNL     1     -11.904  15.426  68.055  1.00  0.00    -0.128 C  
HETATM   22  O   UNL     1     -12.187  14.862  64.626  1.00  0.00    -0.418 OA 
HETATM   23  O   UNL     1     -13.231  12.994  65.327  1.00  0.00    -0.636 OA 
ENDBRANCH  13  17
ENDBRANCH   6   8
ENDBRANCH   3   4
ENDBRANCH   2   3
TORSDOF 4
ENDMDL
MODEL       97
REMARK 921   NORMALIZED FREE ENERGY PREDICTED BY IDOCK:   -3.29 KCAL/MOL
REMARK 922        TOTAL FREE ENERGY PREDICTED BY IDOCK:   -5.03 KCAL/MOL
REMARK 923 INTER-LIGAND FREE ENERGY PREDICTED BY IDOCK:   -3.99 KCAL/MOL
REMARK 924 INTRA-LIGAND FREE ENERGY PREDICTED BY IDOCK:   -1.04 KCAL/MOL
REMARK 927      BINDING AFFINITY PREDICTED BY RF-SCORE:    0.00 PKD
ROOT
HETATM    1  C   UNL     1     -11.740  13.984  65.984  1.00  0.00    -0.378 C  
HETATM    2  C   UNL     1     -10.709  12.929  65.629  1.00  0.00    -0.295 C  
ENDROOT
BRANCH   2   3
HETATM    3  C   UNL     1     -11.248  11.521  65.862  1.00  0.00    -0.239 C  
BRANCH   3   4
HETATM    4  C   UNL     1     -10.334  10.752  66.783  1.00  0.00    -0.243 C  
HETATM    5  O   UNL     1      -9.906   9.641  66.470  1.00  0.00    -0.202 OA 
HETATM    6  N   UNL     1      -9.983  11.450  67.932  1.00  0.00    -0.174 N  
HETATM    7  H   UNL     1     -10.395  12.366  68.108  1.00  0.00     0.000 HD 
BRANCH   6   8
HETATM    8  C   UNL     1      -9.060  10.908  68.865  1.00  0.00    -0.144 A  
HETATM    9  C   UNL     1      -7.725  11.320  68.813  1.00  0.00    -0.138 A  
HETATM   10  C   UNL     1      -6.772  10.717  69.634  1.00  0.00    -0.116 A  
HETATM   11  I   UNL     1      -7.054  12.803  67.484  1.00  0.00    -0.047 I  
HETATM   12  C   UNL     1      -7.128   9.639  70.459  1.00  0.00    -0.132 A  
HETATM   13  C   UNL     1      -8.456   9.168  70.519  1.00  0.00    -0.236 A  
HETATM   14  I   UNL     1      -5.547   8.887  71.646  1.00  0.00    -0.065 I  
HETATM   15  C   UNL     1      -9.425   9.923  69.813  1.00  0.00    -0.226 A  
HETATM   16  I   UNL     1     -11.475   9.967  70.566  1.00  0.00    -0.444 I  
BRANCH  13  17
HETATM   17  C   UNL     1      -8.833   7.891  71.254  1.00  0.00    -0.152 C  
HETATM   18  C   UNL     1      -9.369   6.734  70.368  1.00  0.00    -0.163 C  
HETATM   19  C   UNL     1      -9.705   5.542  71.254  1.00  0.00    -0.166 C  
HETATM   20  C   UNL     1      -8.465   6.292  69.202  1.00  0.00    -0.120 C  
HETATM   21  C   UNL     1      -7.083   5.794  69.593  1.00  0.00    -0.064 C  
HETATM   22  O   UNL     1      -9.183   5.308  72.333  1.00  0.00    -0.140 OA 
HETATM   23  O   UNL     1     -10.648   4.730  70.724  1.00  0.00    -0.103 OA 
ENDBRANCH  13  17
ENDBRANCH   6   8
ENDBRANCH   3   4
ENDBRANCH   2   3
TORSDOF 4
ENDMDL
MODEL       98
REMARK 921   NORMALIZED FREE ENERGY PREDICTED BY IDOCK:   -3.25 KCAL/MOL
REMARK 922        TOTAL FREE ENERGY PREDICTED BY IDOCK:   -4.98 KCAL/MOL
REMARK 923 INTER-LIGAND FREE ENERGY PREDICTED BY IDOCK:   -4.18 KCAL/MOL
REMARK 924 INTRA-LIGAND FREE ENERGY PREDICTED BY IDOCK:   -0.80 KCAL/MOL
REMARK 927      BINDING AFFINITY PREDICTED BY RF-SCORE:    0.00 PKD
ROOT
HETATM    1  C   UNL     1     -12.182  10.542  69.910  1.00  0.00    -0.289 C  
HETATM    2  C   UNL     1     -11.199   9.944  70.899  1.00  0.00    -0.433 C  
ENDROOT
BRANCH   2   3
HETATM    3  C   UNL     1     -11.885   8.966  71.847  1.00  0.00    -0.440 C  
BRANCH   3   4
HETATM    4  C   UNL     1     -11.746   7.553  71.341  1.00  0.00    -0.283 C  
HETATM    5  O   UNL     1     -12.737   6.861  71.107  1.00  0.00    -0.369 OA 
HETATM    6  N   UNL     1     -10.431   7.174  71.099  1.00  0.00    -0.210 N  
HETATM    7  H   UNL     1      -9.674   7.816  71.330  1.00  0.00     0.000 HD 
BRANCH   6   8
HETATM    8  C   UNL     1     -10.126   5.906  70.536  1.00  0.00    -0.197 A  
HETATM    9  C   UNL     1     -10.041   4.793  71.379  1.00  0.00    -0.189 A  
HETATM   10  C   UNL     1      -9.625   3.562  70.875  1.00  0.00    -0.242 A  
HETATM   11  I   UNL     1     -10.468   4.901  73.433  1.00  0.00    -0.374 I  
HETATM   12  C   UNL     1      -9.209   3.446  69.540  1.00  0.00    -0.155 A  
HETATM   13  C   UNL     1      -9.246   4.550  68.661  1.00  0.00    -0.181 A  
HETATM   14  I   UNL     1      -8.645   1.490  68.965  1.00  0.00    -0.127 I  
HETATM   15  C   UNL     1      -9.848   5.732  69.160  1.00  0.00    -0.162 A  
HETATM   16  I   UNL     1     -10.852   7.071  67.756  1.00  0.00    -0.141 I  
BRANCH  13  17
HETATM   17  C   UNL     1      -8.630   4.503  67.271  1.00  0.00    -0.104 C  
HETATM   18  C   UNL     1      -7.359   5.372  67.066  1.00  0.00    -0.083 C  
HETATM   19  C   UNL     1      -6.878   5.219  65.630  1.00  0.00    -0.061 C  
HETATM   20  C   UNL     1      -6.197   5.123  68.045  1.00  0.00    -0.035 C  
HETATM   21  C   UNL     1      -5.633   3.710  68.053  1.00  0.00    -0.018 C  
HETATM   22  O   UNL     1      -7.083   4.241  64.927  1.00  0.00    -0.056 OA 
HETATM   23  O   UNL     1      -6.170   6.282  65.187  1.00  0.00    -0.029 OA 
ENDBRANCH  13  17
ENDBRANCH   6   8
ENDBRANCH   3   4
ENDBRANCH   2   3
TORSDOF 4
ENDMDL
MODEL       99
REMARK 921   NORMALIZED FREE ENERGY PREDICTED BY IDOCK:   -3.25 KCAL/MOL
REMARK 922        TOTAL FREE ENERGY PREDICTED BY IDOCK:   -4.97 KCAL/MOL
REMARK 923 INTER-LIGAND FREE ENERGY PREDICTED BY IDOCK:   -5.19 KCAL/MOL
REMARK 924 INTRA-LIGAND FREE ENERGY PREDICTED BY IDOCK:    0.22 KCAL/MOL
REMARK 927      BINDING AFFINITY PREDICTED BY RF-SCORE:    0.00 PKD
ROOT
HETATM    1  C   UNL     1      -7.084   8.158  64.290  1.00  0.00    -0.078 C  
HETATM    2  C   UNL     1      -6.824   9.618  64.615  1.00  0.00    -0.109 C  
ENDROOT
BRANCH   2   3
HETATM    3  C   UNL     1      -8.055  10.478  64.346  1.00  0.00    -0.042 C  
BRANCH   3   4
HETATM    4  C   UNL     1      -9.125  10.206  65.372  1.00  0.00    -0.188 C  
HETATM    5  O   UNL     1      -9.988   9.351  65.179  1.00  0.00    -0.105 OA 
HETATM    6  N   UNL     1      -8.975  10.942  66.542  1.00  0.00    -0.163 N  
HETATM    7  H   UNL     1      -8.228  11.634  66.607  1.00  0.00     0.000 HD 
BRANCH   6   8
HETATM    8  C   UNL     1      -9.844  10.744  67.648  1.00  0.00    -0.171 A  
HETATM    9  C   UNL     1     -11.037  11.471  67.709  1.00  0.00    -0.260 A  
HETATM   10  C   UNL     1     -11.851  11.390  68.838  1.00  0.00    -0.413 A  
HETATM   11  I   UNL     1     -11.654  12.756  66.165  1.00  0.00    -0.472 I  
HETATM   12  C   UNL     1     -11.442  10.645  69.955  1.00  0.00    -0.317 A  
HETATM   13  C   UNL     1     -10.230   9.923  69.951  1.00  0.00    -0.298 A  
HETATM   14  I   UNL     1     -12.830  10.625  71.550  1.00  0.00    -0.418 I  
HETATM   15  C   UNL     1      -9.525   9.881  68.722  1.00  0.00    -0.157 A  
HETATM   16  I   UNL     1      -8.305   8.126  68.271  1.00  0.00    -0.125 I  
BRANCH  13  17
HETATM   17  C   UNL     1      -9.672   9.264  71.203  1.00  0.00    -0.327 C  
HETATM   18  C   UNL     1     -10.624   8.273  71.927  1.00  0.00    -0.350 C  
HETATM   19  C   UNL     1      -9.920   7.712  73.154  1.00  0.00    -0.304 C  
HETATM   20  C   UNL     1     -11.194   7.126  71.070  1.00  0.00    -0.298 C  
HETATM   21  C   UNL     1     -10.165   6.198  70.444  1.00  0.00    -0.256 C  
HETATM   22  O   UNL     1      -8.709   7.614  73.278  1.00  0.00    -0.151 OA 
HETATM   23  O   UNL     1     -10.773   7.306  74.122  1.00  0.00    -0.193 OA 
ENDBRANCH  13  17
ENDBRANCH   6   8
ENDBRANCH   3   4
ENDBRANCH   2   3
TORSDOF 4
ENDMDL
MODEL      100
REMARK 921   NORMALIZED FREE ENERGY PREDICTED BY IDOCK:   -3.24 KCAL/MOL
REMARK 922        TOTAL FREE ENERGY PREDICTED BY IDOCK:   -4.97 KCAL/MOL
REMARK 923 INTER-LIGAND FREE ENERGY PREDICTED BY IDOCK:   -4.33 KCAL/MOL
REMARK 924 INTRA-LIGAND FREE ENERGY PREDICTED BY IDOCK:   -0.63 KCAL/MOL
REMARK 927      BINDING AFFINITY PREDICTED BY RF-SCORE:    0.00 PKD
ROOT
HETATM    1  C   UNL     1     -11.881  13.971  68.395  1.00  0.00    -0.397 C  
HETATM    2  C   UNL     1     -11.900  12.673  67.608  1.00  0.00    -0.390 C  
ENDROOT
BRANCH   2   3
HETATM    3  C   UNL     1     -11.991  11.462  68.532  1.00  0.00    -0.295 C  
BRANCH   3   4
HETATM    4  C   UNL     1     -10.668  10.742  68.591  1.00  0.00    -0.208 C  
HETATM    5  O   UNL     1      -9.631  11.339  68.879  1.00  0.00    -0.183 OA 
HETATM    6  N   UNL     1     -10.769   9.373  68.374  1.00  0.00    -0.371 N  
HETATM    7  H   UNL     1     -11.674   8.968  68.135  1.00  0.00     0.000 HD 
BRANCH   6   8
HETATM    8  C   UNL     1      -9.632   8.528  68.481  1.00  0.00    -0.151 A  
HETATM    9  C   UNL     1      -8.797   8.373  67.370  1.00  0.00    -0.134 A  
HETATM   10  C   UNL     1      -7.745   7.459  67.405  1.00  0.00    -0.114 A  
HETATM   11  I   UNL     1      -9.092   9.437  65.582  1.00  0.00    -0.293 I  
HETATM   12  C   UNL     1      -7.563   6.630  68.522  1.00  0.00    -0.097 A  
HETATM   13  C   UNL     1      -8.401   6.728  69.653  1.00  0.00    -0.132 A  
HETATM   14  I   UNL     1      -5.894   5.337  68.391  1.00  0.00    -0.019 I  
HETATM   15  C   UNL     1      -9.338   7.792  69.653  1.00  0.00    -0.153 A  
HETATM   16  I   UNL     1      -9.936   8.665  71.563  1.00  0.00    -0.405 I  
BRANCH  13  17
HETATM   17  C   UNL     1      -8.349   5.724  70.794  1.00  0.00    -0.124 C  
HETATM   18  C   UNL     1      -9.566   4.765  70.907  1.00  0.00    -0.245 C  
HETATM   19  C   UNL     1      -9.360   3.837  72.096  1.00  0.00    -0.125 C  
HETATM   20  C   UNL     1      -9.911   3.949  69.648  1.00  0.00    -0.106 C  
HETATM   21  C   UNL     1      -8.813   3.028  69.139  1.00  0.00    -0.155 C  
HETATM   22  O   UNL     1      -8.271   3.517  72.549  1.00  0.00    -0.077 OA 
HETATM   23  O   UNL     1     -10.516   3.371  72.618  1.00  0.00    -0.158 OA 
ENDBRANCH  13  17
ENDBRANCH   6   8
ENDBRANCH   3   4
ENDBRANCH   2   3
TORSDOF 4
ENDMDL
MODEL      101
REMARK 921   NORMALIZED FREE ENERGY PREDICTED BY IDOCK:   -3.24 KCAL/MOL
REMARK 922        TOTAL FREE ENERGY PREDICTED BY IDOCK:   -4.96 KCAL/MOL
REMARK 923 INTER-LIGAND FREE ENERGY PREDICTED BY IDOCK:   -5.23 KCAL/MOL
REMARK 924 INTRA-LIGAND FREE ENERGY PREDICTED BY IDOCK:    0.26 KCAL/MOL
REMARK 927      BINDING AFFINITY PREDICTED BY RF-SCORE:    0.00 PKD
ROOT
HETATM    1  C   UNL     1     -10.146  17.167  66.494  1.00  0.00    -0.313 C  
HETATM    2  C   UNL     1     -10.681  15.749  66.570  1.00  0.00    -0.283 C  
ENDROOT
BRANCH   2   3
HETATM    3  C   UNL     1      -9.602  14.725  66.232  1.00  0.00    -0.339 C  
BRANCH   3   4
HETATM    4  C   UNL     1      -9.260  13.899  67.446  1.00  0.00    -0.224 C  
HETATM    5  O   UNL     1      -9.437  14.335  68.583  1.00  0.00    -0.204 OA 
HETATM    6  N   UNL     1      -8.822  12.615  67.141  1.00  0.00    -0.197 N  
HETATM    7  H   UNL     1      -8.701  12.345  66.165  1.00  0.00     0.000 HD 
BRANCH   6   8
HETATM    8  C   UNL     1      -8.541  11.674  68.167  1.00  0.00    -0.158 A  
HETATM    9  C   UNL     1      -7.265  11.655  68.738  1.00  0.00    -0.116 A  
HETATM   10  C   UNL     1      -6.923  10.665  69.659  1.00  0.00    -0.134 A  
HETATM   11  I   UNL     1      -5.780  13.048  68.221  1.00  0.00    -0.115 I  
HETATM   12  C   UNL     1      -7.825   9.634  69.959  1.00  0.00    -0.165 A  
HETATM   13  C   UNL     1      -9.112   9.594  69.382  1.00  0.00    -0.194 A  
HETATM   14  I   UNL     1      -7.127   8.253  71.401  1.00  0.00    -0.097 I  
HETATM   15  C   UNL     1      -9.487  10.714  68.599  1.00  0.00    -0.176 A  
HETATM   16  I   UNL     1     -11.597  11.270  68.504  1.00  0.00    -0.301 I  
BRANCH  13  17
HETATM   17  C   UNL     1     -10.037   8.397  69.541  1.00  0.00    -0.200 C  
HETATM   18  C   UNL     1     -10.344   7.970  71.003  1.00  0.00    -0.228 C  
HETATM   19  C   UNL     1     -11.271   6.762  70.984  1.00  0.00    -0.290 C  
HETATM   20  C   UNL     1     -10.912   9.062  71.928  1.00  0.00    -0.423 C  
HETATM   21  C   UNL     1     -12.226   9.683  71.484  1.00  0.00    -0.483 C  
HETATM   22  O   UNL     1     -12.050   6.496  70.082  1.00  0.00    -0.323 OA 
HETATM   23  O   UNL     1     -11.168   5.991  72.090  1.00  0.00    -0.263 OA 
ENDBRANCH  13  17
ENDBRANCH   6   8
ENDBRANCH   3   4
ENDBRANCH   2   3
TORSDOF 4
ENDMDL
MODEL      102
REMARK 921   NORMALIZED FREE ENERGY PREDICTED BY IDOCK:   -3.24 KCAL/MOL
REMARK 922        TOTAL FREE ENERGY PREDICTED BY IDOCK:   -4.96 KCAL/MOL
REMARK 923 INTER-LIGAND FREE ENERGY PREDICTED BY IDOCK:   -4.97 KCAL/MOL
REMARK 924 INTRA-LIGAND FREE ENERGY PREDICTED BY IDOCK:    0.01 KCAL/MOL
REMARK 927      BINDING AFFINITY PREDICTED BY RF-SCORE:    0.00 PKD
ROOT
HETATM    1  C   UNL     1     -12.996  15.400  72.901  1.00  0.00    -0.577 C  
HETATM    2  C   UNL     1     -13.678  15.133  71.572  1.00  0.00    -0.582 C  
ENDROOT
BRANCH   2   3
HETATM    3  C   UNL     1     -12.781  15.513  70.398  1.00  0.00    -0.382 C  
BRANCH   3   4
HETATM    4  C   UNL     1     -11.821  14.394  70.082  1.00  0.00    -0.314 C  
HETATM    5  O   UNL     1     -10.613  14.516  70.285  1.00  0.00     0.091 OA 
HETATM    6  N   UNL     1     -12.444  13.235  69.636  1.00  0.00    -0.073 N  
HETATM    7  H   UNL     1     -13.454  13.231  69.493  1.00  0.00     0.000 HD 
BRANCH   6   8
HETATM    8  C   UNL     1     -11.697  12.055  69.377  1.00  0.00    -0.340 A  
HETATM    9  C   UNL     1     -11.864  10.950  70.218  1.00  0.00    -0.361 A  
HETATM   10  C   UNL     1     -11.058   9.823  70.063  1.00  0.00    -0.311 A  
HETATM   11  I   UNL     1     -13.269  10.925  71.780  1.00  0.00     0.014 I  
HETATM   12  C   UNL     1     -10.020   9.818  69.119  1.00  0.00    -0.189 A  
HETATM   13  C   UNL     1      -9.793  10.923  68.272  1.00  0.00    -0.179 A  
HETATM   14  I   UNL     1      -8.936   8.004  69.021  1.00  0.00    -0.142 I  
HETATM   15  C   UNL     1     -10.747  11.970  68.333  1.00  0.00    -0.229 A  
HETATM   16  I   UNL     1     -11.120  13.156  66.538  1.00  0.00    -0.370 I  
BRANCH  13  17
HETATM   17  C   UNL     1      -8.569  11.022  67.375  1.00  0.00    -0.132 C  
HETATM   18  C   UNL     1      -8.340   9.827  66.410  1.00  0.00    -0.120 C  
HETATM   19  C   UNL     1      -7.079  10.079  65.595  1.00  0.00    -0.119 C  
HETATM   20  C   UNL     1      -9.512   9.469  65.477  1.00  0.00    -0.334 C  
HETATM   21  C   UNL     1      -9.964  10.573  64.534  1.00  0.00    -0.413 C  
HETATM   22  O   UNL     1      -6.627  11.184  65.336  1.00  0.00     0.161 OA 
HETATM   23  O   UNL     1      -6.489   8.944  65.157  1.00  0.00    -0.063 OA 
ENDBRANCH  13  17
ENDBRANCH   6   8
ENDBRANCH   3   4
ENDBRANCH   2   3
TORSDOF 4
ENDMDL
MODEL      103
REMARK 921   NORMALIZED FREE ENERGY PREDICTED BY IDOCK:   -3.22 KCAL/MOL
REMARK 922        TOTAL FREE ENERGY PREDICTED BY IDOCK:   -4.94 KCAL/MOL
REMARK 923 INTER-LIGAND FREE ENERGY PREDICTED BY IDOCK:   -4.21 KCAL/MOL
REMARK 924 INTRA-LIGAND FREE ENERGY PREDICTED BY IDOCK:   -0.73 KCAL/MOL
REMARK 927      BINDING AFFINITY PREDICTED BY RF-SCORE:    0.00 PKD
ROOT
HETATM    1  C   UNL     1      -8.275  15.654  69.220  1.00  0.00    -0.253 C  
HETATM    2  C   UNL     1      -7.365  14.443  69.321  1.00  0.00    -0.088 C  
ENDROOT
BRANCH   2   3
HETATM    3  C   UNL     1      -6.995  13.907  67.941  1.00  0.00    -0.165 C  
BRANCH   3   4
HETATM    4  C   UNL     1      -7.500  12.497  67.769  1.00  0.00    -0.130 C  
HETATM    5  O   UNL     1      -7.181  11.822  66.790  1.00  0.00    -0.128 OA 
HETATM    6  N   UNL     1      -8.261  12.042  68.840  1.00  0.00    -0.356 N  
HETATM    7  H   UNL     1      -8.477  12.678  69.607  1.00  0.00     0.000 HD 
BRANCH   6   8
HETATM    8  C   UNL     1      -8.741  10.706  68.882  1.00  0.00    -0.161 A  
HETATM    9  C   UNL     1      -9.952  10.402  68.253  1.00  0.00    -0.151 A  
HETATM   10  C   UNL     1     -10.509   9.130  68.381  1.00  0.00    -0.241 A  
HETATM   11  I   UNL     1     -11.031  11.820  67.141  1.00  0.00    -0.385 I  
HETATM   12  C   UNL     1      -9.903   8.171  69.207  1.00  0.00    -0.182 A  
HETATM   13  C   UNL     1      -8.698   8.444  69.888  1.00  0.00    -0.136 A  
HETATM   14  I   UNL     1     -10.886   6.298  69.240  1.00  0.00    -0.432 I  
HETATM   15  C   UNL     1      -8.070   9.678  69.586  1.00  0.00    -0.141 A  
HETATM   16  I   UNL     1      -5.894   9.808  69.717  1.00  0.00    -0.051 I  
BRANCH  13  17
HETATM   17  C   UNL     1      -8.121   7.499  70.930  1.00  0.00    -0.104 C  
HETATM   18  C   UNL     1      -8.162   8.005  72.398  1.00  0.00    -0.193 C  
HETATM   19  C   UNL     1      -7.543   6.951  73.306  1.00  0.00    -0.084 C  
HETATM   20  C   UNL     1      -9.542   8.426  72.936  1.00  0.00    -0.269 C  
HETATM   21  C   UNL     1     -10.609   7.342  72.930  1.00  0.00    -0.370 C  
HETATM   22  O   UNL     1      -7.508   5.755  73.060  1.00  0.00    -0.093 OA 
HETATM   23  O   UNL     1      -7.031   7.463  74.448  1.00  0.00    -0.094 OA 
ENDBRANCH  13  17
ENDBRANCH   6   8
ENDBRANCH   3   4
ENDBRANCH   2   3
TORSDOF 4
ENDMDL
MODEL      104
REMARK 921   NORMALIZED FREE ENERGY PREDICTED BY IDOCK:   -3.21 KCAL/MOL
REMARK 922        TOTAL FREE ENERGY PREDICTED BY IDOCK:   -4.93 KCAL/MOL
REMARK 923 INTER-LIGAND FREE ENERGY PREDICTED BY IDOCK:   -3.94 KCAL/MOL
REMARK 924 INTRA-LIGAND FREE ENERGY PREDICTED BY IDOCK:   -0.99 KCAL/MOL
REMARK 927      BINDING AFFINITY PREDICTED BY RF-SCORE:    0.00 PKD
ROOT
HETATM    1  C   UNL     1     -10.723  11.348  63.636  1.00  0.00    -0.470 C  
HETATM    2  C   UNL     1      -9.959  10.382  64.522  1.00  0.00    -0.401 C  
ENDROOT
BRANCH   2   3
HETATM    3  C   UNL     1     -10.498  10.389  65.950  1.00  0.00    -0.196 C  
BRANCH   3   4
HETATM    4  C   UNL     1     -10.003   9.183  66.707  1.00  0.00    -0.254 C  
HETATM    5  O   UNL     1     -10.784   8.319  67.106  1.00  0.00    -0.302 OA 
HETATM    6  N   UNL     1      -8.620   9.125  66.822  1.00  0.00    -0.125 N  
HETATM    7  H   UNL     1      -8.054   9.895  66.464  1.00  0.00     0.000 HD 
BRANCH   6   8
HETATM    8  C   UNL     1      -7.981   8.011  67.429  1.00  0.00    -0.122 A  
HETATM    9  C   UNL     1      -7.471   6.996  66.614  1.00  0.00    -0.081 A  
HETATM   10  C   UNL     1      -6.948   5.836  67.183  1.00  0.00    -0.065 A  
HETATM   11  I   UNL     1      -7.505   7.112  64.517  1.00  0.00    -0.116 I  
HETATM   12  C   UNL     1      -7.003   5.640  68.571  1.00  0.00    -0.064 A  
HETATM   13  C   UNL     1      -7.539   6.622  69.430  1.00  0.00    -0.096 A  
HETATM   14  I   UNL     1      -6.131   3.831  69.235  1.00  0.00    -0.029 I  
HETATM   15  C   UNL     1      -7.888   7.859  68.833  1.00  0.00    -0.117 A  
HETATM   16  I   UNL     1      -7.754   9.680  70.032  1.00  0.00    -0.181 I  
BRANCH  13  17
HETATM   17  C   UNL     1      -7.784   6.364  70.909  1.00  0.00    -0.101 C  
HETATM   18  C   UNL     1      -9.272   6.320  71.351  1.00  0.00    -0.153 C  
HETATM   19  C   UNL     1      -9.340   6.062  72.849  1.00  0.00    -0.147 C  
HETATM   20  C   UNL     1     -10.179   5.328  70.598  1.00  0.00    -0.327 C  
HETATM   21  C   UNL     1      -9.767   3.867  70.683  1.00  0.00    -0.248 C  
HETATM   22  O   UNL     1      -8.482   5.479  73.495  1.00  0.00    -0.113 OA 
HETATM   23  O   UNL     1     -10.469   6.534  73.423  1.00  0.00    -0.231 OA 
ENDBRANCH  13  17
ENDBRANCH   6   8
ENDBRANCH   3   4
ENDBRANCH   2   3
TORSDOF 4
ENDMDL
MODEL      105
REMARK 921   NORMALIZED FREE ENERGY PREDICTED BY IDOCK:   -3.16 KCAL/MOL
REMARK 922        TOTAL FREE ENERGY PREDICTED BY IDOCK:   -4.87 KCAL/MOL
REMARK 923 INTER-LIGAND FREE ENERGY PREDICTED BY IDOCK:   -3.98 KCAL/MOL
REMARK 924 INTRA-LIGAND FREE ENERGY PREDICTED BY IDOCK:   -0.89 KCAL/MOL
REMARK 927      BINDING AFFINITY PREDICTED BY RF-SCORE:    0.00 PKD
ROOT
HETATM    1  C   UNL     1      -9.921  10.600  63.975  1.00  0.00    -0.401 C  
HETATM    2  C   UNL     1      -9.815  10.018  65.374  1.00  0.00    -0.384 C  
ENDROOT
BRANCH   2   3
HETATM    3  C   UNL     1      -8.852   8.836  65.415  1.00  0.00    -0.221 C  
BRANCH   3   4
HETATM    4  C   UNL     1      -9.137   7.965  66.613  1.00  0.00    -0.163 C  
HETATM    5  O   UNL     1     -10.143   8.138  67.300  1.00  0.00    -0.192 OA 
HETATM    6  N   UNL     1      -8.216   6.939  66.788  1.00  0.00    -0.112 N  
HETATM    7  H   UNL     1      -7.408   6.879  66.168  1.00  0.00     0.000 HD 
BRANCH   6   8
HETATM    8  C   UNL     1      -8.382   5.972  67.815  1.00  0.00    -0.112 A  
HETATM    9  C   UNL     1      -9.086   4.798  67.531  1.00  0.00    -0.118 A  
HETATM   10  C   UNL     1      -9.369   3.887  68.548  1.00  0.00    -0.224 A  
HETATM   11  I   UNL     1      -9.803   4.351  65.608  1.00  0.00    -0.201 I  
HETATM   12  C   UNL     1      -9.025   4.179  69.877  1.00  0.00    -0.099 A  
HETATM   13  C   UNL     1      -8.345   5.367  70.215  1.00  0.00    -0.112 A  
HETATM   14  I   UNL     1      -9.515   2.656  71.262  1.00  0.00    -0.161 I  
HETATM   15  C   UNL     1      -7.912   6.175  69.133  1.00  0.00    -0.108 A  
HETATM   16  I   UNL     1      -6.109   7.383  69.381  1.00  0.00    -0.032 I  
BRANCH  13  17
HETATM   17  C   UNL     1      -8.126   5.797  71.657  1.00  0.00    -0.118 C  
HETATM   18  C   UNL     1      -8.873   7.085  72.099  1.00  0.00    -0.138 C  
HETATM   19  C   UNL     1      -8.543   7.377  73.556  1.00  0.00    -0.161 C  
HETATM   20  C   UNL     1     -10.399   7.095  71.888  1.00  0.00    -0.212 C  
HETATM   21  C   UNL     1     -11.171   6.002  72.609  1.00  0.00    -0.326 C  
HETATM   22  O   UNL     1      -8.215   6.535  74.378  1.00  0.00    -0.122 OA 
HETATM   23  O   UNL     1      -8.660   8.685  73.879  1.00  0.00    -0.261 OA 
ENDBRANCH  13  17
ENDBRANCH   6   8
ENDBRANCH   3   4
ENDBRANCH   2   3
TORSDOF 4
ENDMDL
MODEL      106
REMARK 921   NORMALIZED FREE ENERGY PREDICTED BY IDOCK:   -3.16 KCAL/MOL
REMARK 922        TOTAL FREE ENERGY PREDICTED BY IDOCK:   -4.87 KCAL/MOL
REMARK 923 INTER-LIGAND FREE ENERGY PREDICTED BY IDOCK:   -5.07 KCAL/MOL
REMARK 924 INTRA-LIGAND FREE ENERGY PREDICTED BY IDOCK:    0.20 KCAL/MOL
REMARK 927      BINDING AFFINITY PREDICTED BY RF-SCORE:    0.00 PKD
ROOT
HETATM    1  C   UNL     1     -10.103   8.417  69.517  1.00  0.00    -0.200 C  
HETATM    2  C   UNL     1     -10.462   8.882  68.117  1.00  0.00    -0.254 C  
ENDROOT
BRANCH   2   3
HETATM    3  C   UNL     1     -11.166  10.235  68.141  1.00  0.00    -0.294 C  
BRANCH   3   4
HETATM    4  C   UNL     1     -10.261  11.311  67.598  1.00  0.00    -0.181 C  
HETATM    5  O   UNL     1     -10.176  11.518  66.387  1.00  0.00    -0.212 OA 
HETATM    6  N   UNL     1      -9.632  12.061  68.584  1.00  0.00    -0.375 N  
HETATM    7  H   UNL     1      -9.760  11.810  69.564  1.00  0.00     0.000 HD 
BRANCH   6   8
HETATM    8  C   UNL     1      -8.813  13.172  68.248  1.00  0.00    -0.175 A  
HETATM    9  C   UNL     1      -7.472  12.950  67.920  1.00  0.00    -0.131 A  
HETATM   10  C   UNL     1      -6.615  14.029  67.705  1.00  0.00    -0.188 A  
HETATM   11  I   UNL     1      -6.650  11.022  67.784  1.00  0.00    -0.072 I  
HETATM   12  C   UNL     1      -7.068  15.343  67.897  1.00  0.00    -0.140 A  
HETATM   13  C   UNL     1      -8.403  15.614  68.261  1.00  0.00    -0.154 A  
HETATM   14  I   UNL     1      -5.623  16.834  67.491  1.00  0.00    -0.202 I  
HETATM   15  C   UNL     1      -9.286  14.505  68.287  1.00  0.00    -0.203 A  
HETATM   16  I   UNL     1     -11.398  14.834  67.839  1.00  0.00    -0.355 I  
BRANCH  13  17
HETATM   17  C   UNL     1      -8.873  17.005  68.657  1.00  0.00    -0.267 C  
HETATM   18  C   UNL     1      -8.542  18.142  67.650  1.00  0.00    -0.252 C  
HETATM   19  C   UNL     1      -9.070  19.460  68.197  1.00  0.00    -0.333 C  
HETATM   20  C   UNL     1      -9.026  17.934  66.203  1.00  0.00    -0.122 C  
HETATM   21  C   UNL     1     -10.527  17.766  66.029  1.00  0.00    -0.286 C  
HETATM   22  O   UNL     1     -10.011  19.567  68.969  1.00  0.00    -0.442 OA 
HETATM   23  O   UNL     1      -8.400  20.539  67.733  1.00  0.00    -0.229 OA 
ENDBRANCH  13  17
ENDBRANCH   6   8
ENDBRANCH   3   4
ENDBRANCH   2   3
TORSDOF 4
ENDMDL
MODEL      107
REMARK 921   NORMALIZED FREE ENERGY PREDICTED BY IDOCK:   -3.15 KCAL/MOL
REMARK 922        TOTAL FREE ENERGY PREDICTED BY IDOCK:   -4.85 KCAL/MOL
REMARK 923 INTER-LIGAND FREE ENERGY PREDICTED BY IDOCK:   -5.09 KCAL/MOL
REMARK 924 INTRA-LIGAND FREE ENERGY PREDICTED BY IDOCK:    0.24 KCAL/MOL
REMARK 927      BINDING AFFINITY PREDICTED BY RF-SCORE:    0.00 PKD
ROOT
HETATM    1  C   UNL     1     -10.823   6.340  67.799  1.00  0.00    -0.424 C  
HETATM    2  C   UNL     1     -10.498   7.570  66.972  1.00  0.00    -0.409 C  
ENDROOT
BRANCH   2   3
HETATM    3  C   UNL     1      -9.016   7.629  66.618  1.00  0.00    -0.181 C  
BRANCH   3   4
HETATM    4  C   UNL     1      -8.584   9.055  66.384  1.00  0.00    -0.125 C  
HETATM    5  O   UNL     1      -8.511   9.518  65.246  1.00  0.00    -0.133 OA 
HETATM    6  N   UNL     1      -8.373   9.773  67.555  1.00  0.00    -0.114 N  
HETATM    7  H   UNL     1      -8.453   9.300  68.455  1.00  0.00     0.000 HD 
BRANCH   6   8
HETATM    8  C   UNL     1      -8.048  11.155  67.518  1.00  0.00    -0.119 A  
HETATM    9  C   UNL     1      -6.705  11.532  67.425  1.00  0.00    -0.101 A  
HETATM   10  C   UNL     1      -6.347  12.877  67.509  1.00  0.00    -0.161 A  
HETATM   11  I   UNL     1      -5.154  10.132  67.213  1.00  0.00    -0.041 I  
HETATM   12  C   UNL     1      -7.319  13.855  67.770  1.00  0.00    -0.162 A  
HETATM   13  C   UNL     1      -8.681  13.517  67.905  1.00  0.00    -0.183 A  
HETATM   14  I   UNL     1      -6.575  15.834  67.829  1.00  0.00    -0.220 I  
HETATM   15  C   UNL     1      -9.027  12.170  67.629  1.00  0.00    -0.178 A  
HETATM   16  I   UNL     1     -11.014  11.739  66.832  1.00  0.00    -0.374 I  
BRANCH  13  17
HETATM   17  C   UNL     1      -9.726  14.520  68.371  1.00  0.00    -0.224 C  
HETATM   18  C   UNL     1      -9.815  15.834  67.548  1.00  0.00    -0.229 C  
HETATM   19  C   UNL     1     -10.895  16.724  68.146  1.00  0.00    -0.353 C  
HETATM   20  C   UNL     1     -10.034  15.677  66.032  1.00  0.00    -0.359 C  
HETATM   21  C   UNL     1     -11.304  14.946  65.623  1.00  0.00    -0.325 C  
HETATM   22  O   UNL     1     -11.859  16.320  68.779  1.00  0.00    -0.278 OA 
HETATM   23  O   UNL     1     -10.702  18.040  67.900  1.00  0.00    -0.395 OA 
ENDBRANCH  13  17
ENDBRANCH   6   8
ENDBRANCH   3   4
ENDBRANCH   2   3
TORSDOF 4
ENDMDL
MODEL      108
REMARK 921   NORMALIZED FREE ENERGY PREDICTED BY IDOCK:   -3.14 KCAL/MOL
REMARK 922        TOTAL FREE ENERGY PREDICTED BY IDOCK:   -4.84 KCAL/MOL
REMARK 923 INTER-LIGAND FREE ENERGY PREDICTED BY IDOCK:   -4.27 KCAL/MOL
REMARK 924 INTRA-LIGAND FREE ENERGY PREDICTED BY IDOCK:   -0.57 KCAL/MOL
REMARK 927      BINDING AFFINITY PREDICTED BY RF-SCORE:    0.00 PKD
ROOT
HETATM    1  C   UNL     1      -9.663  19.449  66.431  1.00  0.00    -0.460 C  
HETATM    2  C   UNL     1     -10.649  18.308  66.600  1.00  0.00    -0.324 C  
ENDROOT
BRANCH   2   3
HETATM    3  C   UNL     1     -10.228  17.082  65.794  1.00  0.00    -0.262 C  
BRANCH   3   4
HETATM    4  C   UNL     1      -9.937  15.922  66.711  1.00  0.00    -0.248 C  
HETATM    5  O   UNL     1     -10.624  15.714  67.712  1.00  0.00    -0.267 OA 
HETATM    6  N   UNL     1      -8.904  15.105  66.267  1.00  0.00    -0.459 N  
HETATM    7  H   UNL     1      -8.387  15.363  65.426  1.00  0.00     0.000 HD 
BRANCH   6   8
HETATM    8  C   UNL     1      -8.557  13.918  66.964  1.00  0.00    -0.172 A  
HETATM    9  C   UNL     1      -7.761  14.014  68.110  1.00  0.00    -0.143 A  
HETATM   10  C   UNL     1      -7.303  12.860  68.745  1.00  0.00    -0.066 A  
HETATM   11  I   UNL     1      -7.159  15.860  68.911  1.00  0.00    -0.183 I  
HETATM   12  C   UNL     1      -7.568  11.596  68.196  1.00  0.00    -0.115 A  
HETATM   13  C   UNL     1      -8.338  11.453  67.022  1.00  0.00    -0.161 A  
HETATM   14  I   UNL     1      -6.814   9.975  69.326  1.00  0.00    -0.089 I  
HETATM   15  C   UNL     1      -8.938  12.632  66.514  1.00  0.00    -0.112 A  
HETATM   16  I   UNL     1     -10.829  12.467  65.435  1.00  0.00    -0.368 I  
BRANCH  13  17
HETATM   17  C   UNL     1      -8.483  10.120  66.303  1.00  0.00    -0.132 C  
HETATM   18  C   UNL     1      -7.799  10.026  64.911  1.00  0.00    -0.141 C  
HETATM   19  C   UNL     1      -8.044   8.641  64.329  1.00  0.00    -0.158 C  
HETATM   20  C   UNL     1      -6.297  10.364  64.865  1.00  0.00    -0.086 C  
HETATM   21  C   UNL     1      -5.400   9.496  65.734  1.00  0.00    -0.039 C  
HETATM   22  O   UNL     1      -8.253   7.635  64.989  1.00  0.00    -0.137 OA 
HETATM   23  O   UNL     1      -7.997   8.613  62.978  1.00  0.00    -0.145 OA 
ENDBRANCH  13  17
ENDBRANCH   6   8
ENDBRANCH   3   4
ENDBRANCH   2   3
TORSDOF 4
ENDMDL
MODEL      109
REMARK 921   NORMALIZED FREE ENERGY PREDICTED BY IDOCK:   -3.13 KCAL/MOL
REMARK 922        TOTAL FREE ENERGY PREDICTED BY IDOCK:   -4.83 KCAL/MOL
REMARK 923 INTER-LIGAND FREE ENERGY PREDICTED BY IDOCK:   -5.04 KCAL/MOL
REMARK 924 INTRA-LIGAND FREE ENERGY PREDICTED BY IDOCK:    0.21 KCAL/MOL
REMARK 927      BINDING AFFINITY PREDICTED BY RF-SCORE:    0.00 PKD
ROOT
HETATM    1  C   UNL     1      -5.211  14.177  73.092  1.00  0.00    -0.314 C  
HETATM    2  C   UNL     1      -5.626  14.304  71.638  1.00  0.00    -0.190 C  
ENDROOT
BRANCH   2   3
HETATM    3  C   UNL     1      -5.131  13.122  70.810  1.00  0.00    -0.128 C  
BRANCH   3   4
HETATM    4  C   UNL     1      -5.892  13.030  69.512  1.00  0.00    -0.103 C  
HETATM    5  O   UNL     1      -5.435  13.503  68.472  1.00  0.00    -0.079 OA 
HETATM    6  N   UNL     1      -7.075  12.307  69.610  1.00  0.00    -0.325 N  
HETATM    7  H   UNL     1      -7.376  11.957  70.520  1.00  0.00     0.000 HD 
BRANCH   6   8
HETATM    8  C   UNL     1      -7.872  12.047  68.463  1.00  0.00    -0.129 A  
HETATM    9  C   UNL     1      -7.835  10.773  67.888  1.00  0.00    -0.109 A  
HETATM   10  C   UNL     1      -8.510  10.523  66.693  1.00  0.00    -0.129 A  
HETATM   11  I   UNL     1      -6.739   9.190  68.727  1.00  0.00    -0.053 I  
HETATM   12  C   UNL     1      -9.162  11.564  66.017  1.00  0.00    -0.217 A  
HETATM   13  C   UNL     1      -9.197  12.873  66.542  1.00  0.00    -0.186 A  
HETATM   14  I   UNL     1     -10.150  10.971  64.242  1.00  0.00    -0.438 I  
HETATM   15  C   UNL     1      -8.661  13.044  67.843  1.00  0.00    -0.189 A  
HETATM   16  I   UNL     1      -9.491  14.607  69.123  1.00  0.00     0.175 I  
BRANCH  13  17
HETATM   17  C   UNL     1      -9.730  14.055  65.747  1.00  0.00    -0.222 C  
HETATM   18  C   UNL     1     -11.225  13.972  65.333  1.00  0.00    -0.319 C  
HETATM   19  C   UNL     1     -11.594  15.220  64.544  1.00  0.00    -0.312 C  
HETATM   20  C   UNL     1     -12.237  13.744  66.471  1.00  0.00    -0.475 C  
HETATM   21  C   UNL     1     -12.255  14.808  67.558  1.00  0.00     0.013 C  
HETATM   22  O   UNL     1     -11.038  16.302  64.653  1.00  0.00    -0.634 OA 
HETATM   23  O   UNL     1     -12.628  15.030  63.694  1.00  0.00    -0.680 OA 
ENDBRANCH  13  17
ENDBRANCH   6   8
ENDBRANCH   3   4
ENDBRANCH   2   3
TORSDOF 4
ENDMDL
MODEL      110
REMARK 921   NORMALIZED FREE ENERGY PREDICTED BY IDOCK:   -3.13 KCAL/MOL
REMARK 922        TOTAL FREE ENERGY PREDICTED BY IDOCK:   -4.83 KCAL/MOL
REMARK 923 INTER-LIGAND FREE ENERGY PREDICTED BY IDOCK:   -4.10 KCAL/MOL
REMARK 924 INTRA-LIGAND FREE ENERGY PREDICTED BY IDOCK:   -0.73 KCAL/MOL
REMARK 927      BINDING AFFINITY PREDICTED BY RF-SCORE:    0.00 PKD
ROOT
HETATM    1  C   UNL     1     -10.643   3.679  63.550  1.00  0.00    -0.266 C  
HETATM    2  C   UNL     1     -10.004   3.899  64.909  1.00  0.00    -0.198 C  
ENDROOT
BRANCH   2   3
HETATM    3  C   UNL     1      -8.529   4.266  64.780  1.00  0.00    -0.119 C  
BRANCH   3   4
HETATM    4  C   UNL     1      -8.115   5.190  65.896  1.00  0.00    -0.109 C  
HETATM    5  O   UNL     1      -7.468   6.212  65.668  1.00  0.00    -0.078 OA 
HETATM    6  N   UNL     1      -8.600   4.812  67.142  1.00  0.00    -0.105 N  
HETATM    7  H   UNL     1      -9.125   3.942  67.234  1.00  0.00     0.000 HD 
BRANCH   6   8
HETATM    8  C   UNL     1      -8.379   5.619  68.290  1.00  0.00    -0.102 A  
HETATM    9  C   UNL     1      -7.202   5.441  69.025  1.00  0.00    -0.062 A  
HETATM   10  C   UNL     1      -7.013   6.131  70.222  1.00  0.00    -0.065 A  
HETATM   11  I   UNL     1      -5.691   4.111  68.427  1.00  0.00    -0.028 I  
HETATM   12  C   UNL     1      -8.031   6.944  70.741  1.00  0.00    -0.106 A  
HETATM   13  C   UNL     1      -9.248   7.126  70.051  1.00  0.00    -0.144 A  
HETATM   14  I   UNL     1      -7.534   7.924  72.548  1.00  0.00    -0.161 I  
HETATM   15  C   UNL     1      -9.328   6.559  68.755  1.00  0.00    -0.130 A  
HETATM   16  I   UNL     1     -10.594   7.528  67.261  1.00  0.00    -0.191 I  
BRANCH  13  17
HETATM   17  C   UNL     1     -10.436   7.845  70.673  1.00  0.00    -0.216 C  
HETATM   18  C   UNL     1     -11.680   6.963  70.968  1.00  0.00    -0.392 C  
HETATM   19  C   UNL     1     -12.773   7.831  71.576  1.00  0.00    -0.332 C  
HETATM   20  C   UNL     1     -11.443   5.717  71.841  1.00  0.00    -0.231 C  
HETATM   21  C   UNL     1     -10.891   5.985  73.233  1.00  0.00    -0.277 C  
HETATM   22  O   UNL     1     -12.576   8.859  72.206  1.00  0.00    -0.377 OA 
HETATM   23  O   UNL     1     -14.018   7.348  71.368  1.00  0.00    -0.411 OA 
ENDBRANCH  13  17
ENDBRANCH   6   8
ENDBRANCH   3   4
ENDBRANCH   2   3
TORSDOF 4
ENDMDL
MODEL      111
REMARK 921   NORMALIZED FREE ENERGY PREDICTED BY IDOCK:   -3.13 KCAL/MOL
REMARK 922        TOTAL FREE ENERGY PREDICTED BY IDOCK:   -4.82 KCAL/MOL
REMARK 923 INTER-LIGAND FREE ENERGY PREDICTED BY IDOCK:   -4.16 KCAL/MOL
REMARK 924 INTRA-LIGAND FREE ENERGY PREDICTED BY IDOCK:   -0.66 KCAL/MOL
REMARK 927      BINDING AFFINITY PREDICTED BY RF-SCORE:    0.00 PKD
ROOT
HETATM    1  C   UNL     1     -12.383  12.105  63.476  1.00  0.00    -0.682 C  
HETATM    2  C   UNL     1     -10.980  12.232  64.040  1.00  0.00    -0.438 C  
ENDROOT
BRANCH   2   3
HETATM    3  C   UNL     1     -10.895  11.669  65.455  1.00  0.00    -0.334 C  
BRANCH   3   4
HETATM    4  C   UNL     1      -9.661  10.817  65.612  1.00  0.00    -0.237 C  
HETATM    5  O   UNL     1      -8.570  11.321  65.878  1.00  0.00    -0.167 OA 
HETATM    6  N   UNL     1      -9.908   9.453  65.510  1.00  0.00    -0.431 N  
HETATM    7  H   UNL     1     -10.848   9.130  65.281  1.00  0.00     0.000 HD 
BRANCH   6   8
HETATM    8  C   UNL     1      -8.874   8.503  65.720  1.00  0.00    -0.190 A  
HETATM    9  C   UNL     1      -8.104   8.088  64.628  1.00  0.00    -0.140 A  
HETATM   10  C   UNL     1      -7.165   7.069  64.780  1.00  0.00    -0.072 A  
HETATM   11  I   UNL     1      -8.339   8.908  62.708  1.00  0.00    -0.110 I  
HETATM   12  C   UNL     1      -7.040   6.396  66.004  1.00  0.00    -0.067 A  
HETATM   13  C   UNL     1      -7.819   6.758  67.123  1.00  0.00    -0.112 A  
HETATM   14  I   UNL     1      -5.538   4.906  66.036  1.00  0.00    -0.019 I  
HETATM   15  C   UNL     1      -8.625   7.915  66.982  1.00  0.00    -0.128 A  
HETATM   16  I   UNL     1      -9.048   9.123  68.752  1.00  0.00    -0.138 I  
BRANCH  13  17
HETATM   17  C   UNL     1      -7.842   5.932  68.400  1.00  0.00    -0.105 C  
HETATM   18  C   UNL     1      -9.181   5.211  68.715  1.00  0.00    -0.152 C  
HETATM   19  C   UNL     1      -9.038   4.440  70.020  1.00  0.00    -0.106 C  
HETATM   20  C   UNL     1      -9.736   4.290  67.612  1.00  0.00    -0.186 C  
HETATM   21  C   UNL     1      -8.832   3.140  67.198  1.00  0.00    -0.155 C  
HETATM   22  O   UNL     1      -7.983   4.014  70.465  1.00  0.00    -0.054 OA 
HETATM   23  O   UNL     1     -10.213   4.248  70.660  1.00  0.00    -0.140 OA 
ENDBRANCH  13  17
ENDBRANCH   6   8
ENDBRANCH   3   4
ENDBRANCH   2   3
TORSDOF 4
ENDMDL
MODEL      112
REMARK 921   NORMALIZED FREE ENERGY PREDICTED BY IDOCK:   -3.12 KCAL/MOL
REMARK 922        TOTAL FREE ENERGY PREDICTED BY IDOCK:   -4.81 KCAL/MOL
REMARK 923 INTER-LIGAND FREE ENERGY PREDICTED BY IDOCK:   -4.90 KCAL/MOL
REMARK 924 INTRA-LIGAND FREE ENERGY PREDICTED BY IDOCK:    0.09 KCAL/MOL
REMARK 927      BINDING AFFINITY PREDICTED BY RF-SCORE:    0.00 PKD
ROOT
HETATM    1  C   UNL     1     -10.464  19.039  67.995  1.00  0.00    -0.436 C  
HETATM    2  C   UNL     1      -9.969  17.795  68.710  1.00  0.00    -0.367 C  
ENDROOT
BRANCH   2   3
HETATM    3  C   UNL     1      -9.786  16.630  67.741  1.00  0.00    -0.252 C  
BRANCH   3   4
HETATM    4  C   UNL     1      -9.768  15.320  68.487  1.00  0.00    -0.211 C  
HETATM    5  O   UNL     1      -9.004  15.139  69.435  1.00  0.00    -0.225 OA 
HETATM    6  N   UNL     1     -10.729  14.417  68.051  1.00  0.00    -0.239 N  
HETATM    7  H   UNL     1     -11.315  14.655  67.250  1.00  0.00     0.000 HD 
BRANCH   6   8
HETATM    8  C   UNL     1     -10.909  13.167  68.702  1.00  0.00    -0.259 A  
HETATM    9  C   UNL     1     -11.805  13.085  69.772  1.00  0.00    -0.311 A  
HETATM   10  C   UNL     1     -11.912  11.904  70.507  1.00  0.00    -0.360 A  
HETATM   11  I   UNL     1     -12.988  14.711  70.378  1.00  0.00     0.142 I  
HETATM   12  C   UNL     1     -11.067  10.819  70.233  1.00  0.00    -0.170 A  
HETATM   13  C   UNL     1     -10.125  10.869  69.184  1.00  0.00    -0.198 A  
HETATM   14  I   UNL     1     -11.411   9.115  71.439  1.00  0.00    -0.472 I  
HETATM   15  C   UNL     1     -10.175  12.011  68.346  1.00  0.00    -0.209 A  
HETATM   16  I   UNL     1      -9.575  11.807  66.256  1.00  0.00    -0.250 I  
BRANCH  13  17
HETATM   17  C   UNL     1      -9.073   9.789  68.983  1.00  0.00    -0.157 C  
HETATM   18  C   UNL     1      -9.615   8.347  68.782  1.00  0.00    -0.150 C  
HETATM   19  C   UNL     1      -8.441   7.394  68.604  1.00  0.00    -0.129 C  
HETATM   20  C   UNL     1     -10.634   8.153  67.644  1.00  0.00    -0.258 C  
HETATM   21  C   UNL     1     -10.143   8.518  66.252  1.00  0.00    -0.174 C  
HETATM   22  O   UNL     1      -7.345   7.713  68.170  1.00  0.00    -0.093 OA 
HETATM   23  O   UNL     1      -8.725   6.123  68.966  1.00  0.00    -0.123 OA 
ENDBRANCH  13  17
ENDBRANCH   6   8
ENDBRANCH   3   4
ENDBRANCH   2   3
TORSDOF 4
ENDMDL
MODEL      113
REMARK 921   NORMALIZED FREE ENERGY PREDICTED BY IDOCK:   -3.11 KCAL/MOL
REMARK 922        TOTAL FREE ENERGY PREDICTED BY IDOCK:   -4.80 KCAL/MOL
REMARK 923 INTER-LIGAND FREE ENERGY PREDICTED BY IDOCK:   -4.81 KCAL/MOL
REMARK 924 INTRA-LIGAND FREE ENERGY PREDICTED BY IDOCK:    0.01 KCAL/MOL
REMARK 927      BINDING AFFINITY PREDICTED BY RF-SCORE:    0.00 PKD
ROOT
HETATM    1  C   UNL     1      -9.505  19.920  66.366  1.00  0.00    -0.513 C  
HETATM    2  C   UNL     1      -9.394  18.516  66.932  1.00  0.00    -0.294 C  
ENDROOT
BRANCH   2   3
HETATM    3  C   UNL     1     -10.768  17.881  67.121  1.00  0.00    -0.241 C  
BRANCH   3   4
HETATM    4  C   UNL     1     -10.634  16.410  67.425  1.00  0.00    -0.306 C  
HETATM    5  O   UNL     1     -11.100  15.929  68.458  1.00  0.00    -0.302 OA 
HETATM    6  N   UNL     1     -10.025  15.684  66.409  1.00  0.00    -0.265 N  
HETATM    7  H   UNL     1      -9.664  16.173  65.590  1.00  0.00     0.000 HD 
BRANCH   6   8
HETATM    8  C   UNL     1      -9.897  14.272  66.493  1.00  0.00    -0.288 A  
HETATM    9  C   UNL     1     -10.769  13.469  65.751  1.00  0.00    -0.275 A  
HETATM   10  C   UNL     1     -10.748  12.083  65.906  1.00  0.00    -0.314 A  
HETATM   11  I   UNL     1     -12.184  14.271  64.422  1.00  0.00    -0.155 I  
HETATM   12  C   UNL     1      -9.912  11.489  66.863  1.00  0.00    -0.205 A  
HETATM   13  C   UNL     1      -9.040  12.263  67.657  1.00  0.00    -0.184 A  
HETATM   14  I   UNL     1     -10.007   9.376  66.918  1.00  0.00    -0.328 I  
HETATM   15  C   UNL     1      -8.957  13.642  67.341  1.00  0.00    -0.218 A  
HETATM   16  I   UNL     1      -7.079  14.693  67.713  1.00  0.00    -0.188 I  
BRANCH  13  17
HETATM   17  C   UNL     1      -8.264  11.673  68.825  1.00  0.00    -0.055 C  
HETATM   18  C   UNL     1      -7.375  10.443  68.493  1.00  0.00    -0.086 C  
HETATM   19  C   UNL     1      -6.679   9.974  69.763  1.00  0.00    -0.086 C  
HETATM   20  C   UNL     1      -6.348  10.628  67.361  1.00  0.00    -0.058 C  
HETATM   21  C   UNL     1      -5.321  11.728  67.578  1.00  0.00    -0.076 C  
HETATM   22  O   UNL     1      -6.420  10.689  70.719  1.00  0.00    -0.339 OA 
HETATM   23  O   UNL     1      -6.348   8.664  69.740  1.00  0.00    -0.035 OA 
ENDBRANCH  13  17
ENDBRANCH   6   8
ENDBRANCH   3   4
ENDBRANCH   2   3
TORSDOF 4
ENDMDL
MODEL      114
REMARK 921   NORMALIZED FREE ENERGY PREDICTED BY IDOCK:   -3.10 KCAL/MOL
REMARK 922        TOTAL FREE ENERGY PREDICTED BY IDOCK:   -4.79 KCAL/MOL
REMARK 923 INTER-LIGAND FREE ENERGY PREDICTED BY IDOCK:   -4.11 KCAL/MOL
REMARK 924 INTRA-LIGAND FREE ENERGY PREDICTED BY IDOCK:   -0.68 KCAL/MOL
REMARK 927      BINDING AFFINITY PREDICTED BY RF-SCORE:    0.00 PKD
ROOT
HETATM    1  C   UNL     1      -5.245  17.905  70.898  1.00  0.00    -0.269 C  
HETATM    2  C   UNL     1      -5.332  17.090  69.621  1.00  0.00    -0.167 C  
ENDROOT
BRANCH   2   3
HETATM    3  C   UNL     1      -6.506  17.535  68.754  1.00  0.00    -0.207 C  
BRANCH   3   4
HETATM    4  C   UNL     1      -6.884  16.450  67.778  1.00  0.00    -0.134 C  
HETATM    5  O   UNL     1      -6.327  16.357  66.683  1.00  0.00    -0.291 OA 
HETATM    6  N   UNL     1      -7.829  15.560  68.272  1.00  0.00    -0.125 N  
HETATM    7  H   UNL     1      -8.239  15.722  69.192  1.00  0.00     0.000 HD 
BRANCH   6   8
HETATM    8  C   UNL     1      -8.233  14.426  67.517  1.00  0.00    -0.188 A  
HETATM    9  C   UNL     1      -9.295  14.556  66.617  1.00  0.00    -0.281 A  
HETATM   10  C   UNL     1      -9.793  13.435  65.953  1.00  0.00    -0.251 A  
HETATM   11  I   UNL     1     -10.239  16.396  66.247  1.00  0.00    -0.327 I  
HETATM   12  C   UNL     1      -9.289  12.158  66.242  1.00  0.00    -0.218 A  
HETATM   13  C   UNL     1      -8.240  11.975  67.168  1.00  0.00    -0.181 A  
HETATM   14  I   UNL     1     -10.155  10.598  65.107  1.00  0.00    -0.286 I  
HETATM   15  C   UNL     1      -7.639  13.152  67.680  1.00  0.00    -0.171 A  
HETATM   16  I   UNL     1      -5.531  13.094  68.248  1.00  0.00    -0.117 I  
BRANCH  13  17
HETATM   17  C   UNL     1      -7.803  10.597  67.640  1.00  0.00    -0.105 C  
HETATM   18  C   UNL     1      -8.114  10.260  69.124  1.00  0.00    -0.138 C  
HETATM   19  C   UNL     1      -7.609   8.858  69.433  1.00  0.00    -0.081 C  
HETATM   20  C   UNL     1      -9.584  10.404  69.563  1.00  0.00    -0.182 C  
HETATM   21  C   UNL     1     -10.583   9.539  68.811  1.00  0.00    -0.240 C  
HETATM   22  O   UNL     1      -7.477   7.967  68.607  1.00  0.00    -0.093 OA 
HETATM   23  O   UNL     1      -7.321   8.669  70.740  1.00  0.00    -0.055 OA 
ENDBRANCH  13  17
ENDBRANCH   6   8
ENDBRANCH   3   4
ENDBRANCH   2   3
TORSDOF 4
ENDMDL
MODEL      115
REMARK 921   NORMALIZED FREE ENERGY PREDICTED BY IDOCK:   -3.08 KCAL/MOL
REMARK 922        TOTAL FREE ENERGY PREDICTED BY IDOCK:   -4.77 KCAL/MOL
REMARK 923 INTER-LIGAND FREE ENERGY PREDICTED BY IDOCK:   -4.81 KCAL/MOL
REMARK 924 INTRA-LIGAND FREE ENERGY PREDICTED BY IDOCK:    0.04 KCAL/MOL
REMARK 927      BINDING AFFINITY PREDICTED BY RF-SCORE:    0.00 PKD
ROOT
HETATM    1  C   UNL     1     -12.621  13.796  65.497  1.00  0.00    -0.551 C  
HETATM    2  C   UNL     1     -11.541  12.861  66.013  1.00  0.00    -0.424 C  
ENDROOT
BRANCH   2   3
HETATM    3  C   UNL     1     -11.863  12.357  67.416  1.00  0.00    -0.360 C  
BRANCH   3   4
HETATM    4  C   UNL     1     -10.971  11.197  67.778  1.00  0.00    -0.262 C  
HETATM    5  O   UNL     1     -10.813  10.251  67.006  1.00  0.00    -0.248 OA 
HETATM    6  N   UNL     1     -10.313  11.356  68.992  1.00  0.00    -0.337 N  
HETATM    7  H   UNL     1     -10.513  12.175  69.567  1.00  0.00     0.000 HD 
BRANCH   6   8
HETATM    8  C   UNL     1      -9.366  10.399  69.444  1.00  0.00    -0.167 A  
HETATM    9  C   UNL     1      -8.008  10.618  69.191  1.00  0.00    -0.139 A  
HETATM   10  C   UNL     1      -7.069   9.640  69.514  1.00  0.00    -0.072 A  
HETATM   11  I   UNL     1      -7.302  12.371  68.274  1.00  0.00    -0.137 I  
HETATM   12  C   UNL     1      -7.482   8.398  70.018  1.00  0.00    -0.063 A  
HETATM   13  C   UNL     1      -8.844   8.120  70.257  1.00  0.00    -0.141 A  
HETATM   14  I   UNL     1      -5.902   7.067  70.472  1.00  0.00    -0.024 I  
HETATM   15  C   UNL     1      -9.746   9.201  70.093  1.00  0.00    -0.204 A  
HETATM   16  I   UNL     1     -11.559   9.251  71.310  1.00  0.00    -0.496 I  
BRANCH  13  17
HETATM   17  C   UNL     1      -9.339   6.729  70.623  1.00  0.00    -0.162 C  
HETATM   18  C   UNL     1      -8.619   6.049  71.820  1.00  0.00    -0.134 C  
HETATM   19  C   UNL     1      -9.224   4.670  72.047  1.00  0.00    -0.132 C  
HETATM   20  C   UNL     1      -8.591   6.842  73.140  1.00  0.00    -0.132 C  
HETATM   21  C   UNL     1      -9.950   7.190  73.727  1.00  0.00    -0.373 C  
HETATM   22  O   UNL     1     -10.364   4.352  71.744  1.00  0.00    -0.161 OA 
HETATM   23  O   UNL     1      -8.374   3.804  72.643  1.00  0.00    -0.087 OA 
ENDBRANCH  13  17
ENDBRANCH   6   8
ENDBRANCH   3   4
ENDBRANCH   2   3
TORSDOF 4
ENDMDL
MODEL      116
REMARK 921   NORMALIZED FREE ENERGY PREDICTED BY IDOCK:   -3.08 KCAL/MOL
REMARK 922        TOTAL FREE ENERGY PREDICTED BY IDOCK:   -4.76 KCAL/MOL
REMARK 923 INTER-LIGAND FREE ENERGY PREDICTED BY IDOCK:   -4.04 KCAL/MOL
REMARK 924 INTRA-LIGAND FREE ENERGY PREDICTED BY IDOCK:   -0.72 KCAL/MOL
REMARK 927      BINDING AFFINITY PREDICTED BY RF-SCORE:    0.00 PKD
ROOT
HETATM    1  C   UNL     1     -10.955  19.590  66.722  1.00  0.00    -0.391 C  
HETATM    2  C   UNL     1      -9.746  20.508  66.706  1.00  0.00    -0.466 C  
ENDROOT
BRANCH   2   3
HETATM    3  C   UNL     1      -8.587  19.892  65.928  1.00  0.00    -0.172 C  
BRANCH   3   4
HETATM    4  C   UNL     1      -8.167  18.586  66.553  1.00  0.00    -0.281 C  
HETATM    5  O   UNL     1      -7.800  17.638  65.858  1.00  0.00    -0.523 OA 
HETATM    6  N   UNL     1      -8.161  18.608  67.942  1.00  0.00    -0.260 N  
HETATM    7  H   UNL     1      -8.489  19.441  68.432  1.00  0.00     0.000 HD 
BRANCH   6   8
HETATM    8  C   UNL     1      -7.707  17.490  68.691  1.00  0.00    -0.275 A  
HETATM    9  C   UNL     1      -6.418  17.517  69.233  1.00  0.00    -0.243 A  
HETATM   10  C   UNL     1      -5.901  16.388  69.867  1.00  0.00    -0.199 A  
HETATM   11  I   UNL     1      -5.170  19.199  69.086  1.00  0.00    -0.218 I  
HETATM   12  C   UNL     1      -6.634  15.192  69.896  1.00  0.00    -0.172 A  
HETATM   13  C   UNL     1      -7.925  15.109  69.333  1.00  0.00    -0.205 A  
HETATM   14  I   UNL     1      -5.687  13.610  70.932  1.00  0.00    -0.032 I  
HETATM   15  C   UNL     1      -8.487  16.322  68.865  1.00  0.00    -0.253 A  
HETATM   16  I   UNL     1     -10.657  16.566  68.923  1.00  0.00    -0.345 I  
BRANCH  13  17
HETATM   17  C   UNL     1      -8.663  13.787  69.183  1.00  0.00     0.418 C  
HETATM   18  C   UNL     1      -9.035  13.383  67.730  1.00  0.00    -0.205 C  
HETATM   19  C   UNL     1      -9.769  12.050  67.757  1.00  0.00    -0.192 C  
HETATM   20  C   UNL     1      -7.876  13.331  66.717  1.00  0.00     0.387 C  
HETATM   21  C   UNL     1      -6.753  12.361  67.052  1.00  0.00    -0.005 C  
HETATM   22  O   UNL     1      -9.639  11.200  68.625  1.00  0.00    -0.190 OA 
HETATM   23  O   UNL     1     -10.594  11.871  66.700  1.00  0.00    -0.224 OA 
ENDBRANCH  13  17
ENDBRANCH   6   8
ENDBRANCH   3   4
ENDBRANCH   2   3
TORSDOF 4
ENDMDL
MODEL      117
REMARK 921   NORMALIZED FREE ENERGY PREDICTED BY IDOCK:   -3.06 KCAL/MOL
REMARK 922        TOTAL FREE ENERGY PREDICTED BY IDOCK:   -4.75 KCAL/MOL
REMARK 923 INTER-LIGAND FREE ENERGY PREDICTED BY IDOCK:   -3.66 KCAL/MOL
REMARK 924 INTRA-LIGAND FREE ENERGY PREDICTED BY IDOCK:   -1.08 KCAL/MOL
REMARK 927      BINDING AFFINITY PREDICTED BY RF-SCORE:    0.00 PKD
ROOT
HETATM    1  C   UNL     1      -8.720   7.848  74.050  1.00  0.00    -0.305 C  
HETATM    2  C   UNL     1      -9.813   7.287  73.158  1.00  0.00    -0.281 C  
ENDROOT
BRANCH   2   3
HETATM    3  C   UNL     1     -10.361   8.351  72.212  1.00  0.00    -0.403 C  
BRANCH   3   4
HETATM    4  C   UNL     1      -9.532   8.417  70.954  1.00  0.00    -0.169 C  
HETATM    5  O   UNL     1      -9.069   9.485  70.553  1.00  0.00    -0.247 OA 
HETATM    6  N   UNL     1      -9.294   7.175  70.377  1.00  0.00    -0.159 N  
HETATM    7  H   UNL     1      -9.726   6.343  70.780  1.00  0.00     0.000 HD 
BRANCH   6   8
HETATM    8  C   UNL     1      -8.457   7.045  69.237  1.00  0.00    -0.133 A  
HETATM    9  C   UNL     1      -7.102   6.757  69.421  1.00  0.00    -0.080 A  
HETATM   10  C   UNL     1      -6.233   6.744  68.330  1.00  0.00    -0.030 A  
HETATM   11  I   UNL     1      -6.276   6.387  71.317  1.00  0.00    -0.042 I  
HETATM   12  C   UNL     1      -6.693   7.099  67.053  1.00  0.00    -0.064 A  
HETATM   13  C   UNL     1      -8.046   7.429  66.826  1.00  0.00    -0.123 A  
HETATM   14  I   UNL     1      -5.228   6.985  65.532  1.00  0.00    -0.029 I  
HETATM   15  C   UNL     1      -8.930   7.251  67.919  1.00  0.00    -0.130 A  
HETATM   16  I   UNL     1     -11.016   6.747  67.511  1.00  0.00    -0.128 I  
BRANCH  13  17
HETATM   17  C   UNL     1      -8.533   7.996  65.502  1.00  0.00    -0.159 C  
HETATM   18  C   UNL     1      -9.000   9.478  65.531  1.00  0.00    -0.236 C  
HETATM   19  C   UNL     1      -9.459   9.883  64.138  1.00  0.00    -0.189 C  
HETATM   20  C   UNL     1      -7.986  10.502  66.076  1.00  0.00    -0.149 C  
HETATM   21  C   UNL     1      -6.667  10.586  65.324  1.00  0.00    -0.049 C  
HETATM   22  O   UNL     1      -9.064   9.376  63.099  1.00  0.00    -0.212 OA 
HETATM   23  O   UNL     1     -10.360  10.892  64.144  1.00  0.00    -0.347 OA 
ENDBRANCH  13  17
ENDBRANCH   6   8
ENDBRANCH   3   4
ENDBRANCH   2   3
TORSDOF 4
ENDMDL
MODEL      118
REMARK 921   NORMALIZED FREE ENERGY PREDICTED BY IDOCK:   -3.04 KCAL/MOL
REMARK 922        TOTAL FREE ENERGY PREDICTED BY IDOCK:   -4.72 KCAL/MOL
REMARK 923 INTER-LIGAND FREE ENERGY PREDICTED BY IDOCK:   -4.97 KCAL/MOL
REMARK 924 INTRA-LIGAND FREE ENERGY PREDICTED BY IDOCK:    0.26 KCAL/MOL
REMARK 927      BINDING AFFINITY PREDICTED BY RF-SCORE:    0.00 PKD
ROOT
HETATM    1  C   UNL     1      -8.362   3.467  70.256  1.00  0.00    -0.085 C  
HETATM    2  C   UNL     1      -9.783   3.651  70.755  1.00  0.00    -0.222 C  
ENDROOT
BRANCH   2   3
HETATM    3  C   UNL     1     -10.042   5.092  71.183  1.00  0.00    -0.291 C  
BRANCH   3   4
HETATM    4  C   UNL     1     -10.376   5.947  69.987  1.00  0.00    -0.244 C  
HETATM    5  O   UNL     1     -11.536   6.057  69.588  1.00  0.00    -0.394 OA 
HETATM    6  N   UNL     1      -9.283   6.630  69.467  1.00  0.00    -0.143 N  
HETATM    7  H   UNL     1      -8.357   6.469  69.862  1.00  0.00     0.000 HD 
BRANCH   6   8
HETATM    8  C   UNL     1      -9.436   7.548  68.394  1.00  0.00    -0.148 A  
HETATM    9  C   UNL     1      -9.431   7.063  67.082  1.00  0.00    -0.145 A  
HETATM   10  C   UNL     1      -9.456   7.950  66.007  1.00  0.00    -0.086 A  
HETATM   11  I   UNL     1      -9.329   5.012  66.640  1.00  0.00    -0.198 I  
HETATM   12  C   UNL     1      -9.404   9.334  66.228  1.00  0.00    -0.200 A  
HETATM   13  C   UNL     1      -9.374   9.868  67.533  1.00  0.00    -0.159 A  
HETATM   14  I   UNL     1      -9.484  10.506  64.468  1.00  0.00    -0.403 I  
HETATM   15  C   UNL     1      -9.537   8.945  68.596  1.00  0.00    -0.153 A  
HETATM   16  I   UNL     1     -10.482   9.625  70.444  1.00  0.00    -0.334 I  
BRANCH  13  17
HETATM   17  C   UNL     1      -9.129  11.345  67.803  1.00  0.00    -0.158 C  
HETATM   18  C   UNL     1     -10.115  12.330  67.115  1.00  0.00    -0.218 C  
HETATM   19  C   UNL     1      -9.728  13.757  67.479  1.00  0.00    -0.230 C  
HETATM   20  C   UNL     1     -11.612  12.098  67.389  1.00  0.00    -0.410 C  
HETATM   21  C   UNL     1     -12.034  12.174  68.848  1.00  0.00    -0.296 C  
HETATM   22  O   UNL     1      -9.135  14.079  68.497  1.00  0.00    -0.192 OA 
HETATM   23  O   UNL     1     -10.119  14.668  66.560  1.00  0.00    -0.263 OA 
ENDBRANCH  13  17
ENDBRANCH   6   8
ENDBRANCH   3   4
ENDBRANCH   2   3
TORSDOF 4
ENDMDL
MODEL      119
REMARK 921   NORMALIZED FREE ENERGY PREDICTED BY IDOCK:   -3.02 KCAL/MOL
REMARK 922        TOTAL FREE ENERGY PREDICTED BY IDOCK:   -4.69 KCAL/MOL
REMARK 923 INTER-LIGAND FREE ENERGY PREDICTED BY IDOCK:   -4.96 KCAL/MOL
REMARK 924 INTRA-LIGAND FREE ENERGY PREDICTED BY IDOCK:    0.27 KCAL/MOL
REMARK 927      BINDING AFFINITY PREDICTED BY RF-SCORE:    0.00 PKD
ROOT
HETATM    1  C   UNL     1     -11.935  15.468  70.369  1.00  0.00    -0.398 C  
HETATM    2  C   UNL     1     -11.783  14.231  69.504  1.00  0.00    -0.366 C  
ENDROOT
BRANCH   2   3
HETATM    3  C   UNL     1     -12.172  12.967  70.264  1.00  0.00    -0.362 C  
BRANCH   3   4
HETATM    4  C   UNL     1     -11.694  11.740  69.530  1.00  0.00    -0.343 C  
HETATM    5  O   UNL     1     -12.455  11.093  68.810  1.00  0.00    -0.468 OA 
HETATM    6  N   UNL     1     -10.337  11.488  69.688  1.00  0.00    -0.347 N  
HETATM    7  H   UNL     1      -9.787  12.079  70.312  1.00  0.00     0.000 HD 
BRANCH   6   8
HETATM    8  C   UNL     1      -9.703  10.423  68.994  1.00  0.00    -0.206 A  
HETATM    9  C   UNL     1      -9.693   9.150  69.574  1.00  0.00    -0.173 A  
HETATM   10  C   UNL     1      -8.975   8.114  68.976  1.00  0.00    -0.144 A  
HETATM   11  I   UNL     1     -10.684   8.724  71.376  1.00  0.00    -0.441 I  
HETATM   12  C   UNL     1      -8.193   8.358  67.837  1.00  0.00    -0.127 A  
HETATM   13  C   UNL     1      -8.147   9.634  67.238  1.00  0.00    -0.110 A  
HETATM   14  I   UNL     1      -7.209   6.650  67.069  1.00  0.00    -0.085 I  
HETATM   15  C   UNL     1      -9.032  10.609  67.763  1.00  0.00    -0.140 A  
HETATM   16  I   UNL     1      -9.793  12.164  66.431  1.00  0.00    -0.260 I  
BRANCH  13  17
HETATM   17  C   UNL     1      -7.170   9.975  66.123  1.00  0.00    -0.109 C  
HETATM   18  C   UNL     1      -7.256   9.084  64.854  1.00  0.00    -0.095 C  
HETATM   19  C   UNL     1      -6.214   9.550  63.847  1.00  0.00    -0.098 C  
HETATM   20  C   UNL     1      -8.638   8.986  64.182  1.00  0.00    -0.165 C  
HETATM   21  C   UNL     1      -9.232  10.301  63.702  1.00  0.00    -0.315 C  
HETATM   22  O   UNL     1      -5.768  10.685  63.781  1.00  0.00    -0.130 OA 
HETATM   23  O   UNL     1      -5.820   8.576  62.996  1.00  0.00    -0.076 OA 
ENDBRANCH  13  17
ENDBRANCH   6   8
ENDBRANCH   3   4
ENDBRANCH   2   3
TORSDOF 4
ENDMDL
MODEL      120
REMARK 921   NORMALIZED FREE ENERGY PREDICTED BY IDOCK:   -3.01 KCAL/MOL
REMARK 922        TOTAL FREE ENERGY PREDICTED BY IDOCK:   -4.68 KCAL/MOL
REMARK 923 INTER-LIGAND FREE ENERGY PREDICTED BY IDOCK:   -3.94 KCAL/MOL
REMARK 924 INTRA-LIGAND FREE ENERGY PREDICTED BY IDOCK:   -0.74 KCAL/MOL
REMARK 927      BINDING AFFINITY PREDICTED BY RF-SCORE:    0.00 PKD
ROOT
HETATM    1  C   UNL     1     -12.930  10.980  71.509  1.00  0.00    -0.553 C  
HETATM    2  C   UNL     1     -12.872   9.486  71.247  1.00  0.00    -0.414 C  
ENDROOT
BRANCH   2   3
HETATM    3  C   UNL     1     -12.504   8.713  72.510  1.00  0.00    -0.372 C  
BRANCH   3   4
HETATM    4  C   UNL     1     -11.430   7.698  72.214  1.00  0.00    -0.317 C  
HETATM    5  O   UNL     1     -11.601   6.502  72.451  1.00  0.00    -0.277 OA 
HETATM    6  N   UNL     1     -10.310   8.236  71.593  1.00  0.00    -0.208 N  
HETATM    7  H   UNL     1     -10.256   9.244  71.441  1.00  0.00     0.000 HD 
BRANCH   6   8
HETATM    8  C   UNL     1      -9.239   7.407  71.164  1.00  0.00    -0.155 A  
HETATM    9  C   UNL     1      -8.199   7.130  72.056  1.00  0.00    -0.099 A  
HETATM   10  C   UNL     1      -7.077   6.420  71.626  1.00  0.00    -0.081 A  
HETATM   11  I   UNL     1      -8.217   7.793  74.049  1.00  0.00    -0.300 I  
HETATM   12  C   UNL     1      -6.945   6.051  70.279  1.00  0.00    -0.062 A  
HETATM   13  C   UNL     1      -7.954   6.340  69.337  1.00  0.00    -0.109 A  
HETATM   14  I   UNL     1      -5.189   4.957  69.840  1.00  0.00     0.000 I  
HETATM   15  C   UNL     1      -9.154   6.894  69.848  1.00  0.00    -0.144 A  
HETATM   16  I   UNL     1     -11.031   6.471  68.813  1.00  0.00    -0.251 I  
BRANCH  13  17
HETATM   17  C   UNL     1      -7.759   6.121  67.844  1.00  0.00    -0.102 C  
HETATM   18  C   UNL     1      -7.763   7.404  66.967  1.00  0.00    -0.111 C  
HETATM   19  C   UNL     1      -7.565   7.011  65.510  1.00  0.00    -0.091 C  
HETATM   20  C   UNL     1      -6.759   8.503  67.363  1.00  0.00    -0.063 C  
HETATM   21  C   UNL     1      -5.294   8.095  67.345  1.00  0.00    -0.033 C  
HETATM   22  O   UNL     1      -6.991   6.001  65.133  1.00  0.00    -0.056 OA 
HETATM   23  O   UNL     1      -8.082   7.908  64.640  1.00  0.00    -0.139 OA 
ENDBRANCH  13  17
ENDBRANCH   6   8
ENDBRANCH   3   4
ENDBRANCH   2   3
TORSDOF 4
ENDMDL
MODEL      121
REMARK 921   NORMALIZED FREE ENERGY PREDICTED BY IDOCK:   -3.00 KCAL/MOL
REMARK 922        TOTAL FREE ENERGY PREDICTED BY IDOCK:   -4.67 KCAL/MOL
REMARK 923 INTER-LIGAND FREE ENERGY PREDICTED BY IDOCK:   -3.93 KCAL/MOL
REMARK 924 INTRA-LIGAND FREE ENERGY PREDICTED BY IDOCK:   -0.74 KCAL/MOL
REMARK 927      BINDING AFFINITY PREDICTED BY RF-SCORE:    0.00 PKD
ROOT
HETATM    1  C   UNL     1     -13.406   9.871  72.059  1.00  0.00    -0.532 C  
HETATM    2  C   UNL     1     -13.055   8.454  71.643  1.00  0.00    -0.355 C  
ENDROOT
BRANCH   2   3
HETATM    3  C   UNL     1     -11.736   8.002  72.261  1.00  0.00    -0.428 C  
BRANCH   3   4
HETATM    4  C   UNL     1     -10.570   8.540  71.470  1.00  0.00    -0.263 C  
HETATM    5  O   UNL     1      -9.599   9.045  72.034  1.00  0.00    -0.306 OA 
HETATM    6  N   UNL     1     -10.680   8.330  70.101  1.00  0.00    -0.238 N  
HETATM    7  H   UNL     1     -11.529   7.906  69.725  1.00  0.00     0.000 HD 
BRANCH   6   8
HETATM    8  C   UNL     1      -9.630   8.695  69.217  1.00  0.00    -0.166 A  
HETATM    9  C   UNL     1      -9.631   9.977  68.658  1.00  0.00    -0.155 A  
HETATM   10  C   UNL     1      -8.683  10.322  67.695  1.00  0.00    -0.121 A  
HETATM   11  I   UNL     1     -11.060  11.428  69.171  1.00  0.00    -0.330 I  
HETATM   12  C   UNL     1      -7.774   9.365  67.219  1.00  0.00    -0.091 A  
HETATM   13  C   UNL     1      -7.759   8.050  67.730  1.00  0.00    -0.110 A  
HETATM   14  I   UNL     1      -6.403  10.098  65.786  1.00  0.00    -0.126 I  
HETATM   15  C   UNL     1      -8.610   7.793  68.834  1.00  0.00    -0.132 A  
HETATM   16  I   UNL     1      -8.014   6.275  70.287  1.00  0.00    -0.115 I  
BRANCH  13  17
HETATM   17  C   UNL     1      -6.919   6.946  67.107  1.00  0.00    -0.074 C  
HETATM   18  C   UNL     1      -7.707   5.844  66.348  1.00  0.00    -0.099 C  
HETATM   19  C   UNL     1      -6.725   4.820  65.796  1.00  0.00    -0.053 C  
HETATM   20  C   UNL     1      -8.653   6.327  65.233  1.00  0.00    -0.068 C  
HETATM   21  C   UNL     1      -7.996   7.101  64.101  1.00  0.00    -0.085 C  
HETATM   22  O   UNL     1      -5.558   5.052  65.520  1.00  0.00    -0.013 OA 
HETATM   23  O   UNL     1      -7.271   3.596  65.619  1.00  0.00    -0.068 OA 
ENDBRANCH  13  17
ENDBRANCH   6   8
ENDBRANCH   3   4
ENDBRANCH   2   3
TORSDOF 4
ENDMDL
MODEL      122
REMARK 921   NORMALIZED FREE ENERGY PREDICTED BY IDOCK:   -2.98 KCAL/MOL
REMARK 922        TOTAL FREE ENERGY PREDICTED BY IDOCK:   -4.65 KCAL/MOL
REMARK 923 INTER-LIGAND FREE ENERGY PREDICTED BY IDOCK:   -4.95 KCAL/MOL
REMARK 924 INTRA-LIGAND FREE ENERGY PREDICTED BY IDOCK:    0.30 KCAL/MOL
REMARK 927      BINDING AFFINITY PREDICTED BY RF-SCORE:    0.00 PKD
ROOT
HETATM    1  C   UNL     1     -12.372  14.790  69.367  1.00  0.00    -0.184 C  
HETATM    2  C   UNL     1     -11.551  13.523  69.522  1.00  0.00    -0.355 C  
ENDROOT
BRANCH   2   3
HETATM    3  C   UNL     1     -11.559  12.693  68.242  1.00  0.00    -0.377 C  
BRANCH   3   4
HETATM    4  C   UNL     1     -10.671  11.484  68.391  1.00  0.00    -0.208 C  
HETATM    5  O   UNL     1      -9.500  11.596  68.754  1.00  0.00    -0.159 OA 
HETATM    6  N   UNL     1     -11.326  10.279  68.163  1.00  0.00    -0.504 N  
HETATM    7  H   UNL     1     -12.300  10.287  67.859  1.00  0.00     0.000 HD 
BRANCH   6   8
HETATM    8  C   UNL     1     -10.661   9.038  68.346  1.00  0.00    -0.154 A  
HETATM    9  C   UNL     1      -9.857   8.542  67.315  1.00  0.00    -0.199 A  
HETATM   10  C   UNL     1      -9.291   7.271  67.417  1.00  0.00    -0.148 A  
HETATM   11  I   UNL     1      -9.497   9.621  65.549  1.00  0.00    -0.280 I  
HETATM   12  C   UNL     1      -9.587   6.449  68.514  1.00  0.00    -0.122 A  
HETATM   13  C   UNL     1     -10.420   6.895  69.562  1.00  0.00    -0.244 A  
HETATM   14  I   UNL     1      -8.604   4.576  68.495  1.00  0.00    -0.133 I  
HETATM   15  C   UNL     1     -10.823   8.253  69.512  1.00  0.00    -0.116 A  
HETATM   16  I   UNL     1     -11.197   9.307  71.388  1.00  0.00    -0.410 I  
BRANCH  13  17
HETATM   17  C   UNL     1     -10.908   5.967  70.664  1.00  0.00    -0.363 C  
HETATM   18  C   UNL     1      -9.805   5.170  71.414  1.00  0.00    -0.239 C  
HETATM   19  C   UNL     1     -10.458   4.291  72.472  1.00  0.00    -0.152 C  
HETATM   20  C   UNL     1      -8.669   6.001  72.041  1.00  0.00    -0.136 C  
HETATM   21  C   UNL     1      -9.099   7.026  73.078  1.00  0.00    -0.156 C  
HETATM   22  O   UNL     1     -11.529   4.527  73.009  1.00  0.00    -0.198 OA 
HETATM   23  O   UNL     1      -9.725   3.200  72.787  1.00  0.00    -0.116 OA 
ENDBRANCH  13  17
ENDBRANCH   6   8
ENDBRANCH   3   4
ENDBRANCH   2   3
TORSDOF 4
ENDMDL
MODEL      123
REMARK 921   NORMALIZED FREE ENERGY PREDICTED BY IDOCK:   -2.96 KCAL/MOL
REMARK 922        TOTAL FREE ENERGY PREDICTED BY IDOCK:   -4.61 KCAL/MOL
REMARK 923 INTER-LIGAND FREE ENERGY PREDICTED BY IDOCK:   -3.69 KCAL/MOL
REMARK 924 INTRA-LIGAND FREE ENERGY PREDICTED BY IDOCK:   -0.92 KCAL/MOL
REMARK 927      BINDING AFFINITY PREDICTED BY RF-SCORE:    0.00 PKD
ROOT
HETATM    1  C   UNL     1      -5.341  20.135  62.704  1.00  0.00    -0.277 C  
HETATM    2  C   UNL     1      -6.507  20.697  63.497  1.00  0.00    -0.062 C  
ENDROOT
BRANCH   2   3
HETATM    3  C   UNL     1      -6.231  20.662  64.997  1.00  0.00    -0.307 C  
BRANCH   3   4
HETATM    4  C   UNL     1      -6.908  19.473  65.631  1.00  0.00    -0.290 C  
HETATM    5  O   UNL     1      -6.645  18.325  65.273  1.00  0.00    -0.431 OA 
HETATM    6  N   UNL     1      -7.761  19.809  66.676  1.00  0.00    -0.267 N  
HETATM    7  H   UNL     1      -7.920  20.792  66.897  1.00  0.00     0.000 HD 
BRANCH   6   8
HETATM    8  C   UNL     1      -8.412  18.806  67.442  1.00  0.00    -0.272 A  
HETATM    9  C   UNL     1      -7.828  18.383  68.640  1.00  0.00    -0.299 A  
HETATM   10  C   UNL     1      -8.380  17.317  69.350  1.00  0.00     0.366 A  
HETATM   11  I   UNL     1      -6.085  19.262  69.415  1.00  0.00    -0.323 I  
HETATM   12  C   UNL     1      -9.472  16.608  68.830  1.00  0.00    -0.251 A  
HETATM   13  C   UNL     1     -10.073  16.977  67.608  1.00  0.00    -0.298 A  
HETATM   14  I   UNL     1     -10.176  15.048  70.074  1.00  0.00     0.305 I  
HETATM   15  C   UNL     1      -9.603  18.174  67.012  1.00  0.00    -0.287 A  
HETATM   16  I   UNL     1     -10.984  19.355  65.800  1.00  0.00     0.810 I  
BRANCH  13  17
HETATM   17  C   UNL     1     -11.131  16.120  66.930  1.00  0.00     0.011 C  
HETATM   18  C   UNL     1     -10.703  15.449  65.596  1.00  0.00    -0.381 C  
HETATM   19  C   UNL     1     -11.871  14.640  65.049  1.00  0.00    -0.377 C  
HETATM   20  C   UNL     1      -9.432  14.580  65.646  1.00  0.00    -0.071 C  
HETATM   21  C   UNL     1      -9.476  13.404  66.609  1.00  0.00    -0.264 C  
HETATM   22  O   UNL     1     -12.764  14.159  65.729  1.00  0.00    -0.508 OA 
HETATM   23  O   UNL     1     -11.830  14.481  63.707  1.00  0.00    -0.217 OA 
ENDBRANCH  13  17
ENDBRANCH   6   8
ENDBRANCH   3   4
ENDBRANCH   2   3
TORSDOF 4
ENDMDL
MODEL      124
REMARK 921   NORMALIZED FREE ENERGY PREDICTED BY IDOCK:   -2.93 KCAL/MOL
REMARK 922        TOTAL FREE ENERGY PREDICTED BY IDOCK:   -4.58 KCAL/MOL
REMARK 923 INTER-LIGAND FREE ENERGY PREDICTED BY IDOCK:   -4.02 KCAL/MOL
REMARK 924 INTRA-LIGAND FREE ENERGY PREDICTED BY IDOCK:   -0.57 KCAL/MOL
REMARK 927      BINDING AFFINITY PREDICTED BY RF-SCORE:    0.00 PKD
ROOT
HETATM    1  C   UNL     1      -8.487   7.100  63.920  1.00  0.00     0.328 C  
HETATM    2  C   UNL     1      -7.715   8.270  64.501  1.00  0.00    -0.123 C  
ENDROOT
BRANCH   2   3
HETATM    3  C   UNL     1      -8.248   9.603  63.983  1.00  0.00    -0.159 C  
BRANCH   3   4
HETATM    4  C   UNL     1      -8.937  10.362  65.089  1.00  0.00    -0.191 C  
HETATM    5  O   UNL     1      -9.367   9.782  66.086  1.00  0.00    -0.167 OA 
HETATM    6  N   UNL     1      -8.951  11.738  64.896  1.00  0.00    -0.329 N  
HETATM    7  H   UNL     1      -8.573  12.127  64.032  1.00  0.00     0.000 HD 
BRANCH   6   8
HETATM    8  C   UNL     1      -9.481  12.611  65.883  1.00  0.00    -0.089 A  
HETATM    9  C   UNL     1     -10.840  12.940  65.835  1.00  0.00    -0.272 A  
HETATM   10  C   UNL     1     -11.363  13.887  66.715  1.00  0.00    -0.347 A  
HETATM   11  I   UNL     1     -12.155  12.096  64.432  1.00  0.00    -0.328 I  
HETATM   12  C   UNL     1     -10.519  14.577  67.598  1.00  0.00    -0.246 A  
HETATM   13  C   UNL     1      -9.136  14.302  67.657  1.00  0.00    -0.192 A  
HETATM   14  I   UNL     1     -11.512  15.947  68.867  1.00  0.00    -0.257 I  
HETATM   15  C   UNL     1      -8.678  13.207  66.883  1.00  0.00    -0.148 A  
HETATM   16  I   UNL     1      -6.945  12.077  67.584  1.00  0.00    -0.160 I  
BRANCH  13  17
HETATM   17  C   UNL     1      -8.171  15.158  68.463  1.00  0.00    -0.148 C  
HETATM   18  C   UNL     1      -7.226  16.072  67.637  1.00  0.00    -0.175 C  
HETATM   19  C   UNL     1      -6.326  16.849  68.588  1.00  0.00    -0.161 C  
HETATM   20  C   UNL     1      -7.904  17.032  66.642  1.00  0.00    -0.299 C  
HETATM   21  C   UNL     1      -8.878  18.029  67.250  1.00  0.00    -0.247 C  
HETATM   22  O   UNL     1      -6.612  17.130  69.742  1.00  0.00    -0.191 OA 
HETATM   23  O   UNL     1      -5.154  17.225  68.029  1.00  0.00    -0.117 OA 
ENDBRANCH  13  17
ENDBRANCH   6   8
ENDBRANCH   3   4
ENDBRANCH   2   3
TORSDOF 4
ENDMDL
MODEL      125
REMARK 921   NORMALIZED FREE ENERGY PREDICTED BY IDOCK:   -2.88 KCAL/MOL
REMARK 922        TOTAL FREE ENERGY PREDICTED BY IDOCK:   -4.52 KCAL/MOL
REMARK 923 INTER-LIGAND FREE ENERGY PREDICTED BY IDOCK:   -3.59 KCAL/MOL
REMARK 924 INTRA-LIGAND FREE ENERGY PREDICTED BY IDOCK:   -0.94 KCAL/MOL
REMARK 927      BINDING AFFINITY PREDICTED BY RF-SCORE:    0.00 PKD
ROOT
HETATM    1  C   UNL     1     -12.905   9.348  70.986  1.00  0.00    -0.247 C  
HETATM    2  C   UNL     1     -11.831  10.405  71.167  1.00  0.00    -0.432 C  
ENDROOT
BRANCH   2   3
HETATM    3  C   UNL     1     -11.359  10.956  69.825  1.00  0.00    -0.374 C  
BRANCH   3   4
HETATM    4  C   UNL     1     -10.486   9.951  69.118  1.00  0.00    -0.217 C  
HETATM    5  O   UNL     1     -10.553   9.797  67.898  1.00  0.00    -0.227 OA 
HETATM    6  N   UNL     1      -9.581   9.311  69.956  1.00  0.00    -0.194 N  
HETATM    7  H   UNL     1      -9.604   9.501  70.958  1.00  0.00     0.000 HD 
BRANCH   6   8
HETATM    8  C   UNL     1      -8.623   8.398  69.440  1.00  0.00    -0.129 A  
HETATM    9  C   UNL     1      -7.295   8.815  69.305  1.00  0.00    -0.070 A  
HETATM   10  C   UNL     1      -6.359   7.984  68.689  1.00  0.00    -0.052 A  
HETATM   11  I   UNL     1      -6.635  10.701  69.951  1.00  0.00    -0.096 I  
HETATM   12  C   UNL     1      -6.756   6.762  68.128  1.00  0.00    -0.068 A  
HETATM   13  C   UNL     1      -8.092   6.316  68.210  1.00  0.00    -0.112 A  
HETATM   14  I   UNL     1      -5.182   5.639  67.270  1.00  0.00    -0.005 I  
HETATM   15  C   UNL     1      -8.970   7.098  69.002  1.00  0.00    -0.134 A  
HETATM   16  I   UNL     1     -10.634   6.110  70.014  1.00  0.00    -0.420 I  
BRANCH  13  17
HETATM   17  C   UNL     1      -8.590   5.094  67.454  1.00  0.00    -0.104 C  
HETATM   18  C   UNL     1      -9.492   5.382  66.223  1.00  0.00    -0.169 C  
HETATM   19  C   UNL     1      -9.906   4.061  65.589  1.00  0.00    -0.179 C  
HETATM   20  C   UNL     1      -8.907   6.324  65.154  1.00  0.00     0.119 C  
HETATM   21  C   UNL     1      -7.608   5.864  64.511  1.00  0.00    -0.087 C  
HETATM   22  O   UNL     1      -9.268   3.023  65.663  1.00  0.00    -0.150 OA 
HETATM   23  O   UNL     1     -11.070   4.138  64.905  1.00  0.00    -0.240 OA 
ENDBRANCH  13  17
ENDBRANCH   6   8
ENDBRANCH   3   4
ENDBRANCH   2   3
TORSDOF 4
ENDMDL
MODEL      126
REMARK 921   NORMALIZED FREE ENERGY PREDICTED BY IDOCK:   -2.87 KCAL/MOL
REMARK 922        TOTAL FREE ENERGY PREDICTED BY IDOCK:   -4.51 KCAL/MOL
REMARK 923 INTER-LIGAND FREE ENERGY PREDICTED BY IDOCK:   -4.66 KCAL/MOL
REMARK 924 INTRA-LIGAND FREE ENERGY PREDICTED BY IDOCK:    0.15 KCAL/MOL
REMARK 927      BINDING AFFINITY PREDICTED BY RF-SCORE:    0.00 PKD
ROOT
HETATM    1  C   UNL     1     -13.365   9.816  71.128  1.00  0.00    -0.360 C  
HETATM    2  C   UNL     1     -12.772  11.049  71.785  1.00  0.00    -0.408 C  
ENDROOT
BRANCH   2   3
HETATM    3  C   UNL     1     -12.305  12.065  70.747  1.00  0.00    -0.403 C  
BRANCH   3   4
HETATM    4  C   UNL     1     -11.759  11.363  69.530  1.00  0.00    -0.348 C  
HETATM    5  O   UNL     1     -12.384  11.351  68.469  1.00  0.00    -0.504 OA 
HETATM    6  N   UNL     1     -10.489  10.831  69.715  1.00  0.00    -0.436 N  
HETATM    7  H   UNL     1     -10.052  10.885  70.635  1.00  0.00     0.000 HD 
BRANCH   6   8
HETATM    8  C   UNL     1      -9.790  10.213  68.644  1.00  0.00    -0.162 A  
HETATM    9  C   UNL     1      -8.884  10.974  67.899  1.00  0.00    -0.134 A  
HETATM   10  C   UNL     1      -8.275  10.430  66.769  1.00  0.00    -0.126 A  
HETATM   11  I   UNL     1      -8.424  12.966  68.380  1.00  0.00     0.080 I  
HETATM   12  C   UNL     1      -8.626   9.147  66.322  1.00  0.00    -0.126 A  
HETATM   13  C   UNL     1      -9.560   8.356  67.023  1.00  0.00    -0.248 A  
HETATM   14  I   UNL     1      -7.566   8.496  64.611  1.00  0.00    -0.122 I  
HETATM   15  C   UNL     1     -10.015   8.869  68.263  1.00  0.00    -0.175 A  
HETATM   16  I   UNL     1     -10.587   7.463  69.834  1.00  0.00    -0.235 I  
BRANCH  13  17
HETATM   17  C   UNL     1     -10.099   7.048  66.465  1.00  0.00    -0.149 C  
HETATM   18  C   UNL     1      -9.033   5.975  66.110  1.00  0.00    -0.160 C  
HETATM   19  C   UNL     1      -9.733   4.739  65.562  1.00  0.00    -0.152 C  
HETATM   20  C   UNL     1      -8.061   5.579  67.238  1.00  0.00    -0.101 C  
HETATM   21  C   UNL     1      -8.705   5.004  68.490  1.00  0.00    -0.103 C  
HETATM   22  O   UNL     1     -10.879   4.413  65.829  1.00  0.00    -0.165 OA 
HETATM   23  O   UNL     1      -8.952   4.002  64.741  1.00  0.00    -0.124 OA 
ENDBRANCH  13  17
ENDBRANCH   6   8
ENDBRANCH   3   4
ENDBRANCH   2   3
TORSDOF 4
ENDMDL
MODEL      127
REMARK 921   NORMALIZED FREE ENERGY PREDICTED BY IDOCK:   -2.86 KCAL/MOL
REMARK 922        TOTAL FREE ENERGY PREDICTED BY IDOCK:   -4.49 KCAL/MOL
REMARK 923 INTER-LIGAND FREE ENERGY PREDICTED BY IDOCK:   -3.78 KCAL/MOL
REMARK 924 INTRA-LIGAND FREE ENERGY PREDICTED BY IDOCK:   -0.71 KCAL/MOL
REMARK 927      BINDING AFFINITY PREDICTED BY RF-SCORE:    0.00 PKD
ROOT
HETATM    1  C   UNL     1      -6.122  14.643  70.604  1.00  0.00    -0.148 C  
HETATM    2  C   UNL     1      -5.379  13.543  69.869  1.00  0.00    -0.090 C  
ENDROOT
BRANCH   2   3
HETATM    3  C   UNL     1      -5.395  12.236  70.656  1.00  0.00    -0.153 C  
BRANCH   3   4
HETATM    4  C   UNL     1      -5.970  11.122  69.819  1.00  0.00    -0.095 C  
HETATM    5  O   UNL     1      -5.278  10.524  68.995  1.00  0.00    -0.042 OA 
HETATM    6  N   UNL     1      -7.286  10.809  70.135  1.00  0.00    -0.269 N  
HETATM    7  H   UNL     1      -7.781  11.367  70.831  1.00  0.00     0.000 HD 
BRANCH   6   8
HETATM    8  C   UNL     1      -7.954   9.725  69.504  1.00  0.00    -0.137 A  
HETATM    9  C   UNL     1      -8.603   9.948  68.286  1.00  0.00    -0.115 A  
HETATM   10  C   UNL     1      -9.367   8.936  67.704  1.00  0.00    -0.156 A  
HETATM   11  I   UNL     1      -8.527  11.795  67.289  1.00  0.00    -0.178 I  
HETATM   12  C   UNL     1      -9.559   7.719  68.374  1.00  0.00    -0.152 A  
HETATM   13  C   UNL     1      -8.951   7.463  69.621  1.00  0.00    -0.141 A  
HETATM   14  I   UNL     1     -10.723   6.309  67.310  1.00  0.00    -0.425 I  
HETATM   15  C   UNL     1      -8.036   8.439  70.088  1.00  0.00    -0.102 A  
HETATM   16  I   UNL     1      -6.370   7.800  71.347  1.00  0.00    -0.037 I  
BRANCH  13  17
HETATM   17  C   UNL     1      -9.288   6.235  70.453  1.00  0.00    -0.171 C  
HETATM   18  C   UNL     1      -9.974   6.513  71.819  1.00  0.00    -0.192 C  
HETATM   19  C   UNL     1     -10.235   5.189  72.524  1.00  0.00    -0.194 C  
HETATM   20  C   UNL     1     -11.263   7.355  71.777  1.00  0.00    -0.277 C  
HETATM   21  C   UNL     1     -12.400   6.778  70.948  1.00  0.00    -0.336 C  
HETATM   22  O   UNL     1     -10.386   4.117  71.958  1.00  0.00    -0.162 OA 
HETATM   23  O   UNL     1     -10.300   5.303  73.869  1.00  0.00    -0.210 OA 
ENDBRANCH  13  17
ENDBRANCH   6   8
ENDBRANCH   3   4
ENDBRANCH   2   3
TORSDOF 4
ENDMDL
MODEL      128
REMARK 921   NORMALIZED FREE ENERGY PREDICTED BY IDOCK:   -2.83 KCAL/MOL
REMARK 922        TOTAL FREE ENERGY PREDICTED BY IDOCK:   -4.46 KCAL/MOL
REMARK 923 INTER-LIGAND FREE ENERGY PREDICTED BY IDOCK:   -4.48 KCAL/MOL
REMARK 924 INTRA-LIGAND FREE ENERGY PREDICTED BY IDOCK:    0.02 KCAL/MOL
REMARK 927      BINDING AFFINITY PREDICTED BY RF-SCORE:    0.00 PKD
ROOT
HETATM    1  C   UNL     1     -10.437  11.247  63.906  1.00  0.00    -0.452 C  
HETATM    2  C   UNL     1      -9.778  10.297  64.890  1.00  0.00    -0.385 C  
ENDROOT
BRANCH   2   3
HETATM    3  C   UNL     1     -10.430  10.378  66.266  1.00  0.00    -0.229 C  
BRANCH   3   4
HETATM    4  C   UNL     1     -10.183   9.109  67.043  1.00  0.00    -0.263 C  
HETATM    5  O   UNL     1     -10.760   8.062  66.751  1.00  0.00    -0.289 OA 
HETATM    6  N   UNL     1      -9.209   9.238  68.026  1.00  0.00    -0.131 N  
HETATM    7  H   UNL     1      -8.789  10.152  68.199  1.00  0.00     0.000 HD 
BRANCH   6   8
HETATM    8  C   UNL     1      -8.788   8.119  68.793  1.00  0.00    -0.138 A  
HETATM    9  C   UNL     1      -7.580   7.493  68.470  1.00  0.00    -0.114 A  
HETATM   10  C   UNL     1      -7.201   6.322  69.124  1.00  0.00    -0.087 A  
HETATM   11  I   UNL     1      -6.300   8.220  66.972  1.00  0.00    -0.058 I  
HETATM   12  C   UNL     1      -8.063   5.716  70.051  1.00  0.00    -0.106 A  
HETATM   13  C   UNL     1      -9.307   6.293  70.382  1.00  0.00    -0.171 A  
HETATM   14  I   UNL     1      -7.290   3.966  70.952  1.00  0.00    -0.037 I  
HETATM   15  C   UNL     1      -9.572   7.575  69.837  1.00  0.00    -0.160 A  
HETATM   16  I   UNL     1     -10.842   8.951  70.960  1.00  0.00    -0.418 I  
BRANCH  13  17
HETATM   17  C   UNL     1     -10.339   5.570  71.234  1.00  0.00    -0.297 C  
HETATM   18  C   UNL     1      -9.841   5.068  72.617  1.00  0.00    -0.195 C  
HETATM   19  C   UNL     1     -10.985   4.365  73.334  1.00  0.00    -0.290 C  
HETATM   20  C   UNL     1      -9.206   6.127  73.539  1.00  0.00    -0.133 C  
HETATM   21  C   UNL     1     -10.104   7.295  73.915  1.00  0.00    -0.312 C  
HETATM   22  O   UNL     1     -12.170   4.594  73.145  1.00  0.00    -0.035 OA 
HETATM   23  O   UNL     1     -10.569   3.448  74.235  1.00  0.00    -0.187 OA 
ENDBRANCH  13  17
ENDBRANCH   6   8
ENDBRANCH   3   4
ENDBRANCH   2   3
TORSDOF 4
ENDMDL
MODEL      129
REMARK 921   NORMALIZED FREE ENERGY PREDICTED BY IDOCK:   -2.83 KCAL/MOL
REMARK 922        TOTAL FREE ENERGY PREDICTED BY IDOCK:   -4.46 KCAL/MOL
REMARK 923 INTER-LIGAND FREE ENERGY PREDICTED BY IDOCK:   -3.69 KCAL/MOL
REMARK 924 INTRA-LIGAND FREE ENERGY PREDICTED BY IDOCK:   -0.77 KCAL/MOL
REMARK 927      BINDING AFFINITY PREDICTED BY RF-SCORE:    0.00 PKD
ROOT
HETATM    1  C   UNL     1      -8.558  17.381  68.416  1.00  0.00    -0.270 C  
HETATM    2  C   UNL     1      -8.688  16.120  67.582  1.00  0.00    -0.184 C  
ENDROOT
BRANCH   2   3
HETATM    3  C   UNL     1      -7.402  15.299  67.607  1.00  0.00    -0.201 C  
BRANCH   3   4
HETATM    4  C   UNL     1      -7.713  13.836  67.803  1.00  0.00    -0.168 C  
HETATM    5  O   UNL     1      -7.663  13.320  68.919  1.00  0.00    -0.060 OA 
HETATM    6  N   UNL     1      -8.127  13.194  66.642  1.00  0.00    -0.355 N  
HETATM    7  H   UNL     1      -8.131  13.706  65.760  1.00  0.00     0.000 HD 
BRANCH   6   8
HETATM    8  C   UNL     1      -8.543  11.836  66.665  1.00  0.00    -0.170 A  
HETATM    9  C   UNL     1      -9.882  11.534  66.394  1.00  0.00    -0.205 A  
HETATM   10  C   UNL     1     -10.346  10.226  66.528  1.00  0.00    -0.276 A  
HETATM   11  I   UNL     1     -11.276  13.002  65.835  1.00  0.00    -0.374 I  
HETATM   12  C   UNL     1      -9.499   9.219  67.013  1.00  0.00    -0.159 A  
HETATM   13  C   UNL     1      -8.150   9.484  67.331  1.00  0.00    -0.110 A  
HETATM   14  I   UNL     1     -10.386   7.301  67.113  1.00  0.00    -0.371 I  
HETATM   15  C   UNL     1      -7.669  10.777  67.006  1.00  0.00    -0.121 A  
HETATM   16  I   UNL     1      -5.559  11.015  66.496  1.00  0.00    -0.133 I  
BRANCH  13  17
HETATM   17  C   UNL     1      -7.264   8.466  68.031  1.00  0.00    -0.091 C  
HETATM   18  C   UNL     1      -6.880   8.799  69.499  1.00  0.00    -0.048 C  
HETATM   19  C   UNL     1      -5.992   7.691  70.046  1.00  0.00    -0.023 C  
HETATM   20  C   UNL     1      -8.048   9.070  70.465  1.00  0.00    -0.169 C  
HETATM   21  C   UNL     1      -9.040   7.930  70.635  1.00  0.00    -0.153 C  
HETATM   22  O   UNL     1      -6.000   6.534  69.652  1.00  0.00    -0.017 OA 
HETATM   23  O   UNL     1      -5.177   8.101  71.043  1.00  0.00    -0.026 OA 
ENDBRANCH  13  17
ENDBRANCH   6   8
ENDBRANCH   3   4
ENDBRANCH   2   3
TORSDOF 4
ENDMDL
MODEL      130
REMARK 921   NORMALIZED FREE ENERGY PREDICTED BY IDOCK:   -2.81 KCAL/MOL
REMARK 922        TOTAL FREE ENERGY PREDICTED BY IDOCK:   -4.44 KCAL/MOL
REMARK 923 INTER-LIGAND FREE ENERGY PREDICTED BY IDOCK:   -3.47 KCAL/MOL
REMARK 924 INTRA-LIGAND FREE ENERGY PREDICTED BY IDOCK:   -0.97 KCAL/MOL
REMARK 927      BINDING AFFINITY PREDICTED BY RF-SCORE:    0.00 PKD
ROOT
HETATM    1  C   UNL     1     -11.211  14.309  68.249  1.00  0.00    -0.298 C  
HETATM    2  C   UNL     1     -10.226  13.155  68.278  1.00  0.00    -0.250 C  
ENDROOT
BRANCH   2   3
HETATM    3  C   UNL     1     -10.907  11.851  68.682  1.00  0.00    -0.273 C  
BRANCH   3   4
HETATM    4  C   UNL     1     -10.523  10.740  67.738  1.00  0.00    -0.208 C  
HETATM    5  O   UNL     1     -11.274   9.784  67.542  1.00  0.00    -0.155 OA 
HETATM    6  N   UNL     1      -9.317  10.957  67.082  1.00  0.00    -0.159 N  
HETATM    7  H   UNL     1      -8.760  11.778  67.315  1.00  0.00     0.000 HD 
BRANCH   6   8
HETATM    8  C   UNL     1      -8.849  10.053  66.091  1.00  0.00    -0.148 A  
HETATM    9  C   UNL     1      -9.287  10.207  64.773  1.00  0.00    -0.268 A  
HETATM   10  C   UNL     1      -8.942   9.265  63.804  1.00  0.00    -0.080 A  
HETATM   11  I   UNL     1     -10.518  11.801  64.174  1.00  0.00    -0.532 I  
HETATM   12  C   UNL     1      -8.223   8.114  64.159  1.00  0.00    -0.080 A  
HETATM   13  C   UNL     1      -7.789   7.899  65.484  1.00  0.00    -0.112 A  
HETATM   14  I   UNL     1      -7.775   6.828  62.541  1.00  0.00    -0.088 I  
HETATM   15  C   UNL     1      -7.998   8.964  66.396  1.00  0.00    -0.103 A  
HETATM   16  I   UNL     1      -6.596   9.219  68.051  1.00  0.00    -0.059 I  
BRANCH  13  17
HETATM   17  C   UNL     1      -7.176   6.583  65.936  1.00  0.00    -0.074 C  
HETATM   18  C   UNL     1      -8.013   5.762  66.956  1.00  0.00    -0.102 C  
HETATM   19  C   UNL     1      -7.260   4.487  67.307  1.00  0.00    -0.069 C  
HETATM   20  C   UNL     1      -9.459   5.429  66.542  1.00  0.00    -0.158 C  
HETATM   21  C   UNL     1      -9.607   4.617  65.265  1.00  0.00    -0.161 C  
HETATM   22  O   UNL     1      -6.451   3.934  66.579  1.00  0.00    -0.036 OA 
HETATM   23  O   UNL     1      -7.581   3.994  68.524  1.00  0.00    -0.058 OA 
ENDBRANCH  13  17
ENDBRANCH   6   8
ENDBRANCH   3   4
ENDBRANCH   2   3
TORSDOF 4
ENDMDL
MODEL      131
REMARK 921   NORMALIZED FREE ENERGY PREDICTED BY IDOCK:   -2.79 KCAL/MOL
REMARK 922        TOTAL FREE ENERGY PREDICTED BY IDOCK:   -4.41 KCAL/MOL
REMARK 923 INTER-LIGAND FREE ENERGY PREDICTED BY IDOCK:   -4.40 KCAL/MOL
REMARK 924 INTRA-LIGAND FREE ENERGY PREDICTED BY IDOCK:   -0.02 KCAL/MOL
REMARK 927      BINDING AFFINITY PREDICTED BY RF-SCORE:    0.00 PKD
ROOT
HETATM    1  C   UNL     1     -13.272  14.365  71.108  1.00  0.00    -0.414 C  
HETATM    2  C   UNL     1     -12.402  13.222  70.617  1.00  0.00    -0.416 C  
ENDROOT
BRANCH   2   3
HETATM    3  C   UNL     1     -12.381  13.150  69.093  1.00  0.00     0.026 C  
BRANCH   3   4
HETATM    4  C   UNL     1     -11.530  11.995  68.630  1.00  0.00    -0.297 C  
HETATM    5  O   UNL     1     -11.766  11.417  67.569  1.00  0.00    -0.568 OA 
HETATM    6  N   UNL     1     -10.449  11.730  69.462  1.00  0.00    -0.412 N  
HETATM    7  H   UNL     1     -10.339  12.261  70.326  1.00  0.00     0.000 HD 
BRANCH   6   8
HETATM    8  C   UNL     1      -9.495  10.732  69.128  1.00  0.00    -0.134 A  
HETATM    9  C   UNL     1      -8.356  11.100  68.406  1.00  0.00    -0.149 A  
HETATM   10  C   UNL     1      -7.464  10.126  67.959  1.00  0.00    -0.087 A  
HETATM   11  I   UNL     1      -7.939  13.096  67.899  1.00  0.00    -0.204 I  
HETATM   12  C   UNL     1      -7.742   8.765  68.159  1.00  0.00    -0.101 A  
HETATM   13  C   UNL     1      -8.896   8.346  68.853  1.00  0.00    -0.143 A  
HETATM   14  I   UNL     1      -6.250   7.452  67.435  1.00  0.00    -0.052 I  
HETATM   15  C   UNL     1      -9.678   9.367  69.450  1.00  0.00    -0.177 A  
HETATM   16  I   UNL     1     -10.796   8.905  71.268  1.00  0.00    -0.449 I  
BRANCH  13  17
HETATM   17  C   UNL     1      -9.319   6.887  68.922  1.00  0.00    -0.134 C  
HETATM   18  C   UNL     1      -8.254   5.900  69.474  1.00  0.00    -0.113 C  
HETATM   19  C   UNL     1      -8.830   4.491  69.469  1.00  0.00    -0.088 C  
HETATM   20  C   UNL     1      -7.671   6.231  70.861  1.00  0.00    -0.098 C  
HETATM   21  C   UNL     1      -8.677   6.301  71.998  1.00  0.00    -0.134 C  
HETATM   22  O   UNL     1     -10.020   4.226  69.540  1.00  0.00    -0.200 OA 
HETATM   23  O   UNL     1      -7.886   3.527  69.391  1.00  0.00    -0.051 OA 
ENDBRANCH  13  17
ENDBRANCH   6   8
ENDBRANCH   3   4
ENDBRANCH   2   3
TORSDOF 4
ENDMDL
MODEL      132
REMARK 921   NORMALIZED FREE ENERGY PREDICTED BY IDOCK:   -2.78 KCAL/MOL
REMARK 922        TOTAL FREE ENERGY PREDICTED BY IDOCK:   -4.40 KCAL/MOL
REMARK 923 INTER-LIGAND FREE ENERGY PREDICTED BY IDOCK:   -4.60 KCAL/MOL
REMARK 924 INTRA-LIGAND FREE ENERGY PREDICTED BY IDOCK:    0.20 KCAL/MOL
REMARK 927      BINDING AFFINITY PREDICTED BY RF-SCORE:    0.00 PKD
ROOT
HETATM    1  C   UNL     1     -12.729  12.559  64.731  1.00  0.00    -0.415 C  
HETATM    2  C   UNL     1     -11.498  11.749  64.368  1.00  0.00    -0.349 C  
ENDROOT
BRANCH   2   3
HETATM    3  C   UNL     1     -10.921  11.034  65.586  1.00  0.00    -0.090 C  
BRANCH   3   4
HETATM    4  C   UNL     1      -9.670  11.728  66.062  1.00  0.00    -0.232 C  
HETATM    5  O   UNL     1      -8.663  11.778  65.356  1.00  0.00     0.125 OA 
HETATM    6  N   UNL     1      -9.812  12.346  67.299  1.00  0.00    -0.205 N  
HETATM    7  H   UNL     1     -10.686  12.244  67.814  1.00  0.00     0.000 HD 
BRANCH   6   8
HETATM    8  C   UNL     1      -8.759  13.120  67.856  1.00  0.00    -0.192 A  
HETATM    9  C   UNL     1      -7.725  12.466  68.535  1.00  0.00    -0.120 A  
HETATM   10  C   UNL     1      -6.744  13.205  69.196  1.00  0.00    -0.089 A  
HETATM   11  I   UNL     1      -7.606  10.373  68.658  1.00  0.00    -0.114 I  
HETATM   12  C   UNL     1      -6.829  14.604  69.255  1.00  0.00    -0.143 A  
HETATM   13  C   UNL     1      -7.873  15.304  68.614  1.00  0.00    -0.142 A  
HETATM   14  I   UNL     1      -5.228  15.535  70.277  1.00  0.00    -0.143 I  
HETATM   15  C   UNL     1      -8.741  14.533  67.800  1.00  0.00    -0.174 A  
HETATM   16  I   UNL     1      -9.672  15.481  66.067  1.00  0.00    -0.384 I  
BRANCH  13  17
HETATM   17  C   UNL     1      -8.097  16.794  68.816  1.00  0.00    -0.252 C  
HETATM   18  C   UNL     1      -6.865  17.704  68.554  1.00  0.00    -0.223 C  
HETATM   19  C   UNL     1      -7.254  19.154  68.806  1.00  0.00    -0.333 C  
HETATM   20  C   UNL     1      -6.195  17.566  67.174  1.00  0.00    -0.180 C  
HETATM   21  C   UNL     1      -7.085  17.864  65.978  1.00  0.00    -0.340 C  
HETATM   22  O   UNL     1      -8.388  19.598  68.707  1.00  0.00    -0.333 OA 
HETATM   23  O   UNL     1      -6.206  19.938  69.147  1.00  0.00    -0.275 OA 
ENDBRANCH  13  17
ENDBRANCH   6   8
ENDBRANCH   3   4
ENDBRANCH   2   3
TORSDOF 4
ENDMDL
MODEL      133
REMARK 921   NORMALIZED FREE ENERGY PREDICTED BY IDOCK:   -2.73 KCAL/MOL
REMARK 922        TOTAL FREE ENERGY PREDICTED BY IDOCK:   -4.33 KCAL/MOL
REMARK 923 INTER-LIGAND FREE ENERGY PREDICTED BY IDOCK:   -3.32 KCAL/MOL
REMARK 924 INTRA-LIGAND FREE ENERGY PREDICTED BY IDOCK:   -1.01 KCAL/MOL
REMARK 927      BINDING AFFINITY PREDICTED BY RF-SCORE:    0.00 PKD
ROOT
HETATM    1  C   UNL     1      -8.666   9.584  63.434  1.00  0.00    -0.235 C  
HETATM    2  C   UNL     1      -7.970   9.822  64.762  1.00  0.00    -0.138 C  
ENDROOT
BRANCH   2   3
HETATM    3  C   UNL     1      -7.103   8.632  65.160  1.00  0.00    -0.086 C  
BRANCH   3   4
HETATM    4  C   UNL     1      -7.545   8.077  66.490  1.00  0.00    -0.092 C  
HETATM    5  O   UNL     1      -6.731   7.613  67.288  1.00  0.00    -0.063 OA 
HETATM    6  N   UNL     1      -8.906   8.223  66.731  1.00  0.00    -0.134 N  
HETATM    7  H   UNL     1      -9.505   8.616  66.005  1.00  0.00     0.000 HD 
BRANCH   6   8
HETATM    8  C   UNL     1      -9.476   7.835  67.973  1.00  0.00    -0.144 A  
HETATM    9  C   UNL     1      -9.692   8.810  68.952  1.00  0.00    -0.172 A  
HETATM   10  C   UNL     1     -10.136   8.441  70.222  1.00  0.00    -0.196 A  
HETATM   11  I   UNL     1      -9.318  10.849  68.615  1.00  0.00    -0.139 I  
HETATM   12  C   UNL     1     -10.291   7.087  70.553  1.00  0.00    -0.201 A  
HETATM   13  C   UNL     1     -10.053   6.068  69.607  1.00  0.00    -0.244 A  
HETATM   14  I   UNL     1     -11.002   6.742  72.516  1.00  0.00    -0.311 I  
HETATM   15  C   UNL     1      -9.785   6.489  68.281  1.00  0.00    -0.131 A  
HETATM   16  I   UNL     1     -10.375   5.191  66.627  1.00  0.00    -0.218 I  
BRANCH  13  17
HETATM   17  C   UNL     1     -10.031   4.595  69.987  1.00  0.00    -0.302 C  
HETATM   18  C   UNL     1      -8.672   3.868  69.793  1.00  0.00    -0.124 C  
HETATM   19  C   UNL     1      -8.822   2.411  70.209  1.00  0.00    -0.081 C  
HETATM   20  C   UNL     1      -7.454   4.498  70.495  1.00  0.00    -0.050 C  
HETATM   21  C   UNL     1      -7.554   4.613  72.008  1.00  0.00    -0.089 C  
HETATM   22  O   UNL     1      -9.639   1.999  71.019  1.00  0.00    -0.133 OA 
HETATM   23  O   UNL     1      -7.942   1.587  69.598  1.00  0.00    -0.042 OA 
ENDBRANCH  13  17
ENDBRANCH   6   8
ENDBRANCH   3   4
ENDBRANCH   2   3
TORSDOF 4
ENDMDL
MODEL      134
REMARK 921   NORMALIZED FREE ENERGY PREDICTED BY IDOCK:   -2.72 KCAL/MOL
REMARK 922        TOTAL FREE ENERGY PREDICTED BY IDOCK:   -4.32 KCAL/MOL
REMARK 923 INTER-LIGAND FREE ENERGY PREDICTED BY IDOCK:   -4.53 KCAL/MOL
REMARK 924 INTRA-LIGAND FREE ENERGY PREDICTED BY IDOCK:    0.21 KCAL/MOL
REMARK 927      BINDING AFFINITY PREDICTED BY RF-SCORE:    0.00 PKD
ROOT
HETATM    1  C   UNL     1     -10.739  11.304  63.418  1.00  0.00    -0.349 C  
HETATM    2  C   UNL     1     -10.630  11.041  64.909  1.00  0.00    -0.328 C  
ENDROOT
BRANCH   2   3
HETATM    3  C   UNL     1      -9.196  11.209  65.401  1.00  0.00    -0.225 C  
BRANCH   3   4
HETATM    4  C   UNL     1      -8.755   9.990  66.171  1.00  0.00    -0.140 C  
HETATM    5  O   UNL     1      -7.688   9.976  66.785  1.00  0.00    -0.101 OA 
HETATM    6  N   UNL     1      -9.693   8.965  66.176  1.00  0.00    -0.308 N  
HETATM    7  H   UNL     1     -10.550   9.066  65.632  1.00  0.00     0.000 HD 
BRANCH   6   8
HETATM    8  C   UNL     1      -9.478   7.778  66.927  1.00  0.00    -0.187 A  
HETATM    9  C   UNL     1      -8.764   6.728  66.342  1.00  0.00    -0.138 A  
HETATM   10  C   UNL     1      -8.642   5.508  67.007  1.00  0.00    -0.109 A  
HETATM   11  I   UNL     1      -7.890   6.882  64.438  1.00  0.00    -0.002 I  
HETATM   12  C   UNL     1      -9.300   5.296  68.227  1.00  0.00    -0.118 A  
HETATM   13  C   UNL     1     -10.060   6.316  68.838  1.00  0.00    -0.200 A  
HETATM   14  I   UNL     1      -8.962   3.392  69.085  1.00  0.00    -0.230 I  
HETATM   15  C   UNL     1     -10.007   7.593  68.226  1.00  0.00    -0.176 A  
HETATM   16  I   UNL     1     -10.233   9.368  69.479  1.00  0.00    -0.282 I  
BRANCH  13  17
HETATM   17  C   UNL     1     -10.934   6.061  70.056  1.00  0.00    -0.450 C  
HETATM   18  C   UNL     1     -10.210   5.460  71.293  1.00  0.00    -0.287 C  
HETATM   19  C   UNL     1     -11.221   5.261  72.413  1.00  0.00    -0.165 C  
HETATM   20  C   UNL     1      -8.987   6.238  71.812  1.00  0.00    -0.140 C  
HETATM   21  C   UNL     1      -9.254   7.669  72.250  1.00  0.00    -0.189 C  
HETATM   22  O   UNL     1     -12.248   5.908  72.547  1.00  0.00    -0.202 OA 
HETATM   23  O   UNL     1     -10.870   4.287  73.283  1.00  0.00    -0.201 OA 
ENDBRANCH  13  17
ENDBRANCH   6   8
ENDBRANCH   3   4
ENDBRANCH   2   3
TORSDOF 4
ENDMDL
MODEL      135
REMARK 921   NORMALIZED FREE ENERGY PREDICTED BY IDOCK:   -2.70 KCAL/MOL
REMARK 922        TOTAL FREE ENERGY PREDICTED BY IDOCK:   -4.30 KCAL/MOL
REMARK 923 INTER-LIGAND FREE ENERGY PREDICTED BY IDOCK:   -4.60 KCAL/MOL
REMARK 924 INTRA-LIGAND FREE ENERGY PREDICTED BY IDOCK:    0.30 KCAL/MOL
REMARK 927      BINDING AFFINITY PREDICTED BY RF-SCORE:    0.00 PKD
ROOT
HETATM    1  C   UNL     1      -7.084   5.287  63.203  1.00  0.00    -0.042 C  
HETATM    2  C   UNL     1      -6.834   4.670  64.568  1.00  0.00    -0.045 C  
ENDROOT
BRANCH   2   3
HETATM    3  C   UNL     1      -8.134   4.206  65.217  1.00  0.00    -0.101 C  
BRANCH   3   4
HETATM    4  C   UNL     1      -8.189   4.641  66.660  1.00  0.00    -0.106 C  
HETATM    5  O   UNL     1      -7.325   5.378  67.135  1.00  0.00    -0.080 OA 
HETATM    6  N   UNL     1      -9.322   4.201  67.332  1.00  0.00    -0.162 N  
HETATM    7  H   UNL     1      -9.982   3.586  66.855  1.00  0.00     0.000 HD 
BRANCH   6   8
HETATM    8  C   UNL     1      -9.577   4.592  68.674  1.00  0.00    -0.162 A  
HETATM    9  C   UNL     1      -8.996   3.860  69.714  1.00  0.00    -0.103 A  
HETATM   10  C   UNL     1      -9.324   4.145  71.039  1.00  0.00    -0.219 A  
HETATM   11  I   UNL     1      -7.661   2.276  69.368  1.00  0.00    -0.055 I  
HETATM   12  C   UNL     1     -10.298   5.110  71.337  1.00  0.00    -0.203 A  
HETATM   13  C   UNL     1     -10.935   5.849  70.319  1.00  0.00    -0.390 A  
HETATM   14  I   UNL     1     -10.626   5.412  73.405  1.00  0.00    -0.355 I  
HETATM   15  C   UNL     1     -10.442   5.662  69.003  1.00  0.00    -0.251 A  
HETATM   16  I   UNL     1     -10.567   7.323  67.589  1.00  0.00    -0.247 I  
BRANCH  13  17
HETATM   17  C   UNL     1     -12.120   6.761  70.595  1.00  0.00    -0.371 C  
HETATM   18  C   UNL     1     -11.909   7.827  71.704  1.00  0.00    -0.321 C  
HETATM   19  C   UNL     1     -13.183   8.645  71.859  1.00  0.00    -0.375 C  
HETATM   20  C   UNL     1     -10.696   8.760  71.531  1.00  0.00    -0.371 C  
HETATM   21  C   UNL     1     -10.686   9.598  70.262  1.00  0.00    -0.335 C  
HETATM   22  O   UNL     1     -14.009   8.821  70.977  1.00  0.00    -0.139 OA 
HETATM   23  O   UNL     1     -13.324   9.188  73.089  1.00  0.00    -0.171 OA 
ENDBRANCH  13  17
ENDBRANCH   6   8
ENDBRANCH   3   4
ENDBRANCH   2   3
TORSDOF 4
ENDMDL
MODEL      136
REMARK 921   NORMALIZED FREE ENERGY PREDICTED BY IDOCK:   -2.70 KCAL/MOL
REMARK 922        TOTAL FREE ENERGY PREDICTED BY IDOCK:   -4.30 KCAL/MOL
REMARK 923 INTER-LIGAND FREE ENERGY PREDICTED BY IDOCK:   -3.44 KCAL/MOL
REMARK 924 INTRA-LIGAND FREE ENERGY PREDICTED BY IDOCK:   -0.87 KCAL/MOL
REMARK 927      BINDING AFFINITY PREDICTED BY RF-SCORE:    0.00 PKD
ROOT
HETATM    1  C   UNL     1     -10.783   4.138  62.518  1.00  0.00    -0.084 C  
HETATM    2  C   UNL     1      -9.668   3.504  63.330  1.00  0.00    -0.132 C  
ENDROOT
BRANCH   2   3
HETATM    3  C   UNL     1      -8.755   4.560  63.944  1.00  0.00    -0.139 C  
BRANCH   3   4
HETATM    4  C   UNL     1      -9.021   4.694  65.422  1.00  0.00    -0.145 C  
HETATM    5  O   UNL     1     -10.171   4.712  65.862  1.00  0.00    -0.239 OA 
HETATM    6  N   UNL     1      -7.868   4.709  66.198  1.00  0.00    -0.095 N  
HETATM    7  H   UNL     1      -6.956   4.696  65.741  1.00  0.00     0.000 HD 
BRANCH   6   8
HETATM    8  C   UNL     1      -7.940   4.742  67.616  1.00  0.00    -0.094 A  
HETATM    9  C   UNL     1      -7.902   3.536  68.323  1.00  0.00    -0.067 A  
HETATM   10  C   UNL     1      -8.092   3.528  69.705  1.00  0.00    -0.064 A  
HETATM   11  I   UNL     1      -7.622   1.683  67.376  1.00  0.00    -0.061 I  
HETATM   12  C   UNL     1      -8.403   4.715  70.385  1.00  0.00    -0.075 A  
HETATM   13  C   UNL     1      -8.484   5.949  69.707  1.00  0.00    -0.125 A  
HETATM   14  I   UNL     1      -8.622   4.493  72.477  1.00  0.00    -0.126 I  
HETATM   15  C   UNL     1      -8.103   5.945  68.342  1.00  0.00    -0.109 A  
HETATM   16  I   UNL     1      -7.235   7.758  67.488  1.00  0.00    -0.095 I  
BRANCH  13  17
HETATM   17  C   UNL     1      -9.000   7.213  70.379  1.00  0.00    -0.155 C  
HETATM   18  C   UNL     1     -10.411   7.687  69.934  1.00  0.00    -0.225 C  
HETATM   19  C   UNL     1     -10.770   8.958  70.690  1.00  0.00    -0.234 C  
HETATM   20  C   UNL     1     -11.548   6.655  70.058  1.00  0.00    -0.423 C  
HETATM   21  C   UNL     1     -11.804   6.124  71.460  1.00  0.00    -0.204 C  
HETATM   22  O   UNL     1     -10.328   9.265  71.786  1.00  0.00    -0.328 OA 
HETATM   23  O   UNL     1     -11.658   9.738  70.033  1.00  0.00    -0.218 OA 
ENDBRANCH  13  17
ENDBRANCH   6   8
ENDBRANCH   3   4
ENDBRANCH   2   3
TORSDOF 4
ENDMDL
MODEL      137
REMARK 921   NORMALIZED FREE ENERGY PREDICTED BY IDOCK:   -2.70 KCAL/MOL
REMARK 922        TOTAL FREE ENERGY PREDICTED BY IDOCK:   -4.29 KCAL/MOL
REMARK 923 INTER-LIGAND FREE ENERGY PREDICTED BY IDOCK:   -3.54 KCAL/MOL
REMARK 924 INTRA-LIGAND FREE ENERGY PREDICTED BY IDOCK:   -0.75 KCAL/MOL
REMARK 927      BINDING AFFINITY PREDICTED BY RF-SCORE:    0.00 PKD
ROOT
HETATM    1  C   UNL     1     -10.375  11.959  66.026  1.00  0.00    -0.268 C  
HETATM    2  C   UNL     1     -10.192  11.167  67.308  1.00  0.00    -0.227 C  
ENDROOT
BRANCH   2   3
HETATM    3  C   UNL     1     -11.116   9.954  67.351  1.00  0.00    -0.101 C  
BRANCH   3   4
HETATM    4  C   UNL     1     -10.441   8.799  68.047  1.00  0.00    -0.204 C  
HETATM    5  O   UNL     1      -9.279   8.888  68.443  1.00  0.00    -0.140 OA 
HETATM    6  N   UNL     1     -11.275   7.707  68.252  1.00  0.00    -0.260 N  
HETATM    7  H   UNL     1     -12.225   7.724  67.881  1.00  0.00     0.000 HD 
BRANCH   6   8
HETATM    8  C   UNL     1     -10.826   6.568  68.972  1.00  0.00    -0.306 A  
HETATM    9  C   UNL     1     -11.082   6.490  70.345  1.00  0.00    -0.332 A  
HETATM   10  C   UNL     1     -10.549   5.445  71.099  1.00  0.00    -0.276 A  
HETATM   11  I   UNL     1     -12.213   7.937  71.363  1.00  0.00    -0.303 I  
HETATM   12  C   UNL     1      -9.687   4.510  70.506  1.00  0.00    -0.220 A  
HETATM   13  C   UNL     1      -9.374   4.569  69.132  1.00  0.00    -0.214 A  
HETATM   14  I   UNL     1      -9.014   2.989  71.813  1.00  0.00    -0.184 I  
HETATM   15  C   UNL     1     -10.079   5.530  68.365  1.00  0.00    -0.178 A  
HETATM   16  I   UNL     1     -10.473   5.110  66.259  1.00  0.00    -0.041 I  
BRANCH  13  17
HETATM   17  C   UNL     1      -8.303   3.691  68.504  1.00  0.00    -0.093 C  
HETATM   18  C   UNL     1      -7.183   4.439  67.730  1.00  0.00    -0.065 C  
HETATM   19  C   UNL     1      -6.204   3.421  67.162  1.00  0.00    -0.035 C  
HETATM   20  C   UNL     1      -6.424   5.528  68.512  1.00  0.00    -0.043 C  
HETATM   21  C   UNL     1      -5.701   5.056  69.764  1.00  0.00    -0.016 C  
HETATM   22  O   UNL     1      -6.001   2.312  67.633  1.00  0.00    -0.022 OA 
HETATM   23  O   UNL     1      -5.548   3.864  66.066  1.00  0.00    -0.016 OA 
ENDBRANCH  13  17
ENDBRANCH   6   8
ENDBRANCH   3   4
ENDBRANCH   2   3
TORSDOF 4
ENDMDL
MODEL      138
REMARK 921   NORMALIZED FREE ENERGY PREDICTED BY IDOCK:   -2.69 KCAL/MOL
REMARK 922        TOTAL FREE ENERGY PREDICTED BY IDOCK:   -4.29 KCAL/MOL
REMARK 923 INTER-LIGAND FREE ENERGY PREDICTED BY IDOCK:   -3.58 KCAL/MOL
REMARK 924 INTRA-LIGAND FREE ENERGY PREDICTED BY IDOCK:   -0.71 KCAL/MOL
REMARK 927      BINDING AFFINITY PREDICTED BY RF-SCORE:    0.00 PKD
ROOT
HETATM    1  C   UNL     1      -8.366   3.399  70.246  1.00  0.00    -0.085 C  
HETATM    2  C   UNL     1      -9.789   3.647  70.712  1.00  0.00    -0.142 C  
ENDROOT
BRANCH   2   3
HETATM    3  C   UNL     1      -9.990   5.097  71.142  1.00  0.00    -0.272 C  
BRANCH   3   4
HETATM    4  C   UNL     1     -10.343   5.956  69.955  1.00  0.00    -0.242 C  
HETATM    5  O   UNL     1     -11.515   6.123  69.616  1.00  0.00    -0.429 OA 
HETATM    6  N   UNL     1      -9.246   6.577  69.369  1.00  0.00    -0.144 N  
HETATM    7  H   UNL     1      -8.309   6.372  69.717  1.00  0.00     0.000 HD 
BRANCH   6   8
HETATM    8  C   UNL     1      -9.408   7.491  68.294  1.00  0.00    -0.141 A  
HETATM    9  C   UNL     1      -9.494   6.994  66.990  1.00  0.00    -0.149 A  
HETATM   10  C   UNL     1      -9.531   7.871  65.907  1.00  0.00    -0.000 A  
HETATM   11  I   UNL     1      -9.514   4.936  66.568  1.00  0.00    -0.232 I  
HETATM   12  C   UNL     1      -9.400   9.253  66.109  1.00  0.00    -0.212 A  
HETATM   13  C   UNL     1      -9.278   9.797  67.404  1.00  0.00    -0.151 A  
HETATM   14  I   UNL     1      -9.512  10.410  64.341  1.00  0.00    -0.372 I  
HETATM   15  C   UNL     1      -9.431   8.893  68.485  1.00  0.00    -0.147 A  
HETATM   16  I   UNL     1     -10.247   9.636  70.369  1.00  0.00    -0.240 I  
BRANCH  13  17
HETATM   17  C   UNL     1      -8.948  11.263  67.643  1.00  0.00    -0.142 C  
HETATM   18  C   UNL     1      -7.578  11.546  68.318  1.00  0.00    -0.115 C  
HETATM   19  C   UNL     1      -7.409  13.049  68.490  1.00  0.00    -0.115 C  
HETATM   20  C   UNL     1      -6.340  10.948  67.625  1.00  0.00    -0.055 C  
HETATM   21  C   UNL     1      -6.103  11.402  66.193  1.00  0.00     0.048 C  
HETATM   22  O   UNL     1      -7.944  13.895  67.790  1.00  0.00    -0.141 OA 
HETATM   23  O   UNL     1      -6.580  13.381  69.505  1.00  0.00    -0.105 OA 
ENDBRANCH  13  17
ENDBRANCH   6   8
ENDBRANCH   3   4
ENDBRANCH   2   3
TORSDOF 4
ENDMDL
MODEL      139
REMARK 921   NORMALIZED FREE ENERGY PREDICTED BY IDOCK:   -2.69 KCAL/MOL
REMARK 922        TOTAL FREE ENERGY PREDICTED BY IDOCK:   -4.28 KCAL/MOL
REMARK 923 INTER-LIGAND FREE ENERGY PREDICTED BY IDOCK:   -4.20 KCAL/MOL
REMARK 924 INTRA-LIGAND FREE ENERGY PREDICTED BY IDOCK:   -0.08 KCAL/MOL
REMARK 927      BINDING AFFINITY PREDICTED BY RF-SCORE:    0.00 PKD
ROOT
HETATM    1  C   UNL     1      -8.050   6.425  67.604  1.00  0.00    -0.114 C  
HETATM    2  C   UNL     1      -6.867   7.259  68.062  1.00  0.00    -0.070 C  
ENDROOT
BRANCH   2   3
HETATM    3  C   UNL     1      -6.408   8.222  66.971  1.00  0.00    -0.056 C  
BRANCH   3   4
HETATM    4  C   UNL     1      -7.307   9.431  66.921  1.00  0.00    -0.090 C  
HETATM    5  O   UNL     1      -7.824   9.795  65.865  1.00  0.00    -0.104 OA 
HETATM    6  N   UNL     1      -7.540  10.005  68.165  1.00  0.00    -0.084 N  
HETATM    7  H   UNL     1      -7.061   9.635  68.986  1.00  0.00     0.000 HD 
BRANCH   6   8
HETATM    8  C   UNL     1      -8.434  11.099  68.311  1.00  0.00    -0.145 A  
HETATM    9  C   UNL     1      -9.697  10.870  68.867  1.00  0.00    -0.187 A  
HETATM   10  C   UNL     1     -10.639  11.897  68.912  1.00  0.00    -0.205 A  
HETATM   11  I   UNL     1     -10.279   8.993  69.608  1.00  0.00    -0.253 I  
HETATM   12  C   UNL     1     -10.360  13.141  68.327  1.00  0.00    -0.252 A  
HETATM   13  C   UNL     1      -9.112  13.406  67.725  1.00  0.00    -0.202 A  
HETATM   14  I   UNL     1     -11.907  14.570  68.530  1.00  0.00    -0.222 I  
HETATM   15  C   UNL     1      -8.120  12.404  67.865  1.00  0.00    -0.161 A  
HETATM   16  I   UNL     1      -6.021  13.004  67.918  1.00  0.00    -0.123 I  
BRANCH  13  17
HETATM   17  C   UNL     1      -8.848  14.671  66.923  1.00  0.00    -0.267 C  
HETATM   18  C   UNL     1      -9.195  16.008  67.635  1.00  0.00    -0.205 C  
HETATM   19  C   UNL     1      -8.881  17.167  66.700  1.00  0.00    -0.252 C  
HETATM   20  C   UNL     1      -8.539  16.240  69.009  1.00  0.00    -0.247 C  
HETATM   21  C   UNL     1      -7.018  16.246  69.019  1.00  0.00    -0.188 C  
HETATM   22  O   UNL     1      -8.046  17.135  65.808  1.00  0.00    -0.497 OA 
HETATM   23  O   UNL     1      -9.615  18.273  66.954  1.00  0.00    -0.276 OA 
ENDBRANCH  13  17
ENDBRANCH   6   8
ENDBRANCH   3   4
ENDBRANCH   2   3
TORSDOF 4
ENDMDL
MODEL      140
REMARK 921   NORMALIZED FREE ENERGY PREDICTED BY IDOCK:   -2.67 KCAL/MOL
REMARK 922        TOTAL FREE ENERGY PREDICTED BY IDOCK:   -4.26 KCAL/MOL
REMARK 923 INTER-LIGAND FREE ENERGY PREDICTED BY IDOCK:   -3.31 KCAL/MOL
REMARK 924 INTRA-LIGAND FREE ENERGY PREDICTED BY IDOCK:   -0.95 KCAL/MOL
REMARK 927      BINDING AFFINITY PREDICTED BY RF-SCORE:    0.00 PKD
ROOT
HETATM    1  C   UNL     1      -8.149  10.251  64.166  1.00  0.00    -0.138 C  
HETATM    2  C   UNL     1      -8.798   9.325  65.179  1.00  0.00    -0.238 C  
ENDROOT
BRANCH   2   3
HETATM    3  C   UNL     1      -8.146   7.945  65.171  1.00  0.00    -0.144 C  
BRANCH   3   4
HETATM    4  C   UNL     1      -8.208   7.324  66.543  1.00  0.00    -0.117 C  
HETATM    5  O   UNL     1      -9.160   6.619  66.879  1.00  0.00    -0.127 OA 
HETATM    6  N   UNL     1      -7.076   7.560  67.314  1.00  0.00    -0.083 N  
HETATM    7  H   UNL     1      -6.338   8.163  66.950  1.00  0.00     0.000 HD 
BRANCH   6   8
HETATM    8  C   UNL     1      -6.930   6.974  68.600  1.00  0.00    -0.079 A  
HETATM    9  C   UNL     1      -6.200   5.787  68.724  1.00  0.00    -0.029 A  
HETATM   10  C   UNL     1      -6.143   5.125  69.949  1.00  0.00    -0.021 A  
HETATM   11  I   UNL     1      -5.207   4.901  67.099  1.00  0.00    -0.009 I  
HETATM   12  C   UNL     1      -6.880   5.596  71.046  1.00  0.00    -0.057 A  
HETATM   13  C   UNL     1      -7.657   6.770  70.957  1.00  0.00    -0.085 A  
HETATM   14  I   UNL     1      -6.631   4.469  72.818  1.00  0.00    -0.051 I  
HETATM   15  C   UNL     1      -7.543   7.513  69.755  1.00  0.00    -0.094 A  
HETATM   16  I   UNL     1      -7.813   9.679  69.829  1.00  0.00    -0.198 I  
BRANCH  13  17
HETATM   17  C   UNL     1      -8.610   7.200  72.062  1.00  0.00    -0.118 C  
HETATM   18  C   UNL     1     -10.121   7.158  71.706  1.00  0.00    -0.197 C  
HETATM   19  C   UNL     1     -10.930   7.622  72.909  1.00  0.00    -0.400 C  
HETATM   20  C   UNL     1     -10.663   5.812  71.188  1.00  0.00    -0.327 C  
HETATM   21  C   UNL     1     -10.515   4.634  72.138  1.00  0.00    -0.219 C  
HETATM   22  O   UNL     1     -10.562   7.535  74.071  1.00  0.00    -0.211 OA 
HETATM   23  O   UNL     1     -12.133   8.142  72.577  1.00  0.00    -0.365 OA 
ENDBRANCH  13  17
ENDBRANCH   6   8
ENDBRANCH   3   4
ENDBRANCH   2   3
TORSDOF 4
ENDMDL
MODEL      141
REMARK 921   NORMALIZED FREE ENERGY PREDICTED BY IDOCK:   -2.66 KCAL/MOL
REMARK 922        TOTAL FREE ENERGY PREDICTED BY IDOCK:   -4.24 KCAL/MOL
REMARK 923 INTER-LIGAND FREE ENERGY PREDICTED BY IDOCK:   -3.56 KCAL/MOL
REMARK 924 INTRA-LIGAND FREE ENERGY PREDICTED BY IDOCK:   -0.68 KCAL/MOL
REMARK 927      BINDING AFFINITY PREDICTED BY RF-SCORE:    0.00 PKD
ROOT
HETATM    1  C   UNL     1     -10.763   3.367  63.137  1.00  0.00    -0.219 C  
HETATM    2  C   UNL     1      -9.913   3.292  64.393  1.00  0.00    -0.145 C  
ENDROOT
BRANCH   2   3
HETATM    3  C   UNL     1      -8.458   3.644  64.103  1.00  0.00    -0.090 C  
BRANCH   3   4
HETATM    4  C   UNL     1      -7.906   4.539  65.184  1.00  0.00    -0.090 C  
HETATM    5  O   UNL     1      -6.697   4.592  65.410  1.00  0.00    -0.049 OA 
HETATM    6  N   UNL     1      -8.871   5.323  65.805  1.00  0.00    -0.145 N  
HETATM    7  H   UNL     1      -9.852   5.205  65.553  1.00  0.00     0.000 HD 
BRANCH   6   8
HETATM    8  C   UNL     1      -8.512   6.287  66.785  1.00  0.00    -0.111 A  
HETATM    9  C   UNL     1      -8.415   5.889  68.122  1.00  0.00    -0.114 A  
HETATM   10  C   UNL     1      -8.185   6.835  69.120  1.00  0.00    -0.121 A  
HETATM   11  I   UNL     1      -8.661   3.891  68.723  1.00  0.00    -0.160 I  
HETATM   12  C   UNL     1      -8.131   8.201  68.804  1.00  0.00    -0.120 A  
HETATM   13  C   UNL     1      -8.257   8.651  67.473  1.00  0.00    -0.110 A  
HETATM   14  I   UNL     1      -7.743   9.467  70.454  1.00  0.00    -0.132 I  
HETATM   15  C   UNL     1      -8.303   7.650  66.471  1.00  0.00    -0.129 A  
HETATM   16  I   UNL     1      -7.512   8.112  64.488  1.00  0.00    -0.122 I  
BRANCH  13  17
HETATM   17  C   UNL     1      -8.390  10.125  67.123  1.00  0.00    -0.125 C  
HETATM   18  C   UNL     1      -9.793  10.581  66.638  1.00  0.00    -0.246 C  
HETATM   19  C   UNL     1      -9.753  12.070  66.324  1.00  0.00    -0.235 C  
HETATM   20  C   UNL     1     -10.974  10.267  67.575  1.00  0.00    -0.344 C  
HETATM   21  C   UNL     1     -10.892  10.878  68.965  1.00  0.00    -0.275 C  
HETATM   22  O   UNL     1      -8.981  12.868  66.834  1.00  0.00    -0.215 OA 
HETATM   23  O   UNL     1     -10.679  12.451  65.416  1.00  0.00    -0.268 OA 
ENDBRANCH  13  17
ENDBRANCH   6   8
ENDBRANCH   3   4
ENDBRANCH   2   3
TORSDOF 4
ENDMDL
MODEL      142
REMARK 921   NORMALIZED FREE ENERGY PREDICTED BY IDOCK:   -2.65 KCAL/MOL
REMARK 922        TOTAL FREE ENERGY PREDICTED BY IDOCK:   -4.23 KCAL/MOL
REMARK 923 INTER-LIGAND FREE ENERGY PREDICTED BY IDOCK:   -3.34 KCAL/MOL
REMARK 924 INTRA-LIGAND FREE ENERGY PREDICTED BY IDOCK:   -0.90 KCAL/MOL
REMARK 927      BINDING AFFINITY PREDICTED BY RF-SCORE:    0.00 PKD
ROOT
HETATM    1  C   UNL     1      -6.666  12.220  68.476  1.00  0.00    -0.076 C  
HETATM    2  C   UNL     1      -6.935  11.039  69.391  1.00  0.00    -0.126 C  
ENDROOT
BRANCH   2   3
HETATM    3  C   UNL     1      -8.325  10.456  69.156  1.00  0.00    -0.160 C  
BRANCH   3   4
HETATM    4  C   UNL     1      -8.297   8.954  69.286  1.00  0.00    -0.119 C  
HETATM    5  O   UNL     1      -7.301   8.307  68.966  1.00  0.00    -0.084 OA 
HETATM    6  N   UNL     1      -9.444   8.423  69.864  1.00  0.00    -0.166 N  
HETATM    7  H   UNL     1     -10.223   9.041  70.092  1.00  0.00     0.000 HD 
BRANCH   6   8
HETATM    8  C   UNL     1      -9.549   7.034  70.141  1.00  0.00    -0.164 A  
HETATM    9  C   UNL     1      -9.393   6.594  71.459  1.00  0.00    -0.153 A  
HETATM   10  C   UNL     1      -9.370   5.229  71.744  1.00  0.00    -0.175 A  
HETATM   11  I   UNL     1      -9.130   7.921  73.067  1.00  0.00    -0.336 I  
HETATM   12  C   UNL     1      -9.419   4.287  70.706  1.00  0.00    -0.171 A  
HETATM   13  C   UNL     1      -9.543   4.686  69.359  1.00  0.00    -0.257 A  
HETATM   14  I   UNL     1      -9.402   2.272  71.351  1.00  0.00    -0.213 I  
HETATM   15  C   UNL     1      -9.750   6.069  69.127  1.00  0.00    -0.137 A  
HETATM   16  I   UNL     1     -10.902   6.679  67.375  1.00  0.00    -0.340 I  
BRANCH  13  17
HETATM   17  C   UNL     1      -9.411   3.704  68.205  1.00  0.00    -0.215 C  
HETATM   18  C   UNL     1      -8.202   3.933  67.257  1.00  0.00    -0.098 C  
HETATM   19  C   UNL     1      -8.221   2.877  66.161  1.00  0.00    -0.085 C  
HETATM   20  C   UNL     1      -6.813   3.984  67.922  1.00  0.00    -0.047 C  
HETATM   21  C   UNL     1      -6.403   2.733  68.685  1.00  0.00    -0.029 C  
HETATM   22  O   UNL     1      -8.725   1.770  66.269  1.00  0.00    -0.108 OA 
HETATM   23  O   UNL     1      -7.602   3.273  65.026  1.00  0.00    -0.075 OA 
ENDBRANCH  13  17
ENDBRANCH   6   8
ENDBRANCH   3   4
ENDBRANCH   2   3
TORSDOF 4
ENDMDL
MODEL      143
REMARK 921   NORMALIZED FREE ENERGY PREDICTED BY IDOCK:   -2.62 KCAL/MOL
REMARK 922        TOTAL FREE ENERGY PREDICTED BY IDOCK:   -4.21 KCAL/MOL
REMARK 923 INTER-LIGAND FREE ENERGY PREDICTED BY IDOCK:   -3.23 KCAL/MOL
REMARK 924 INTRA-LIGAND FREE ENERGY PREDICTED BY IDOCK:   -0.98 KCAL/MOL
REMARK 927      BINDING AFFINITY PREDICTED BY RF-SCORE:    0.00 PKD
ROOT
HETATM    1  C   UNL     1      -9.946  11.558  66.579  1.00  0.00    -0.240 C  
HETATM    2  C   UNL     1      -9.881  10.749  67.861  1.00  0.00    -0.185 C  
ENDROOT
BRANCH   2   3
HETATM    3  C   UNL     1     -10.780   9.518  67.791  1.00  0.00    -0.302 C  
BRANCH   3   4
HETATM    4  C   UNL     1     -10.091   8.325  68.402  1.00  0.00    -0.201 C  
HETATM    5  O   UNL     1     -10.514   7.183  68.219  1.00  0.00    -0.188 OA 
HETATM    6  N   UNL     1      -8.929   8.645  69.094  1.00  0.00    -0.141 N  
HETATM    7  H   UNL     1      -8.660   9.624  69.197  1.00  0.00     0.000 HD 
BRANCH   6   8
HETATM    8  C   UNL     1      -8.108   7.632  69.658  1.00  0.00    -0.126 A  
HETATM    9  C   UNL     1      -7.019   7.156  68.921  1.00  0.00    -0.078 A  
HETATM   10  C   UNL     1      -6.270   6.079  69.395  1.00  0.00    -0.030 A  
HETATM   11  I   UNL     1      -6.475   7.967  67.062  1.00  0.00    -0.058 I  
HETATM   12  C   UNL     1      -6.649   5.414  70.570  1.00  0.00    -0.042 A  
HETATM   13  C   UNL     1      -7.761   5.838  71.328  1.00  0.00    -0.109 A  
HETATM   14  I   UNL     1      -5.365   3.830  71.133  1.00  0.00    -0.004 I  
HETATM   15  C   UNL     1      -8.382   7.043  70.915  1.00  0.00    -0.129 A  
HETATM   16  I   UNL     1      -9.348   8.296  72.420  1.00  0.00    -0.307 I  
BRANCH  13  17
HETATM   17  C   UNL     1      -8.307   5.029  72.495  1.00  0.00    -0.117 C  
HETATM   18  C   UNL     1      -9.666   4.319  72.248  1.00  0.00    -0.210 C  
HETATM   19  C   UNL     1     -10.070   3.566  73.507  1.00  0.00    -0.127 C  
HETATM   20  C   UNL     1      -9.736   3.386  71.025  1.00  0.00    -0.216 C  
HETATM   21  C   UNL     1      -8.752   2.226  71.025  1.00  0.00    -0.112 C  
HETATM   22  O   UNL     1      -9.289   3.141  74.346  1.00  0.00    -0.084 OA 
HETATM   23  O   UNL     1     -11.406   3.388  73.619  1.00  0.00    -0.220 OA 
ENDBRANCH  13  17
ENDBRANCH   6   8
ENDBRANCH   3   4
ENDBRANCH   2   3
TORSDOF 4
ENDMDL
MODEL      144
REMARK 921   NORMALIZED FREE ENERGY PREDICTED BY IDOCK:   -2.61 KCAL/MOL
REMARK 922        TOTAL FREE ENERGY PREDICTED BY IDOCK:   -4.19 KCAL/MOL
REMARK 923 INTER-LIGAND FREE ENERGY PREDICTED BY IDOCK:   -4.15 KCAL/MOL
REMARK 924 INTRA-LIGAND FREE ENERGY PREDICTED BY IDOCK:   -0.03 KCAL/MOL
REMARK 927      BINDING AFFINITY PREDICTED BY RF-SCORE:    0.00 PKD
ROOT
HETATM    1  C   UNL     1      -8.885  16.518  66.205  1.00  0.00    -0.342 C  
HETATM    2  C   UNL     1      -9.607  15.205  66.450  1.00  0.00    -0.309 C  
ENDROOT
BRANCH   2   3
HETATM    3  C   UNL     1      -9.658  14.865  67.936  1.00  0.00    -0.205 C  
BRANCH   3   4
HETATM    4  C   UNL     1      -9.987  13.407  68.134  1.00  0.00    -0.237 C  
HETATM    5  O   UNL     1     -10.973  13.060  68.784  1.00  0.00    -0.248 OA 
HETATM    6  N   UNL     1      -9.132  12.546  67.456  1.00  0.00    -0.179 N  
HETATM    7  H   UNL     1      -8.336  12.928  66.946  1.00  0.00     0.000 HD 
BRANCH   6   8
HETATM    8  C   UNL     1      -9.351  11.143  67.461  1.00  0.00    -0.168 A  
HETATM    9  C   UNL     1     -10.046  10.562  66.396  1.00  0.00    -0.228 A  
HETATM   10  C   UNL     1     -10.381   9.209  66.432  1.00  0.00    -0.235 A  
HETATM   11  I   UNL     1     -10.675  11.668  64.724  1.00  0.00    -0.347 I  
HETATM   12  C   UNL     1     -10.098   8.438  67.569  1.00  0.00    -0.218 A  
HETATM   13  C   UNL     1      -9.429   8.990  68.681  1.00  0.00    -0.149 A  
HETATM   14  I   UNL     1     -10.659   6.405  67.411  1.00  0.00    -0.496 I  
HETATM   15  C   UNL     1      -8.942  10.313  68.531  1.00  0.00    -0.134 A  
HETATM   16  I   UNL     1      -7.147  10.902  69.628  1.00  0.00     0.098 I  
BRANCH  13  17
HETATM   17  C   UNL     1      -9.275   8.238  69.994  1.00  0.00    -0.151 C  
HETATM   18  C   UNL     1      -8.572   6.856  69.903  1.00  0.00    -0.141 C  
HETATM   19  C   UNL     1      -8.507   6.237  71.293  1.00  0.00    -0.124 C  
HETATM   20  C   UNL     1      -7.177   6.842  69.249  1.00  0.00    -0.090 C  
HETATM   21  C   UNL     1      -6.124   7.705  69.927  1.00  0.00    -0.027 C  
HETATM   22  O   UNL     1      -8.501   6.871  72.337  1.00  0.00    -0.115 OA 
HETATM   23  O   UNL     1      -8.440   4.887  71.274  1.00  0.00    -0.111 OA 
ENDBRANCH  13  17
ENDBRANCH   6   8
ENDBRANCH   3   4
ENDBRANCH   2   3
TORSDOF 4
ENDMDL
MODEL      145
REMARK 921   NORMALIZED FREE ENERGY PREDICTED BY IDOCK:   -2.60 KCAL/MOL
REMARK 922        TOTAL FREE ENERGY PREDICTED BY IDOCK:   -4.18 KCAL/MOL
REMARK 923 INTER-LIGAND FREE ENERGY PREDICTED BY IDOCK:   -4.05 KCAL/MOL
REMARK 924 INTRA-LIGAND FREE ENERGY PREDICTED BY IDOCK:   -0.13 KCAL/MOL
REMARK 927      BINDING AFFINITY PREDICTED BY RF-SCORE:    0.00 PKD
ROOT
HETATM    1  C   UNL     1     -11.845   9.530  70.777  1.00  0.00    -0.350 C  
HETATM    2  C   UNL     1     -12.398   8.449  71.688  1.00  0.00    -0.359 C  
ENDROOT
BRANCH   2   3
HETATM    3  C   UNL     1     -11.346   7.964  72.680  1.00  0.00    -0.468 C  
BRANCH   3   4
HETATM    4  C   UNL     1     -10.342   7.074  71.993  1.00  0.00    -0.198 C  
HETATM    5  O   UNL     1      -9.132   7.272  72.109  1.00  0.00    -0.132 OA 
HETATM    6  N   UNL     1     -10.916   6.004  71.316  1.00  0.00    -0.274 N  
HETATM    7  H   UNL     1     -11.932   5.926  71.271  1.00  0.00     0.000 HD 
BRANCH   6   8
HETATM    8  C   UNL     1     -10.110   5.018  70.688  1.00  0.00    -0.243 A  
HETATM    9  C   UNL     1      -9.770   3.865  71.403  1.00  0.00    -0.176 A  
HETATM   10  C   UNL     1      -8.883   2.938  70.857  1.00  0.00    -0.144 A  
HETATM   11  I   UNL     1     -10.505   3.479  73.332  1.00  0.00    -0.318 I  
HETATM   12  C   UNL     1      -8.262   3.191  69.625  1.00  0.00    -0.051 A  
HETATM   13  C   UNL     1      -8.549   4.356  68.884  1.00  0.00    -0.104 A  
HETATM   14  I   UNL     1      -6.976   1.648  68.960  1.00  0.00    -0.036 I  
HETATM   15  C   UNL     1      -9.590   5.179  69.382  1.00  0.00    -0.161 A  
HETATM   16  I   UNL     1     -10.778   6.342  67.965  1.00  0.00    -0.388 I  
BRANCH  13  17
HETATM   17  C   UNL     1      -7.759   4.748  67.645  1.00  0.00    -0.086 C  
HETATM   18  C   UNL     1      -7.702   3.683  66.515  1.00  0.00    -0.084 C  
HETATM   19  C   UNL     1      -6.873   4.227  65.360  1.00  0.00    -0.057 C  
HETATM   20  C   UNL     1      -9.057   3.164  65.998  1.00  0.00    -0.148 C  
HETATM   21  C   UNL     1      -9.986   4.217  65.414  1.00  0.00    -0.211 C  
HETATM   22  O   UNL     1      -6.725   5.412  65.106  1.00  0.00    -0.043 OA 
HETATM   23  O   UNL     1      -6.305   3.258  64.607  1.00  0.00    -0.023 OA 
ENDBRANCH  13  17
ENDBRANCH   6   8
ENDBRANCH   3   4
ENDBRANCH   2   3
TORSDOF 4
ENDMDL
MODEL      146
REMARK 921   NORMALIZED FREE ENERGY PREDICTED BY IDOCK:   -2.57 KCAL/MOL
REMARK 922        TOTAL FREE ENERGY PREDICTED BY IDOCK:   -4.13 KCAL/MOL
REMARK 923 INTER-LIGAND FREE ENERGY PREDICTED BY IDOCK:   -3.17 KCAL/MOL
REMARK 924 INTRA-LIGAND FREE ENERGY PREDICTED BY IDOCK:   -0.96 KCAL/MOL
REMARK 927      BINDING AFFINITY PREDICTED BY RF-SCORE:    0.00 PKD
ROOT
HETATM    1  C   UNL     1      -5.561  10.323  64.031  1.00  0.00    -0.143 C  
HETATM    2  C   UNL     1      -6.545  10.455  65.179  1.00  0.00    -0.090 C  
ENDROOT
BRANCH   2   3
HETATM    3  C   UNL     1      -5.826  10.632  66.513  1.00  0.00    -0.081 C  
BRANCH   3   4
HETATM    4  C   UNL     1      -6.679  10.118  67.645  1.00  0.00    -0.075 C  
HETATM    5  O   UNL     1      -6.500  10.501  68.801  1.00  0.00    -0.050 OA 
HETATM    6  N   UNL     1      -7.697   9.266  67.234  1.00  0.00    -0.095 N  
HETATM    7  H   UNL     1      -7.763   9.001  66.252  1.00  0.00     0.000 HD 
BRANCH   6   8
HETATM    8  C   UNL     1      -8.648   8.760  68.161  1.00  0.00    -0.134 A  
HETATM    9  C   UNL     1      -9.822   9.485  68.389  1.00  0.00    -0.158 A  
HETATM   10  C   UNL     1     -10.716   9.078  69.379  1.00  0.00    -0.202 A  
HETATM   11  I   UNL     1     -10.292  11.234  67.324  1.00  0.00    -0.279 I  
HETATM   12  C   UNL     1     -10.407   7.989  70.208  1.00  0.00    -0.212 A  
HETATM   13  C   UNL     1      -9.219   7.249  70.036  1.00  0.00    -0.148 A  
HETATM   14  I   UNL     1     -11.906   7.515  71.624  1.00  0.00    -0.399 I  
HETATM   15  C   UNL     1      -8.430   7.578  68.906  1.00  0.00    -0.129 A  
HETATM   16  I   UNL     1      -7.230   6.010  67.971  1.00  0.00    -0.083 I  
BRANCH  13  17
HETATM   17  C   UNL     1      -8.769   6.189  71.031  1.00  0.00    -0.132 C  
HETATM   18  C   UNL     1      -7.525   6.551  71.888  1.00  0.00    -0.092 C  
HETATM   19  C   UNL     1      -7.207   5.389  72.818  1.00  0.00    -0.090 C  
HETATM   20  C   UNL     1      -7.605   7.865  72.686  1.00  0.00    -0.138 C  
HETATM   21  C   UNL     1      -8.738   7.953  73.697  1.00  0.00    -0.329 C  
HETATM   22  O   UNL     1      -8.023   4.574  73.220  1.00  0.00    -0.093 OA 
HETATM   23  O   UNL     1      -5.906   5.338  73.185  1.00  0.00    -0.022 OA 
ENDBRANCH  13  17
ENDBRANCH   6   8
ENDBRANCH   3   4
ENDBRANCH   2   3
TORSDOF 4
ENDMDL
MODEL      147
REMARK 921   NORMALIZED FREE ENERGY PREDICTED BY IDOCK:   -2.56 KCAL/MOL
REMARK 922        TOTAL FREE ENERGY PREDICTED BY IDOCK:   -4.12 KCAL/MOL
REMARK 923 INTER-LIGAND FREE ENERGY PREDICTED BY IDOCK:   -3.46 KCAL/MOL
REMARK 924 INTRA-LIGAND FREE ENERGY PREDICTED BY IDOCK:   -0.66 KCAL/MOL
REMARK 927      BINDING AFFINITY PREDICTED BY RF-SCORE:    0.00 PKD
ROOT
HETATM    1  C   UNL     1     -14.243   7.153  71.582  1.00  0.00    -0.502 C  
HETATM    2  C   UNL     1     -12.766   7.456  71.759  1.00  0.00    -0.367 C  
ENDROOT
BRANCH   2   3
HETATM    3  C   UNL     1     -11.904   6.236  71.448  1.00  0.00    -0.268 C  
BRANCH   3   4
HETATM    4  C   UNL     1     -10.617   6.654  70.783  1.00  0.00    -0.226 C  
HETATM    5  O   UNL     1      -9.622   6.943  71.449  1.00  0.00    -0.167 OA 
HETATM    6  N   UNL     1     -10.662   6.595  69.396  1.00  0.00    -0.237 N  
HETATM    7  H   UNL     1     -11.536   6.349  68.932  1.00  0.00     0.000 HD 
BRANCH   6   8
HETATM    8  C   UNL     1      -9.508   6.870  68.613  1.00  0.00    -0.134 A  
HETATM    9  C   UNL     1      -9.239   8.192  68.247  1.00  0.00    -0.134 A  
HETATM   10  C   UNL     1      -8.185   8.478  67.379  1.00  0.00    -0.109 A  
HETATM   11  I   UNL     1     -10.408   9.805  68.911  1.00  0.00    -0.270 I  
HETATM   12  C   UNL     1      -7.438   7.439  66.804  1.00  0.00    -0.096 A  
HETATM   13  C   UNL     1      -7.696   6.088  67.119  1.00  0.00    -0.101 A  
HETATM   14  I   UNL     1      -5.867   8.085  65.543  1.00  0.00    -0.037 I  
HETATM   15  C   UNL     1      -8.648   5.850  68.141  1.00  0.00    -0.113 A  
HETATM   16  I   UNL     1      -8.434   4.065  69.381  1.00  0.00    -0.125 I  
BRANCH  13  17
HETATM   17  C   UNL     1      -7.034   4.939  66.374  1.00  0.00    -0.067 C  
HETATM   18  C   UNL     1      -7.994   3.992  65.602  1.00  0.00    -0.093 C  
HETATM   19  C   UNL     1      -7.178   2.901  64.924  1.00  0.00    -0.062 C  
HETATM   20  C   UNL     1      -8.939   4.659  64.585  1.00  0.00    -0.151 C  
HETATM   21  C   UNL     1      -8.260   5.428  63.462  1.00  0.00    -0.121 C  
HETATM   22  O   UNL     1      -6.010   3.014  64.585  1.00  0.00    -0.017 OA 
HETATM   23  O   UNL     1      -7.878   1.765  64.708  1.00  0.00    -0.067 OA 
ENDBRANCH  13  17
ENDBRANCH   6   8
ENDBRANCH   3   4
ENDBRANCH   2   3
TORSDOF 4
ENDMDL
MODEL      148
REMARK 921   NORMALIZED FREE ENERGY PREDICTED BY IDOCK:   -2.55 KCAL/MOL
REMARK 922        TOTAL FREE ENERGY PREDICTED BY IDOCK:   -4.11 KCAL/MOL
REMARK 923 INTER-LIGAND FREE ENERGY PREDICTED BY IDOCK:   -3.25 KCAL/MOL
REMARK 924 INTRA-LIGAND FREE ENERGY PREDICTED BY IDOCK:   -0.86 KCAL/MOL
REMARK 927      BINDING AFFINITY PREDICTED BY RF-SCORE:    0.00 PKD
ROOT
HETATM    1  C   UNL     1      -5.934  14.537  70.865  1.00  0.00    -0.152 C  
HETATM    2  C   UNL     1      -5.275  13.481  69.996  1.00  0.00    -0.089 C  
ENDROOT
BRANCH   2   3
HETATM    3  C   UNL     1      -5.376  12.096  70.629  1.00  0.00    -0.152 C  
BRANCH   3   4
HETATM    4  C   UNL     1      -6.079  11.140  69.699  1.00  0.00    -0.093 C  
HETATM    5  O   UNL     1      -5.456  10.508  68.846  1.00  0.00    -0.042 OA 
HETATM    6  N   UNL     1      -7.436  11.001  69.964  1.00  0.00    -0.249 N  
HETATM    7  H   UNL     1      -7.867  11.574  70.691  1.00  0.00     0.000 HD 
BRANCH   6   8
HETATM    8  C   UNL     1      -8.233  10.075  69.241  1.00  0.00    -0.147 A  
HETATM    9  C   UNL     1      -8.575   8.860  69.844  1.00  0.00    -0.137 A  
HETATM   10  C   UNL     1      -9.252   7.882  69.117  1.00  0.00    -0.144 A  
HETATM   11  I   UNL     1      -8.058   8.404  71.828  1.00  0.00    -0.158 I  
HETATM   12  C   UNL     1      -9.523   8.073  67.753  1.00  0.00    -0.145 A  
HETATM   13  C   UNL     1      -9.166   9.268  67.094  1.00  0.00    -0.157 A  
HETATM   14  I   UNL     1     -10.583   6.486  66.841  1.00  0.00    -0.245 I  
HETATM   15  C   UNL     1      -8.650  10.307  67.909  1.00  0.00    -0.118 A  
HETATM   16  I   UNL     1      -8.995  12.379  67.312  1.00  0.00    -0.210 I  
BRANCH  13  17
HETATM   17  C   UNL     1      -9.276   9.429  65.586  1.00  0.00    -0.285 C  
HETATM   18  C   UNL     1      -7.933   9.415  64.805  1.00  0.00    -0.122 C  
HETATM   19  C   UNL     1      -8.218   9.593  63.321  1.00  0.00    -0.158 C  
HETATM   20  C   UNL     1      -7.025   8.191  65.030  1.00  0.00    -0.070 C  
HETATM   21  C   UNL     1      -7.633   6.846  64.664  1.00  0.00    -0.106 C  
HETATM   22  O   UNL     1      -9.261   9.278  62.769  1.00  0.00    -0.142 OA 
HETATM   23  O   UNL     1      -7.183  10.135  62.639  1.00  0.00    -0.127 OA 
ENDBRANCH  13  17
ENDBRANCH   6   8
ENDBRANCH   3   4
ENDBRANCH   2   3
TORSDOF 4
ENDMDL
MODEL      149
REMARK 921   NORMALIZED FREE ENERGY PREDICTED BY IDOCK:   -2.52 KCAL/MOL
REMARK 922        TOTAL FREE ENERGY PREDICTED BY IDOCK:   -4.07 KCAL/MOL
REMARK 923 INTER-LIGAND FREE ENERGY PREDICTED BY IDOCK:   -3.38 KCAL/MOL
REMARK 924 INTRA-LIGAND FREE ENERGY PREDICTED BY IDOCK:   -0.70 KCAL/MOL
REMARK 927      BINDING AFFINITY PREDICTED BY RF-SCORE:    0.00 PKD
ROOT
HETATM    1  C   UNL     1     -10.804   4.007  64.514  1.00  0.00    -0.142 C  
HETATM    2  C   UNL     1      -9.400   3.735  65.022  1.00  0.00    -0.157 C  
ENDROOT
BRANCH   2   3
HETATM    3  C   UNL     1      -8.635   5.032  65.270  1.00  0.00    -0.145 C  
BRANCH   3   4
HETATM    4  C   UNL     1      -8.876   5.527  66.673  1.00  0.00    -0.117 C  
HETATM    5  O   UNL     1      -9.870   5.177  67.310  1.00  0.00    -0.145 OA 
HETATM    6  N   UNL     1      -7.849   6.321  67.169  1.00  0.00    -0.103 N  
HETATM    7  H   UNL     1      -7.065   6.563  66.563  1.00  0.00     0.000 HD 
BRANCH   6   8
HETATM    8  C   UNL     1      -7.872   6.799  68.506  1.00  0.00    -0.118 A  
HETATM    9  C   UNL     1      -7.231   6.056  69.502  1.00  0.00    -0.070 A  
HETATM   10  C   UNL     1      -7.341   6.436  70.840  1.00  0.00    -0.083 A  
HETATM   11  I   UNL     1      -6.130   4.318  69.079  1.00  0.00    -0.029 I  
HETATM   12  C   UNL     1      -8.158   7.515  71.206  1.00  0.00    -0.096 A  
HETATM   13  C   UNL     1      -8.850   8.273  70.238  1.00  0.00    -0.141 A  
HETATM   14  I   UNL     1      -8.162   7.947  73.277  1.00  0.00    -0.282 I  
HETATM   15  C   UNL     1      -8.567   7.973  68.882  1.00  0.00    -0.131 A  
HETATM   16  I   UNL     1      -8.713   9.571  67.400  1.00  0.00    -0.136 I  
BRANCH  13  17
HETATM   17  C   UNL     1      -9.884   9.323  70.614  1.00  0.00    -0.332 C  
HETATM   18  C   UNL     1     -11.365   8.939  70.347  1.00  0.00    -0.229 C  
HETATM   19  C   UNL     1     -12.264  10.093  70.769  1.00  0.00    -0.338 C  
HETATM   20  C   UNL     1     -11.855   7.624  70.983  1.00  0.00    -0.306 C  
HETATM   21  C   UNL     1     -11.764   7.553  72.500  1.00  0.00    -0.310 C  
HETATM   22  O   UNL     1     -11.980  10.920  71.622  1.00  0.00    -0.068 OA 
HETATM   23  O   UNL     1     -13.444  10.120  70.112  1.00  0.00     0.102 OA 
ENDBRANCH  13  17
ENDBRANCH   6   8
ENDBRANCH   3   4
ENDBRANCH   2   3
TORSDOF 4
ENDMDL
MODEL      150
REMARK 921   NORMALIZED FREE ENERGY PREDICTED BY IDOCK:   -2.48 KCAL/MOL
REMARK 922        TOTAL FREE ENERGY PREDICTED BY IDOCK:   -4.02 KCAL/MOL
REMARK 923 INTER-LIGAND FREE ENERGY PREDICTED BY IDOCK:   -3.20 KCAL/MOL
REMARK 924 INTRA-LIGAND FREE ENERGY PREDICTED BY IDOCK:   -0.83 KCAL/MOL
REMARK 927      BINDING AFFINITY PREDICTED BY RF-SCORE:    0.00 PKD
ROOT
HETATM    1  C   UNL     1     -10.061  18.219  68.599  1.00  0.00    -0.407 C  
HETATM    2  C   UNL     1      -9.512  17.058  67.789  1.00  0.00    -0.245 C  
ENDROOT
BRANCH   2   3
HETATM    3  C   UNL     1      -7.987  17.037  67.808  1.00  0.00    -0.192 C  
BRANCH   3   4
HETATM    4  C   UNL     1      -7.478  15.618  67.786  1.00  0.00    -0.145 C  
HETATM    5  O   UNL     1      -6.622  15.262  66.976  1.00  0.00    -0.253 OA 
HETATM    6  N   UNL     1      -8.003  14.821  68.796  1.00  0.00    -0.146 N  
HETATM    7  H   UNL     1      -8.714  15.205  69.419  1.00  0.00     0.000 HD 
BRANCH   6   8
HETATM    8  C   UNL     1      -7.565  13.482  68.976  1.00  0.00     0.080 A  
HETATM    9  C   UNL     1      -6.403  13.244  69.717  1.00  0.00    -0.073 A  
HETATM   10  C   UNL     1      -5.882  11.953  69.808  1.00  0.00    -0.120 A  
HETATM   11  I   UNL     1      -5.345  14.782  70.679  1.00  0.00    -0.142 I  
HETATM   12  C   UNL     1      -6.470  10.899  69.092  1.00  0.00    -0.063 A  
HETATM   13  C   UNL     1      -7.623  11.100  68.305  1.00  0.00    -0.111 A  
HETATM   14  I   UNL     1      -5.549   9.019  69.390  1.00  0.00    -0.034 I  
HETATM   15  C   UNL     1      -8.228  12.379  68.387  1.00  0.00    -0.144 A  
HETATM   16  I   UNL     1     -10.387  12.541  68.103  1.00  0.00    -0.256 I  
BRANCH  13  17
HETATM   17  C   UNL     1      -8.170  10.027  67.376  1.00  0.00    -0.118 C  
HETATM   18  C   UNL     1      -7.984  10.291  65.856  1.00  0.00    -0.137 C  
HETATM   19  C   UNL     1      -8.588   9.134  65.072  1.00  0.00    -0.180 C  
HETATM   20  C   UNL     1      -6.544  10.560  65.382  1.00  0.00    -0.074 C  
HETATM   21  C   UNL     1      -5.544   9.445  65.648  1.00  0.00    -0.048 C  
HETATM   22  O   UNL     1      -8.711   7.995  65.496  1.00  0.00    -0.157 OA 
HETATM   23  O   UNL     1      -8.978   9.480  63.825  1.00  0.00    -0.229 OA 
ENDBRANCH  13  17
ENDBRANCH   6   8
ENDBRANCH   3   4
ENDBRANCH   2   3
TORSDOF 4
ENDMDL
MODEL      151
REMARK 921   NORMALIZED FREE ENERGY PREDICTED BY IDOCK:   -2.46 KCAL/MOL
REMARK 922        TOTAL FREE ENERGY PREDICTED BY IDOCK:   -4.00 KCAL/MOL
REMARK 923 INTER-LIGAND FREE ENERGY PREDICTED BY IDOCK:   -4.30 KCAL/MOL
REMARK 924 INTRA-LIGAND FREE ENERGY PREDICTED BY IDOCK:    0.30 KCAL/MOL
REMARK 927      BINDING AFFINITY PREDICTED BY RF-SCORE:    0.00 PKD
ROOT
HETATM    1  C   UNL     1     -12.885  12.613  64.330  1.00  0.00    -0.344 C  
HETATM    2  C   UNL     1     -11.829  11.739  63.678  1.00  0.00    -0.498 C  
ENDROOT
BRANCH   2   3
HETATM    3  C   UNL     1     -11.085  10.898  64.710  1.00  0.00     0.100 C  
BRANCH   3   4
HETATM    4  C   UNL     1      -9.878  11.640  65.227  1.00  0.00    -0.248 C  
HETATM    5  O   UNL     1      -8.871  11.778  64.533  1.00  0.00     0.362 OA 
HETATM    6  N   UNL     1     -10.064  12.196  66.487  1.00  0.00    -0.206 N  
HETATM    7  H   UNL     1     -10.934  12.023  66.989  1.00  0.00     0.000 HD 
BRANCH   6   8
HETATM    8  C   UNL     1      -9.060  13.004  67.086  1.00  0.00    -0.225 A  
HETATM    9  C   UNL     1      -8.012  12.382  67.772  1.00  0.00    -0.156 A  
HETATM   10  C   UNL     1      -7.081  13.149  68.472  1.00  0.00    -0.105 A  
HETATM   11  I   UNL     1      -7.797  10.294  67.848  1.00  0.00    -0.102 I  
HETATM   12  C   UNL     1      -7.233  14.540  68.563  1.00  0.00    -0.120 A  
HETATM   13  C   UNL     1      -8.294  15.207  67.915  1.00  0.00    -0.153 A  
HETATM   14  I   UNL     1      -5.700  15.519  69.643  1.00  0.00    -0.138 I  
HETATM   15  C   UNL     1      -9.108  14.417  67.064  1.00  0.00    -0.236 A  
HETATM   16  I   UNL     1     -10.045  15.364  65.333  1.00  0.00    -0.200 I  
BRANCH  13  17
HETATM   17  C   UNL     1      -8.592  16.680  68.147  1.00  0.00    -0.200 C  
HETATM   18  C   UNL     1     -10.078  17.102  67.991  1.00  0.00    -0.311 C  
HETATM   19  C   UNL     1     -10.202  18.597  68.247  1.00  0.00    -0.380 C  
HETATM   20  C   UNL     1     -11.101  16.330  68.845  1.00  0.00    -0.345 C  
HETATM   21  C   UNL     1     -10.893  16.407  70.350  1.00  0.00    -0.149 C  
HETATM   22  O   UNL     1      -9.440  19.249  68.946  1.00  0.00    -0.384 OA 
HETATM   23  O   UNL     1     -11.264  19.160  67.629  1.00  0.00    -0.261 OA 
ENDBRANCH  13  17
ENDBRANCH   6   8
ENDBRANCH   3   4
ENDBRANCH   2   3
TORSDOF 4
ENDMDL
MODEL      152
REMARK 921   NORMALIZED FREE ENERGY PREDICTED BY IDOCK:   -2.40 KCAL/MOL
REMARK 922        TOTAL FREE ENERGY PREDICTED BY IDOCK:   -3.93 KCAL/MOL
REMARK 923 INTER-LIGAND FREE ENERGY PREDICTED BY IDOCK:   -3.87 KCAL/MOL
REMARK 924 INTRA-LIGAND FREE ENERGY PREDICTED BY IDOCK:   -0.06 KCAL/MOL
REMARK 927      BINDING AFFINITY PREDICTED BY RF-SCORE:    0.00 PKD
ROOT
HETATM    1  C   UNL     1      -8.785  15.016  69.013  1.00  0.00    -0.203 C  
HETATM    2  C   UNL     1      -9.809  14.090  68.383  1.00  0.00    -0.232 C  
ENDROOT
BRANCH   2   3
HETATM    3  C   UNL     1      -9.152  13.094  67.433  1.00  0.00    -0.208 C  
BRANCH   3   4
HETATM    4  C   UNL     1      -9.033  11.741  68.087  1.00  0.00    -0.181 C  
HETATM    5  O   UNL     1      -8.074  11.465  68.809  1.00  0.00    -0.145 OA 
HETATM    6  N   UNL     1     -10.125  10.912  67.858  1.00  0.00    -0.173 N  
HETATM    7  H   UNL     1     -10.872  11.227  67.239  1.00  0.00     0.000 HD 
BRANCH   6   8
HETATM    8  C   UNL     1     -10.217   9.635  68.472  1.00  0.00    -0.193 A  
HETATM    9  C   UNL     1     -10.985   9.496  69.632  1.00  0.00    -0.212 A  
HETATM   10  C   UNL     1     -10.997   8.285  70.324  1.00  0.00    -0.233 A  
HETATM   11  I   UNL     1     -12.109  11.078  70.436  1.00  0.00    -0.461 I  
HETATM   12  C   UNL     1     -10.177   7.224  69.911  1.00  0.00    -0.205 A  
HETATM   13  C   UNL     1      -9.360   7.331  68.766  1.00  0.00    -0.143 A  
HETATM   14  I   UNL     1     -10.365   5.468  71.075  1.00  0.00    -0.269 I  
HETATM   15  C   UNL     1      -9.516   8.505  67.988  1.00  0.00    -0.140 A  
HETATM   16  I   UNL     1      -9.155   8.395  65.836  1.00  0.00    -0.088 I  
BRANCH  13  17
HETATM   17  C   UNL     1      -8.327   6.275  68.402  1.00  0.00    -0.115 C  
HETATM   18  C   UNL     1      -8.862   4.823  68.271  1.00  0.00    -0.117 C  
HETATM   19  C   UNL     1      -7.708   3.897  67.913  1.00  0.00    -0.067 C  
HETATM   20  C   UNL     1     -10.034   4.614  67.294  1.00  0.00    -0.203 C  
HETATM   21  C   UNL     1      -9.762   4.997  65.848  1.00  0.00    -0.182 C  
HETATM   22  O   UNL     1      -6.695   4.243  67.324  1.00  0.00    -0.046 OA 
HETATM   23  O   UNL     1      -7.908   2.618  68.301  1.00  0.00    -0.055 OA 
ENDBRANCH  13  17
ENDBRANCH   6   8
ENDBRANCH   3   4
ENDBRANCH   2   3
TORSDOF 4
ENDMDL
MODEL      153
REMARK 921   NORMALIZED FREE ENERGY PREDICTED BY IDOCK:   -2.38 KCAL/MOL
REMARK 922        TOTAL FREE ENERGY PREDICTED BY IDOCK:   -3.91 KCAL/MOL
REMARK 923 INTER-LIGAND FREE ENERGY PREDICTED BY IDOCK:   -3.91 KCAL/MOL
REMARK 924 INTRA-LIGAND FREE ENERGY PREDICTED BY IDOCK:    0.00 KCAL/MOL
REMARK 927      BINDING AFFINITY PREDICTED BY RF-SCORE:    0.00 PKD
ROOT
HETATM    1  C   UNL     1     -13.657   8.862  71.764  1.00  0.00    -0.461 C  
HETATM    2  C   UNL     1     -12.437   9.764  71.827  1.00  0.00    -0.485 C  
ENDROOT
BRANCH   2   3
HETATM    3  C   UNL     1     -12.025  10.242  70.438  1.00  0.00    -0.391 C  
BRANCH   3   4
HETATM    4  C   UNL     1     -10.728   9.598  70.021  1.00  0.00    -0.259 C  
HETATM    5  O   UNL     1      -9.768  10.278  69.656  1.00  0.00    -0.228 OA 
HETATM    6  N   UNL     1     -10.717   8.216  70.172  1.00  0.00    -0.242 N  
HETATM    7  H   UNL     1     -11.565   7.738  70.476  1.00  0.00     0.000 HD 
BRANCH   6   8
HETATM    8  C   UNL     1      -9.544   7.459  69.909  1.00  0.00    -0.163 A  
HETATM    9  C   UNL     1      -8.670   7.178  70.964  1.00  0.00    -0.141 A  
HETATM   10  C   UNL     1      -7.453   6.544  70.716  1.00  0.00    -0.087 A  
HETATM   11  I   UNL     1      -9.086   7.727  72.948  1.00  0.00    -0.344 I  
HETATM   12  C   UNL     1      -7.059   6.256  69.401  1.00  0.00    -0.073 A  
HETATM   13  C   UNL     1      -7.893   6.553  68.303  1.00  0.00    -0.106 A  
HETATM   14  I   UNL     1      -5.196   5.266  69.242  1.00  0.00     0.000 I  
HETATM   15  C   UNL     1      -9.194   7.025  68.609  1.00  0.00    -0.131 A  
HETATM   16  I   UNL     1     -10.826   6.579  67.227  1.00  0.00    -0.327 I  
BRANCH  13  17
HETATM   17  C   UNL     1      -7.419   6.427  66.863  1.00  0.00    -0.084 C  
HETATM   18  C   UNL     1      -6.842   5.042  66.460  1.00  0.00    -0.062 C  
HETATM   19  C   UNL     1      -6.409   5.088  65.001  1.00  0.00    -0.035 C  
HETATM   20  C   UNL     1      -7.752   3.825  66.707  1.00  0.00    -0.084 C  
HETATM   21  C   UNL     1      -9.091   3.848  65.985  1.00  0.00    -0.148 C  
HETATM   22  O   UNL     1      -6.883   5.834  64.158  1.00  0.00    -0.047 OA 
HETATM   23  O   UNL     1      -5.436   4.198  64.703  1.00  0.00    -0.012 OA 
ENDBRANCH  13  17
ENDBRANCH   6   8
ENDBRANCH   3   4
ENDBRANCH   2   3
TORSDOF 4
ENDMDL
MODEL      154
REMARK 921   NORMALIZED FREE ENERGY PREDICTED BY IDOCK:   -2.38 KCAL/MOL
REMARK 922        TOTAL FREE ENERGY PREDICTED BY IDOCK:   -3.90 KCAL/MOL
REMARK 923 INTER-LIGAND FREE ENERGY PREDICTED BY IDOCK:   -4.08 KCAL/MOL
REMARK 924 INTRA-LIGAND FREE ENERGY PREDICTED BY IDOCK:    0.18 KCAL/MOL
REMARK 927      BINDING AFFINITY PREDICTED BY RF-SCORE:    0.00 PKD
ROOT
HETATM    1  C   UNL     1      -9.938  11.845  65.765  1.00  0.00    -0.264 C  
HETATM    2  C   UNL     1     -10.730  11.794  67.059  1.00  0.00    -0.286 C  
ENDROOT
BRANCH   2   3
HETATM    3  C   UNL     1      -9.814  11.869  68.276  1.00  0.00    -0.199 C  
BRANCH   3   4
HETATM    4  C   UNL     1      -9.209  10.519  68.567  1.00  0.00    -0.168 C  
HETATM    5  O   UNL     1      -8.079  10.418  69.044  1.00  0.00    -0.118 OA 
HETATM    6  N   UNL     1     -10.072   9.457  68.323  1.00  0.00    -0.175 N  
HETATM    7  H   UNL     1     -10.991   9.640  67.921  1.00  0.00     0.000 HD 
BRANCH   6   8
HETATM    8  C   UNL     1      -9.694   8.122  68.627  1.00  0.00    -0.153 A  
HETATM    9  C   UNL     1      -8.986   7.385  67.672  1.00  0.00    -0.126 A  
HETATM   10  C   UNL     1      -8.708   6.037  67.892  1.00  0.00    -0.112 A  
HETATM   11  I   UNL     1      -8.351   8.218  65.851  1.00  0.00    -0.172 I  
HETATM   12  C   UNL     1      -9.206   5.387  69.031  1.00  0.00    -0.120 A  
HETATM   13  C   UNL     1      -9.954   6.082  70.004  1.00  0.00    -0.227 A  
HETATM   14  I   UNL     1      -8.647   3.353  69.192  1.00  0.00    -0.156 I  
HETATM   15  C   UNL     1     -10.055   7.485  69.837  1.00  0.00    -0.193 A  
HETATM   16  I   UNL     1     -10.249   8.743  71.613  1.00  0.00    -0.372 I  
BRANCH  13  17
HETATM   17  C   UNL     1     -10.662   5.370  71.147  1.00  0.00    -0.239 C  
HETATM   18  C   UNL     1      -9.771   4.446  72.023  1.00  0.00    -0.227 C  
HETATM   19  C   UNL     1     -10.629   3.810  73.108  1.00  0.00    -0.182 C  
HETATM   20  C   UNL     1      -8.521   5.095  72.646  1.00  0.00    -0.117 C  
HETATM   21  C   UNL     1      -8.782   6.274  73.570  1.00  0.00    -0.126 C  
HETATM   22  O   UNL     1     -11.654   4.297  73.560  1.00  0.00    -0.248 OA 
HETATM   23  O   UNL     1     -10.140   2.631  73.553  1.00  0.00    -0.100 OA 
ENDBRANCH  13  17
ENDBRANCH   6   8
ENDBRANCH   3   4
ENDBRANCH   2   3
TORSDOF 4
ENDMDL
MODEL      155
REMARK 921   NORMALIZED FREE ENERGY PREDICTED BY IDOCK:   -2.35 KCAL/MOL
REMARK 922        TOTAL FREE ENERGY PREDICTED BY IDOCK:   -3.86 KCAL/MOL
REMARK 923 INTER-LIGAND FREE ENERGY PREDICTED BY IDOCK:   -2.98 KCAL/MOL
REMARK 924 INTRA-LIGAND FREE ENERGY PREDICTED BY IDOCK:   -0.89 KCAL/MOL
REMARK 927      BINDING AFFINITY PREDICTED BY RF-SCORE:    0.00 PKD
ROOT
HETATM    1  C   UNL     1      -5.380   6.994  63.366  1.00  0.00    -0.032 C  
HETATM    2  C   UNL     1      -6.351   6.077  64.086  1.00  0.00    -0.030 C  
ENDROOT
BRANCH   2   3
HETATM    3  C   UNL     1      -6.095   6.063  65.590  1.00  0.00    -0.029 C  
BRANCH   3   4
HETATM    4  C   UNL     1      -7.128   6.894  66.309  1.00  0.00    -0.074 C  
HETATM    5  O   UNL     1      -8.098   7.359  65.711  1.00  0.00    -0.114 OA 
HETATM    6  N   UNL     1      -6.907   6.995  67.677  1.00  0.00    -0.071 N  
HETATM    7  H   UNL     1      -6.069   6.579  68.083  1.00  0.00     0.000 HD 
BRANCH   6   8
HETATM    8  C   UNL     1      -7.832   7.668  68.520  1.00  0.00    -0.121 A  
HETATM    9  C   UNL     1      -8.828   6.925  69.161  1.00  0.00    -0.134 A  
HETATM   10  C   UNL     1      -9.821   7.572  69.896  1.00  0.00    -0.187 A  
HETATM   11  I   UNL     1      -8.938   4.832  69.022  1.00  0.00    -0.185 I  
HETATM   12  C   UNL     1      -9.878   8.973  69.932  1.00  0.00    -0.183 A  
HETATM   13  C   UNL     1      -8.913   9.763  69.273  1.00  0.00    -0.177 A  
HETATM   14  I   UNL     1     -11.439   9.755  71.126  1.00  0.00    -0.381 I  
HETATM   15  C   UNL     1      -7.820   9.072  68.695  1.00  0.00    -0.101 A  
HETATM   16  I   UNL     1      -5.888  10.082  68.567  1.00  0.00    -0.040 I  
BRANCH  13  17
HETATM   17  C   UNL     1      -9.054  11.272  69.137  1.00  0.00     0.106 C  
HETATM   18  C   UNL     1      -9.397  11.793  67.714  1.00  0.00    -0.181 C  
HETATM   19  C   UNL     1      -9.493  13.312  67.751  1.00  0.00    -0.208 C  
HETATM   20  C   UNL     1     -10.653  11.196  67.053  1.00  0.00    -0.295 C  
HETATM   21  C   UNL     1     -11.957  11.409  67.806  1.00  0.00    -0.073 C  
HETATM   22  O   UNL     1      -9.781  13.968  68.740  1.00  0.00    -0.205 OA 
HETATM   23  O   UNL     1      -9.239  13.893  66.556  1.00  0.00    -0.260 OA 
ENDBRANCH  13  17
ENDBRANCH   6   8
ENDBRANCH   3   4
ENDBRANCH   2   3
TORSDOF 4
ENDMDL
MODEL      156
REMARK 921   NORMALIZED FREE ENERGY PREDICTED BY IDOCK:   -2.34 KCAL/MOL
REMARK 922        TOTAL FREE ENERGY PREDICTED BY IDOCK:   -3.85 KCAL/MOL
REMARK 923 INTER-LIGAND FREE ENERGY PREDICTED BY IDOCK:   -3.78 KCAL/MOL
REMARK 924 INTRA-LIGAND FREE ENERGY PREDICTED BY IDOCK:   -0.07 KCAL/MOL
REMARK 927      BINDING AFFINITY PREDICTED BY RF-SCORE:    0.00 PKD
ROOT
HETATM    1  C   UNL     1      -5.153  14.640  72.564  1.00  0.00    -0.201 C  
HETATM    2  C   UNL     1      -5.525  14.647  71.093  1.00  0.00    -0.145 C  
ENDROOT
BRANCH   2   3
HETATM    3  C   UNL     1      -5.605  13.231  70.531  1.00  0.00    -0.168 C  
BRANCH   3   4
HETATM    4  C   UNL     1      -6.225  13.242  69.157  1.00  0.00    -0.099 C  
HETATM    5  O   UNL     1      -5.715  13.877  68.234  1.00  0.00    -0.092 OA 
HETATM    6  N   UNL     1      -7.341  12.421  69.042  1.00  0.00    -0.293 N  
HETATM    7  H   UNL     1      -7.694  11.937  69.867  1.00  0.00     0.000 HD 
BRANCH   6   8
HETATM    8  C   UNL     1      -7.996  12.245  67.794  1.00  0.00    -0.154 A  
HETATM    9  C   UNL     1      -9.051  13.098  67.458  1.00  0.00    -0.205 A  
HETATM   10  C   UNL     1      -9.791  12.873  66.297  1.00  0.00    -0.273 A  
HETATM   11  I   UNL     1      -9.629  14.710  68.674  1.00  0.00    -0.151 I  
HETATM   12  C   UNL     1      -9.537  11.746  65.501  1.00  0.00    -0.201 A  
HETATM   13  C   UNL     1      -8.504  10.840  65.820  1.00  0.00    -0.174 A  
HETATM   14  I   UNL     1     -10.747  11.606  63.771  1.00  0.00    -0.529 I  
HETATM   15  C   UNL     1      -7.659  11.203  66.899  1.00  0.00    -0.145 A  
HETATM   16  I   UNL     1      -5.580  10.533  66.875  1.00  0.00    -0.064 I  
BRANCH  13  17
HETATM   17  C   UNL     1      -8.327   9.518  65.089  1.00  0.00    -0.148 C  
HETATM   18  C   UNL     1      -8.004   8.290  65.982  1.00  0.00    -0.098 C  
HETATM   19  C   UNL     1      -7.851   7.059  65.100  1.00  0.00    -0.124 C  
HETATM   20  C   UNL     1      -8.989   8.002  67.130  1.00  0.00    -0.150 C  
HETATM   21  C   UNL     1     -10.427   7.737  66.712  1.00  0.00    -0.318 C  
HETATM   22  O   UNL     1      -8.384   6.913  64.010  1.00  0.00     0.016 OA 
HETATM   23  O   UNL     1      -7.064   6.104  65.645  1.00  0.00    -0.069 OA 
ENDBRANCH  13  17
ENDBRANCH   6   8
ENDBRANCH   3   4
ENDBRANCH   2   3
TORSDOF 4
ENDMDL
MODEL      157
REMARK 921   NORMALIZED FREE ENERGY PREDICTED BY IDOCK:   -2.33 KCAL/MOL
REMARK 922        TOTAL FREE ENERGY PREDICTED BY IDOCK:   -3.84 KCAL/MOL
REMARK 923 INTER-LIGAND FREE ENERGY PREDICTED BY IDOCK:   -3.97 KCAL/MOL
REMARK 924 INTRA-LIGAND FREE ENERGY PREDICTED BY IDOCK:    0.13 KCAL/MOL
REMARK 927      BINDING AFFINITY PREDICTED BY RF-SCORE:    0.00 PKD
ROOT
HETATM    1  C   UNL     1      -8.160   6.738  65.922  1.00  0.00    -0.123 C  
HETATM    2  C   UNL     1      -8.643   8.172  66.050  1.00  0.00    -0.165 C  
ENDROOT
BRANCH   2   3
HETATM    3  C   UNL     1      -7.481   9.159  65.996  1.00  0.00    -0.095 C  
BRANCH   3   4
HETATM    4  C   UNL     1      -7.988  10.576  66.074  1.00  0.00    -0.149 C  
HETATM    5  O   UNL     1      -8.468  11.135  65.088  1.00  0.00    -0.038 OA 
HETATM    6  N   UNL     1      -7.931  11.120  67.352  1.00  0.00    -0.121 N  
HETATM    7  H   UNL     1      -7.510  10.580  68.108  1.00  0.00     0.000 HD 
BRANCH   6   8
HETATM    8  C   UNL     1      -8.450  12.414  67.622  1.00  0.00    -0.169 A  
HETATM    9  C   UNL     1      -9.794  12.542  67.984  1.00  0.00    -0.214 A  
HETATM   10  C   UNL     1     -10.361  13.807  68.136  1.00  0.00    -0.252 A  
HETATM   11  I   UNL     1     -11.048  10.881  68.265  1.00  0.00    -0.380 I  
HETATM   12  C   UNL     1      -9.614  14.959  67.848  1.00  0.00    -0.205 A  
HETATM   13  C   UNL     1      -8.264  14.877  67.447  1.00  0.00    -0.217 A  
HETATM   14  I   UNL     1     -10.647  16.776  68.172  1.00  0.00    -0.317 I  
HETATM   15  C   UNL     1      -7.673  13.589  67.484  1.00  0.00    -0.175 A  
HETATM   16  I   UNL     1      -5.531  13.428  67.878  1.00  0.00     0.005 I  
BRANCH  13  17
HETATM   17  C   UNL     1      -7.488  16.087  66.950  1.00  0.00    -0.253 C  
HETATM   18  C   UNL     1      -7.357  17.264  67.954  1.00  0.00    -0.189 C  
HETATM   19  C   UNL     1      -6.565  18.389  67.302  1.00  0.00    -0.194 C  
HETATM   20  C   UNL     1      -6.759  16.923  69.332  1.00  0.00    -0.220 C  
HETATM   21  C   UNL     1      -5.353  16.346  69.314  1.00  0.00    -0.122 C  
HETATM   22  O   UNL     1      -5.743  18.236  66.411  1.00  0.00    -0.144 OA 
HETATM   23  O   UNL     1      -6.845  19.608  67.815  1.00  0.00    -0.232 OA 
ENDBRANCH  13  17
ENDBRANCH   6   8
ENDBRANCH   3   4
ENDBRANCH   2   3
TORSDOF 4
ENDMDL
MODEL      158
REMARK 921   NORMALIZED FREE ENERGY PREDICTED BY IDOCK:   -2.32 KCAL/MOL
REMARK 922        TOTAL FREE ENERGY PREDICTED BY IDOCK:   -3.83 KCAL/MOL
REMARK 923 INTER-LIGAND FREE ENERGY PREDICTED BY IDOCK:   -3.76 KCAL/MOL
REMARK 924 INTRA-LIGAND FREE ENERGY PREDICTED BY IDOCK:   -0.07 KCAL/MOL
REMARK 927      BINDING AFFINITY PREDICTED BY RF-SCORE:    0.00 PKD
ROOT
HETATM    1  C   UNL     1      -6.333  14.415  67.796  1.00  0.00    -0.168 C  
HETATM    2  C   UNL     1      -6.656  12.944  67.604  1.00  0.00    -0.155 C  
ENDROOT
BRANCH   2   3
HETATM    3  C   UNL     1      -5.913  12.074  68.612  1.00  0.00    -0.054 C  
BRANCH   3   4
HETATM    4  C   UNL     1      -6.888  11.306  69.468  1.00  0.00    -0.115 C  
HETATM    5  O   UNL     1      -6.769  11.272  70.693  1.00  0.00    -0.081 OA 
HETATM    6  N   UNL     1      -7.935  10.741  68.751  1.00  0.00    -0.128 N  
HETATM    7  H   UNL     1      -7.946  10.818  67.733  1.00  0.00     0.000 HD 
BRANCH   6   8
HETATM    8  C   UNL     1      -8.992  10.058  69.411  1.00  0.00    -0.194 A  
HETATM    9  C   UNL     1     -10.214  10.714  69.588  1.00  0.00    -0.116 A  
HETATM   10  C   UNL     1     -11.227  10.116  70.338  1.00  0.00    -0.402 A  
HETATM   11  I   UNL     1     -10.591  12.627  68.807  1.00  0.00    -0.038 I  
HETATM   12  C   UNL     1     -11.002   8.894  70.987  1.00  0.00    -0.276 A  
HETATM   13  C   UNL     1      -9.773   8.213  70.864  1.00  0.00    -0.191 A  
HETATM   14  I   UNL     1     -12.673   8.144  72.045  1.00  0.00    -0.297 I  
HETATM   15  C   UNL     1      -8.839   8.758  69.948  1.00  0.00    -0.143 A  
HETATM   16  I   UNL     1      -7.453   7.410  68.933  1.00  0.00    -0.106 I  
BRANCH  13  17
HETATM   17  C   UNL     1      -9.434   6.989  71.701  1.00  0.00    -0.160 C  
HETATM   18  C   UNL     1     -10.437   5.807  71.607  1.00  0.00    -0.286 C  
HETATM   19  C   UNL     1      -9.957   4.674  72.504  1.00  0.00    -0.168 C  
HETATM   20  C   UNL     1     -10.734   5.275  70.192  1.00  0.00    -0.217 C  
HETATM   21  C   UNL     1      -9.534   4.752  69.420  1.00  0.00    -0.229 C  
HETATM   22  O   UNL     1      -8.793   4.478  72.816  1.00  0.00    -0.112 OA 
HETATM   23  O   UNL     1     -10.957   3.869  72.929  1.00  0.00    -0.130 OA 
ENDBRANCH  13  17
ENDBRANCH   6   8
ENDBRANCH   3   4
ENDBRANCH   2   3
TORSDOF 4
ENDMDL
MODEL      159
REMARK 921   NORMALIZED FREE ENERGY PREDICTED BY IDOCK:   -2.31 KCAL/MOL
REMARK 922        TOTAL FREE ENERGY PREDICTED BY IDOCK:   -3.82 KCAL/MOL
REMARK 923 INTER-LIGAND FREE ENERGY PREDICTED BY IDOCK:   -3.27 KCAL/MOL
REMARK 924 INTRA-LIGAND FREE ENERGY PREDICTED BY IDOCK:   -0.56 KCAL/MOL
REMARK 927      BINDING AFFINITY PREDICTED BY RF-SCORE:    0.00 PKD
ROOT
HETATM    1  C   UNL     1      -9.731  10.600  63.858  1.00  0.00    -0.378 C  
HETATM    2  C   UNL     1      -9.484   9.649  65.014  1.00  0.00    -0.312 C  
ENDROOT
BRANCH   2   3
HETATM    3  C   UNL     1      -9.895  10.270  66.345  1.00  0.00    -0.272 C  
BRANCH   3   4
HETATM    4  C   UNL     1      -9.649  11.757  66.333  1.00  0.00    -0.218 C  
HETATM    5  O   UNL     1      -8.519  12.213  66.159  1.00  0.00     0.046 OA 
HETATM    6  N   UNL     1     -10.808  12.515  66.452  1.00  0.00    -0.255 N  
HETATM    7  H   UNL     1     -11.701  12.046  66.600  1.00  0.00     0.000 HD 
BRANCH   6   8
HETATM    8  C   UNL     1     -10.768  13.933  66.371  1.00  0.00    -0.281 A  
HETATM    9  C   UNL     1     -11.226  14.557  65.207  1.00  0.00    -0.352 A  
HETATM   10  C   UNL     1     -11.086  15.936  65.050  1.00  0.00    -0.370 A  
HETATM   11  I   UNL     1     -12.086  13.486  63.618  1.00  0.00     0.076 I  
HETATM   12  C   UNL     1     -10.414  16.696  66.018  1.00  0.00    -0.298 A  
HETATM   13  C   UNL     1      -9.905  16.103  67.193  1.00  0.00    -0.241 A  
HETATM   14  I   UNL     1     -10.338  18.769  65.606  1.00  0.00     0.730 I  
HETATM   15  C   UNL     1     -10.229  14.739  67.402  1.00  0.00    -0.236 A  
HETATM   16  I   UNL     1     -10.416  14.005  69.450  1.00  0.00     0.390 I  
BRANCH  13  17
HETATM   17  C   UNL     1      -9.014  16.860  68.166  1.00  0.00    -0.227 C  
HETATM   18  C   UNL     1      -7.571  16.309  68.328  1.00  0.00    -0.153 C  
HETATM   19  C   UNL     1      -6.820  17.170  69.335  1.00  0.00    -0.165 C  
HETATM   20  C   UNL     1      -6.747  16.162  67.035  1.00  0.00    -0.183 C  
HETATM   21  C   UNL     1      -6.524  17.444  66.247  1.00  0.00    -0.270 C  
HETATM   22  O   UNL     1      -7.069  18.342  69.572  1.00  0.00    -0.108 OA 
HETATM   23  O   UNL     1      -5.814  16.513  69.955  1.00  0.00    -0.187 OA 
ENDBRANCH  13  17
ENDBRANCH   6   8
ENDBRANCH   3   4
ENDBRANCH   2   3
TORSDOF 4
ENDMDL
MODEL      160
REMARK 921   NORMALIZED FREE ENERGY PREDICTED BY IDOCK:   -2.31 KCAL/MOL
REMARK 922        TOTAL FREE ENERGY PREDICTED BY IDOCK:   -3.81 KCAL/MOL
REMARK 923 INTER-LIGAND FREE ENERGY PREDICTED BY IDOCK:   -4.38 KCAL/MOL
REMARK 924 INTRA-LIGAND FREE ENERGY PREDICTED BY IDOCK:    0.56 KCAL/MOL
REMARK 927      BINDING AFFINITY PREDICTED BY RF-SCORE:    0.00 PKD
ROOT
HETATM    1  C   UNL     1      -8.820   9.122  64.411  1.00  0.00    -0.156 C  
HETATM    2  C   UNL     1      -9.297  10.264  65.290  1.00  0.00    -0.267 C  
ENDROOT
BRANCH   2   3
HETATM    3  C   UNL     1     -10.622  10.834  64.794  1.00  0.00    -0.264 C  
BRANCH   3   4
HETATM    4  C   UNL     1     -11.120  11.905  65.731  1.00  0.00    -0.317 C  
HETATM    5  O   UNL     1     -12.225  12.425  65.573  1.00  0.00    -0.568 OA 
HETATM    6  N   UNL     1     -10.261  12.161  66.793  1.00  0.00    -0.202 N  
HETATM    7  H   UNL     1      -9.361  11.682  66.837  1.00  0.00     0.000 HD 
BRANCH   6   8
HETATM    8  C   UNL     1     -10.615  13.078  67.819  1.00  0.00    -0.226 A  
HETATM    9  C   UNL     1     -11.238  12.594  68.973  1.00  0.00    -0.269 A  
HETATM   10  C   UNL     1     -11.707  13.481  69.941  1.00  0.00    -0.341 A  
HETATM   11  I   UNL     1     -11.561  10.545  69.305  1.00  0.00    -0.184 I  
HETATM   12  C   UNL     1     -11.632  14.866  69.729  1.00  0.00    -0.303 A  
HETATM   13  C   UNL     1     -11.042  15.399  68.564  1.00  0.00    -0.295 A  
HETATM   14  I   UNL     1     -12.368  16.038  71.329  1.00  0.00     0.275 I  
HETATM   15  C   UNL     1     -10.414  14.473  67.695  1.00  0.00    -0.246 A  
HETATM   16  I   UNL     1      -8.707  15.138  66.506  1.00  0.00     0.048 I  
BRANCH  13  17
HETATM   17  C   UNL     1     -11.114  16.879  68.220  1.00  0.00    -0.213 C  
HETATM   18  C   UNL     1     -10.315  17.830  69.153  1.00  0.00    -0.157 C  
HETATM   19  C   UNL     1     -10.498  19.264  68.678  1.00  0.00    -0.087 C  
HETATM   20  C   UNL     1      -8.817  17.514  69.327  1.00  0.00     0.246 C  
HETATM   21  C   UNL     1      -7.989  17.530  68.051  1.00  0.00    -0.234 C  
HETATM   22  O   UNL     1     -10.752  19.590  67.528  1.00  0.00    -0.465 OA 
HETATM   23  O   UNL     1     -10.337  20.178  69.661  1.00  0.00    -0.150 OA 
ENDBRANCH  13  17
ENDBRANCH   6   8
ENDBRANCH   3   4
ENDBRANCH   2   3
TORSDOF 4
ENDMDL
MODEL      161
REMARK 921   NORMALIZED FREE ENERGY PREDICTED BY IDOCK:   -2.30 KCAL/MOL
REMARK 922        TOTAL FREE ENERGY PREDICTED BY IDOCK:   -3.80 KCAL/MOL
REMARK 923 INTER-LIGAND FREE ENERGY PREDICTED BY IDOCK:   -2.88 KCAL/MOL
REMARK 924 INTRA-LIGAND FREE ENERGY PREDICTED BY IDOCK:   -0.92 KCAL/MOL
REMARK 927      BINDING AFFINITY PREDICTED BY RF-SCORE:    0.00 PKD
ROOT
HETATM    1  C   UNL     1     -13.982  14.704  71.456  1.00  0.00    -0.515 C  
HETATM    2  C   UNL     1     -12.798  13.768  71.286  1.00  0.00    -0.434 C  
ENDROOT
BRANCH   2   3
HETATM    3  C   UNL     1     -12.080  14.012  69.962  1.00  0.00    -0.412 C  
BRANCH   3   4
HETATM    4  C   UNL     1     -11.128  12.881  69.662  1.00  0.00     0.094 C  
HETATM    5  O   UNL     1      -9.924  12.985  69.896  1.00  0.00     1.418 OA 
HETATM    6  N   UNL     1     -11.756  11.734  69.192  1.00  0.00    -0.300 N  
HETATM    7  H   UNL     1     -12.762  11.745  69.024  1.00  0.00     0.000 HD 
BRANCH   6   8
HETATM    8  C   UNL     1     -11.019  10.545  68.943  1.00  0.00    -0.246 A  
HETATM    9  C   UNL     1     -11.123   9.483  69.846  1.00  0.00    -0.216 A  
HETATM   10  C   UNL     1     -10.320   8.353  69.694  1.00  0.00    -0.218 A  
HETATM   11  I   UNL     1     -12.423   9.529  71.495  1.00  0.00    -0.516 I  
HETATM   12  C   UNL     1      -9.346   8.305  68.686  1.00  0.00    -0.143 A  
HETATM   13  C   UNL     1      -9.182   9.368  67.773  1.00  0.00    -0.141 A  
HETATM   14  I   UNL     1      -8.257   6.493  68.606  1.00  0.00    -0.118 I  
HETATM   15  C   UNL     1     -10.137  10.413  67.845  1.00  0.00    -0.171 A  
HETATM   16  I   UNL     1     -10.634  11.508  66.022  1.00  0.00    -0.285 I  
BRANCH  13  17
HETATM   17  C   UNL     1      -8.019   9.428  66.795  1.00  0.00    -0.108 C  
HETATM   18  C   UNL     1      -6.957  10.527  67.074  1.00  0.00    -0.089 C  
HETATM   19  C   UNL     1      -5.874  10.455  66.006  1.00  0.00    -0.093 C  
HETATM   20  C   UNL     1      -6.322  10.522  68.477  1.00  0.00    -0.050 C  
HETATM   21  C   UNL     1      -5.587   9.247  68.862  1.00  0.00    -0.037 C  
HETATM   22  O   UNL     1      -5.578   9.448  65.381  1.00  0.00    -0.050 OA 
HETATM   23  O   UNL     1      -5.238  11.632  65.810  1.00  0.00    -0.250 OA 
ENDBRANCH  13  17
ENDBRANCH   6   8
ENDBRANCH   3   4
ENDBRANCH   2   3
TORSDOF 4
ENDMDL
MODEL      162
REMARK 921   NORMALIZED FREE ENERGY PREDICTED BY IDOCK:   -2.29 KCAL/MOL
REMARK 922        TOTAL FREE ENERGY PREDICTED BY IDOCK:   -3.80 KCAL/MOL
REMARK 923 INTER-LIGAND FREE ENERGY PREDICTED BY IDOCK:   -2.98 KCAL/MOL
REMARK 924 INTRA-LIGAND FREE ENERGY PREDICTED BY IDOCK:   -0.82 KCAL/MOL
REMARK 927      BINDING AFFINITY PREDICTED BY RF-SCORE:    0.00 PKD
ROOT
HETATM    1  C   UNL     1     -11.783   9.493  71.732  1.00  0.00    -0.411 C  
HETATM    2  C   UNL     1     -12.217   8.184  72.367  1.00  0.00    -0.374 C  
ENDROOT
BRANCH   2   3
HETATM    3  C   UNL     1     -11.090   7.560  73.185  1.00  0.00    -0.378 C  
BRANCH   3   4
HETATM    4  C   UNL     1      -9.994   7.061  72.279  1.00  0.00    -0.171 C  
HETATM    5  O   UNL     1      -8.888   7.601  72.262  1.00  0.00    -0.121 OA 
HETATM    6  N   UNL     1     -10.338   5.920  71.564  1.00  0.00    -0.215 N  
HETATM    7  H   UNL     1     -11.284   5.547  71.639  1.00  0.00     0.000 HD 
BRANCH   6   8
HETATM    8  C   UNL     1      -9.392   5.266  70.729  1.00  0.00    -0.159 A  
HETATM    9  C   UNL     1      -8.571   4.278  71.282  1.00  0.00    -0.101 A  
HETATM   10  C   UNL     1      -7.554   3.705  70.520  1.00  0.00    -0.041 A  
HETATM   11  I   UNL     1      -8.764   3.637  73.273  1.00  0.00    -0.093 I  
HETATM   12  C   UNL     1      -7.292   4.170  69.223  1.00  0.00    -0.054 A  
HETATM   13  C   UNL     1      -8.073   5.188  68.637  1.00  0.00    -0.086 A  
HETATM   14  I   UNL     1      -5.729   3.150  68.226  1.00  0.00    -0.024 I  
HETATM   15  C   UNL     1      -9.209   5.612  69.370  1.00  0.00    -0.121 A  
HETATM   16  I   UNL     1     -10.952   6.343  68.276  1.00  0.00    -0.120 I  
BRANCH  13  17
HETATM   17  C   UNL     1      -7.699   5.840  67.314  1.00  0.00    -0.101 C  
HETATM   18  C   UNL     1      -7.610   7.391  67.326  1.00  0.00    -0.108 C  
HETATM   19  C   UNL     1      -7.236   7.879  65.934  1.00  0.00    -0.072 C  
HETATM   20  C   UNL     1      -6.673   8.013  68.378  1.00  0.00    -0.067 C  
HETATM   21  C   UNL     1      -5.212   7.600  68.283  1.00  0.00    -0.026 C  
HETATM   22  O   UNL     1      -6.612   7.227  65.112  1.00  0.00    -0.043 OA 
HETATM   23  O   UNL     1      -7.655   9.139  65.679  1.00  0.00    -0.092 OA 
ENDBRANCH  13  17
ENDBRANCH   6   8
ENDBRANCH   3   4
ENDBRANCH   2   3
TORSDOF 4
ENDMDL
MODEL      163
REMARK 921   NORMALIZED FREE ENERGY PREDICTED BY IDOCK:   -2.29 KCAL/MOL
REMARK 922        TOTAL FREE ENERGY PREDICTED BY IDOCK:   -3.79 KCAL/MOL
REMARK 923 INTER-LIGAND FREE ENERGY PREDICTED BY IDOCK:   -5.01 KCAL/MOL
REMARK 924 INTRA-LIGAND FREE ENERGY PREDICTED BY IDOCK:    1.22 KCAL/MOL
REMARK 927      BINDING AFFINITY PREDICTED BY RF-SCORE:    0.00 PKD
ROOT
HETATM    1  C   UNL     1      -5.175  14.037  72.705  1.00  0.00    -0.236 C  
HETATM    2  C   UNL     1      -5.902  14.390  71.420  1.00  0.00    -0.122 C  
ENDROOT
BRANCH   2   3
HETATM    3  C   UNL     1      -5.840  13.246  70.412  1.00  0.00    -0.161 C  
BRANCH   3   4
HETATM    4  C   UNL     1      -6.687  13.560  69.205  1.00  0.00    -0.080 C  
HETATM    5  O   UNL     1      -6.258  14.265  68.292  1.00  0.00    -0.095 OA 
HETATM    6  N   UNL     1      -7.920  12.918  69.208  1.00  0.00    -0.110 N  
HETATM    7  H   UNL     1      -8.191  12.355  70.014  1.00  0.00     0.000 HD 
BRANCH   6   8
HETATM    8  C   UNL     1      -8.808  13.032  68.104  1.00  0.00    -0.194 A  
HETATM    9  C   UNL     1      -8.931  11.954  67.222  1.00  0.00    -0.176 A  
HETATM   10  C   UNL     1      -9.700  12.081  66.065  1.00  0.00    -0.256 A  
HETATM   11  I   UNL     1      -7.946  10.125  67.531  1.00  0.00    -0.105 I  
HETATM   12  C   UNL     1     -10.288  13.311  65.735  1.00  0.00    -0.288 A  
HETATM   13  C   UNL     1     -10.162  14.434  66.579  1.00  0.00    -0.276 A  
HETATM   14  I   UNL     1     -11.436  13.284  63.959  1.00  0.00    -0.292 I  
HETATM   15  C   UNL     1      -9.532  14.215  67.830  1.00  0.00    -0.211 A  
HETATM   16  I   UNL     1     -10.124  15.447  69.534  1.00  0.00    -0.213 I  
BRANCH  13  17
HETATM   17  C   UNL     1     -10.625  15.822  66.161  1.00  0.00    -0.318 C  
HETATM   18  C   UNL     1     -10.094  16.999  67.024  1.00  0.00    -0.295 C  
HETATM   19  C   UNL     1     -10.653  18.307  66.480  1.00  0.00    -0.288 C  
HETATM   20  C   UNL     1      -8.565  17.098  67.177  1.00  0.00    -0.221 C  
HETATM   21  C   UNL     1      -7.783  17.259  65.882  1.00  0.00    -0.064 C  
HETATM   22  O   UNL     1     -10.997  18.489  65.322  1.00  0.00    -0.551 OA 
HETATM   23  O   UNL     1     -10.729  19.284  67.411  1.00  0.00    -0.463 OA 
ENDBRANCH  13  17
ENDBRANCH   6   8
ENDBRANCH   3   4
ENDBRANCH   2   3
TORSDOF 4
ENDMDL
MODEL      164
REMARK 921   NORMALIZED FREE ENERGY PREDICTED BY IDOCK:   -2.28 KCAL/MOL
REMARK 922        TOTAL FREE ENERGY PREDICTED BY IDOCK:   -3.78 KCAL/MOL
REMARK 923 INTER-LIGAND FREE ENERGY PREDICTED BY IDOCK:   -2.80 KCAL/MOL
REMARK 924 INTRA-LIGAND FREE ENERGY PREDICTED BY IDOCK:   -0.99 KCAL/MOL
REMARK 927      BINDING AFFINITY PREDICTED BY RF-SCORE:    0.00 PKD
ROOT
HETATM    1  C   UNL     1     -10.789   4.338  64.983  1.00  0.00    -0.102 C  
HETATM    2  C   UNL     1      -9.462   3.639  65.218  1.00  0.00    -0.162 C  
ENDROOT
BRANCH   2   3
HETATM    3  C   UNL     1      -8.345   4.641  65.491  1.00  0.00    -0.118 C  
BRANCH   3   4
HETATM    4  C   UNL     1      -8.158   4.832  66.975  1.00  0.00    -0.106 C  
HETATM    5  O   UNL     1      -7.841   3.891  67.703  1.00  0.00    -0.081 OA 
HETATM    6  N   UNL     1      -8.297   6.151  67.389  1.00  0.00    -0.109 N  
HETATM    7  H   UNL     1      -8.568   6.864  66.711  1.00  0.00     0.000 HD 
BRANCH   6   8
HETATM    8  C   UNL     1      -8.067   6.523  68.741  1.00  0.00    -0.118 A  
HETATM    9  C   UNL     1      -6.836   7.090  69.086  1.00  0.00    -0.061 A  
HETATM   10  C   UNL     1      -6.536   7.352  70.423  1.00  0.00    -0.039 A  
HETATM   11  I   UNL     1      -5.356   7.525  67.661  1.00  0.00    -0.033 I  
HETATM   12  C   UNL     1      -7.429   6.976  71.437  1.00  0.00    -0.081 A  
HETATM   13  C   UNL     1      -8.668   6.371  71.137  1.00  0.00    -0.135 A  
HETATM   14  I   UNL     1      -6.802   7.490  73.391  1.00  0.00    -0.098 I  
HETATM   15  C   UNL     1      -9.015   6.292  69.765  1.00  0.00    -0.140 A  
HETATM   16  I   UNL     1     -11.126   6.350  69.211  1.00  0.00    -0.263 I  
BRANCH  13  17
HETATM   17  C   UNL     1      -9.569   5.786  72.214  1.00  0.00    -0.164 C  
HETATM   18  C   UNL     1      -9.678   4.236  72.234  1.00  0.00    -0.210 C  
HETATM   19  C   UNL     1     -10.617   3.818  73.357  1.00  0.00    -0.193 C  
HETATM   20  C   UNL     1      -8.352   3.459  72.332  1.00  0.00    -0.083 C  
HETATM   21  C   UNL     1      -7.511   3.746  73.565  1.00  0.00    -0.069 C  
HETATM   22  O   UNL     1     -10.825   4.470  74.369  1.00  0.00    -0.303 OA 
HETATM   23  O   UNL     1     -11.209   2.622  73.142  1.00  0.00    -0.129 OA 
ENDBRANCH  13  17
ENDBRANCH   6   8
ENDBRANCH   3   4
ENDBRANCH   2   3
TORSDOF 4
ENDMDL
MODEL      165
REMARK 921   NORMALIZED FREE ENERGY PREDICTED BY IDOCK:   -2.10 KCAL/MOL
REMARK 922        TOTAL FREE ENERGY PREDICTED BY IDOCK:   -3.55 KCAL/MOL
REMARK 923 INTER-LIGAND FREE ENERGY PREDICTED BY IDOCK:   -3.83 KCAL/MOL
REMARK 924 INTRA-LIGAND FREE ENERGY PREDICTED BY IDOCK:    0.28 KCAL/MOL
REMARK 927      BINDING AFFINITY PREDICTED BY RF-SCORE:    0.00 PKD
ROOT
HETATM    1  C   UNL     1     -11.436   6.082  70.927  1.00  0.00    -0.230 C  
HETATM    2  C   UNL     1     -10.353   7.008  71.450  1.00  0.00    -0.211 C  
ENDROOT
BRANCH   2   3
HETATM    3  C   UNL     1      -8.984   6.638  70.889  1.00  0.00    -0.147 C  
BRANCH   3   4
HETATM    4  C   UNL     1      -8.466   7.733  69.991  1.00  0.00    -0.135 C  
HETATM    5  O   UNL     1      -8.011   7.478  68.876  1.00  0.00    -0.121 OA 
HETATM    6  N   UNL     1      -8.637   9.009  70.513  1.00  0.00    -0.180 N  
HETATM    7  H   UNL     1      -9.020   9.121  71.452  1.00  0.00     0.000 HD 
BRANCH   6   8
HETATM    8  C   UNL     1      -8.286  10.162  69.760  1.00  0.00    -0.145 A  
HETATM    9  C   UNL     1      -6.956  10.595  69.766  1.00  0.00    -0.145 A  
HETATM   10  C   UNL     1      -6.605  11.789  69.137  1.00  0.00    -0.102 A  
HETATM   11  I   UNL     1      -5.431   9.537  70.749  1.00  0.00    -0.069 I  
HETATM   12  C   UNL     1      -7.592  12.605  68.565  1.00  0.00    -0.121 A  
HETATM   13  C   UNL     1      -8.950  12.225  68.565  1.00  0.00    -0.070 A  
HETATM   14  I   UNL     1      -6.850  14.355  67.635  1.00  0.00     0.051 I  
HETATM   15  C   UNL     1      -9.240  10.924  69.046  1.00  0.00    -0.115 A  
HETATM   16  I   UNL     1     -10.965   9.861  68.229  1.00  0.00    -0.048 I  
BRANCH  13  17
HETATM   17  C   UNL     1     -10.059  13.168  68.123  1.00  0.00    -0.237 C  
HETATM   18  C   UNL     1      -9.971  13.676  66.658  1.00  0.00    -0.283 C  
HETATM   19  C   UNL     1     -11.143  14.608  66.382  1.00  0.00    -0.334 C  
HETATM   20  C   UNL     1      -9.883  12.594  65.565  1.00  0.00    -0.177 C  
HETATM   21  C   UNL     1     -11.050  11.621  65.507  1.00  0.00    -0.297 C  
HETATM   22  O   UNL     1     -12.217  14.566  66.962  1.00  0.00    -0.362 OA 
HETATM   23  O   UNL     1     -10.893  15.505  65.402  1.00  0.00    -0.353 OA 
ENDBRANCH  13  17
ENDBRANCH   6   8
ENDBRANCH   3   4
ENDBRANCH   2   3
TORSDOF 4
ENDMDL
MODEL      166
REMARK 921   NORMALIZED FREE ENERGY PREDICTED BY IDOCK:   -2.05 KCAL/MOL
REMARK 922        TOTAL FREE ENERGY PREDICTED BY IDOCK:   -3.50 KCAL/MOL
REMARK 923 INTER-LIGAND FREE ENERGY PREDICTED BY IDOCK:   -2.60 KCAL/MOL
REMARK 924 INTRA-LIGAND FREE ENERGY PREDICTED BY IDOCK:   -0.90 KCAL/MOL
REMARK 927      BINDING AFFINITY PREDICTED BY RF-SCORE:    0.00 PKD
ROOT
HETATM    1  C   UNL     1      -5.417  13.604  69.749  1.00  0.00    -0.094 C  
HETATM    2  C   UNL     1      -5.955  12.399  68.999  1.00  0.00    -0.071 C  
ENDROOT
BRANCH   2   3
HETATM    3  C   UNL     1      -5.330  11.102  69.505  1.00  0.00    -0.045 C  
BRANCH   3   4
HETATM    4  C   UNL     1      -6.283   9.948  69.317  1.00  0.00    -0.040 C  
HETATM    5  O   UNL     1      -7.499  10.131  69.254  1.00  0.00    -0.088 OA 
HETATM    6  N   UNL     1      -5.648   8.724  69.145  1.00  0.00    -0.035 N  
HETATM    7  H   UNL     1      -4.632   8.670  69.219  1.00  0.00     0.000 HD 
BRANCH   6   8
HETATM    8  C   UNL     1      -6.392   7.546  68.868  1.00  0.00    -0.039 A  
HETATM    9  C   UNL     1      -6.636   7.197  67.536  1.00  0.00    -0.059 A  
HETATM   10  C   UNL     1      -7.464   6.116  67.235  1.00  0.00    -0.081 A  
HETATM   11  I   UNL     1      -5.840   8.283  65.924  1.00  0.00    -0.041 I  
HETATM   12  C   UNL     1      -8.123   5.421  68.259  1.00  0.00    -0.095 A  
HETATM   13  C   UNL     1      -7.934   5.759  69.615  1.00  0.00    -0.100 A  
HETATM   14  I   UNL     1      -9.306   3.798  67.595  1.00  0.00    -0.168 I  
HETATM   15  C   UNL     1      -6.946   6.738  69.889  1.00  0.00    -0.059 A  
HETATM   16  I   UNL     1      -5.871   6.642  71.788  1.00  0.00    -0.038 I  
BRANCH  13  17
HETATM   17  C   UNL     1      -8.773   5.152  70.730  1.00  0.00    -0.142 C  
HETATM   18  C   UNL     1      -9.665   6.147  71.522  1.00  0.00    -0.182 C  
HETATM   19  C   UNL     1     -10.428   5.385  72.597  1.00  0.00    -0.217 C  
HETATM   20  C   UNL     1     -10.635   7.006  70.690  1.00  0.00    -0.246 C  
HETATM   21  C   UNL     1     -11.654   6.235  69.864  1.00  0.00    -0.361 C  
HETATM   22  O   UNL     1     -10.719   4.200  72.536  1.00  0.00    -0.134 OA 
HETATM   23  O   UNL     1     -10.778   6.154  73.652  1.00  0.00    -0.264 OA 
ENDBRANCH  13  17
ENDBRANCH   6   8
ENDBRANCH   3   4
ENDBRANCH   2   3
TORSDOF 4
ENDMDL
MODEL      167
REMARK 921   NORMALIZED FREE ENERGY PREDICTED BY IDOCK:   -2.04 KCAL/MOL
REMARK 922        TOTAL FREE ENERGY PREDICTED BY IDOCK:   -3.48 KCAL/MOL
REMARK 923 INTER-LIGAND FREE ENERGY PREDICTED BY IDOCK:   -3.59 KCAL/MOL
REMARK 924 INTRA-LIGAND FREE ENERGY PREDICTED BY IDOCK:    0.11 KCAL/MOL
REMARK 927      BINDING AFFINITY PREDICTED BY RF-SCORE:    0.00 PKD
ROOT
HETATM    1  C   UNL     1     -11.910   7.016  72.407  1.00  0.00    -0.215 C  
HETATM    2  C   UNL     1     -11.843   8.270  71.554  1.00  0.00    -0.335 C  
ENDROOT
BRANCH   2   3
HETATM    3  C   UNL     1     -10.533   9.021  71.769  1.00  0.00    -0.418 C  
BRANCH   3   4
HETATM    4  C   UNL     1      -9.519   8.624  70.726  1.00  0.00    -0.190 C  
HETATM    5  O   UNL     1      -8.311   8.708  70.949  1.00  0.00    -0.125 OA 
HETATM    6  N   UNL     1     -10.084   8.096  69.571  1.00  0.00    -0.189 N  
HETATM    7  H   UNL     1     -11.099   8.072  69.475  1.00  0.00     0.000 HD 
BRANCH   6   8
HETATM    8  C   UNL     1      -9.270   7.589  68.523  1.00  0.00    -0.143 A  
HETATM    9  C   UNL     1      -8.965   6.225  68.503  1.00  0.00    -0.123 A  
HETATM   10  C   UNL     1      -8.072   5.720  67.558  1.00  0.00    -0.102 A  
HETATM   11  I   UNL     1      -9.763   4.871  69.896  1.00  0.00    -0.316 I  
HETATM   12  C   UNL     1      -7.410   6.586  66.674  1.00  0.00    -0.078 A  
HETATM   13  C   UNL     1      -7.662   7.974  66.681  1.00  0.00    -0.094 A  
HETATM   14  I   UNL     1      -6.122   5.620  65.302  1.00  0.00    -0.027 I  
HETATM   15  C   UNL     1      -8.709   8.421  67.526  1.00  0.00    -0.136 A  
HETATM   16  I   UNL     1      -9.840  10.197  66.947  1.00  0.00    -0.284 I  
BRANCH  13  17
HETATM   17  C   UNL     1      -6.829   8.956  65.870  1.00  0.00    -0.072 C  
HETATM   18  C   UNL     1      -6.870   8.765  64.329  1.00  0.00    -0.078 C  
HETATM   19  C   UNL     1      -5.985   9.815  63.673  1.00  0.00    -0.111 C  
HETATM   20  C   UNL     1      -8.266   8.764  63.678  1.00  0.00    -0.163 C  
HETATM   21  C   UNL     1      -9.085  10.031  63.876  1.00  0.00    -0.296 C  
HETATM   22  O   UNL     1      -5.721  10.905  64.159  1.00  0.00    -0.011 OA 
HETATM   23  O   UNL     1      -5.510   9.436  62.466  1.00  0.00    -0.084 OA 
ENDBRANCH  13  17
ENDBRANCH   6   8
ENDBRANCH   3   4
ENDBRANCH   2   3
TORSDOF 4
ENDMDL
MODEL      168
REMARK 921   NORMALIZED FREE ENERGY PREDICTED BY IDOCK:   -2.03 KCAL/MOL
REMARK 922        TOTAL FREE ENERGY PREDICTED BY IDOCK:   -3.47 KCAL/MOL
REMARK 923 INTER-LIGAND FREE ENERGY PREDICTED BY IDOCK:   -2.57 KCAL/MOL
REMARK 924 INTRA-LIGAND FREE ENERGY PREDICTED BY IDOCK:   -0.91 KCAL/MOL
REMARK 927      BINDING AFFINITY PREDICTED BY RF-SCORE:    0.00 PKD
ROOT
HETATM    1  C   UNL     1      -9.916  15.135  67.037  1.00  0.00    -0.242 C  
HETATM    2  C   UNL     1      -9.704  13.687  67.441  1.00  0.00    -0.228 C  
ENDROOT
BRANCH   2   3
HETATM    3  C   UNL     1      -9.816  12.751  66.242  1.00  0.00    -0.269 C  
BRANCH   3   4
HETATM    4  C   UNL     1      -9.058  11.473  66.496  1.00  0.00    -0.194 C  
HETATM    5  O   UNL     1      -8.516  10.861  65.576  1.00  0.00    -0.172 OA 
HETATM    6  N   UNL     1      -8.975  11.132  67.841  1.00  0.00    -0.139 N  
HETATM    7  H   UNL     1      -9.464  11.700  68.534  1.00  0.00     0.000 HD 
BRANCH   6   8
HETATM    8  C   UNL     1      -8.222  10.006  68.266  1.00  0.00    -0.106 A  
HETATM    9  C   UNL     1      -6.872  10.177  68.588  1.00  0.00    -0.057 A  
HETATM   10  C   UNL     1      -6.077   9.072  68.891  1.00  0.00    -0.044 A  
HETATM   11  I   UNL     1      -5.943  12.061  68.583  1.00  0.00    -0.066 I  
HETATM   12  C   UNL     1      -6.602   7.774  68.796  1.00  0.00    -0.049 A  
HETATM   13  C   UNL     1      -7.950   7.552  68.443  1.00  0.00    -0.123 A  
HETATM   14  I   UNL     1      -5.245   6.240  69.326  1.00  0.00    -0.013 I  
HETATM   15  C   UNL     1      -8.769   8.702  68.325  1.00  0.00    -0.142 A  
HETATM   16  I   UNL     1     -10.898   8.527  68.780  1.00  0.00     0.327 I  
BRANCH  13  17
HETATM   17  C   UNL     1      -8.495   6.162  68.151  1.00  0.00    -0.116 C  
HETATM   18  C   UNL     1      -9.104   5.959  66.736  1.00  0.00    -0.130 C  
HETATM   19  C   UNL     1      -9.606   4.527  66.611  1.00  0.00    -0.190 C  
HETATM   20  C   UNL     1      -8.193   6.309  65.544  1.00  0.00    -0.145 C  
HETATM   21  C   UNL     1      -6.892   5.527  65.458  1.00  0.00    -0.063 C  
HETATM   22  O   UNL     1      -9.167   3.578  67.242  1.00  0.00    -0.164 OA 
HETATM   23  O   UNL     1     -10.601   4.386  65.706  1.00  0.00    -0.243 OA 
ENDBRANCH  13  17
ENDBRANCH   6   8
ENDBRANCH   3   4
ENDBRANCH   2   3
TORSDOF 4
ENDMDL
MODEL      169
REMARK 921   NORMALIZED FREE ENERGY PREDICTED BY IDOCK:   -2.03 KCAL/MOL
REMARK 922        TOTAL FREE ENERGY PREDICTED BY IDOCK:   -3.47 KCAL/MOL
REMARK 923 INTER-LIGAND FREE ENERGY PREDICTED BY IDOCK:   -3.43 KCAL/MOL
REMARK 924 INTRA-LIGAND FREE ENERGY PREDICTED BY IDOCK:   -0.04 KCAL/MOL
REMARK 927      BINDING AFFINITY PREDICTED BY RF-SCORE:    0.00 PKD
ROOT
HETATM    1  C   UNL     1      -6.466   4.838  66.489  1.00  0.00    -0.041 C  
HETATM    2  C   UNL     1      -6.948   6.245  66.184  1.00  0.00    -0.066 C  
ENDROOT
BRANCH   2   3
HETATM    3  C   UNL     1      -6.067   7.294  66.854  1.00  0.00    -0.042 C  
BRANCH   3   4
HETATM    4  C   UNL     1      -6.663   8.669  66.689  1.00  0.00    -0.068 C  
HETATM    5  O   UNL     1      -5.954   9.675  66.698  1.00  0.00    -0.057 OA 
HETATM    6  N   UNL     1      -8.033   8.658  66.451  1.00  0.00    -0.098 N  
HETATM    7  H   UNL     1      -8.538   7.771  66.468  1.00  0.00     0.000 HD 
BRANCH   6   8
HETATM    8  C   UNL     1      -8.740   9.860  66.185  1.00  0.00    -0.136 A  
HETATM    9  C   UNL     1      -9.062  10.176  64.861  1.00  0.00    -0.215 A  
HETATM   10  C   UNL     1      -9.647  11.405  64.557  1.00  0.00    -0.221 A  
HETATM   11  I   UNL     1      -8.647   8.881  63.260  1.00  0.00     0.192 I  
HETATM   12  C   UNL     1      -9.842  12.366  65.560  1.00  0.00    -0.200 A  
HETATM   13  C   UNL     1      -9.501  12.103  66.904  1.00  0.00    -0.210 A  
HETATM   14  I   UNL     1     -10.769  14.148  64.898  1.00  0.00    -0.355 I  
HETATM   15  C   UNL     1      -9.084  10.782  67.201  1.00  0.00    -0.144 A  
HETATM   16  I   UNL     1      -9.488   9.976  69.191  1.00  0.00    -0.246 I  
BRANCH  13  17
HETATM   17  C   UNL     1      -9.525  13.183  67.975  1.00  0.00    -0.220 C  
HETATM   18  C   UNL     1     -10.876  13.929  68.152  1.00  0.00    -0.262 C  
HETATM   19  C   UNL     1     -10.727  14.973  69.250  1.00  0.00    -0.248 C  
HETATM   20  C   UNL     1     -12.111  13.049  68.419  1.00  0.00    -0.193 C  
HETATM   21  C   UNL     1     -12.046  12.184  69.668  1.00  0.00    -0.283 C  
HETATM   22  O   UNL     1      -9.928  14.907  70.171  1.00  0.00     0.039 OA 
HETATM   23  O   UNL     1     -11.590  16.007  69.125  1.00  0.00    -0.356 OA 
ENDBRANCH  13  17
ENDBRANCH   6   8
ENDBRANCH   3   4
ENDBRANCH   2   3
TORSDOF 4
ENDMDL
MODEL      170
REMARK 921   NORMALIZED FREE ENERGY PREDICTED BY IDOCK:   -2.00 KCAL/MOL
REMARK 922        TOTAL FREE ENERGY PREDICTED BY IDOCK:   -3.43 KCAL/MOL
REMARK 923 INTER-LIGAND FREE ENERGY PREDICTED BY IDOCK:   -3.66 KCAL/MOL
REMARK 924 INTRA-LIGAND FREE ENERGY PREDICTED BY IDOCK:    0.23 KCAL/MOL
REMARK 927      BINDING AFFINITY PREDICTED BY RF-SCORE:    0.00 PKD
ROOT
HETATM    1  C   UNL     1      -5.134   6.473  64.285  1.00  0.00    -0.025 C  
HETATM    2  C   UNL     1      -6.006   5.260  64.554  1.00  0.00    -0.022 C  
ENDROOT
BRANCH   2   3
HETATM    3  C   UNL     1      -6.580   5.288  65.967  1.00  0.00    -0.048 C  
BRANCH   3   4
HETATM    4  C   UNL     1      -7.613   6.379  66.096  1.00  0.00    -0.090 C  
HETATM    5  O   UNL     1      -8.489   6.529  65.245  1.00  0.00    -0.146 OA 
HETATM    6  N   UNL     1      -7.513   7.104  67.277  1.00  0.00    -0.097 N  
HETATM    7  H   UNL     1      -6.746   6.910  67.922  1.00  0.00     0.000 HD 
BRANCH   6   8
HETATM    8  C   UNL     1      -8.461   8.111  67.602  1.00  0.00    -0.131 A  
HETATM    9  C   UNL     1      -8.203   9.431  67.220  1.00  0.00    -0.117 A  
HETATM   10  C   UNL     1      -9.053  10.458  67.630  1.00  0.00    -0.143 A  
HETATM   11  I   UNL     1      -6.523   9.966  66.078  1.00  0.00    -0.104 I  
HETATM   12  C   UNL     1     -10.126  10.188  68.492  1.00  0.00    -0.169 A  
HETATM   13  C   UNL     1     -10.404   8.876  68.930  1.00  0.00    -0.229 A  
HETATM   14  I   UNL     1     -11.311  11.874  68.968  1.00  0.00    -0.385 I  
HETATM   15  C   UNL     1      -9.633   7.840  68.346  1.00  0.00    -0.152 A  
HETATM   16  I   UNL     1     -10.531   5.862  68.121  1.00  0.00    -0.298 I  
BRANCH  13  17
HETATM   17  C   UNL     1     -11.437   8.580  70.007  1.00  0.00     0.079 C  
HETATM   18  C   UNL     1     -11.129   7.364  70.922  1.00  0.00    -0.283 C  
HETATM   19  C   UNL     1     -12.256   7.202  71.932  1.00  0.00    -0.323 C  
HETATM   20  C   UNL     1      -9.768   7.379  71.643  1.00  0.00    -0.169 C  
HETATM   21  C   UNL     1      -9.528   8.560  72.571  1.00  0.00    -0.328 C  
HETATM   22  O   UNL     1     -12.976   8.108  72.323  1.00  0.00    -0.285 OA 
HETATM   23  O   UNL     1     -12.391   5.935  72.385  1.00  0.00    -0.198 OA 
ENDBRANCH  13  17
ENDBRANCH   6   8
ENDBRANCH   3   4
ENDBRANCH   2   3
TORSDOF 4
ENDMDL
MODEL      171
REMARK 921   NORMALIZED FREE ENERGY PREDICTED BY IDOCK:   -1.97 KCAL/MOL
REMARK 922        TOTAL FREE ENERGY PREDICTED BY IDOCK:   -3.39 KCAL/MOL
REMARK 923 INTER-LIGAND FREE ENERGY PREDICTED BY IDOCK:   -3.28 KCAL/MOL
REMARK 924 INTRA-LIGAND FREE ENERGY PREDICTED BY IDOCK:   -0.12 KCAL/MOL
REMARK 927      BINDING AFFINITY PREDICTED BY RF-SCORE:    0.00 PKD
ROOT
HETATM    1  C   UNL     1      -5.673   6.768  63.476  1.00  0.00    -0.035 C  
HETATM    2  C   UNL     1      -6.436   5.534  63.925  1.00  0.00    -0.033 C  
ENDROOT
BRANCH   2   3
HETATM    3  C   UNL     1      -6.388   5.370  65.441  1.00  0.00    -0.035 C  
BRANCH   3   4
HETATM    4  C   UNL     1      -7.630   5.944  66.074  1.00  0.00    -0.086 C  
HETATM    5  O   UNL     1      -8.750   5.662  65.647  1.00  0.00    -0.146 OA 
HETATM    6  N   UNL     1      -7.375   6.722  67.196  1.00  0.00    -0.084 N  
HETATM    7  H   UNL     1      -6.409   6.905  67.472  1.00  0.00     0.000 HD 
BRANCH   6   8
HETATM    8  C   UNL     1      -8.436   7.268  67.967  1.00  0.00    -0.123 A  
HETATM    9  C   UNL     1      -8.830   8.590  67.735  1.00  0.00    -0.137 A  
HETATM   10  C   UNL     1      -9.784   9.191  68.556  1.00  0.00    -0.166 A  
HETATM   11  I   UNL     1      -7.994   9.763  66.207  1.00  0.00    -0.116 I  
HETATM   12  C   UNL     1     -10.296   8.505  69.667  1.00  0.00    -0.218 A  
HETATM   13  C   UNL     1      -9.902   7.182  69.959  1.00  0.00    -0.178 A  
HETATM   14  I   UNL     1     -11.752   9.579  70.763  1.00  0.00    -0.336 I  
HETATM   15  C   UNL     1      -9.076   6.545  69.000  1.00  0.00    -0.132 A  
HETATM   16  I   UNL     1      -9.213   4.377  68.771  1.00  0.00    -0.229 I  
BRANCH  13  17
HETATM   17  C   UNL     1     -10.293   6.484  71.253  1.00  0.00    -0.234 C  
HETATM   18  C   UNL     1      -9.139   5.774  72.012  1.00  0.00    -0.143 C  
HETATM   19  C   UNL     1      -9.697   5.124  73.271  1.00  0.00    -0.145 C  
HETATM   20  C   UNL     1      -7.915   6.641  72.360  1.00  0.00    -0.099 C  
HETATM   21  C   UNL     1      -8.193   7.850  73.239  1.00  0.00    -0.234 C  
HETATM   22  O   UNL     1     -10.693   5.503  73.867  1.00  0.00    -0.275 OA 
HETATM   23  O   UNL     1      -8.968   4.067  73.696  1.00  0.00    -0.093 OA 
ENDBRANCH  13  17
ENDBRANCH   6   8
ENDBRANCH   3   4
ENDBRANCH   2   3
TORSDOF 4
ENDMDL
MODEL      172
REMARK 921   NORMALIZED FREE ENERGY PREDICTED BY IDOCK:   -1.95 KCAL/MOL
REMARK 922        TOTAL FREE ENERGY PREDICTED BY IDOCK:   -3.37 KCAL/MOL
REMARK 923 INTER-LIGAND FREE ENERGY PREDICTED BY IDOCK:   -3.65 KCAL/MOL
REMARK 924 INTRA-LIGAND FREE ENERGY PREDICTED BY IDOCK:    0.28 KCAL/MOL
REMARK 927      BINDING AFFINITY PREDICTED BY RF-SCORE:    0.00 PKD
ROOT
HETATM    1  C   UNL     1      -6.063  15.435  69.928  1.00  0.00    -0.152 C  
HETATM    2  C   UNL     1      -6.280  14.500  68.752  1.00  0.00    -0.087 C  
ENDROOT
BRANCH   2   3
HETATM    3  C   UNL     1      -7.764  14.278  68.481  1.00  0.00    -0.137 C  
BRANCH   3   4
HETATM    4  C   UNL     1      -8.003  12.886  67.953  1.00  0.00    -0.156 C  
HETATM    5  O   UNL     1      -7.355  12.447  67.003  1.00  0.00    -0.113 OA 
HETATM    6  N   UNL     1      -8.936  12.163  68.687  1.00  0.00    -0.378 N  
HETATM    7  H   UNL     1      -9.428  12.616  69.458  1.00  0.00     0.000 HD 
BRANCH   6   8
HETATM    8  C   UNL     1      -9.216  10.805  68.381  1.00  0.00    -0.164 A  
HETATM    9  C   UNL     1     -10.164  10.515  67.394  1.00  0.00    -0.211 A  
HETATM   10  C   UNL     1     -10.548   9.196  67.157  1.00  0.00    -0.286 A  
HETATM   11  I   UNL     1     -11.101  12.013  66.258  1.00  0.00    -0.371 I  
HETATM   12  C   UNL     1     -10.051   8.158  67.959  1.00  0.00    -0.197 A  
HETATM   13  C   UNL     1      -9.119   8.407  68.988  1.00  0.00    -0.147 A  
HETATM   14  I   UNL     1     -10.732   6.230  67.417  1.00  0.00    -0.419 I  
HETATM   15  C   UNL     1      -8.615   9.729  69.075  1.00  0.00    -0.146 A  
HETATM   16  I   UNL     1      -6.591  10.033  69.838  1.00  0.00    -0.138 I  
BRANCH  13  17
HETATM   17  C   UNL     1      -8.708   7.339  69.990  1.00  0.00    -0.141 C  
HETATM   18  C   UNL     1      -8.115   6.037  69.384  1.00  0.00    -0.111 C  
HETATM   19  C   UNL     1      -7.765   5.077  70.512  1.00  0.00    -0.070 C  
HETATM   20  C   UNL     1      -6.910   6.211  68.440  1.00  0.00    -0.074 C  
HETATM   21  C   UNL     1      -5.687   6.877  69.051  1.00  0.00    -0.018 C  
HETATM   22  O   UNL     1      -7.488   5.414  71.653  1.00  0.00    -0.086 OA 
HETATM   23  O   UNL     1      -7.773   3.779  70.132  1.00  0.00    -0.048 OA 
ENDBRANCH  13  17
ENDBRANCH   6   8
ENDBRANCH   3   4
ENDBRANCH   2   3
TORSDOF 4
ENDMDL
MODEL      173
REMARK 921   NORMALIZED FREE ENERGY PREDICTED BY IDOCK:   -1.93 KCAL/MOL
REMARK 922        TOTAL FREE ENERGY PREDICTED BY IDOCK:   -3.35 KCAL/MOL
REMARK 923 INTER-LIGAND FREE ENERGY PREDICTED BY IDOCK:   -3.46 KCAL/MOL
REMARK 924 INTRA-LIGAND FREE ENERGY PREDICTED BY IDOCK:    0.11 KCAL/MOL
REMARK 927      BINDING AFFINITY PREDICTED BY RF-SCORE:    0.00 PKD
ROOT
HETATM    1  C   UNL     1     -12.294  13.935  63.641  1.00  0.00    -0.177 C  
HETATM    2  C   UNL     1     -11.616  13.483  64.922  1.00  0.00    -0.355 C  
ENDROOT
BRANCH   2   3
HETATM    3  C   UNL     1     -10.199  12.984  64.657  1.00  0.00    -0.324 C  
BRANCH   3   4
HETATM    4  C   UNL     1     -10.041  11.563  65.137  1.00  0.00    -0.268 C  
HETATM    5  O   UNL     1     -11.018  10.827  65.277  1.00  0.00    -0.069 OA 
HETATM    6  N   UNL     1      -8.718  11.178  65.312  1.00  0.00    -0.370 N  
HETATM    7  H   UNL     1      -7.973  11.862  65.177  1.00  0.00     0.000 HD 
BRANCH   6   8
HETATM    8  C   UNL     1      -8.384   9.846  65.676  1.00  0.00    -0.137 A  
HETATM    9  C   UNL     1      -7.784   9.015  64.724  1.00  0.00    -0.109 A  
HETATM   10  C   UNL     1      -7.557   7.669  65.013  1.00  0.00    -0.097 A  
HETATM   11  I   UNL     1      -7.243   9.698  62.813  1.00  0.00    -0.123 I  
HETATM   12  C   UNL     1      -8.002   7.119  66.224  1.00  0.00    -0.110 A  
HETATM   13  C   UNL     1      -8.642   7.912  67.199  1.00  0.00    -0.128 A  
HETATM   14  I   UNL     1      -7.532   5.072  66.479  1.00  0.00    -0.088 I  
HETATM   15  C   UNL     1      -8.687   9.306  66.948  1.00  0.00    -0.127 A  
HETATM   16  I   UNL     1      -8.690  10.679  68.646  1.00  0.00    -0.147 I  
BRANCH  13  17
HETATM   17  C   UNL     1      -9.299   7.311  68.433  1.00  0.00    -0.143 C  
HETATM   18  C   UNL     1      -8.390   6.405  69.308  1.00  0.00    -0.122 C  
HETATM   19  C   UNL     1      -9.197   5.883  70.489  1.00  0.00    -0.152 C  
HETATM   20  C   UNL     1      -7.073   7.033  69.801  1.00  0.00    -0.067 C  
HETATM   21  C   UNL     1      -7.218   8.281  70.657  1.00  0.00    -0.049 C  
HETATM   22  O   UNL     1     -10.166   6.447  70.974  1.00  0.00    -0.188 OA 
HETATM   23  O   UNL     1      -8.730   4.713  70.980  1.00  0.00    -0.110 OA 
ENDBRANCH  13  17
ENDBRANCH   6   8
ENDBRANCH   3   4
ENDBRANCH   2   3
TORSDOF 4
ENDMDL
MODEL      174
REMARK 921   NORMALIZED FREE ENERGY PREDICTED BY IDOCK:   -1.89 KCAL/MOL
REMARK 922        TOTAL FREE ENERGY PREDICTED BY IDOCK:   -3.30 KCAL/MOL
REMARK 923 INTER-LIGAND FREE ENERGY PREDICTED BY IDOCK:   -2.60 KCAL/MOL
REMARK 924 INTRA-LIGAND FREE ENERGY PREDICTED BY IDOCK:   -0.70 KCAL/MOL
REMARK 927      BINDING AFFINITY PREDICTED BY RF-SCORE:    0.00 PKD
ROOT
HETATM    1  C   UNL     1      -8.258   7.751  74.563  1.00  0.00    -0.259 C  
HETATM    2  C   UNL     1      -7.702   7.698  73.152  1.00  0.00    -0.135 C  
ENDROOT
BRANCH   2   3
HETATM    3  C   UNL     1      -8.807   7.845  72.110  1.00  0.00    -0.196 C  
BRANCH   3   4
HETATM    4  C   UNL     1      -8.306   8.611  70.913  1.00  0.00    -0.157 C  
HETATM    5  O   UNL     1      -7.413   9.451  71.023  1.00  0.00    -0.252 OA 
HETATM    6  N   UNL     1      -8.887   8.215  69.714  1.00  0.00    -0.142 N  
HETATM    7  H   UNL     1      -9.626   7.512  69.723  1.00  0.00     0.000 HD 
BRANCH   6   8
HETATM    8  C   UNL     1      -8.466   8.772  68.477  1.00  0.00    -0.130 A  
HETATM    9  C   UNL     1      -7.661   8.005  67.628  1.00  0.00    -0.102 A  
HETATM   10  C   UNL     1      -7.134   8.567  66.466  1.00  0.00    -0.079 A  
HETATM   11  I   UNL     1      -7.148   6.014  68.058  1.00  0.00    -0.082 I  
HETATM   12  C   UNL     1      -7.337   9.925  66.179  1.00  0.00    -0.104 A  
HETATM   13  C   UNL     1      -8.115  10.745  67.024  1.00  0.00    -0.124 A  
HETATM   14  I   UNL     1      -6.482  10.572  64.356  1.00  0.00     0.379 I  
HETATM   15  C   UNL     1      -8.784  10.095  68.091  1.00  0.00    -0.122 A  
HETATM   16  I   UNL     1     -10.679  10.919  68.799  1.00  0.00    -0.331 I  
BRANCH  13  17
HETATM   17  C   UNL     1      -8.198  12.253  66.842  1.00  0.00    -0.112 C  
HETATM   18  C   UNL     1      -7.844  13.105  68.091  1.00  0.00    -0.145 C  
HETATM   19  C   UNL     1      -7.983  14.580  67.744  1.00  0.00    -0.159 C  
HETATM   20  C   UNL     1      -6.469  12.837  68.733  1.00  0.00    -0.085 C  
HETATM   21  C   UNL     1      -5.267  13.061  67.829  1.00  0.00    -0.100 C  
HETATM   22  O   UNL     1      -7.866  15.045  66.620  1.00  0.00    -0.012 OA 
HETATM   23  O   UNL     1      -8.242  15.360  68.817  1.00  0.00    -0.147 OA 
ENDBRANCH  13  17
ENDBRANCH   6   8
ENDBRANCH   3   4
ENDBRANCH   2   3
TORSDOF 4
ENDMDL
MODEL      175
REMARK 921   NORMALIZED FREE ENERGY PREDICTED BY IDOCK:   -1.85 KCAL/MOL
REMARK 922        TOTAL FREE ENERGY PREDICTED BY IDOCK:   -3.25 KCAL/MOL
REMARK 923 INTER-LIGAND FREE ENERGY PREDICTED BY IDOCK:   -2.61 KCAL/MOL
REMARK 924 INTRA-LIGAND FREE ENERGY PREDICTED BY IDOCK:   -0.65 KCAL/MOL
REMARK 927      BINDING AFFINITY PREDICTED BY RF-SCORE:    0.00 PKD
ROOT
HETATM    1  C   UNL     1      -6.939  14.642  69.668  1.00  0.00    -0.149 C  
HETATM    2  C   UNL     1      -6.435  13.578  68.709  1.00  0.00    -0.098 C  
ENDROOT
BRANCH   2   3
HETATM    3  C   UNL     1      -7.575  12.982  67.889  1.00  0.00    -0.144 C  
BRANCH   3   4
HETATM    4  C   UNL     1      -7.281  11.544  67.544  1.00  0.00    -0.111 C  
HETATM    5  O   UNL     1      -6.206  11.217  67.041  1.00  0.00    -0.082 OA 
HETATM    6  N   UNL     1      -8.288  10.664  67.921  1.00  0.00    -0.118 N  
HETATM    7  H   UNL     1      -9.149  11.030  68.328  1.00  0.00     0.000 HD 
BRANCH   6   8
HETATM    8  C   UNL     1      -8.137   9.261  67.751  1.00  0.00    -0.104 A  
HETATM    9  C   UNL     1      -8.516   8.683  66.536  1.00  0.00    -0.113 A  
HETATM   10  C   UNL     1      -8.494   7.297  66.383  1.00  0.00    -0.129 A  
HETATM   11  I   UNL     1      -9.189   9.824  64.906  1.00  0.00    -0.247 I  
HETATM   12  C   UNL     1      -8.170   6.468  67.468  1.00  0.00    -0.121 A  
HETATM   13  C   UNL     1      -7.814   7.007  68.722  1.00  0.00    -0.118 A  
HETATM   14  I   UNL     1      -8.164   4.401  67.020  1.00  0.00    -0.100 I  
HETATM   15  C   UNL     1      -7.668   8.416  68.784  1.00  0.00    -0.102 A  
HETATM   16  I   UNL     1      -6.242   9.263  70.205  1.00  0.00    -0.065 I  
BRANCH  13  17
HETATM   17  C   UNL     1      -7.642   6.141  69.960  1.00  0.00    -0.095 C  
HETATM   18  C   UNL     1      -8.729   6.307  71.057  1.00  0.00    -0.136 C  
HETATM   19  C   UNL     1      -8.407   5.381  72.222  1.00  0.00    -0.122 C  
HETATM   20  C   UNL     1     -10.188   6.106  70.607  1.00  0.00    -0.250 C  
HETATM   21  C   UNL     1     -10.515   4.741  70.022  1.00  0.00     0.007 C  
HETATM   22  O   UNL     1      -7.767   4.344  72.131  1.00  0.00    -0.081 OA 
HETATM   23  O   UNL     1      -8.913   5.808  73.401  1.00  0.00    -0.127 OA 
ENDBRANCH  13  17
ENDBRANCH   6   8
ENDBRANCH   3   4
ENDBRANCH   2   3
TORSDOF 4
ENDMDL
MODEL      176
REMARK 921   NORMALIZED FREE ENERGY PREDICTED BY IDOCK:   -1.82 KCAL/MOL
REMARK 922        TOTAL FREE ENERGY PREDICTED BY IDOCK:   -3.21 KCAL/MOL
REMARK 923 INTER-LIGAND FREE ENERGY PREDICTED BY IDOCK:   -3.13 KCAL/MOL
REMARK 924 INTRA-LIGAND FREE ENERGY PREDICTED BY IDOCK:   -0.08 KCAL/MOL
REMARK 927      BINDING AFFINITY PREDICTED BY RF-SCORE:    0.00 PKD
ROOT
HETATM    1  C   UNL     1      -9.279  10.174  63.032  1.00  0.00    -0.317 C  
HETATM    2  C   UNL     1      -8.807  10.053  64.470  1.00  0.00    -0.231 C  
ENDROOT
BRANCH   2   3
HETATM    3  C   UNL     1      -9.982   9.993  65.440  1.00  0.00    -0.364 C  
BRANCH   3   4
HETATM    4  C   UNL     1      -9.821   8.838  66.396  1.00  0.00    -0.282 C  
HETATM    5  O   UNL     1     -10.792   8.180  66.768  1.00  0.00    -0.197 OA 
HETATM    6  N   UNL     1      -8.498   8.566  66.723  1.00  0.00    -0.108 N  
HETATM    7  H   UNL     1      -7.758   9.173  66.369  1.00  0.00     0.000 HD 
BRANCH   6   8
HETATM    8  C   UNL     1      -8.159   7.456  67.542  1.00  0.00    -0.114 A  
HETATM    9  C   UNL     1      -7.806   6.248  66.932  1.00  0.00    -0.104 A  
HETATM   10  C   UNL     1      -7.587   5.110  67.707  1.00  0.00    -0.087 A  
HETATM   11  I   UNL     1      -7.638   6.045  64.848  1.00  0.00    -0.111 I  
HETATM   12  C   UNL     1      -7.798   5.144  69.093  1.00  0.00    -0.081 A  
HETATM   13  C   UNL     1      -8.187   6.332  69.747  1.00  0.00    -0.125 A  
HETATM   14  I   UNL     1      -7.381   3.324  70.088  1.00  0.00    -0.040 I  
HETATM   15  C   UNL     1      -8.218   7.506  68.954  1.00  0.00    -0.128 A  
HETATM   16  I   UNL     1      -7.809   9.428  69.908  1.00  0.00    -0.190 I  
BRANCH  13  17
HETATM   17  C   UNL     1      -8.603   6.356  71.210  1.00  0.00    -0.127 C  
HETATM   18  C   UNL     1      -7.571   5.777  72.216  1.00  0.00    -0.101 C  
HETATM   19  C   UNL     1      -8.142   5.869  73.624  1.00  0.00    -0.110 C  
HETATM   20  C   UNL     1      -6.159   6.390  72.174  1.00  0.00    -0.038 C  
HETATM   21  C   UNL     1      -6.081   7.884  72.446  1.00  0.00    -0.043 C  
HETATM   22  O   UNL     1      -8.972   6.689  73.987  1.00  0.00    -0.142 OA 
HETATM   23  O   UNL     1      -7.630   4.948  74.471  1.00  0.00    -0.088 OA 
ENDBRANCH  13  17
ENDBRANCH   6   8
ENDBRANCH   3   4
ENDBRANCH   2   3
TORSDOF 4
ENDMDL
MODEL      177
REMARK 921   NORMALIZED FREE ENERGY PREDICTED BY IDOCK:   -1.80 KCAL/MOL
REMARK 922        TOTAL FREE ENERGY PREDICTED BY IDOCK:   -3.18 KCAL/MOL
REMARK 923 INTER-LIGAND FREE ENERGY PREDICTED BY IDOCK:   -2.93 KCAL/MOL
REMARK 924 INTRA-LIGAND FREE ENERGY PREDICTED BY IDOCK:   -0.25 KCAL/MOL
REMARK 927      BINDING AFFINITY PREDICTED BY RF-SCORE:    0.00 PKD
ROOT
HETATM    1  C   UNL     1      -9.622   4.297  66.063  1.00  0.00    -0.195 C  
HETATM    2  C   UNL     1      -8.574   4.484  67.145  1.00  0.00    -0.104 C  
ENDROOT
BRANCH   2   3
HETATM    3  C   UNL     1      -7.872   5.832  67.016  1.00  0.00    -0.102 C  
BRANCH   3   4
HETATM    4  C   UNL     1      -8.753   6.939  67.536  1.00  0.00    -0.120 C  
HETATM    5  O   UNL     1      -9.500   7.564  66.783  1.00  0.00    -0.160 OA 
HETATM    6  N   UNL     1      -8.688   7.103  68.914  1.00  0.00    -0.128 N  
HETATM    7  H   UNL     1      -8.032   6.540  69.456  1.00  0.00     0.000 HD 
BRANCH   6   8
HETATM    8  C   UNL     1      -9.519   8.043  69.580  1.00  0.00    -0.163 A  
HETATM    9  C   UNL     1     -10.622   7.577  70.303  1.00  0.00    -0.229 A  
HETATM   10  C   UNL     1     -11.523   8.480  70.865  1.00  0.00    -0.302 A  
HETATM   11  I   UNL     1     -11.029   5.531  70.543  1.00  0.00     0.373 I  
HETATM   12  C   UNL     1     -11.379   9.858  70.643  1.00  0.00    -0.339 A  
HETATM   13  C   UNL     1     -10.300  10.371  69.892  1.00  0.00    -0.231 A  
HETATM   14  I   UNL     1     -12.830  11.057  71.606  1.00  0.00    -0.175 I  
HETATM   15  C   UNL     1      -9.308   9.439  69.497  1.00  0.00    -0.180 A  
HETATM   16  I   UNL     1      -7.249  10.131  69.269  1.00  0.00    -0.128 I  
BRANCH  13  17
HETATM   17  C   UNL     1     -10.219  11.832  69.478  1.00  0.00     0.461 C  
HETATM   18  C   UNL     1      -9.627  12.103  68.068  1.00  0.00    -0.204 C  
HETATM   19  C   UNL     1      -9.610  13.604  67.814  1.00  0.00    -0.224 C  
HETATM   20  C   UNL     1     -10.301  11.373  66.892  1.00  0.00    -0.262 C  
HETATM   21  C   UNL     1     -11.779  11.672  66.691  1.00  0.00    -0.066 C  
HETATM   22  O   UNL     1     -10.371  14.406  68.334  1.00  0.00    -0.231 OA 
HETATM   23  O   UNL     1      -8.663  13.987  66.929  1.00  0.00    -0.220 OA 
ENDBRANCH  13  17
ENDBRANCH   6   8
ENDBRANCH   3   4
ENDBRANCH   2   3
TORSDOF 4
ENDMDL
MODEL      178
REMARK 921   NORMALIZED FREE ENERGY PREDICTED BY IDOCK:   -1.79 KCAL/MOL
REMARK 922        TOTAL FREE ENERGY PREDICTED BY IDOCK:   -3.18 KCAL/MOL
REMARK 923 INTER-LIGAND FREE ENERGY PREDICTED BY IDOCK:   -2.27 KCAL/MOL
REMARK 924 INTRA-LIGAND FREE ENERGY PREDICTED BY IDOCK:   -0.92 KCAL/MOL
REMARK 927      BINDING AFFINITY PREDICTED BY RF-SCORE:    0.00 PKD
ROOT
HETATM    1  C   UNL     1     -10.812   4.315  64.882  1.00  0.00    -0.108 C  
HETATM    2  C   UNL     1      -9.481   3.640  65.158  1.00  0.00    -0.162 C  
ENDROOT
BRANCH   2   3
HETATM    3  C   UNL     1      -8.398   4.661  65.497  1.00  0.00    -0.118 C  
BRANCH   3   4
HETATM    4  C   UNL     1      -8.156   4.699  66.985  1.00  0.00    -0.102 C  
HETATM    5  O   UNL     1      -9.049   4.415  67.782  1.00  0.00    -0.114 OA 
HETATM    6  N   UNL     1      -6.842   4.996  67.328  1.00  0.00    -0.055 N  
HETATM    7  H   UNL     1      -6.171   5.224  66.595  1.00  0.00     0.000 HD 
BRANCH   6   8
HETATM    8  C   UNL     1      -6.420   4.987  68.685  1.00  0.00    -0.037 A  
HETATM    9  C   UNL     1      -5.787   3.847  69.188  1.00  0.00    -0.022 A  
HETATM   10  C   UNL     1      -5.470   3.762  70.544  1.00  0.00    -0.012 A  
HETATM   11  I   UNL     1      -5.326   2.189  67.983  1.00  0.00    -0.014 I  
HETATM   12  C   UNL     1      -5.856   4.780  71.427  1.00  0.00    -0.016 A  
HETATM   13  C   UNL     1      -6.527   5.934  70.969  1.00  0.00    -0.041 A  
HETATM   14  I   UNL     1      -5.255   4.475  73.432  1.00  0.00    -0.009 I  
HETATM   15  C   UNL     1      -6.663   6.068  69.565  1.00  0.00    -0.056 A  
HETATM   16  I   UNL     1      -6.720   8.073  68.701  1.00  0.00    -0.065 I  
BRANCH  13  17
HETATM   17  C   UNL     1      -7.121   6.961  71.921  1.00  0.00    -0.074 C  
HETATM   18  C   UNL     1      -8.665   7.116  71.869  1.00  0.00    -0.126 C  
HETATM   19  C   UNL     1      -9.093   8.181  72.870  1.00  0.00    -0.267 C  
HETATM   20  C   UNL     1      -9.488   5.831  72.077  1.00  0.00    -0.166 C  
HETATM   21  C   UNL     1      -9.272   5.118  73.403  1.00  0.00    -0.130 C  
HETATM   22  O   UNL     1      -8.471   8.478  73.879  1.00  0.00    -0.320 OA 
HETATM   23  O   UNL     1     -10.261   8.780  72.547  1.00  0.00    -0.251 OA 
ENDBRANCH  13  17
ENDBRANCH   6   8
ENDBRANCH   3   4
ENDBRANCH   2   3
TORSDOF 4
ENDMDL
MODEL      179
REMARK 921   NORMALIZED FREE ENERGY PREDICTED BY IDOCK:   -1.78 KCAL/MOL
REMARK 922        TOTAL FREE ENERGY PREDICTED BY IDOCK:   -3.16 KCAL/MOL
REMARK 923 INTER-LIGAND FREE ENERGY PREDICTED BY IDOCK:   -3.15 KCAL/MOL
REMARK 924 INTRA-LIGAND FREE ENERGY PREDICTED BY IDOCK:   -0.02 KCAL/MOL
REMARK 927      BINDING AFFINITY PREDICTED BY RF-SCORE:    0.00 PKD
ROOT
HETATM    1  C   UNL     1      -6.440  13.610  68.022  1.00  0.00    -0.138 C  
HETATM    2  C   UNL     1      -7.597  13.016  67.240  1.00  0.00    -0.097 C  
ENDROOT
BRANCH   2   3
HETATM    3  C   UNL     1      -8.803  12.757  68.137  1.00  0.00    -0.194 C  
BRANCH   3   4
HETATM    4  C   UNL     1      -9.245  11.320  68.028  1.00  0.00    -0.160 C  
HETATM    5  O   UNL     1     -10.439  11.023  67.979  1.00  0.00    -0.176 OA 
HETATM    6  N   UNL     1      -8.192  10.420  67.908  1.00  0.00    -0.106 N  
HETATM    7  H   UNL     1      -7.232  10.761  67.965  1.00  0.00     0.000 HD 
BRANCH   6   8
HETATM    8  C   UNL     1      -8.432   9.035  67.706  1.00  0.00    -0.117 A  
HETATM    9  C   UNL     1      -8.535   8.549  66.399  1.00  0.00    -0.117 A  
HETATM   10  C   UNL     1      -8.890   7.220  66.171  1.00  0.00    -0.181 A  
HETATM   11  I   UNL     1      -8.229   9.769  64.716  1.00  0.00    -0.197 I  
HETATM   12  C   UNL     1      -9.225   6.381  67.245  1.00  0.00    -0.119 A  
HETATM   13  C   UNL     1      -9.168   6.838  68.578  1.00  0.00    -0.128 A  
HETATM   14  I   UNL     1      -9.704   4.397  66.689  1.00  0.00    -0.191 I  
HETATM   15  C   UNL     1      -8.626   8.132  68.778  1.00  0.00    -0.127 A  
HETATM   16  I   UNL     1      -7.580   8.556  70.648  1.00  0.00    -0.117 I  
BRANCH  13  17
HETATM   17  C   UNL     1      -9.702   6.018  69.742  1.00  0.00    -0.194 C  
HETATM   18  C   UNL     1      -9.081   4.604  69.913  1.00  0.00    -0.161 C  
HETATM   19  C   UNL     1      -9.726   3.919  71.110  1.00  0.00    -0.178 C  
HETATM   20  C   UNL     1      -7.547   4.541  70.028  1.00  0.00    -0.054 C  
HETATM   21  C   UNL     1      -6.941   5.309  71.192  1.00  0.00    -0.056 C  
HETATM   22  O   UNL     1     -10.219   4.501  72.064  1.00  0.00    -0.192 OA 
HETATM   23  O   UNL     1      -9.696   2.569  71.034  1.00  0.00    -0.149 OA 
ENDBRANCH  13  17
ENDBRANCH   6   8
ENDBRANCH   3   4
ENDBRANCH   2   3
TORSDOF 4
ENDMDL
MODEL      180
REMARK 921   NORMALIZED FREE ENERGY PREDICTED BY IDOCK:   -1.78 KCAL/MOL
REMARK 922        TOTAL FREE ENERGY PREDICTED BY IDOCK:   -3.16 KCAL/MOL
REMARK 923 INTER-LIGAND FREE ENERGY PREDICTED BY IDOCK:   -3.60 KCAL/MOL
REMARK 924 INTRA-LIGAND FREE ENERGY PREDICTED BY IDOCK:    0.44 KCAL/MOL
REMARK 927      BINDING AFFINITY PREDICTED BY RF-SCORE:    0.00 PKD
ROOT
HETATM    1  C   UNL     1      -5.132  16.892  70.654  1.00  0.00    -0.234 C  
HETATM    2  C   UNL     1      -5.212  17.654  69.344  1.00  0.00    -0.177 C  
ENDROOT
BRANCH   2   3
HETATM    3  C   UNL     1      -6.649  18.039  69.010  1.00  0.00    -0.251 C  
BRANCH   3   4
HETATM    4  C   UNL     1      -7.351  16.904  68.308  1.00  0.00    -0.193 C  
HETATM    5  O   UNL     1      -7.472  16.892  67.083  1.00  0.00    -0.150 OA 
HETATM    6  N   UNL     1      -7.749  15.882  69.161  1.00  0.00    -0.209 N  
HETATM    7  H   UNL     1      -7.611  15.985  70.167  1.00  0.00     0.000 HD 
BRANCH   6   8
HETATM    8  C   UNL     1      -8.346  14.696  68.656  1.00  0.00    -0.165 A  
HETATM    9  C   UNL     1      -9.707  14.706  68.337  1.00  0.00    -0.217 A  
HETATM   10  C   UNL     1     -10.347  13.527  67.955  1.00  0.00    -0.241 A  
HETATM   11  I   UNL     1     -10.880  16.444  68.462  1.00  0.00    -0.310 I  
HETATM   12  C   UNL     1      -9.652  12.309  67.966  1.00  0.00    -0.206 A  
HETATM   13  C   UNL     1      -8.287  12.245  68.313  1.00  0.00    -0.174 A  
HETATM   14  I   UNL     1     -10.792  10.646  67.325  1.00  0.00    -0.228 I  
HETATM   15  C   UNL     1      -7.629  13.485  68.514  1.00  0.00    -0.129 A  
HETATM   16  I   UNL     1      -5.497  13.628  68.063  1.00  0.00    -0.031 I  
BRANCH  13  17
HETATM   17  C   UNL     1      -7.559  10.925  68.515  1.00  0.00    -0.111 C  
HETATM   18  C   UNL     1      -7.644   9.919  67.335  1.00  0.00    -0.091 C  
HETATM   19  C   UNL     1      -6.875   8.657  67.699  1.00  0.00    -0.071 C  
HETATM   20  C   UNL     1      -7.187  10.441  65.959  1.00  0.00    -0.134 C  
HETATM   21  C   UNL     1      -5.746  10.919  65.883  1.00  0.00    -0.142 C  
HETATM   22  O   UNL     1      -5.945   8.612  68.489  1.00  0.00    -0.044 OA 
HETATM   23  O   UNL     1      -7.313   7.556  67.047  1.00  0.00    -0.089 OA 
ENDBRANCH  13  17
ENDBRANCH   6   8
ENDBRANCH   3   4
ENDBRANCH   2   3
TORSDOF 4
ENDMDL
MODEL      181
REMARK 921   NORMALIZED FREE ENERGY PREDICTED BY IDOCK:   -1.77 KCAL/MOL
REMARK 922        TOTAL FREE ENERGY PREDICTED BY IDOCK:   -3.15 KCAL/MOL
REMARK 923 INTER-LIGAND FREE ENERGY PREDICTED BY IDOCK:   -3.16 KCAL/MOL
REMARK 924 INTRA-LIGAND FREE ENERGY PREDICTED BY IDOCK:    0.01 KCAL/MOL
REMARK 927      BINDING AFFINITY PREDICTED BY RF-SCORE:    0.00 PKD
ROOT
HETATM    1  C   UNL     1      -8.957  15.504  68.827  1.00  0.00    -0.204 C  
HETATM    2  C   UNL     1      -9.574  14.298  68.141  1.00  0.00    -0.218 C  
ENDROOT
BRANCH   2   3
HETATM    3  C   UNL     1      -8.689  13.789  67.008  1.00  0.00    -0.212 C  
BRANCH   3   4
HETATM    4  C   UNL     1      -8.161  12.413  67.327  1.00  0.00    -0.182 C  
HETATM    5  O   UNL     1      -7.648  11.711  66.456  1.00  0.00    -0.096 OA 
HETATM    6  N   UNL     1      -8.241  12.084  68.675  1.00  0.00    -0.306 N  
HETATM    7  H   UNL     1      -8.690  12.731  69.323  1.00  0.00     0.000 HD 
BRANCH   6   8
HETATM    8  C   UNL     1      -7.708  10.861  69.164  1.00  0.00    -0.127 A  
HETATM    9  C   UNL     1      -6.503  10.884  69.873  1.00  0.00    -0.144 A  
HETATM   10  C   UNL     1      -5.895   9.690  70.259  1.00  0.00    -0.051 A  
HETATM   11  I   UNL     1      -5.510  12.673  70.349  1.00  0.00    -0.161 I  
HETATM   12  C   UNL     1      -6.441   8.458  69.870  1.00  0.00    -0.035 A  
HETATM   13  C   UNL     1      -7.637   8.387  69.126  1.00  0.00    -0.087 A  
HETATM   14  I   UNL     1      -5.385   6.769  70.583  1.00  0.00    -0.024 I  
HETATM   15  C   UNL     1      -8.320   9.611  68.914  1.00  0.00    -0.116 A  
HETATM   16  I   UNL     1     -10.496   9.579  68.723  1.00  0.00    -0.204 I  
BRANCH  13  17
HETATM   17  C   UNL     1      -8.150   7.084  68.533  1.00  0.00    -0.124 C  
HETATM   18  C   UNL     1      -8.394   5.931  69.544  1.00  0.00    -0.114 C  
HETATM   19  C   UNL     1      -8.895   4.706  68.792  1.00  0.00    -0.100 C  
HETATM   20  C   UNL     1      -9.328   6.247  70.727  1.00  0.00    -0.168 C  
HETATM   21  C   UNL     1     -10.742   6.665  70.356  1.00  0.00    -0.297 C  
HETATM   22  O   UNL     1      -9.497   4.739  67.730  1.00  0.00    -0.133 OA 
HETATM   23  O   UNL     1      -8.622   3.542  69.423  1.00  0.00    -0.063 OA 
ENDBRANCH  13  17
ENDBRANCH   6   8
ENDBRANCH   3   4
ENDBRANCH   2   3
TORSDOF 4
ENDMDL
MODEL      182
REMARK 921   NORMALIZED FREE ENERGY PREDICTED BY IDOCK:   -1.69 KCAL/MOL
REMARK 922        TOTAL FREE ENERGY PREDICTED BY IDOCK:   -3.05 KCAL/MOL
REMARK 923 INTER-LIGAND FREE ENERGY PREDICTED BY IDOCK:   -2.17 KCAL/MOL
REMARK 924 INTRA-LIGAND FREE ENERGY PREDICTED BY IDOCK:   -0.89 KCAL/MOL
REMARK 927      BINDING AFFINITY PREDICTED BY RF-SCORE:    0.00 PKD
ROOT
HETATM    1  C   UNL     1      -5.623  13.677  68.806  1.00  0.00    -0.083 C  
HETATM    2  C   UNL     1      -6.237  12.531  68.022  1.00  0.00    -0.088 C  
ENDROOT
BRANCH   2   3
HETATM    3  C   UNL     1      -5.466  11.233  68.235  1.00  0.00    -0.042 C  
BRANCH   3   4
HETATM    4  C   UNL     1      -6.208  10.071  67.624  1.00  0.00    -0.058 C  
HETATM    5  O   UNL     1      -7.430   9.969  67.733  1.00  0.00    -0.088 OA 
HETATM    6  N   UNL     1      -5.397   9.217  66.887  1.00  0.00    -0.039 N  
HETATM    7  H   UNL     1      -4.390   9.380  66.859  1.00  0.00     0.000 HD 
BRANCH   6   8
HETATM    8  C   UNL     1      -5.947   8.120  66.171  1.00  0.00    -0.041 A  
HETATM    9  C   UNL     1      -6.181   8.256  64.799  1.00  0.00    -0.056 A  
HETATM   10  C   UNL     1      -6.831   7.244  64.095  1.00  0.00    -0.048 A  
HETATM   11  I   UNL     1      -5.636   9.980  63.729  1.00  0.00    -0.145 I  
HETATM   12  C   UNL     1      -7.329   6.118  64.769  1.00  0.00    -0.075 A  
HETATM   13  C   UNL     1      -7.146   5.954  66.158  1.00  0.00    -0.071 A  
HETATM   14  I   UNL     1      -8.254   4.686  63.516  1.00  0.00    -0.121 I  
HETATM   15  C   UNL     1      -6.322   6.910  66.802  1.00  0.00    -0.045 A  
HETATM   16  I   UNL     1      -5.174   6.296  68.556  1.00  0.00    -0.009 I  
BRANCH  13  17
HETATM   17  C   UNL     1      -7.831   4.846  66.943  1.00  0.00    -0.099 C  
HETATM   18  C   UNL     1      -8.808   5.312  68.057  1.00  0.00    -0.106 C  
HETATM   19  C   UNL     1      -9.398   4.089  68.745  1.00  0.00    -0.163 C  
HETATM   20  C   UNL     1      -9.932   6.271  67.622  1.00  0.00    -0.151 C  
HETATM   21  C   UNL     1     -10.876   5.737  66.556  1.00  0.00    -0.227 C  
HETATM   22  O   UNL     1      -9.525   2.991  68.226  1.00  0.00    -0.197 OA 
HETATM   23  O   UNL     1      -9.794   4.329  70.015  1.00  0.00    -0.215 OA 
ENDBRANCH  13  17
ENDBRANCH   6   8
ENDBRANCH   3   4
ENDBRANCH   2   3
TORSDOF 4
ENDMDL
MODEL      183
REMARK 921   NORMALIZED FREE ENERGY PREDICTED BY IDOCK:   -1.68 KCAL/MOL
REMARK 922        TOTAL FREE ENERGY PREDICTED BY IDOCK:   -3.04 KCAL/MOL
REMARK 923 INTER-LIGAND FREE ENERGY PREDICTED BY IDOCK:   -3.02 KCAL/MOL
REMARK 924 INTRA-LIGAND FREE ENERGY PREDICTED BY IDOCK:   -0.02 KCAL/MOL
REMARK 927      BINDING AFFINITY PREDICTED BY RF-SCORE:    0.00 PKD
ROOT
HETATM    1  C   UNL     1      -7.939   7.770  63.231  1.00  0.00    -0.111 C  
HETATM    2  C   UNL     1      -7.901   9.094  63.972  1.00  0.00    -0.129 C  
ENDROOT
BRANCH   2   3
HETATM    3  C   UNL     1      -9.028  10.018  63.523  1.00  0.00    -0.279 C  
BRANCH   3   4
HETATM    4  C   UNL     1      -9.875  10.429  64.700  1.00  0.00    -0.338 C  
HETATM    5  O   UNL     1     -11.077  10.661  64.569  1.00  0.00     0.147 OA 
HETATM    6  N   UNL     1      -9.187  10.432  65.908  1.00  0.00    -0.164 N  
HETATM    7  H   UNL     1      -8.187  10.232  65.916  1.00  0.00     0.000 HD 
BRANCH   6   8
HETATM    8  C   UNL     1      -9.855  10.710  67.131  1.00  0.00    -0.175 A  
HETATM    9  C   UNL     1     -10.130   9.655  68.006  1.00  0.00    -0.178 A  
HETATM   10  C   UNL     1     -10.890   9.877  69.154  1.00  0.00    -0.248 A  
HETATM   11  I   UNL     1      -9.487   7.689  67.638  1.00  0.00    -0.205 I  
HETATM   12  C   UNL     1     -11.452  11.139  69.399  1.00  0.00    -0.298 A  
HETATM   13  C   UNL     1     -11.229  12.224  68.527  1.00  0.00    -0.316 A  
HETATM   14  I   UNL     1     -12.542  11.275  71.208  1.00  0.00    -0.236 I  
HETATM   15  C   UNL     1     -10.303  12.007  67.475  1.00  0.00    -0.200 A  
HETATM   16  I   UNL     1      -9.142  13.701  66.732  1.00  0.00    -0.062 I  
BRANCH  13  17
HETATM   17  C   UNL     1     -11.972  13.544  68.663  1.00  0.00    -0.378 C  
HETATM   18  C   UNL     1     -11.812  14.271  70.027  1.00  0.00    -0.378 C  
HETATM   19  C   UNL     1     -12.619  15.562  70.000  1.00  0.00    -0.196 C  
HETATM   20  C   UNL     1     -10.369  14.555  70.484  1.00  0.00     0.789 C  
HETATM   21  C   UNL     1      -9.541  15.423  69.549  1.00  0.00    -0.259 C  
HETATM   22  O   UNL     1     -12.896  16.189  68.989  1.00  0.00     0.600 OA 
HETATM   23  O   UNL     1     -13.004  15.977  71.228  1.00  0.00    -0.410 OA 
ENDBRANCH  13  17
ENDBRANCH   6   8
ENDBRANCH   3   4
ENDBRANCH   2   3
TORSDOF 4
ENDMDL
MODEL      184
REMARK 921   NORMALIZED FREE ENERGY PREDICTED BY IDOCK:   -1.64 KCAL/MOL
REMARK 922        TOTAL FREE ENERGY PREDICTED BY IDOCK:   -2.99 KCAL/MOL
REMARK 923 INTER-LIGAND FREE ENERGY PREDICTED BY IDOCK:   -2.05 KCAL/MOL
REMARK 924 INTRA-LIGAND FREE ENERGY PREDICTED BY IDOCK:   -0.94 KCAL/MOL
REMARK 927      BINDING AFFINITY PREDICTED BY RF-SCORE:    0.00 PKD
ROOT
HETATM    1  C   UNL     1      -7.004  12.345  68.692  1.00  0.00    -0.091 C  
HETATM    2  C   UNL     1      -7.228  11.026  69.409  1.00  0.00    -0.114 C  
ENDROOT
BRANCH   2   3
HETATM    3  C   UNL     1      -8.595  10.435  69.075  1.00  0.00    -0.158 C  
BRANCH   3   4
HETATM    4  C   UNL     1      -8.547   8.929  69.132  1.00  0.00    -0.134 C  
HETATM    5  O   UNL     1      -9.528   8.275  69.489  1.00  0.00    -0.161 OA 
HETATM    6  N   UNL     1      -7.351   8.391  68.675  1.00  0.00    -0.087 N  
HETATM    7  H   UNL     1      -6.591   9.015  68.405  1.00  0.00     0.000 HD 
BRANCH   6   8
HETATM    8  C   UNL     1      -7.169   6.985  68.577  1.00  0.00    -0.091 A  
HETATM    9  C   UNL     1      -7.469   6.347  67.370  1.00  0.00    -0.088 A  
HETATM   10  C   UNL     1      -7.417   4.956  67.281  1.00  0.00    -0.083 A  
HETATM   11  I   UNL     1      -8.064   7.402  65.654  1.00  0.00    -0.134 I  
HETATM   12  C   UNL     1      -7.144   4.182  68.419  1.00  0.00    -0.055 A  
HETATM   13  C   UNL     1      -6.869   4.783  69.666  1.00  0.00    -0.052 A  
HETATM   14  I   UNL     1      -7.082   2.098  68.066  1.00  0.00    -0.048 I  
HETATM   15  C   UNL     1      -6.748   6.195  69.672  1.00  0.00    -0.052 A  
HETATM   16  I   UNL     1      -5.419   7.129  71.132  1.00  0.00    -0.027 I  
BRANCH  13  17
HETATM   17  C   UNL     1      -6.755   3.975  70.950  1.00  0.00    -0.032 C  
HETATM   18  C   UNL     1      -7.927   4.139  71.957  1.00  0.00    -0.085 C  
HETATM   19  C   UNL     1      -7.656   3.276  73.181  1.00  0.00    -0.060 C  
HETATM   20  C   UNL     1      -9.340   3.859  71.412  1.00  0.00    -0.208 C  
HETATM   21  C   UNL     1      -9.569   2.459  70.864  1.00  0.00    -0.188 C  
HETATM   22  O   UNL     1      -6.972   2.264  73.182  1.00  0.00    -0.025 OA 
HETATM   23  O   UNL     1      -8.265   3.729  74.300  1.00  0.00    -0.081 OA 
ENDBRANCH  13  17
ENDBRANCH   6   8
ENDBRANCH   3   4
ENDBRANCH   2   3
TORSDOF 4
ENDMDL
MODEL      185
REMARK 921   NORMALIZED FREE ENERGY PREDICTED BY IDOCK:   -1.58 KCAL/MOL
REMARK 922        TOTAL FREE ENERGY PREDICTED BY IDOCK:   -2.92 KCAL/MOL
REMARK 923 INTER-LIGAND FREE ENERGY PREDICTED BY IDOCK:   -3.62 KCAL/MOL
REMARK 924 INTRA-LIGAND FREE ENERGY PREDICTED BY IDOCK:    0.71 KCAL/MOL
REMARK 927      BINDING AFFINITY PREDICTED BY RF-SCORE:    0.00 PKD
ROOT
HETATM    1  C   UNL     1      -8.245   8.092  74.431  1.00  0.00    -0.284 C  
HETATM    2  C   UNL     1      -8.327   7.968  72.920  1.00  0.00    -0.229 C  
ENDROOT
BRANCH   2   3
HETATM    3  C   UNL     1      -9.760   7.728  72.457  1.00  0.00    -0.262 C  
BRANCH   3   4
HETATM    4  C   UNL     1      -9.911   8.084  70.999  1.00  0.00    -0.174 C  
HETATM    5  O   UNL     1     -10.214   7.232  70.165  1.00  0.00    -0.198 OA 
HETATM    6  N   UNL     1      -9.758   9.440  70.738  1.00  0.00    -0.273 N  
HETATM    7  H   UNL     1      -9.500  10.072  71.497  1.00  0.00     0.000 HD 
BRANCH   6   8
HETATM    8  C   UNL     1      -9.954   9.961  69.431  1.00  0.00    -0.212 A  
HETATM    9  C   UNL     1     -11.027  10.830  69.204  1.00  0.00    -0.244 A  
HETATM   10  C   UNL     1     -11.317  11.260  67.909  1.00  0.00    -0.367 A  
HETATM   11  I   UNL     1     -12.289  11.491  70.747  1.00  0.00    -0.181 I  
HETATM   12  C   UNL     1     -10.590  10.764  66.817  1.00  0.00    -0.250 A  
HETATM   13  C   UNL     1      -9.522   9.861  66.996  1.00  0.00    -0.196 A  
HETATM   14  I   UNL     1     -11.166  11.565  64.946  1.00  0.00     0.003 I  
HETATM   15  C   UNL     1      -9.140   9.593  68.335  1.00  0.00    -0.123 A  
HETATM   16  I   UNL     1      -7.053   9.104  68.754  1.00  0.00    -0.075 I  
BRANCH  13  17
HETATM   17  C   UNL     1      -8.841   9.164  65.828  1.00  0.00    -0.210 C  
HETATM   18  C   UNL     1      -8.108   7.837  66.166  1.00  0.00    -0.113 C  
HETATM   19  C   UNL     1      -7.479   7.278  64.897  1.00  0.00    -0.091 C  
HETATM   20  C   UNL     1      -8.948   6.753  66.866  1.00  0.00    -0.133 C  
HETATM   21  C   UNL     1     -10.169   6.269  66.099  1.00  0.00     0.146 C  
HETATM   22  O   UNL     1      -7.886   7.493  63.765  1.00  0.00    -0.121 OA 
HETATM   23  O   UNL     1      -6.408   6.488  65.134  1.00  0.00    -0.036 OA 
ENDBRANCH  13  17
ENDBRANCH   6   8
ENDBRANCH   3   4
ENDBRANCH   2   3
TORSDOF 4
ENDMDL
MODEL      186
REMARK 921   NORMALIZED FREE ENERGY PREDICTED BY IDOCK:   -1.50 KCAL/MOL
REMARK 922        TOTAL FREE ENERGY PREDICTED BY IDOCK:   -2.82 KCAL/MOL
REMARK 923 INTER-LIGAND FREE ENERGY PREDICTED BY IDOCK:   -3.29 KCAL/MOL
REMARK 924 INTRA-LIGAND FREE ENERGY PREDICTED BY IDOCK:    0.48 KCAL/MOL
REMARK 927      BINDING AFFINITY PREDICTED BY RF-SCORE:    0.00 PKD
ROOT
HETATM    1  C   UNL     1     -10.862   9.922  69.480  1.00  0.00    -0.274 C  
HETATM    2  C   UNL     1     -12.159  10.679  69.258  1.00  0.00    -0.206 C  
ENDROOT
BRANCH   2   3
HETATM    3  C   UNL     1     -12.153  12.021  69.984  1.00  0.00    -0.355 C  
BRANCH   3   4
HETATM    4  C   UNL     1     -11.582  13.099  69.098  1.00  0.00    -0.316 C  
HETATM    5  O   UNL     1     -12.315  13.826  68.428  1.00  0.00    -0.254 OA 
HETATM    6  N   UNL     1     -10.201  13.223  69.190  1.00  0.00    -0.421 N  
HETATM    7  H   UNL     1      -9.676  12.568  69.770  1.00  0.00     0.000 HD 
BRANCH   6   8
HETATM    8  C   UNL     1      -9.509  14.247  68.489  1.00  0.00    -0.206 A  
HETATM    9  C   UNL     1      -9.067  13.996  67.187  1.00  0.00    -0.232 A  
HETATM   10  C   UNL     1      -8.281  14.935  66.520  1.00  0.00     0.192 A  
HETATM   11  I   UNL     1      -9.494  12.204  66.178  1.00  0.00    -0.100 I  
HETATM   12  C   UNL     1      -7.859  16.101  67.177  1.00  0.00    -0.200 A  
HETATM   13  C   UNL     1      -8.252  16.379  68.503  1.00  0.00    -0.201 A  
HETATM   14  I   UNL     1      -6.701  17.408  65.983  1.00  0.00     0.305 I  
HETATM   15  C   UNL     1      -9.198  15.495  69.079  1.00  0.00    -0.238 A  
HETATM   16  I   UNL     1     -10.586  16.271  70.575  1.00  0.00     0.742 I  
BRANCH  13  17
HETATM   17  C   UNL     1      -7.662  17.532  69.301  1.00  0.00     0.081 C  
HETATM   18  C   UNL     1      -7.571  18.892  68.556  1.00  0.00    -0.357 C  
HETATM   19  C   UNL     1      -6.956  19.929  69.487  1.00  0.00    -0.231 C  
HETATM   20  C   UNL     1      -8.882  19.430  67.953  1.00  0.00    -0.362 C  
HETATM   21  C   UNL     1     -10.011  19.671  68.943  1.00  0.00    -0.524 C  
HETATM   22  O   UNL     1      -7.011  19.890  70.706  1.00  0.00     0.093 OA 
HETATM   23  O   UNL     1      -6.336  20.935  68.831  1.00  0.00    -0.232 OA 
ENDBRANCH  13  17
ENDBRANCH   6   8
ENDBRANCH   3   4
ENDBRANCH   2   3
TORSDOF 4
ENDMDL
MODEL      187
REMARK 921   NORMALIZED FREE ENERGY PREDICTED BY IDOCK:   -1.45 KCAL/MOL
REMARK 922        TOTAL FREE ENERGY PREDICTED BY IDOCK:   -2.76 KCAL/MOL
REMARK 923 INTER-LIGAND FREE ENERGY PREDICTED BY IDOCK:   -3.03 KCAL/MOL
REMARK 924 INTRA-LIGAND FREE ENERGY PREDICTED BY IDOCK:    0.27 KCAL/MOL
REMARK 927      BINDING AFFINITY PREDICTED BY RF-SCORE:    0.00 PKD
ROOT
HETATM    1  C   UNL     1      -5.183  13.377  72.795  1.00  0.00    -0.009 C  
HETATM    2  C   UNL     1      -5.219  13.985  71.405  1.00  0.00    -0.170 C  
ENDROOT
BRANCH   2   3
HETATM    3  C   UNL     1      -5.375  12.913  70.331  1.00  0.00    -0.131 C  
BRANCH   3   4
HETATM    4  C   UNL     1      -6.016  13.492  69.095  1.00  0.00    -0.089 C  
HETATM    5  O   UNL     1      -5.412  13.528  68.023  1.00  0.00    -0.101 OA 
HETATM    6  N   UNL     1      -7.336  13.883  69.283  1.00  0.00    -0.308 N  
HETATM    7  H   UNL     1      -7.750  13.820  70.213  1.00  0.00     0.000 HD 
BRANCH   6   8
HETATM    8  C   UNL     1      -8.117  14.368  68.200  1.00  0.00    -0.137 A  
HETATM    9  C   UNL     1      -8.072  15.731  67.891  1.00  0.00    -0.141 A  
HETATM   10  C   UNL     1      -8.919  16.257  66.915  1.00  0.00    -0.242 A  
HETATM   11  I   UNL     1      -6.799  17.072  68.888  1.00  0.00    -0.208 I  
HETATM   12  C   UNL     1      -9.877  15.442  66.294  1.00  0.00    -0.297 A  
HETATM   13  C   UNL     1      -9.981  14.068  66.599  1.00  0.00    -0.280 A  
HETATM   14  I   UNL     1     -11.038  16.422  64.823  1.00  0.00     0.627 I  
HETATM   15  C   UNL     1      -8.985  13.536  67.455  1.00  0.00    -0.219 A  
HETATM   16  I   UNL     1      -8.412  11.441  67.223  1.00  0.00    -0.166 I  
BRANCH  13  17
HETATM   17  C   UNL     1     -11.124  13.206  66.086  1.00  0.00    -0.301 C  
HETATM   18  C   UNL     1     -11.286  13.147  64.542  1.00  0.00    -0.383 C  
HETATM   19  C   UNL     1     -12.470  12.254  64.199  1.00  0.00    -0.434 C  
HETATM   20  C   UNL     1     -10.044  12.714  63.741  1.00  0.00    -0.173 C  
HETATM   21  C   UNL     1      -9.499  11.332  64.068  1.00  0.00    -0.202 C  
HETATM   22  O   UNL     1     -12.884  11.346  64.903  1.00  0.00     0.791 OA 
HETATM   23  O   UNL     1     -13.036  12.550  63.007  1.00  0.00    -0.451 OA 
ENDBRANCH  13  17
ENDBRANCH   6   8
ENDBRANCH   3   4
ENDBRANCH   2   3
TORSDOF 4
ENDMDL
MODEL      188
REMARK 921   NORMALIZED FREE ENERGY PREDICTED BY IDOCK:   -0.98 KCAL/MOL
REMARK 922        TOTAL FREE ENERGY PREDICTED BY IDOCK:   -2.18 KCAL/MOL
REMARK 923 INTER-LIGAND FREE ENERGY PREDICTED BY IDOCK:   -2.23 KCAL/MOL
REMARK 924 INTRA-LIGAND FREE ENERGY PREDICTED BY IDOCK:    0.05 KCAL/MOL
REMARK 927      BINDING AFFINITY PREDICTED BY RF-SCORE:    0.00 PKD
ROOT
HETATM    1  C   UNL     1      -6.364  13.614  67.413  1.00  0.00     0.070 C  
HETATM    2  C   UNL     1      -6.660  12.210  66.919  1.00  0.00    -0.006 C  
ENDROOT
BRANCH   2   3
HETATM    3  C   UNL     1      -5.903  11.162  67.730  1.00  0.00    -0.047 C  
BRANCH   3   4
HETATM    4  C   UNL     1      -6.779   9.963  67.993  1.00  0.00    -0.061 C  
HETATM    5  O   UNL     1      -7.989  10.000  67.773  1.00  0.00    -0.104 OA 
HETATM    6  N   UNL     1      -6.076   8.841  68.414  1.00  0.00    -0.049 N  
HETATM    7  H   UNL     1      -5.071   8.909  68.575  1.00  0.00     0.000 HD 
BRANCH   6   8
HETATM    8  C   UNL     1      -6.735   7.600  68.622  1.00  0.00    -0.054 A  
HETATM    9  C   UNL     1      -6.647   6.613  67.635  1.00  0.00    -0.054 A  
HETATM   10  C   UNL     1      -7.381   5.433  67.756  1.00  0.00    -0.073 A  
HETATM   11  I   UNL     1      -5.477   6.849  65.907  1.00  0.00    -0.028 I  
HETATM   12  C   UNL     1      -8.274   5.260  68.824  1.00  0.00    -0.089 A  
HETATM   13  C   UNL     1      -8.420   6.243  69.825  1.00  0.00    -0.126 A  
HETATM   14  I   UNL     1      -9.266   3.392  68.842  1.00  0.00    -0.172 I  
HETATM   15  C   UNL     1      -7.525   7.340  69.767  1.00  0.00    -0.093 A  
HETATM   16  I   UNL     1      -6.946   8.324  71.629  1.00  0.00    -0.108 I  
BRANCH  13  17
HETATM   17  C   UNL     1      -9.509   6.169  70.885  1.00  0.00    -0.187 C  
HETATM   18  C   UNL     1      -9.551   4.860  71.720  1.00  0.00    -0.210 C  
HETATM   19  C   UNL     1     -10.693   4.945  72.723  1.00  0.00    -0.228 C  
HETATM   20  C   UNL     1      -8.245   4.463  72.434  1.00  0.00    -0.108 C  
HETATM   21  C   UNL     1      -7.709   5.475  73.435  1.00  0.00    -0.096 C  
HETATM   22  O   UNL     1     -11.148   5.986  73.174  1.00  0.00    -0.255 OA 
HETATM   23  O   UNL     1     -11.170   3.736  73.095  1.00  0.00    -0.151 OA 
ENDBRANCH  13  17
ENDBRANCH   6   8
ENDBRANCH   3   4
ENDBRANCH   2   3
TORSDOF 4
ENDMDL
MODEL      189
REMARK 921   NORMALIZED FREE ENERGY PREDICTED BY IDOCK:   -0.76 KCAL/MOL
REMARK 922        TOTAL FREE ENERGY PREDICTED BY IDOCK:   -1.90 KCAL/MOL
REMARK 923 INTER-LIGAND FREE ENERGY PREDICTED BY IDOCK:   -2.48 KCAL/MOL
REMARK 924 INTRA-LIGAND FREE ENERGY PREDICTED BY IDOCK:    0.58 KCAL/MOL
REMARK 927      BINDING AFFINITY PREDICTED BY RF-SCORE:    0.00 PKD
ROOT
HETATM    1  C   UNL     1     -11.740  10.139  70.923  1.00  0.00    -0.468 C  
HETATM    2  C   UNL     1     -12.096   8.742  71.397  1.00  0.00    -0.361 C  
ENDROOT
BRANCH   2   3
HETATM    3  C   UNL     1     -10.937   8.094  72.146  1.00  0.00    -0.372 C  
BRANCH   3   4
HETATM    4  C   UNL     1      -9.770   7.866  71.219  1.00  0.00    -0.157 C  
HETATM    5  O   UNL     1      -8.670   8.372  71.444  1.00  0.00    -0.141 OA 
HETATM    6  N   UNL     1     -10.048   6.990  70.177  1.00  0.00    -0.186 N  
HETATM    7  H   UNL     1     -10.994   6.624  70.068  1.00  0.00     0.000 HD 
BRANCH   6   8
HETATM    8  C   UNL     1      -9.036   6.595  69.261  1.00  0.00    -0.138 A  
HETATM    9  C   UNL     1      -8.303   5.434  69.523  1.00  0.00    -0.100 A  
HETATM   10  C   UNL     1      -7.225   5.088  68.709  1.00  0.00    -0.058 A  
HETATM   11  I   UNL     1      -8.720   4.182  71.156  1.00  0.00    -0.160 I  
HETATM   12  C   UNL     1      -6.816   5.941  67.673  1.00  0.00    -0.060 A  
HETATM   13  C   UNL     1      -7.506   7.139  67.394  1.00  0.00    -0.100 A  
HETATM   14  I   UNL     1      -5.183   5.220  66.538  1.00  0.00    -0.009 I  
HETATM   15  C   UNL     1      -8.702   7.362  68.120  1.00  0.00    -0.122 A  
HETATM   16  I   UNL     1     -10.302   8.514  67.181  1.00  0.00    -0.244 I  
BRANCH  13  17
HETATM   17  C   UNL     1      -6.979   8.170  66.407  1.00  0.00    -0.067 C  
HETATM   18  C   UNL     1      -7.537   9.610  66.572  1.00  0.00    -0.098 C  
HETATM   19  C   UNL     1      -6.918  10.509  65.510  1.00  0.00    -0.100 C  
HETATM   20  C   UNL     1      -7.379  10.248  67.965  1.00  0.00    -0.086 C  
HETATM   21  C   UNL     1      -5.951  10.388  68.467  1.00  0.00    -0.043 C  
HETATM   22  O   UNL     1      -5.832  10.319  64.983  1.00  0.00    -0.109 OA 
HETATM   23  O   UNL     1      -7.688  11.575  65.197  1.00  0.00     0.696 OA 
ENDBRANCH  13  17
ENDBRANCH   6   8
ENDBRANCH   3   4
ENDBRANCH   2   3
TORSDOF 4
ENDMDL
MODEL      190
REMARK 921   NORMALIZED FREE ENERGY PREDICTED BY IDOCK:   -0.71 KCAL/MOL
REMARK 922        TOTAL FREE ENERGY PREDICTED BY IDOCK:   -1.85 KCAL/MOL
REMARK 923 INTER-LIGAND FREE ENERGY PREDICTED BY IDOCK:   -2.01 KCAL/MOL
REMARK 924 INTRA-LIGAND FREE ENERGY PREDICTED BY IDOCK:    0.16 KCAL/MOL
REMARK 927      BINDING AFFINITY PREDICTED BY RF-SCORE:    0.00 PKD
ROOT
HETATM    1  C   UNL     1      -7.076  10.512  64.374  1.00  0.00     0.105 C  
HETATM    2  C   UNL     1      -8.508  10.025  64.501  1.00  0.00    -0.180 C  
ENDROOT
BRANCH   2   3
HETATM    3  C   UNL     1      -8.614   8.527  64.236  1.00  0.00    -0.003 C  
BRANCH   3   4
HETATM    4  C   UNL     1      -8.349   7.747  65.498  1.00  0.00    -0.146 C  
HETATM    5  O   UNL     1      -8.276   6.518  65.483  1.00  0.00    -0.128 OA 
HETATM    6  N   UNL     1      -8.125   8.547  66.612  1.00  0.00    -0.103 N  
HETATM    7  H   UNL     1      -8.214   9.560  66.528  1.00  0.00     0.000 HD 
BRANCH   6   8
HETATM    8  C   UNL     1      -7.774   7.978  67.865  1.00  0.00    -0.114 A  
HETATM    9  C   UNL     1      -6.675   8.494  68.559  1.00  0.00    -0.060 A  
HETATM   10  C   UNL     1      -6.233   7.879  69.729  1.00  0.00    -0.026 A  
HETATM   11  I   UNL     1      -5.595  10.162  67.877  1.00  0.00    -0.036 I  
HETATM   12  C   UNL     1      -6.833   6.693  70.177  1.00  0.00    -0.061 A  
HETATM   13  C   UNL     1      -7.922   6.117  69.490  1.00  0.00    -0.107 A  
HETATM   14  I   UNL     1      -6.037   5.938  71.985  1.00  0.00    -0.043 I  
HETATM   15  C   UNL     1      -8.458   6.869  68.415  1.00  0.00    -0.123 A  
HETATM   16  I   UNL     1     -10.584   6.671  67.953  1.00  0.00    -0.388 I  
BRANCH  13  17
HETATM   17  C   UNL     1      -8.469   4.741  69.840  1.00  0.00    -0.086 C  
HETATM   18  C   UNL     1      -8.406   3.681  68.707  1.00  0.00    -0.089 C  
HETATM   19  C   UNL     1      -8.995   2.372  69.216  1.00  0.00    -0.108 C  
HETATM   20  C   UNL     1      -7.022   3.432  68.079  1.00  0.00    -0.050 C  
HETATM   21  C   UNL     1      -5.941   2.955  69.037  1.00  0.00    -0.024 C  
HETATM   22  O   UNL     1      -9.020   2.029  70.388  1.00  0.00    -0.065 OA 
HETATM   23  O   UNL     1      -9.492   1.590  68.231  1.00  0.00    -0.173 OA 
ENDBRANCH  13  17
ENDBRANCH   6   8
ENDBRANCH   3   4
ENDBRANCH   2   3
TORSDOF 4
ENDMDL
MODEL      191
REMARK 921   NORMALIZED FREE ENERGY PREDICTED BY IDOCK:   -0.71 KCAL/MOL
REMARK 922        TOTAL FREE ENERGY PREDICTED BY IDOCK:   -1.84 KCAL/MOL
REMARK 923 INTER-LIGAND FREE ENERGY PREDICTED BY IDOCK:   -3.48 KCAL/MOL
REMARK 924 INTRA-LIGAND FREE ENERGY PREDICTED BY IDOCK:    1.64 KCAL/MOL
REMARK 927      BINDING AFFINITY PREDICTED BY RF-SCORE:    0.00 PKD
ROOT
HETATM    1  C   UNL     1     -12.953  11.111  71.562  1.00  0.00    -0.542 C  
HETATM    2  C   UNL     1     -12.949   9.676  71.065  1.00  0.00    -0.325 C  
ENDROOT
BRANCH   2   3
HETATM    3  C   UNL     1     -12.778   8.688  72.214  1.00  0.00    -0.450 C  
BRANCH   3   4
HETATM    4  C   UNL     1     -11.660   7.720  71.917  1.00  0.00    -0.287 C  
HETATM    5  O   UNL     1     -11.840   6.504  71.975  1.00  0.00    -0.308 OA 
HETATM    6  N   UNL     1     -10.484   8.336  71.506  1.00  0.00    -0.215 N  
HETATM    7  H   UNL     1     -10.428   9.354  71.494  1.00  0.00     0.000 HD 
BRANCH   6   8
HETATM    8  C   UNL     1      -9.359   7.569  71.101  1.00  0.00    -0.151 A  
HETATM    9  C   UNL     1      -8.602   8.003  70.008  1.00  0.00    -0.134 A  
HETATM   10  C   UNL     1      -7.568   7.210  69.512  1.00  0.00    -0.101 A  
HETATM   11  I   UNL     1      -8.994   9.812  69.014  1.00  0.00    -0.191 I  
HETATM   12  C   UNL     1      -7.329   5.938  70.051  1.00  0.00    -0.074 A  
HETATM   13  C   UNL     1      -8.089   5.445  71.133  1.00  0.00    -0.111 A  
HETATM   14  I   UNL     1      -5.698   4.910  69.181  1.00  0.00    -0.018 I  
HETATM   15  C   UNL     1      -9.003   6.351  71.726  1.00  0.00    -0.139 A  
HETATM   16  I   UNL     1      -9.458   6.144  73.852  1.00  0.00    -0.222 I  
BRANCH  13  17
HETATM   17  C   UNL     1      -7.981   4.005  71.614  1.00  0.00    -0.074 C  
HETATM   18  C   UNL     1      -6.580   3.566  72.120  1.00  0.00    -0.015 C  
HETATM   19  C   UNL     1      -6.642   2.108  72.554  1.00  0.00    -0.014 C  
HETATM   20  C   UNL     1      -5.956   4.426  73.235  1.00  0.00    -0.012 C  
HETATM   21  C   UNL     1      -6.759   4.517  74.523  1.00  0.00    -0.065 C  
HETATM   22  O   UNL     1      -7.651   1.540  72.944  1.00  0.00    -0.031 OA 
HETATM   23  O   UNL     1      -5.448   1.477  72.483  1.00  0.00     0.000 OA 
ENDBRANCH  13  17
ENDBRANCH   6   8
ENDBRANCH   3   4
ENDBRANCH   2   3
TORSDOF 4
ENDMDL
MODEL      192
REMARK 921   NORMALIZED FREE ENERGY PREDICTED BY IDOCK:   -0.52 KCAL/MOL
REMARK 922        TOTAL FREE ENERGY PREDICTED BY IDOCK:   -1.61 KCAL/MOL
REMARK 923 INTER-LIGAND FREE ENERGY PREDICTED BY IDOCK:   -2.12 KCAL/MOL
REMARK 924 INTRA-LIGAND FREE ENERGY PREDICTED BY IDOCK:    0.51 KCAL/MOL
REMARK 927      BINDING AFFINITY PREDICTED BY RF-SCORE:    0.00 PKD
ROOT
HETATM    1  C   UNL     1      -8.625  15.761  66.234  1.00  0.00    -0.307 C  
HETATM    2  C   UNL     1      -8.877  14.442  66.941  1.00  0.00    -0.246 C  
ENDROOT
BRANCH   2   3
HETATM    3  C   UNL     1      -7.585  13.652  67.126  1.00  0.00     0.048 C  
BRANCH   3   4
HETATM    4  C   UNL     1      -7.675  12.769  68.345  1.00  0.00    -0.132 C  
HETATM    5  O   UNL     1      -7.930  13.239  69.453  1.00  0.00     0.439 OA 
HETATM    6  N   UNL     1      -7.528  11.415  68.065  1.00  0.00    -0.095 N  
HETATM    7  H   UNL     1      -7.312  11.121  67.112  1.00  0.00     0.000 HD 
BRANCH   6   8
HETATM    8  C   UNL     1      -7.673  10.436  69.084  1.00  0.00    -0.126 A  
HETATM    9  C   UNL     1      -6.778  10.440  70.158  1.00  0.00    -0.150 A  
HETATM   10  C   UNL     1      -6.819   9.420  71.108  1.00  0.00    -0.036 A  
HETATM   11  I   UNL     1      -5.299  11.914  70.387  1.00  0.00    -0.159 I  
HETATM   12  C   UNL     1      -7.701   8.341  70.952  1.00  0.00    -0.082 A  
HETATM   13  C   UNL     1      -8.599   8.278  69.866  1.00  0.00    -0.125 A  
HETATM   14  I   UNL     1      -7.629   6.918  72.516  1.00  0.00    -0.096 I  
HETATM   15  C   UNL     1      -8.655   9.420  69.028  1.00  0.00    -0.135 A  
HETATM   16  I   UNL     1     -10.537   9.897  68.027  1.00  0.00    -0.271 I  
BRANCH  13  17
HETATM   17  C   UNL     1      -9.430   7.039  69.568  1.00  0.00    -0.147 C  
HETATM   18  C   UNL     1      -9.189   6.381  68.182  1.00  0.00    -0.111 C  
HETATM   19  C   UNL     1     -10.098   5.167  68.042  1.00  0.00    -0.128 C  
HETATM   20  C   UNL     1      -7.734   5.996  67.853  1.00  0.00    -0.098 C  
HETATM   21  C   UNL     1      -7.084   5.006  68.807  1.00  0.00    -0.057 C  
HETATM   22  O   UNL     1     -10.531   4.511  68.976  1.00  0.00     0.128 OA 
HETATM   23  O   UNL     1     -10.385   4.860  66.757  1.00  0.00    -0.237 OA 
ENDBRANCH  13  17
ENDBRANCH   6   8
ENDBRANCH   3   4
ENDBRANCH   2   3
TORSDOF 4
ENDMDL
MODEL      193
REMARK 921   NORMALIZED FREE ENERGY PREDICTED BY IDOCK:   -0.28 KCAL/MOL
REMARK 922        TOTAL FREE ENERGY PREDICTED BY IDOCK:   -1.32 KCAL/MOL
REMARK 923 INTER-LIGAND FREE ENERGY PREDICTED BY IDOCK:   -2.11 KCAL/MOL
REMARK 924 INTRA-LIGAND FREE ENERGY PREDICTED BY IDOCK:    0.79 KCAL/MOL
REMARK 927      BINDING AFFINITY PREDICTED BY RF-SCORE:    0.00 PKD
ROOT
HETATM    1  C   UNL     1      -5.177  14.078  73.230  1.00  0.00    -0.309 C  
HETATM    2  C   UNL     1      -5.997  14.064  71.953  1.00  0.00     0.111 C  
ENDROOT
BRANCH   2   3
HETATM    3  C   UNL     1      -5.288  13.293  70.843  1.00  0.00    -0.171 C  
BRANCH   3   4
HETATM    4  C   UNL     1      -6.083  13.359  69.563  1.00  0.00    -0.110 C  
HETATM    5  O   UNL     1      -5.685  14.014  68.600  1.00  0.00    -0.079 OA 
HETATM    6  N   UNL     1      -7.221  12.561  69.572  1.00  0.00    -0.310 N  
HETATM    7  H   UNL     1      -7.474  12.057  70.422  1.00  0.00     0.000 HD 
BRANCH   6   8
HETATM    8  C   UNL     1      -8.037  12.437  68.416  1.00  0.00    -0.143 A  
HETATM    9  C   UNL     1      -9.055  13.372  68.202  1.00  0.00    -0.207 A  
HETATM   10  C   UNL     1      -9.948  13.206  67.144  1.00  0.00    -0.236 A  
HETATM   11  I   UNL     1      -9.346  15.027  69.462  1.00  0.00     0.235 I  
HETATM   12  C   UNL     1      -9.885  12.061  66.336  1.00  0.00    -0.220 A  
HETATM   13  C   UNL     1      -8.896  11.075  66.536  1.00  0.00    -0.173 A  
HETATM   14  I   UNL     1     -11.306  12.016  64.770  1.00  0.00    -0.296 I  
HETATM   15  C   UNL     1      -7.898  11.369  67.498  1.00  0.00    -0.126 A  
HETATM   16  I   UNL     1      -5.899  10.534  67.226  1.00  0.00    -0.056 I  
BRANCH  13  17
HETATM   17  C   UNL     1      -8.917   9.742  65.803  1.00  0.00    -0.195 C  
HETATM   18  C   UNL     1      -8.675   9.809  64.270  1.00  0.00    -0.227 C  
HETATM   19  C   UNL     1      -8.735   8.402  63.694  1.00  0.00     0.274 C  
HETATM   20  C   UNL     1      -7.385  10.516  63.814  1.00  0.00     0.095 C  
HETATM   21  C   UNL     1      -6.087   9.912  64.327  1.00  0.00    -0.122 C  
HETATM   22  O   UNL     1      -8.485   7.382  64.320  1.00  0.00     0.050 OA 
HETATM   23  O   UNL     1      -9.085   8.372  62.389  1.00  0.00     0.108 OA 
ENDBRANCH  13  17
ENDBRANCH   6   8
ENDBRANCH   3   4
ENDBRANCH   2   3
TORSDOF 4
ENDMDL
MODEL      194
REMARK 921   NORMALIZED FREE ENERGY PREDICTED BY IDOCK:    1.14 KCAL/MOL
REMARK 922        TOTAL FREE ENERGY PREDICTED BY IDOCK:    0.44 KCAL/MOL
REMARK 923 INTER-LIGAND FREE ENERGY PREDICTED BY IDOCK:   -0.18 KCAL/MOL
REMARK 924 INTRA-LIGAND FREE ENERGY PREDICTED BY IDOCK:    0.63 KCAL/MOL
REMARK 927      BINDING AFFINITY PREDICTED BY RF-SCORE:    0.00 PKD
ROOT
HETATM    1  C   UNL     1      -6.734  14.377  72.715  1.00  0.00     2.250 C  
HETATM    2  C   UNL     1      -5.991  14.310  71.394  1.00  0.00    -0.097 C  
ENDROOT
BRANCH   2   3
HETATM    3  C   UNL     1      -5.197  13.014  71.265  1.00  0.00    -0.182 C  
BRANCH   3   4
HETATM    4  C   UNL     1      -5.606  12.265  70.022  1.00  0.00    -0.125 C  
HETATM    5  O   UNL     1      -5.171  12.585  68.915  1.00  0.00    -0.055 OA 
HETATM    6  N   UNL     1      -6.425  11.171  70.274  1.00  0.00    -0.240 N  
HETATM    7  H   UNL     1      -6.738  10.988  71.227  1.00  0.00     0.000 HD 
BRANCH   6   8
HETATM    8  C   UNL     1      -6.831  10.303  69.225  1.00  0.00    -0.068 A  
HETATM    9  C   UNL     1      -6.603   8.930  69.357  1.00  0.00    -0.045 A  
HETATM   10  C   UNL     1      -6.880   8.068  68.296  1.00  0.00    -0.072 A  
HETATM   11  I   UNL     1      -5.793   8.084  71.101  1.00  0.00    -0.035 I  
HETATM   12  C   UNL     1      -7.310   8.579  67.062  1.00  0.00    -0.084 A  
HETATM   13  C   UNL     1      -7.520   9.961  66.872  1.00  0.00    -0.092 A  
HETATM   14  I   UNL     1      -7.703   7.106  65.595  1.00  0.00    -0.122 I  
HETATM   15  C   UNL     1      -7.408  10.779  68.024  1.00  0.00    -0.088 A  
HETATM   16  I   UNL     1      -8.609  12.599  68.141  1.00  0.00    -0.115 I  
BRANCH  13  17
HETATM   17  C   UNL     1      -7.803  10.560  65.503  1.00  0.00    -0.138 C  
HETATM   18  C   UNL     1      -9.040   9.989  64.758  1.00  0.00    -0.268 C  
HETATM   19  C   UNL     1      -9.175  10.686  63.411  1.00  0.00    -0.270 C  
HETATM   20  C   UNL     1     -10.378  10.038  65.518  1.00  0.00    -0.146 C  
HETATM   21  C   UNL     1     -10.851  11.424  65.929  1.00  0.00    -0.292 C  
HETATM   22  O   UNL     1      -8.763  11.809  63.164  1.00  0.00     0.102 OA 
HETATM   23  O   UNL     1      -9.821   9.941  62.485  1.00  0.00    -0.003 OA 
ENDBRANCH  13  17
ENDBRANCH   6   8
ENDBRANCH   3   4
ENDBRANCH   2   3
TORSDOF 4
ENDMDL
MODEL      195
REMARK 921   NORMALIZED FREE ENERGY PREDICTED BY IDOCK:    2.70 KCAL/MOL
REMARK 922        TOTAL FREE ENERGY PREDICTED BY IDOCK:    2.36 KCAL/MOL
REMARK 923 INTER-LIGAND FREE ENERGY PREDICTED BY IDOCK:   -0.38 KCAL/MOL
REMARK 924 INTRA-LIGAND FREE ENERGY PREDICTED BY IDOCK:    2.75 KCAL/MOL
REMARK 927      BINDING AFFINITY PREDICTED BY RF-SCORE:    0.00 PKD
ROOT
HETATM    1  C   UNL     1      -7.430  11.294  68.037  1.00  0.00    -0.095 C  
HETATM    2  C   UNL     1      -5.947  11.195  68.340  1.00  0.00    -0.045 C  
ENDROOT
BRANCH   2   3
HETATM    3  C   UNL     1      -5.379  12.534  68.798  1.00  0.00    -0.054 C  
BRANCH   3   4
HETATM    4  C   UNL     1      -6.218  13.671  68.272  1.00  0.00    -0.107 C  
HETATM    5  O   UNL     1      -6.352  13.856  67.062  1.00  0.00    -0.027 OA 
HETATM    6  N   UNL     1      -6.860  14.398  69.268  1.00  0.00    -0.123 N  
HETATM    7  H   UNL     1      -6.683  14.173  70.247  1.00  0.00     0.000 HD 
BRANCH   6   8
HETATM    8  C   UNL     1      -7.760  15.448  68.944  1.00  0.00    -0.165 A  
HETATM    9  C   UNL     1      -7.245  16.717  68.659  1.00  0.00    -0.192 A  
HETATM   10  C   UNL     1      -8.108  17.794  68.458  1.00  0.00    -0.297 A  
HETATM   11  I   UNL     1      -5.182  17.102  68.573  1.00  0.00    -0.128 I  
HETATM   12  C   UNL     1      -9.492  17.634  68.619  1.00  0.00    -0.284 A  
HETATM   13  C   UNL     1     -10.053  16.380  68.939  1.00  0.00    -0.255 A  
HETATM   14  I   UNL     1     -10.625  19.380  68.239  1.00  0.00     0.245 I  
HETATM   15  C   UNL     1      -9.164  15.276  68.952  1.00  0.00    -0.211 A  
HETATM   16  I   UNL     1      -9.937  13.300  68.435  1.00  0.00    -0.092 I  
BRANCH  13  17
HETATM   17  C   UNL     1     -11.521  16.215  69.303  1.00  0.00    -0.304 C  
HETATM   18  C   UNL     1     -11.917  14.841  69.910  1.00  0.00    -0.378 C  
HETATM   19  C   UNL     1     -13.409  14.840  70.208  1.00  0.00     0.210 C  
HETATM   20  C   UNL     1     -11.126  14.392  71.153  1.00  0.00     0.568 C  
HETATM   21  C   UNL     1     -11.206  15.319  72.355  1.00  0.00    -0.186 C  
HETATM   22  O   UNL     1     -14.074  15.838  70.442  1.00  0.00     0.195 OA 
HETATM   23  O   UNL     1     -13.954  13.602  70.206  1.00  0.00     1.340 OA 
ENDBRANCH  13  17
ENDBRANCH   6   8
ENDBRANCH   3   4
ENDBRANCH   2   3
TORSDOF 4
ENDMDL
MODEL      196
REMARK 921   NORMALIZED FREE ENERGY PREDICTED BY IDOCK:    3.41 KCAL/MOL
REMARK 922        TOTAL FREE ENERGY PREDICTED BY IDOCK:    3.24 KCAL/MOL
REMARK 923 INTER-LIGAND FREE ENERGY PREDICTED BY IDOCK:    2.79 KCAL/MOL
REMARK 924 INTRA-LIGAND FREE ENERGY PREDICTED BY IDOCK:    0.46 KCAL/MOL
REMARK 927      BINDING AFFINITY PREDICTED BY RF-SCORE:    0.00 PKD
ROOT
HETATM    1  C   UNL     1      -8.878  16.398  70.882  1.00  0.00     4.220 C  
HETATM    2  C   UNL     1     -10.110  15.513  70.936  1.00  0.00     0.730 C  
ENDROOT
BRANCH   2   3
HETATM    3  C   UNL     1     -10.650  15.223  69.539  1.00  0.00    -0.272 C  
BRANCH   3   4
HETATM    4  C   UNL     1      -9.867  14.109  68.890  1.00  0.00    -0.105 C  
HETATM    5  O   UNL     1      -8.647  14.190  68.746  1.00  0.00    -0.152 OA 
HETATM    6  N   UNL     1     -10.638  13.000  68.567  1.00  0.00    -0.255 N  
HETATM    7  H   UNL     1     -11.647  13.028  68.719  1.00  0.00     0.000 HD 
BRANCH   6   8
HETATM    8  C   UNL     1     -10.045  11.826  68.030  1.00  0.00    -0.192 A  
HETATM    9  C   UNL     1     -10.085  10.645  68.777  1.00  0.00    -0.191 A  
HETATM   10  C   UNL     1      -9.408   9.510  68.332  1.00  0.00    -0.137 A  
HETATM   11  I   UNL     1     -11.097  10.507  70.613  1.00  0.00     0.451 I  
HETATM   12  C   UNL     1      -8.615   9.566  67.176  1.00  0.00    -0.132 A  
HETATM   13  C   UNL     1      -8.517  10.746  66.409  1.00  0.00    -0.158 A  
HETATM   14  I   UNL     1      -7.696   7.733  66.655  1.00  0.00    -0.102 I  
HETATM   15  C   UNL     1      -9.364  11.817  66.790  1.00  0.00    -0.194 A  
HETATM   16  I   UNL     1     -10.061  13.203  65.253  1.00  0.00    -0.096 I  
BRANCH  13  17
HETATM   17  C   UNL     1      -7.525  10.893  65.266  1.00  0.00     0.204 C  
HETATM   18  C   UNL     1      -7.610   9.812  64.154  1.00  0.00    -0.134 C  
HETATM   19  C   UNL     1      -6.553  10.100  63.097  1.00  0.00    -0.136 C  
HETATM   20  C   UNL     1      -8.987   9.623  63.490  1.00  0.00    -0.247 C  
HETATM   21  C   UNL     1      -9.560  10.851  62.800  1.00  0.00    -0.339 C  
HETATM   22  O   UNL     1      -6.092  11.205  62.857  1.00  0.00     0.116 OA 
HETATM   23  O   UNL     1      -6.163   8.998  62.417  1.00  0.00    -0.095 OA 
ENDBRANCH  13  17
ENDBRANCH   6   8
ENDBRANCH   3   4
ENDBRANCH   2   3
TORSDOF 4
ENDMDL
MODEL      197
REMARK 921   NORMALIZED FREE ENERGY PREDICTED BY IDOCK:    5.29 KCAL/MOL
REMARK 922        TOTAL FREE ENERGY PREDICTED BY IDOCK:    5.56 KCAL/MOL
REMARK 923 INTER-LIGAND FREE ENERGY PREDICTED BY IDOCK:    3.97 KCAL/MOL
REMARK 924 INTRA-LIGAND FREE ENERGY PREDICTED BY IDOCK:    1.60 KCAL/MOL
REMARK 927      BINDING AFFINITY PREDICTED BY RF-SCORE:    0.00 PKD
ROOT
HETATM    1  C   UNL     1      -6.898  14.598  73.662  1.00  0.00     3.136 C  
HETATM    2  C   UNL     1      -6.149  14.433  72.352  1.00  0.00     0.482 C  
ENDROOT
BRANCH   2   3
HETATM    3  C   UNL     1      -5.177  13.259  72.410  1.00  0.00    -0.003 C  
BRANCH   3   4
HETATM    4  C   UNL     1      -5.489  12.261  71.323  1.00  0.00     0.005 C  
HETATM    5  O   UNL     1      -5.264  12.517  70.141  1.00  0.00    -0.084 OA 
HETATM    6  N   UNL     1      -5.958  11.044  71.802  1.00  0.00     0.772 N  
HETATM    7  H   UNL     1      -6.119  10.926  72.803  1.00  0.00     0.000 HD 
BRANCH   6   8
HETATM    8  C   UNL     1      -6.218   9.960  70.921  1.00  0.00    -0.070 A  
HETATM    9  C   UNL     1      -5.884   8.664  71.326  1.00  0.00    -0.041 A  
HETATM   10  C   UNL     1      -6.014   7.597  70.438  1.00  0.00    -0.030 A  
HETATM   11  I   UNL     1      -5.126   8.241  73.239  1.00  0.00    -0.053 I  
HETATM   12  C   UNL     1      -6.401   7.824  69.109  1.00  0.00    -0.036 A  
HETATM   13  C   UNL     1      -6.715   9.119  68.647  1.00  0.00    -0.058 A  
HETATM   14  I   UNL     1      -6.567   6.072  67.934  1.00  0.00    -0.061 I  
HETATM   15  C   UNL     1      -6.750  10.145  69.624  1.00  0.00    -0.076 A  
HETATM   16  I   UNL     1      -8.106  11.831  69.327  1.00  0.00     0.969 I  
BRANCH  13  17
HETATM   17  C   UNL     1      -6.953   9.422  67.175  1.00  0.00    -0.085 C  
HETATM   18  C   UNL     1      -8.031   8.553  66.472  1.00  0.00    -0.099 C  
HETATM   19  C   UNL     1      -8.140   8.977  65.014  1.00  0.00    -0.137 C  
HETATM   20  C   UNL     1      -9.426   8.535  67.126  1.00  0.00    -0.208 C  
HETATM   21  C   UNL     1     -10.116   9.885  67.243  1.00  0.00    -0.264 C  
HETATM   22  O   UNL     1      -7.863  10.088  64.590  1.00  0.00    -0.137 OA 
HETATM   23  O   UNL     1      -8.595   7.994  64.204  1.00  0.00     0.043 OA 
ENDBRANCH  13  17
ENDBRANCH   6   8
ENDBRANCH   3   4
ENDBRANCH   2   3
TORSDOF 4
ENDMDL
MODEL      198
REMARK 921   NORMALIZED FREE ENERGY PREDICTED BY IDOCK:    5.76 KCAL/MOL
REMARK 922        TOTAL FREE ENERGY PREDICTED BY IDOCK:    6.14 KCAL/MOL
REMARK 923 INTER-LIGAND FREE ENERGY PREDICTED BY IDOCK:    1.04 KCAL/MOL
REMARK 924 INTRA-LIGAND FREE ENERGY PREDICTED BY IDOCK:    5.10 KCAL/MOL
REMARK 927      BINDING AFFINITY PREDICTED BY RF-SCORE:    0.00 PKD
ROOT
HETATM    1  C   UNL     1      -5.844   6.312  64.890  1.00  0.00    -0.022 C  
HETATM    2  C   UNL     1      -7.087   5.523  65.260  1.00  0.00    -0.066 C  
ENDROOT
BRANCH   2   3
HETATM    3  C   UNL     1      -7.589   5.891  66.652  1.00  0.00    -0.095 C  
BRANCH   3   4
HETATM    4  C   UNL     1      -8.444   7.132  66.595  1.00  0.00    -0.121 C  
HETATM    5  O   UNL     1      -9.566   7.108  66.090  1.00  0.00    -0.088 OA 
HETATM    6  N   UNL     1      -7.875   8.231  67.227  1.00  0.00    -0.104 N  
HETATM    7  H   UNL     1      -6.934   8.156  67.614  1.00  0.00     0.000 HD 
BRANCH   6   8
HETATM    8  C   UNL     1      -8.583   9.457  67.344  1.00  0.00    -0.125 A  
HETATM    9  C   UNL     1      -8.264  10.507  66.478  1.00  0.00    -0.133 A  
HETATM   10  C   UNL     1      -8.855  11.759  66.647  1.00  0.00    -0.189 A  
HETATM   11  I   UNL     1      -6.860  10.304  64.929  1.00  0.00     0.072 I  
HETATM   12  C   UNL     1      -9.710  11.998  67.733  1.00  0.00    -0.192 A  
HETATM   13  C   UNL     1     -10.034  10.978  68.651  1.00  0.00    -0.205 A  
HETATM   14  I   UNL     1     -10.525  13.950  67.792  1.00  0.00    -0.262 I  
HETATM   15  C   UNL     1      -9.563   9.678  68.340  1.00  0.00    -0.144 A  
HETATM   16  I   UNL     1     -10.727   7.952  69.003  1.00  0.00     0.127 I  
BRANCH  13  17
HETATM   17  C   UNL     1     -10.802  11.252  69.935  1.00  0.00     0.004 C  
HETATM   18  C   UNL     1     -11.346  10.001  70.678  1.00  0.00    -0.425 C  
HETATM   19  C   UNL     1     -12.090  10.448  71.928  1.00  0.00     0.173 C  
HETATM   20  C   UNL     1     -10.313   8.915  71.033  1.00  0.00    -0.321 C  
HETATM   21  C   UNL     1      -9.172   9.362  71.933  1.00  0.00     0.731 C  
HETATM   22  O   UNL     1     -11.871  11.485  72.535  1.00  0.00     2.814 OA 
HETATM   23  O   UNL     1     -13.034   9.568  72.332  1.00  0.00    -0.386 OA 
ENDBRANCH  13  17
ENDBRANCH   6   8
ENDBRANCH   3   4
ENDBRANCH   2   3
TORSDOF 4
ENDMDL
MODEL      199
REMARK 921   NORMALIZED FREE ENERGY PREDICTED BY IDOCK:    6.27 KCAL/MOL
REMARK 922        TOTAL FREE ENERGY PREDICTED BY IDOCK:    6.77 KCAL/MOL
REMARK 923 INTER-LIGAND FREE ENERGY PREDICTED BY IDOCK:    2.15 KCAL/MOL
REMARK 924 INTRA-LIGAND FREE ENERGY PREDICTED BY IDOCK:    4.62 KCAL/MOL
REMARK 927      BINDING AFFINITY PREDICTED BY RF-SCORE:    0.00 PKD
ROOT
HETATM    1  C   UNL     1     -11.971  17.281  66.716  1.00  0.00     2.722 C  
HETATM    2  C   UNL     1     -10.873  16.347  67.189  1.00  0.00    -0.169 C  
ENDROOT
BRANCH   2   3
HETATM    3  C   UNL     1     -10.851  15.055  66.377  1.00  0.00    -0.326 C  
BRANCH   3   4
HETATM    4  C   UNL     1      -9.972  14.027  67.043  1.00  0.00    -0.257 C  
HETATM    5  O   UNL     1      -9.989  13.870  68.264  1.00  0.00    -0.226 OA 
HETATM    6  N   UNL     1      -9.238  13.257  66.148  1.00  0.00    -0.472 N  
HETATM    7  H   UNL     1      -9.284  13.466  65.151  1.00  0.00     0.000 HD 
BRANCH   6   8
HETATM    8  C   UNL     1      -8.425  12.184  66.601  1.00  0.00    -0.088 A  
HETATM    9  C   UNL     1      -7.130  12.459  67.051  1.00  0.00    -0.006 A  
HETATM   10  C   UNL     1      -6.268  11.415  67.385  1.00  0.00    -0.078 A  
HETATM   11  I   UNL     1      -6.381  14.416  67.199  1.00  0.00     1.739 I  
HETATM   12  C   UNL     1      -6.662  10.082  67.197  1.00  0.00    -0.074 A  
HETATM   13  C   UNL     1      -7.947   9.758  66.713  1.00  0.00    -0.105 A  
HETATM   14  I   UNL     1      -5.222   8.651  67.794  1.00  0.00    -0.035 I  
HETATM   15  C   UNL     1      -8.854  10.836  66.562  1.00  0.00    -0.155 A  
HETATM   16  I   UNL     1     -10.990  10.455  66.813  1.00  0.00     0.321 I  
BRANCH  13  17
HETATM   17  C   UNL     1      -8.335   8.340  66.323  1.00  0.00    -0.124 C  
HETATM   18  C   UNL     1      -7.547   7.727  65.132  1.00  0.00    -0.094 C  
HETATM   19  C   UNL     1      -8.060   6.318  64.868  1.00  0.00    -0.130 C  
HETATM   20  C   UNL     1      -6.013   7.719  65.261  1.00  0.00    -0.038 C  
HETATM   21  C   UNL     1      -5.456   6.955  66.453  1.00  0.00    -0.022 C  
HETATM   22  O   UNL     1      -8.580   5.598  65.706  1.00  0.00    -0.137 OA 
HETATM   23  O   UNL     1      -7.874   5.912  63.592  1.00  0.00    -0.093 OA 
ENDBRANCH  13  17
ENDBRANCH   6   8
ENDBRANCH   3   4
ENDBRANCH   2   3
TORSDOF 4
ENDMDL
MODEL      200
REMARK 921   NORMALIZED FREE ENERGY PREDICTED BY IDOCK:    7.61 KCAL/MOL
REMARK 922        TOTAL FREE ENERGY PREDICTED BY IDOCK:    8.42 KCAL/MOL
REMARK 923 INTER-LIGAND FREE ENERGY PREDICTED BY IDOCK:    3.38 KCAL/MOL
REMARK 924 INTRA-LIGAND FREE ENERGY PREDICTED BY IDOCK:    5.04 KCAL/MOL
REMARK 927      BINDING AFFINITY PREDICTED BY RF-SCORE:    0.00 PKD
ROOT
HETATM    1  C   UNL     1     -13.511  12.051  63.879  1.00  0.00     0.548 C  
HETATM    2  C   UNL     1     -12.396  12.408  62.912  1.00  0.00     0.199 C  
ENDROOT
BRANCH   2   3
HETATM    3  C   UNL     1     -11.027  12.044  63.480  1.00  0.00    -0.514 C  
BRANCH   3   4
HETATM    4  C   UNL     1     -10.819  12.701  64.821  1.00  0.00    -0.302 C  
HETATM    5  O   UNL     1     -10.833  12.042  65.861  1.00  0.00    -0.268 OA 
HETATM    6  N   UNL     1     -10.540  14.059  64.739  1.00  0.00    -0.419 N  
HETATM    7  H   UNL     1     -10.557  14.521  63.829  1.00  0.00     0.000 HD 
BRANCH   6   8
HETATM    8  C   UNL     1     -10.230  14.815  65.901  1.00  0.00    -0.313 A  
HETATM    9  C   UNL     1     -10.464  16.194  65.893  1.00  0.00    -0.352 A  
HETATM   10  C   UNL     1     -10.059  16.980  66.972  1.00  0.00    -0.295 A  
HETATM   11  I   UNL     1     -11.371  17.174  64.272  1.00  0.00     4.613 I  
HETATM   12  C   UNL     1      -9.341  16.410  68.034  1.00  0.00    -0.216 A  
HETATM   13  C   UNL     1      -9.053  15.029  68.068  1.00  0.00    -0.178 A  
HETATM   14  I   UNL     1      -8.847  17.764  69.582  1.00  0.00     1.856 I  
HETATM   15  C   UNL     1      -9.641  14.238  67.050  1.00  0.00    -0.257 A  
HETATM   16  I   UNL     1     -10.133  12.156  67.491  1.00  0.00    -0.226 I  
BRANCH  13  17
HETATM   17  C   UNL     1      -8.122  14.418  69.104  1.00  0.00     0.018 C  
HETATM   18  C   UNL     1      -6.953  13.563  68.541  1.00  0.00    -0.102 C  
HETATM   19  C   UNL     1      -6.128  13.023  69.701  1.00  0.00    -0.122 C  
HETATM   20  C   UNL     1      -6.038  14.252  67.512  1.00  0.00     0.048 C  
HETATM   21  C   UNL     1      -5.326  15.504  67.999  1.00  0.00    -0.135 C  
HETATM   22  O   UNL     1      -6.040  13.552  70.798  1.00  0.00    -0.144 OA 
HETATM   23  O   UNL     1      -5.469  11.881  69.403  1.00  0.00    -0.059 OA 
ENDBRANCH  13  17
ENDBRANCH   6   8
ENDBRANCH   3   4
ENDBRANCH   2   3
TORSDOF 4
ENDMDL
MODEL      201
REMARK 921   NORMALIZED FREE ENERGY PREDICTED BY IDOCK:    9.59 KCAL/MOL
REMARK 922        TOTAL FREE ENERGY PREDICTED BY IDOCK:   10.86 KCAL/MOL
REMARK 923 INTER-LIGAND FREE ENERGY PREDICTED BY IDOCK:    5.30 KCAL/MOL
REMARK 924 INTRA-LIGAND FREE ENERGY PREDICTED BY IDOCK:    5.56 KCAL/MOL
REMARK 927      BINDING AFFINITY PREDICTED BY RF-SCORE:    0.00 PKD
ROOT
HETATM    1  C   UNL     1     -12.591   5.026  64.613  1.00  0.00     5.363 C  
HETATM    2  C   UNL     1     -11.558   4.928  65.721  1.00  0.00     1.298 C  
ENDROOT
BRANCH   2   3
HETATM    3  C   UNL     1     -10.185   4.553  65.172  1.00  0.00    -0.142 C  
BRANCH   3   4
HETATM    4  C   UNL     1      -9.112   5.401  65.807  1.00  0.00    -0.154 C  
HETATM    5  O   UNL     1      -8.591   6.332  65.193  1.00  0.00    -0.121 OA 
HETATM    6  N   UNL     1      -8.856   5.076  67.133  1.00  0.00    -0.107 N  
HETATM    7  H   UNL     1      -9.336   4.281  67.557  1.00  0.00     0.000 HD 
BRANCH   6   8
HETATM    8  C   UNL     1      -7.938   5.832  67.909  1.00  0.00    -0.098 A  
HETATM    9  C   UNL     1      -7.530   5.334  69.151  1.00  0.00    -0.069 A  
HETATM   10  C   UNL     1      -6.726   6.108  69.987  1.00  0.00    -0.056 A  
HETATM   11  I   UNL     1      -8.128   3.449  69.860  1.00  0.00    -0.081 I  
HETATM   12  C   UNL     1      -6.388   7.421  69.628  1.00  0.00    -0.031 A  
HETATM   13  C   UNL     1      -6.806   7.978  68.401  1.00  0.00    -0.068 A  
HETATM   14  I   UNL     1      -5.139   8.414  71.017  1.00  0.00    -0.025 I  
HETATM   15  C   UNL     1      -7.460   7.100  67.501  1.00  0.00    -0.101 A  
HETATM   16  I   UNL     1      -7.260   7.453  65.356  1.00  0.00    -0.080 I  
BRANCH  13  17
HETATM   17  C   UNL     1      -6.616   9.450  68.069  1.00  0.00    -0.063 C  
HETATM   18  C   UNL     1      -7.836  10.158  67.418  1.00  0.00    -0.102 C  
HETATM   19  C   UNL     1      -7.480  11.613  67.145  1.00  0.00    -0.146 C  
HETATM   20  C   UNL     1      -9.167  10.072  68.188  1.00  0.00    -0.130 C  
HETATM   21  C   UNL     1      -9.154  10.660  69.591  1.00  0.00     0.132 C  
HETATM   22  O   UNL     1      -6.647  12.254  67.767  1.00  0.00    -0.083 OA 
HETATM   23  O   UNL     1      -8.193  12.158  66.134  1.00  0.00     0.161 OA 
ENDBRANCH  13  17
ENDBRANCH   6   8
ENDBRANCH   3   4
ENDBRANCH   2   3
TORSDOF 4
ENDMDL
MODEL      202
REMARK 921   NORMALIZED FREE ENERGY PREDICTED BY IDOCK:   10.64 KCAL/MOL
REMARK 922        TOTAL FREE ENERGY PREDICTED BY IDOCK:   12.16 KCAL/MOL
REMARK 923 INTER-LIGAND FREE ENERGY PREDICTED BY IDOCK:    9.45 KCAL/MOL
REMARK 924 INTRA-LIGAND FREE ENERGY PREDICTED BY IDOCK:    2.71 KCAL/MOL
REMARK 927      BINDING AFFINITY PREDICTED BY RF-SCORE:    0.00 PKD
ROOT
HETATM    1  C   UNL     1     -12.932   5.305  64.526  1.00  0.00     7.332 C  
HETATM    2  C   UNL     1     -11.906   5.554  65.616  1.00  0.00     2.412 C  
ENDROOT
BRANCH   2   3
HETATM    3  C   UNL     1     -10.486   5.326  65.108  1.00  0.00     0.655 C  
BRANCH   3   4
HETATM    4  C   UNL     1      -9.544   6.347  65.696  1.00  0.00     0.419 C  
HETATM    5  O   UNL     1      -9.099   7.269  65.013  1.00  0.00     0.356 OA 
HETATM    6  N   UNL     1      -9.318   6.178  67.057  1.00  0.00    -0.121 N  
HETATM    7  H   UNL     1      -9.728   5.378  67.538  1.00  0.00     0.000 HD 
BRANCH   6   8
HETATM    8  C   UNL     1      -8.527   7.104  67.788  1.00  0.00    -0.120 A  
HETATM    9  C   UNL     1      -7.333   7.566  67.225  1.00  0.00    -0.098 A  
HETATM   10  C   UNL     1      -6.477   8.378  67.967  1.00  0.00    -0.057 A  
HETATM   11  I   UNL     1      -6.725   7.040  65.285  1.00  0.00    -0.054 I  
HETATM   12  C   UNL     1      -6.762   8.671  69.309  1.00  0.00    -0.050 A  
HETATM   13  C   UNL     1      -7.938   8.198  69.929  1.00  0.00    -0.109 A  
HETATM   14  I   UNL     1      -5.355   9.942  70.247  1.00  0.00    -0.058 I  
HETATM   15  C   UNL     1      -8.869   7.535  69.091  1.00  0.00    -0.136 A  
HETATM   16  I   UNL     1     -10.994   7.653  69.583  1.00  0.00     0.080 I  
BRANCH  13  17
HETATM   17  C   UNL     1      -8.183   8.339  71.424  1.00  0.00    -0.158 C  
HETATM   18  C   UNL     1      -8.452   7.016  72.192  1.00  0.00    -0.116 C  
HETATM   19  C   UNL     1      -8.682   7.333  73.663  1.00  0.00    -0.169 C  
HETATM   20  C   UNL     1      -7.386   5.913  72.046  1.00  0.00    -0.094 C  
HETATM   21  C   UNL     1      -5.986   6.285  72.509  1.00  0.00    -0.038 C  
HETATM   22  O   UNL     1      -8.233   8.309  74.244  1.00  0.00    -0.254 OA 
HETATM   23  O   UNL     1      -9.437   6.408  74.298  1.00  0.00    -0.171 OA 
ENDBRANCH  13  17
ENDBRANCH   6   8
ENDBRANCH   3   4
ENDBRANCH   2   3
TORSDOF 4
ENDMDL
MODEL      203
REMARK 921   NORMALIZED FREE ENERGY PREDICTED BY IDOCK:   10.76 KCAL/MOL
REMARK 922        TOTAL FREE ENERGY PREDICTED BY IDOCK:   12.31 KCAL/MOL
REMARK 923 INTER-LIGAND FREE ENERGY PREDICTED BY IDOCK:    9.91 KCAL/MOL
REMARK 924 INTRA-LIGAND FREE ENERGY PREDICTED BY IDOCK:    2.41 KCAL/MOL
REMARK 927      BINDING AFFINITY PREDICTED BY RF-SCORE:    0.00 PKD
ROOT
HETATM    1  C   UNL     1      -7.118  18.593  62.953  1.00  0.00     9.263 C  
HETATM    2  C   UNL     1      -6.830  19.766  63.872  1.00  0.00     1.234 C  
ENDROOT
BRANCH   2   3
HETATM    3  C   UNL     1      -7.901  19.906  64.950  1.00  0.00     1.106 C  
BRANCH   3   4
HETATM    4  C   UNL     1      -7.733  18.839  66.003  1.00  0.00    -0.199 C  
HETATM    5  O   UNL     1      -7.445  19.132  67.164  1.00  0.00    -0.219 OA 
HETATM    6  N   UNL     1      -8.012  17.557  65.547  1.00  0.00     0.499 N  
HETATM    7  H   UNL     1      -8.238  17.412  64.563  1.00  0.00     0.000 HD 
BRANCH   6   8
HETATM    8  C   UNL     1      -7.990  16.444  66.430  1.00  0.00    -0.294 A  
HETATM    9  C   UNL     1      -6.824  16.179  67.155  1.00  0.00    -0.205 A  
HETATM   10  C   UNL     1      -6.730  15.027  67.935  1.00  0.00    -0.172 A  
HETATM   11  I   UNL     1      -5.141  17.435  67.081  1.00  0.00    -0.201 I  
HETATM   12  C   UNL     1      -7.769  14.085  67.936  1.00  0.00    -0.159 A  
HETATM   13  C   UNL     1      -8.951  14.294  67.194  1.00  0.00    -0.237 A  
HETATM   14  I   UNL     1      -7.445  12.425  69.207  1.00  0.00     0.727 I  
HETATM   15  C   UNL     1      -9.084  15.558  66.565  1.00  0.00    -0.302 A  
HETATM   16  I   UNL     1     -11.086  16.384  66.283  1.00  0.00     0.619 I  
BRANCH  13  17
HETATM   17  C   UNL     1     -10.008  13.214  67.026  1.00  0.00    -0.244 C  
HETATM   18  C   UNL     1     -10.607  12.645  68.341  1.00  0.00    -0.258 C  
HETATM   19  C   UNL     1     -11.637  11.577  67.998  1.00  0.00    -0.300 C  
HETATM   20  C   UNL     1     -11.212  13.672  69.316  1.00  0.00    -0.284 C  
HETATM   21  C   UNL     1     -12.357  14.507  68.766  1.00  0.00    -0.064 C  
HETATM   22  O   UNL     1     -12.270  11.530  66.954  1.00  0.00    -0.135 OA 
HETATM   23  O   UNL     1     -11.808  10.664  68.980  1.00  0.00    -0.270 OA 
ENDBRANCH  13  17
ENDBRANCH   6   8
ENDBRANCH   3   4
ENDBRANCH   2   3
TORSDOF 4
ENDMDL
MODEL      204
REMARK 921   NORMALIZED FREE ENERGY PREDICTED BY IDOCK:   12.54 KCAL/MOL
REMARK 922        TOTAL FREE ENERGY PREDICTED BY IDOCK:   14.50 KCAL/MOL
REMARK 923 INTER-LIGAND FREE ENERGY PREDICTED BY IDOCK:   -0.75 KCAL/MOL
REMARK 924 INTRA-LIGAND FREE ENERGY PREDICTED BY IDOCK:   15.25 KCAL/MOL
REMARK 927      BINDING AFFINITY PREDICTED BY RF-SCORE:    0.00 PKD
ROOT
HETATM    1  C   UNL     1      -8.128   4.962  65.647  1.00  0.00    -0.112 C  
HETATM    2  C   UNL     1      -9.587   5.122  65.259  1.00  0.00     0.038 C  
ENDROOT
BRANCH   2   3
HETATM    3  C   UNL     1      -9.835   6.454  64.558  1.00  0.00     2.739 C  
BRANCH   3   4
HETATM    4  C   UNL     1      -9.011   7.546  65.192  1.00  0.00     0.363 C  
HETATM    5  O   UNL     1      -7.840   7.351  65.518  1.00  0.00    -0.100 OA 
HETATM    6  N   UNL     1      -9.673   8.765  65.280  1.00  0.00    -0.322 N  
HETATM    7  H   UNL     1     -10.648   8.828  64.987  1.00  0.00     0.000 HD 
BRANCH   6   8
HETATM    8  C   UNL     1      -9.013   9.923  65.770  1.00  0.00    -0.156 A  
HETATM    9  C   UNL     1      -7.897   9.767  66.598  1.00  0.00    -0.109 A  
HETATM   10  C   UNL     1      -7.303  10.881  67.191  1.00  0.00    -0.105 A  
HETATM   11  I   UNL     1      -7.082   7.884  67.047  1.00  0.00    -0.081 I  
HETATM   12  C   UNL     1      -7.867  12.155  67.030  1.00  0.00    -0.123 A  
HETATM   13  C   UNL     1      -9.012  12.355  66.231  1.00  0.00    -0.041 A  
HETATM   14  I   UNL     1      -6.798  13.712  67.984  1.00  0.00    -0.199 I  
HETATM   15  C   UNL     1      -9.473  11.233  65.499  1.00  0.00    -0.229 A  
HETATM   16  I   UNL     1     -10.482  11.567  63.591  1.00  0.00    -0.513 I  
BRANCH  13  17
HETATM   17  C   UNL     1      -9.752  13.684  66.189  1.00  0.00    -0.269 C  
HETATM   18  C   UNL     1      -9.926  14.404  67.554  1.00  0.00    -0.224 C  
HETATM   19  C   UNL     1     -10.687  15.705  67.337  1.00  0.00    -0.309 C  
HETATM   20  C   UNL     1      -8.637  14.670  68.354  1.00  0.00    -0.169 C  
HETATM   21  C   UNL     1      -7.595  15.531  67.657  1.00  0.00    -0.182 C  
HETATM   22  O   UNL     1     -10.700  16.338  66.293  1.00  0.00    -0.279 OA 
HETATM   23  O   UNL     1     -11.359  16.120  68.435  1.00  0.00    -0.366 OA 
ENDBRANCH  13  17
ENDBRANCH   6   8
ENDBRANCH   3   4
ENDBRANCH   2   3
TORSDOF 4
ENDMDL
MODEL      205
REMARK 921   NORMALIZED FREE ENERGY PREDICTED BY IDOCK:   13.36 KCAL/MOL
REMARK 922        TOTAL FREE ENERGY PREDICTED BY IDOCK:   15.52 KCAL/MOL
REMARK 923 INTER-LIGAND FREE ENERGY PREDICTED BY IDOCK:   13.74 KCAL/MOL
REMARK 924 INTRA-LIGAND FREE ENERGY PREDICTED BY IDOCK:    1.77 KCAL/MOL
REMARK 927      BINDING AFFINITY PREDICTED BY RF-SCORE:    0.00 PKD
ROOT
HETATM    1  C   UNL     1      -6.678  16.012  74.437  1.00  0.00     6.987 C  
HETATM    2  C   UNL     1      -6.264  15.522  73.061  1.00  0.00     2.313 C  
ENDROOT
BRANCH   2   3
HETATM    3  C   UNL     1      -5.533  14.186  73.141  1.00  0.00    -0.209 C  
BRANCH   3   4
HETATM    4  C   UNL     1      -6.153  13.186  72.198  1.00  0.00     1.640 C  
HETATM    5  O   UNL     1      -6.753  12.199  72.623  1.00  0.00     4.902 OA 
HETATM    6  N   UNL     1      -6.047  13.542  70.859  1.00  0.00    -0.397 N  
HETATM    7  H   UNL     1      -5.524  14.380  70.602  1.00  0.00     0.000 HD 
BRANCH   6   8
HETATM    8  C   UNL     1      -6.654  12.758  69.842  1.00  0.00     0.138 A  
HETATM    9  C   UNL     1      -7.230  13.403  68.744  1.00  0.00    -0.092 A  
HETATM   10  C   UNL     1      -7.939  12.669  67.793  1.00  0.00    -0.158 A  
HETATM   11  I   UNL     1      -7.127  15.484  68.478  1.00  0.00    -0.146 I  
HETATM   12  C   UNL     1      -8.149  11.294  67.970  1.00  0.00    -0.128 A  
HETATM   13  C   UNL     1      -7.614  10.607  69.081  1.00  0.00    -0.131 A  
HETATM   14  I   UNL     1      -9.219  10.362  66.402  1.00  0.00    -0.227 I  
HETATM   15  C   UNL     1      -6.748  11.348  69.923  1.00  0.00    -0.030 A  
HETATM   16  I   UNL     1      -5.152  10.294  70.976  1.00  0.00    -0.082 I  
BRANCH  13  17
HETATM   17  C   UNL     1      -7.980   9.165  69.398  1.00  0.00    -0.097 C  
HETATM   18  C   UNL     1      -7.696   8.133  68.273  1.00  0.00    -0.114 C  
HETATM   19  C   UNL     1      -8.122   6.750  68.746  1.00  0.00    -0.120 C  
HETATM   20  C   UNL     1      -6.254   8.089  67.735  1.00  0.00    -0.051 C  
HETATM   21  C   UNL     1      -5.178   7.763  68.760  1.00  0.00    -0.026 C  
HETATM   22  O   UNL     1      -8.171   6.399  69.915  1.00  0.00    -0.121 OA 
HETATM   23  O   UNL     1      -8.440   5.912  67.734  1.00  0.00    -0.108 OA 
ENDBRANCH  13  17
ENDBRANCH   6   8
ENDBRANCH   3   4
ENDBRANCH   2   3
TORSDOF 4
ENDMDL
MODEL      206
REMARK 921   NORMALIZED FREE ENERGY PREDICTED BY IDOCK:   15.19 KCAL/MOL
REMARK 922        TOTAL FREE ENERGY PREDICTED BY IDOCK:   17.77 KCAL/MOL
REMARK 923 INTER-LIGAND FREE ENERGY PREDICTED BY IDOCK:    8.85 KCAL/MOL
REMARK 924 INTRA-LIGAND FREE ENERGY PREDICTED BY IDOCK:    8.93 KCAL/MOL
REMARK 927      BINDING AFFINITY PREDICTED BY RF-SCORE:    0.00 PKD
ROOT
HETATM    1  C   UNL     1      -9.196  14.604  71.655  1.00  0.00     4.844 C  
HETATM    2  C   UNL     1      -9.810  15.735  70.849  1.00  0.00     1.363 C  
ENDROOT
BRANCH   2   3
HETATM    3  C   UNL     1      -8.866  16.216  69.752  1.00  0.00     0.370 C  
BRANCH   3   4
HETATM    4  C   UNL     1      -9.360  15.773  68.398  1.00  0.00    -0.196 C  
HETATM    5  O   UNL     1      -9.198  16.476  67.401  1.00  0.00    -0.213 OA 
HETATM    6  N   UNL     1      -9.915  14.499  68.397  1.00  0.00    -0.234 N  
HETATM    7  H   UNL     1     -10.012  13.992  69.277  1.00  0.00     0.000 HD 
BRANCH   6   8
HETATM    8  C   UNL     1     -10.350  13.891  67.189  1.00  0.00    -0.265 A  
HETATM    9  C   UNL     1     -11.536  14.336  66.596  1.00  0.00    -0.364 A  
HETATM   10  C   UNL     1     -12.051  13.678  65.480  1.00  0.00    -0.440 A  
HETATM   11  I   UNL     1     -12.638  15.954  67.358  1.00  0.00     3.687 I  
HETATM   12  C   UNL     1     -11.431  12.518  64.991  1.00  0.00    -0.326 A  
HETATM   13  C   UNL     1     -10.252  12.013  65.578  1.00  0.00    -0.290 A  
HETATM   14  I   UNL     1     -12.350  11.691  63.275  1.00  0.00     0.930 I  
HETATM   15  C   UNL     1      -9.660  12.811  66.589  1.00  0.00    -0.255 A  
HETATM   16  I   UNL     1      -7.493  12.737  66.851  1.00  0.00     0.807 I  
BRANCH  13  17
HETATM   17  C   UNL     1      -9.665  10.664  65.194  1.00  0.00    -0.327 C  
HETATM   18  C   UNL     1      -8.147  10.656  64.865  1.00  0.00    -0.022 C  
HETATM   19  C   UNL     1      -7.725   9.241  64.496  1.00  0.00    -0.114 C  
HETATM   20  C   UNL     1      -7.211  11.225  65.947  1.00  0.00     0.217 C  
HETATM   21  C   UNL     1      -7.260  10.522  67.295  1.00  0.00    -0.090 C  
HETATM   22  O   UNL     1      -8.283   8.225  64.880  1.00  0.00    -0.146 OA 
HETATM   23  O   UNL     1      -6.639   9.199  63.692  1.00  0.00    -0.089 OA 
ENDBRANCH  13  17
ENDBRANCH   6   8
ENDBRANCH   3   4
ENDBRANCH   2   3
TORSDOF 4
ENDMDL
MODEL      207
REMARK 921   NORMALIZED FREE ENERGY PREDICTED BY IDOCK:   15.93 KCAL/MOL
REMARK 922        TOTAL FREE ENERGY PREDICTED BY IDOCK:   18.69 KCAL/MOL
REMARK 923 INTER-LIGAND FREE ENERGY PREDICTED BY IDOCK:   15.91 KCAL/MOL
REMARK 924 INTRA-LIGAND FREE ENERGY PREDICTED BY IDOCK:    2.78 KCAL/MOL
REMARK 927      BINDING AFFINITY PREDICTED BY RF-SCORE:    0.00 PKD
ROOT
HETATM    1  C   UNL     1      -6.805   8.679  70.262  1.00  0.00    -0.040 C  
HETATM    2  C   UNL     1      -8.187   9.282  70.085  1.00  0.00    -0.176 C  
ENDROOT
BRANCH   2   3
HETATM    3  C   UNL     1      -8.111  10.779  69.804  1.00  0.00     0.240 C  
BRANCH   3   4
HETATM    4  C   UNL     1      -9.158  11.181  68.797  1.00  0.00    -0.139 C  
HETATM    5  O   UNL     1     -10.230  11.669  69.155  1.00  0.00    -0.111 OA 
HETATM    6  N   UNL     1      -8.754  11.021  67.477  1.00  0.00    -0.127 N  
HETATM    7  H   UNL     1      -7.845  10.601  67.279  1.00  0.00     0.000 HD 
BRANCH   6   8
HETATM    8  C   UNL     1      -9.584  11.433  66.401  1.00  0.00    -0.205 A  
HETATM    9  C   UNL     1      -9.946  10.496  65.428  1.00  0.00    -0.289 A  
HETATM   10  C   UNL     1     -10.657  10.898  64.298  1.00  0.00    -0.336 A  
HETATM   11  I   UNL     1      -9.410   8.470  65.561  1.00  0.00     0.430 I  
HETATM   12  C   UNL     1     -10.944  12.255  64.086  1.00  0.00    -0.363 A  
HETATM   13  C   UNL     1     -10.568  13.240  65.024  1.00  0.00    -0.360 A  
HETATM   14  I   UNL     1     -12.056  12.651  62.331  1.00  0.00     5.291 I  
HETATM   15  C   UNL     1     -10.015  12.771  66.242  1.00  0.00    -0.264 A  
HETATM   16  I   UNL     1     -10.319  13.950  68.056  1.00  0.00    -0.266 I  
BRANCH  13  17
HETATM   17  C   UNL     1     -10.697  14.728  64.737  1.00  0.00    -0.380 C  
HETATM   18  C   UNL     1     -12.053  15.185  64.132  1.00  0.00    -0.195 C  
HETATM   19  C   UNL     1     -12.013  16.689  63.900  1.00  0.00     1.935 C  
HETATM   20  C   UNL     1     -13.317  14.802  64.923  1.00  0.00     1.131 C  
HETATM   21  C   UNL     1     -13.393  15.339  66.344  1.00  0.00     3.259 C  
HETATM   22  O   UNL     1     -11.317  17.472  64.527  1.00  0.00    -0.850 OA 
HETATM   23  O   UNL     1     -12.849  17.101  62.920  1.00  0.00     7.727 OA 
ENDBRANCH  13  17
ENDBRANCH   6   8
ENDBRANCH   3   4
ENDBRANCH   2   3
TORSDOF 4
ENDMDL
MODEL      208
REMARK 921   NORMALIZED FREE ENERGY PREDICTED BY IDOCK:   17.71 KCAL/MOL
REMARK 922        TOTAL FREE ENERGY PREDICTED BY IDOCK:   20.88 KCAL/MOL
REMARK 923 INTER-LIGAND FREE ENERGY PREDICTED BY IDOCK:   21.09 KCAL/MOL
REMARK 924 INTRA-LIGAND FREE ENERGY PREDICTED BY IDOCK:   -0.21 KCAL/MOL
REMARK 927      BINDING AFFINITY PREDICTED BY RF-SCORE:    0.00 PKD
ROOT
HETATM    1  C   UNL     1      -7.312  18.418  62.794  1.00  0.00    13.328 C  
HETATM    2  C   UNL     1      -6.817  19.699  63.441  1.00  0.00     2.293 C  
ENDROOT
BRANCH   2   3
HETATM    3  C   UNL     1      -7.637  20.053  64.678  1.00  0.00     1.126 C  
BRANCH   3   4
HETATM    4  C   UNL     1      -7.247  19.174  65.839  1.00  0.00    -0.266 C  
HETATM    5  O   UNL     1      -6.407  19.540  66.660  1.00  0.00    -0.184 OA 
HETATM    6  N   UNL     1      -7.977  17.994  65.915  1.00  0.00    -0.104 N  
HETATM    7  H   UNL     1      -8.652  17.773  65.181  1.00  0.00     0.000 HD 
BRANCH   6   8
HETATM    8  C   UNL     1      -7.800  17.091  66.997  1.00  0.00    -0.191 A  
HETATM    9  C   UNL     1      -6.682  16.252  67.002  1.00  0.00    -0.182 A  
HETATM   10  C   UNL     1      -6.545  15.273  67.985  1.00  0.00    -0.153 A  
HETATM   11  I   UNL     1      -5.186  16.360  65.531  1.00  0.00     5.336 I  
HETATM   12  C   UNL     1      -7.563  15.066  68.927  1.00  0.00    -0.144 A  
HETATM   13  C   UNL     1      -8.725  15.866  68.939  1.00  0.00    -0.225 A  
HETATM   14  I   UNL     1      -7.148  13.556  70.349  1.00  0.00     2.307 I  
HETATM   15  C   UNL     1      -8.742  16.965  68.045  1.00  0.00    -0.215 A  
HETATM   16  I   UNL     1      -9.871  18.751  68.598  1.00  0.00    -0.340 I  
BRANCH  13  17
HETATM   17  C   UNL     1      -9.923  15.547  69.821  1.00  0.00    -0.281 C  
HETATM   18  C   UNL     1     -11.289  15.432  69.089  1.00  0.00    -0.323 C  
HETATM   19  C   UNL     1     -12.375  15.119  70.109  1.00  0.00    -0.341 C  
HETATM   20  C   UNL     1     -11.354  14.432  67.920  1.00  0.00    -0.322 C  
HETATM   21  C   UNL     1     -11.045  12.985  68.272  1.00  0.00    -0.293 C  
HETATM   22  O   UNL     1     -12.188  14.547  71.172  1.00  0.00    -0.309 OA 
HETATM   23  O   UNL     1     -13.604  15.528  69.724  1.00  0.00     0.569 OA 
ENDBRANCH  13  17
ENDBRANCH   6   8
ENDBRANCH   3   4
ENDBRANCH   2   3
TORSDOF 4
ENDMDL
MODEL      209
REMARK 921   NORMALIZED FREE ENERGY PREDICTED BY IDOCK:   28.97 KCAL/MOL
REMARK 922        TOTAL FREE ENERGY PREDICTED BY IDOCK:   34.77 KCAL/MOL
REMARK 923 INTER-LIGAND FREE ENERGY PREDICTED BY IDOCK:   32.95 KCAL/MOL
REMARK 924 INTRA-LIGAND FREE ENERGY PREDICTED BY IDOCK:    1.83 KCAL/MOL
REMARK 927      BINDING AFFINITY PREDICTED BY RF-SCORE:    0.00 PKD
ROOT
HETATM    1  C   UNL     1      -8.682  18.713  73.644  1.00  0.00     8.783 C  
HETATM    2  C   UNL     1      -7.935  17.584  72.958  1.00  0.00    15.471 C  
ENDROOT
BRANCH   2   3
HETATM    3  C   UNL     1      -6.995  18.112  71.878  1.00  0.00     5.550 C  
BRANCH   3   4
HETATM    4  C   UNL     1      -7.093  17.266  70.633  1.00  0.00     2.735 C  
HETATM    5  O   UNL     1      -6.095  17.009  69.960  1.00  0.00    -0.230 OA 
HETATM    6  N   UNL     1      -8.368  16.767  70.397  1.00  0.00     2.593 N  
HETATM    7  H   UNL     1      -9.136  17.042  71.009  1.00  0.00     0.000 HD 
BRANCH   6   8
HETATM    8  C   UNL     1      -8.618  15.880  69.316  1.00  0.00    -0.247 A  
HETATM    9  C   UNL     1      -9.472  16.291  68.287  1.00  0.00    -0.214 A  
HETATM   10  C   UNL     1      -9.832  15.399  67.278  1.00  0.00    -0.217 A  
HETATM   11  I   UNL     1     -10.304  18.218  68.216  1.00  0.00    -0.193 I  
HETATM   12  C   UNL     1      -9.410  14.063  67.328  1.00  0.00    -0.230 A  
HETATM   13  C   UNL     1      -8.576  13.595  68.365  1.00  0.00    -0.151 A  
HETATM   14  I   UNL     1     -10.039  12.884  65.688  1.00  0.00    -0.177 I  
HETATM   15  C   UNL     1      -8.082  14.572  69.265  1.00  0.00     0.029 A  
HETATM   16  I   UNL     1      -6.136  14.248  70.202  1.00  0.00    -0.119 I  
BRANCH  13  17
HETATM   17  C   UNL     1      -8.257  12.119  68.549  1.00  0.00    -0.104 C  
HETATM   18  C   UNL     1      -7.707  11.385  67.295  1.00  0.00    -0.145 C  
HETATM   19  C   UNL     1      -7.448   9.926  67.646  1.00  0.00    -0.090 C  
HETATM   20  C   UNL     1      -6.460  12.002  66.635  1.00  0.00     0.166 C  
HETATM   21  C   UNL     1      -5.229  12.107  67.522  1.00  0.00    -0.100 C  
HETATM   22  O   UNL     1      -7.198   9.514  68.768  1.00  0.00    -0.071 OA 
HETATM   23  O   UNL     1      -7.507   9.101  66.577  1.00  0.00    -0.091 OA 
ENDBRANCH  13  17
ENDBRANCH   6   8
ENDBRANCH   3   4
ENDBRANCH   2   3
TORSDOF 4
ENDMDL
MODEL      210
REMARK 921   NORMALIZED FREE ENERGY PREDICTED BY IDOCK:   39.02 KCAL/MOL
REMARK 922        TOTAL FREE ENERGY PREDICTED BY IDOCK:   47.18 KCAL/MOL
REMARK 923 INTER-LIGAND FREE ENERGY PREDICTED BY IDOCK:   41.64 KCAL/MOL
REMARK 924 INTRA-LIGAND FREE ENERGY PREDICTED BY IDOCK:    5.54 KCAL/MOL
REMARK 927      BINDING AFFINITY PREDICTED BY RF-SCORE:    0.00 PKD
ROOT
HETATM    1  C   UNL     1      -7.599  14.908  65.977  1.00  0.00     2.972 C  
HETATM    2  C   UNL     1      -8.332  13.580  66.008  1.00  0.00     1.435 C  
ENDROOT
BRANCH   2   3
HETATM    3  C   UNL     1      -7.438  12.437  65.536  1.00  0.00     3.075 C  
BRANCH   3   4
HETATM    4  C   UNL     1      -7.479  11.293  66.517  1.00  0.00    -0.105 C  
HETATM    5  O   UNL     1      -6.816  11.320  67.553  1.00  0.00    -0.076 OA 
HETATM    6  N   UNL     1      -8.378  10.292  66.169  1.00  0.00    -0.135 N  
HETATM    7  H   UNL     1      -8.881  10.355  65.283  1.00  0.00     0.000 HD 
BRANCH   6   8
HETATM    8  C   UNL     1      -8.608   9.183  67.026  1.00  0.00    -0.123 A  
HETATM    9  C   UNL     1      -7.582   8.762  67.877  1.00  0.00    -0.097 A  
HETATM   10  C   UNL     1      -7.735   7.604  68.640  1.00  0.00    -0.119 A  
HETATM   11  I   UNL     1      -5.751   9.781  68.025  1.00  0.00    -0.038 I  
HETATM   12  C   UNL     1      -8.882   6.810  68.500  1.00  0.00    -0.123 A  
HETATM   13  C   UNL     1      -9.929   7.178  67.629  1.00  0.00    -0.201 A  
HETATM   14  I   UNL     1      -8.934   5.117  69.767  1.00  0.00    -0.175 I  
HETATM   15  C   UNL     1      -9.818   8.450  67.014  1.00  0.00    -0.230 A  
HETATM   16  I   UNL     1     -11.645   9.538  66.516  1.00  0.00     5.512 I  
BRANCH  13  17
HETATM   17  C   UNL     1     -11.092   6.250  67.317  1.00  0.00    -0.387 C  
HETATM   18  C   UNL     1     -11.690   6.371  65.888  1.00  0.00     3.380 C  
HETATM   19  C   UNL     1     -12.841   5.386  65.744  1.00  0.00     7.037 C  
HETATM   20  C   UNL     1     -10.701   6.209  64.719  1.00  0.00     4.323 C  
HETATM   21  C   UNL     1      -9.967   4.878  64.657  1.00  0.00     0.327 C  
HETATM   22  O   UNL     1     -12.953   4.348  66.379  1.00  0.00     9.966 OA 
HETATM   23  O   UNL     1     -13.751   5.759  64.817  1.00  0.00     5.425 OA 
ENDBRANCH  13  17
ENDBRANCH   6   8
ENDBRANCH   3   4
ENDBRANCH   2   3
TORSDOF 4
ENDMDL
MODEL      211
REMARK 921   NORMALIZED FREE ENERGY PREDICTED BY IDOCK:   52.50 KCAL/MOL
REMARK 922        TOTAL FREE ENERGY PREDICTED BY IDOCK:   63.81 KCAL/MOL
REMARK 923 INTER-LIGAND FREE ENERGY PREDICTED BY IDOCK:   58.29 KCAL/MOL
REMARK 924 INTRA-LIGAND FREE ENERGY PREDICTED BY IDOCK:    5.52 KCAL/MOL
REMARK 927      BINDING AFFINITY PREDICTED BY RF-SCORE:    0.00 PKD
ROOT
HETATM    1  C   UNL     1      -8.125   7.820  68.851  1.00  0.00    -0.126 C  
HETATM    2  C   UNL     1      -7.334   8.441  69.988  1.00  0.00    -0.059 C  
ENDROOT
BRANCH   2   3
HETATM    3  C   UNL     1      -8.139   9.523  70.701  1.00  0.00    -0.152 C  
BRANCH   3   4
HETATM    4  C   UNL     1      -7.384  10.828  70.703  1.00  0.00     1.318 C  
HETATM    5  O   UNL     1      -6.528  11.068  69.852  1.00  0.00    -0.118 OA 
HETATM    6  N   UNL     1      -7.812  11.719  71.680  1.00  0.00     9.016 N  
HETATM    7  H   UNL     1      -8.527  11.427  72.347  1.00  0.00     0.000 HD 
BRANCH   6   8
HETATM    8  C   UNL     1      -7.269  13.028  71.767  1.00  0.00     6.756 A  
HETATM    9  C   UNL     1      -7.559  13.808  72.891  1.00  0.00     7.814 A  
HETATM   10  C   UNL     1      -7.142  15.138  72.948  1.00  0.00     4.682 A  
HETATM   11  I   UNL     1      -8.667  13.073  74.516  1.00  0.00    17.772 I  
HETATM   12  C   UNL     1      -6.502  15.728  71.848  1.00  0.00     2.550 A  
HETATM   13  C   UNL     1      -6.219  14.989  70.680  1.00  0.00     0.013 A  
HETATM   14  I   UNL     1      -5.923  17.740  72.148  1.00  0.00     3.925 I  
HETATM   15  C   UNL     1      -6.490  13.599  70.733  1.00  0.00     0.390 A  
HETATM   16  I   UNL     1      -5.266  12.244  69.535  1.00  0.00    -0.082 I  
BRANCH  13  17
HETATM   17  C   UNL     1      -5.699  15.644  69.409  1.00  0.00    -0.114 C  
HETATM   18  C   UNL     1      -6.353  15.162  68.085  1.00  0.00    -0.138 C  
HETATM   19  C   UNL     1      -5.720  15.906  66.917  1.00  0.00     0.516 C  
HETATM   20  C   UNL     1      -7.888  15.259  68.007  1.00  0.00    -0.137 C  
HETATM   21  C   UNL     1      -8.469  16.655  68.173  1.00  0.00    -0.198 C  
HETATM   22  O   UNL     1      -5.208  17.012  66.992  1.00  0.00    -0.132 OA 
HETATM   23  O   UNL     1      -5.784  15.224  65.751  1.00  0.00     4.794 OA 
ENDBRANCH  13  17
ENDBRANCH   6   8
ENDBRANCH   3   4
ENDBRANCH   2   3
TORSDOF 4
ENDMDL
