MODEL        1
REMARK 921   NORMALIZED FREE ENERGY PREDICTED BY IDOCK:   -5.83 KCAL/MOL
REMARK 922        TOTAL FREE ENERGY PREDICTED BY IDOCK:   -6.67 KCAL/MOL
REMARK 923 INTER-LIGAND FREE ENERGY PREDICTED BY IDOCK:   -6.51 KCAL/MOL
REMARK 924 INTRA-LIGAND FREE ENERGY PREDICTED BY IDOCK:   -0.15 KCAL/MOL
REMARK 927      BINDING AFFINITY PREDICTED BY RF-SCORE:    0.00 PKD
ROOT
ATOM      1  N   TYR A   1     -11.433  16.466  63.878  1.00  0.00    -1.618 NA 
ATOM      2  CA  TYR A   1     -10.960  15.495  64.916  1.00  0.00    -0.436 C  
ATOM      3  H1  TYR A   1     -11.518  16.062  62.944  1.00  0.00     0.000 HD 
ATOM      4  H2  TYR A   1     -10.835  17.293  63.859  1.00  0.00     0.000 HD 
ATOM      5  C   TYR A   1     -11.946  14.315  64.933  1.00  0.00    -0.425 C  
ATOM      6  OXT TYR A   1     -12.098  13.523  65.850  1.00  0.00    -0.384 OA 
ATOM      7  O   TYR A   1     -12.628  14.237  63.759  1.00  0.00    -0.821 OA 
ENDROOT
BRANCH   2   8
ATOM      8  CB  TYR A   1     -10.834  16.105  66.323  1.00  0.00    -0.135 C  
BRANCH   8   9
ATOM      9  CG  TYR A   1      -9.954  17.334  66.359  1.00  0.00    -0.319 A  
ATOM     10  CD1 TYR A   1      -8.564  17.222  66.214  1.00  0.00    -0.264 A  
ATOM     11  CE1 TYR A   1      -7.749  18.355  66.283  1.00  0.00    -0.279 A  
ATOM     12  CZ  TYR A   1      -8.328  19.602  66.491  1.00  0.00    -0.332 A  
ATOM     13  OH  TYR A   1      -7.570  20.733  66.576  1.00  0.00    -0.515 OA 
ATOM     14  CE2 TYR A   1      -9.704  19.734  66.625  1.00  0.00    -0.519 A  
ATOM     15  CD2 TYR A   1     -10.518  18.602  66.562  1.00  0.00    -0.465 A  
ATOM     16  HH  TYR A   1      -7.965  21.584  66.718  1.00  0.00     0.000 HD 
ENDBRANCH   8   9
ENDBRANCH   2   8
TORSDOF 2
ENDMDL
MODEL        2
REMARK 921   NORMALIZED FREE ENERGY PREDICTED BY IDOCK:   -5.78 KCAL/MOL
REMARK 922        TOTAL FREE ENERGY PREDICTED BY IDOCK:   -6.61 KCAL/MOL
REMARK 923 INTER-LIGAND FREE ENERGY PREDICTED BY IDOCK:   -6.48 KCAL/MOL
REMARK 924 INTRA-LIGAND FREE ENERGY PREDICTED BY IDOCK:   -0.13 KCAL/MOL
REMARK 927      BINDING AFFINITY PREDICTED BY RF-SCORE:    0.00 PKD
ROOT
ATOM      1  N   TYR A   1     -11.542  16.535  63.945  1.00  0.00    -1.578 NA 
ATOM      2  CA  TYR A   1     -10.936  15.529  64.876  1.00  0.00    -0.436 C  
ATOM      3  H1  TYR A   1     -11.646  16.199  62.987  1.00  0.00     0.000 HD 
ATOM      4  H2  TYR A   1     -11.013  17.407  63.965  1.00  0.00     0.000 HD 
ATOM      5  C   TYR A   1     -11.822  14.274  64.845  1.00  0.00    -0.410 C  
ATOM      6  OXT TYR A   1     -11.860  13.403  65.701  1.00  0.00    -0.337 OA 
ATOM      7  O   TYR A   1     -12.561  14.230  63.704  1.00  0.00    -0.831 OA 
ENDROOT
BRANCH   2   8
ATOM      8  CB  TYR A   1     -10.779  16.036  66.320  1.00  0.00    -0.234 C  
BRANCH   8   9
ATOM      9  CG  TYR A   1      -9.989  17.321  66.415  1.00  0.00    -0.319 A  
ATOM     10  CD1 TYR A   1     -10.637  18.544  66.644  1.00  0.00    -0.383 A  
ATOM     11  CE1 TYR A   1      -9.909  19.735  66.697  1.00  0.00    -0.538 A  
ATOM     12  CZ  TYR A   1      -8.529  19.701  66.528  1.00  0.00    -0.345 A  
ATOM     13  OH  TYR A   1      -7.781  20.840  66.561  1.00  0.00    -0.525 OA 
ATOM     14  CE2 TYR A   1      -7.868  18.499  66.313  1.00  0.00    -0.282 A  
ATOM     15  CD2 TYR A   1      -8.596  17.309  66.253  1.00  0.00    -0.264 A  
ATOM     16  HH  TYR A   1      -6.839  20.817  66.446  1.00  0.00     0.000 HD 
ENDBRANCH   8   9
ENDBRANCH   2   8
TORSDOF 2
ENDMDL
MODEL        3
REMARK 921   NORMALIZED FREE ENERGY PREDICTED BY IDOCK:   -5.77 KCAL/MOL
REMARK 922        TOTAL FREE ENERGY PREDICTED BY IDOCK:   -6.60 KCAL/MOL
REMARK 923 INTER-LIGAND FREE ENERGY PREDICTED BY IDOCK:   -6.40 KCAL/MOL
REMARK 924 INTRA-LIGAND FREE ENERGY PREDICTED BY IDOCK:   -0.20 KCAL/MOL
REMARK 927      BINDING AFFINITY PREDICTED BY RF-SCORE:    0.00 PKD
ROOT
ATOM      1  N   TYR A   1     -12.432  14.322  63.467  1.00  0.00    -1.102 NA 
ATOM      2  CA  TYR A   1     -11.590  14.430  64.702  1.00  0.00    -0.409 C  
ATOM      3  H1  TYR A   1     -13.154  15.040  63.397  1.00  0.00     0.000 HD 
ATOM      4  H2  TYR A   1     -12.843  13.391  63.392  1.00  0.00     0.000 HD 
ATOM      5  C   TYR A   1     -10.953  15.829  64.710  1.00  0.00    -0.393 C  
ATOM      6  OXT TYR A   1      -9.960  16.159  65.340  1.00  0.00    -0.482 OA 
ATOM      7  O   TYR A   1     -11.663  16.689  63.932  1.00  0.00    -1.153 OA 
ENDROOT
BRANCH   2   8
ATOM      8  CB  TYR A   1     -10.503  13.347  64.807  1.00  0.00    -0.419 C  
BRANCH   8   9
ATOM      9  CG  TYR A   1     -10.746  12.369  65.933  1.00  0.00    -0.299 A  
ATOM     10  CD1 TYR A   1     -11.507  12.740  67.051  1.00  0.00    -0.397 A  
ATOM     11  CE1 TYR A   1     -11.702  11.846  68.108  1.00  0.00    -0.388 A  
ATOM     12  CZ  TYR A   1     -11.142  10.576  68.040  1.00  0.00    -0.300 A  
ATOM     13  OH  TYR A   1     -11.298   9.675  69.051  1.00  0.00    -0.452 OA 
ATOM     14  CE2 TYR A   1     -10.397  10.185  66.934  1.00  0.00    -0.298 A  
ATOM     15  CD2 TYR A   1     -10.196  11.080  65.882  1.00  0.00    -0.309 A  
ATOM     16  HH  TYR A   1     -10.915   8.807  69.005  1.00  0.00     0.000 HD 
ENDBRANCH   8   9
ENDBRANCH   2   8
TORSDOF 2
ENDMDL
MODEL        4
REMARK 921   NORMALIZED FREE ENERGY PREDICTED BY IDOCK:   -5.70 KCAL/MOL
REMARK 922        TOTAL FREE ENERGY PREDICTED BY IDOCK:   -6.52 KCAL/MOL
REMARK 923 INTER-LIGAND FREE ENERGY PREDICTED BY IDOCK:   -6.31 KCAL/MOL
REMARK 924 INTRA-LIGAND FREE ENERGY PREDICTED BY IDOCK:   -0.21 KCAL/MOL
REMARK 927      BINDING AFFINITY PREDICTED BY RF-SCORE:    0.00 PKD
ROOT
ATOM      1  N   TYR A   1     -12.513  14.137  63.657  1.00  0.00    -1.071 NA 
ATOM      2  CA  TYR A   1     -11.840  14.475  64.952  1.00  0.00    -0.416 C  
ATOM      3  H1  TYR A   1     -13.157  14.858  63.328  1.00  0.00     0.000 HD 
ATOM      4  H2  TYR A   1     -12.985  13.235  63.722  1.00  0.00     0.000 HD 
ATOM      5  C   TYR A   1     -11.096  15.806  64.757  1.00  0.00    -0.400 C  
ATOM      6  OXT TYR A   1     -10.174  16.218  65.444  1.00  0.00    -0.518 OA 
ATOM      7  O   TYR A   1     -11.621  16.506  63.716  1.00  0.00    -1.109 OA 
ENDROOT
BRANCH   2   8
ATOM      8  CB  TYR A   1     -10.870  13.389  65.448  1.00  0.00    -0.303 C  
BRANCH   8   9
ATOM      9  CG  TYR A   1     -11.175  12.917  66.851  1.00  0.00    -0.331 A  
ATOM     10  CD1 TYR A   1     -11.167  11.549  67.162  1.00  0.00    -0.365 A  
ATOM     11  CE1 TYR A   1     -11.484  11.111  68.452  1.00  0.00    -0.377 A  
ATOM     12  CZ  TYR A   1     -11.800  12.045  69.431  1.00  0.00    -0.324 A  
ATOM     13  OH  TYR A   1     -12.125  11.662  70.700  1.00  0.00    -0.368 OA 
ATOM     14  CE2 TYR A   1     -11.800  13.404  69.146  1.00  0.00    -0.383 A  
ATOM     15  CD2 TYR A   1     -11.491  13.842  67.857  1.00  0.00    -0.347 A  
ATOM     16  HH  TYR A   1     -12.341  12.300  71.369  1.00  0.00     0.000 HD 
ENDBRANCH   8   9
ENDBRANCH   2   8
TORSDOF 2
ENDMDL
MODEL        5
REMARK 921   NORMALIZED FREE ENERGY PREDICTED BY IDOCK:   -5.53 KCAL/MOL
REMARK 922        TOTAL FREE ENERGY PREDICTED BY IDOCK:   -6.34 KCAL/MOL
REMARK 923 INTER-LIGAND FREE ENERGY PREDICTED BY IDOCK:   -6.12 KCAL/MOL
REMARK 924 INTRA-LIGAND FREE ENERGY PREDICTED BY IDOCK:   -0.21 KCAL/MOL
REMARK 927      BINDING AFFINITY PREDICTED BY RF-SCORE:    0.00 PKD
ROOT
ATOM      1  N   TYR A   1     -11.299  16.686  64.069  1.00  0.00    -1.530 NA 
ATOM      2  CA  TYR A   1     -10.909  16.305  65.465  1.00  0.00    -0.245 C  
ATOM      3  H1  TYR A   1     -11.936  17.482  64.023  1.00  0.00     0.000 HD 
ATOM      4  H2  TYR A   1     -11.688  15.884  63.572  1.00  0.00     0.000 HD 
ATOM      5  C   TYR A   1     -10.271  17.539  66.123  1.00  0.00    -0.335 C  
ATOM      6  OXT TYR A   1      -9.533  17.529  67.096  1.00  0.00    -0.249 OA 
ATOM      7  O   TYR A   1     -10.659  18.680  65.493  1.00  0.00    -0.608 OA 
ENDROOT
BRANCH   2   8
ATOM      8  CB  TYR A   1      -9.948  15.106  65.534  1.00  0.00    -0.384 C  
BRANCH   8   9
ATOM      9  CG  TYR A   1     -10.518  13.932  66.296  1.00  0.00    -0.287 A  
ATOM     10  CD1 TYR A   1     -10.374  12.625  65.808  1.00  0.00    -0.298 A  
ATOM     11  CE1 TYR A   1     -10.933  11.543  66.495  1.00  0.00    -0.346 A  
ATOM     12  CZ  TYR A   1     -11.629  11.770  67.677  1.00  0.00    -0.294 A  
ATOM     13  OH  TYR A   1     -12.198  10.747  68.375  1.00  0.00    -0.832 OA 
ATOM     14  CE2 TYR A   1     -11.770  13.056  68.183  1.00  0.00    -0.391 A  
ATOM     15  CD2 TYR A   1     -11.219  14.137  67.493  1.00  0.00    -0.323 A  
ATOM     16  HH  TYR A   1     -12.673  10.902  69.182  1.00  0.00     0.000 HD 
ENDBRANCH   8   9
ENDBRANCH   2   8
TORSDOF 2
ENDMDL
MODEL        6
REMARK 921   NORMALIZED FREE ENERGY PREDICTED BY IDOCK:   -5.47 KCAL/MOL
REMARK 922        TOTAL FREE ENERGY PREDICTED BY IDOCK:   -6.27 KCAL/MOL
REMARK 923 INTER-LIGAND FREE ENERGY PREDICTED BY IDOCK:   -6.08 KCAL/MOL
REMARK 924 INTRA-LIGAND FREE ENERGY PREDICTED BY IDOCK:   -0.18 KCAL/MOL
REMARK 927      BINDING AFFINITY PREDICTED BY RF-SCORE:    0.00 PKD
ROOT
ATOM      1  N   TYR A   1     -11.960  11.515  68.395  1.00  0.00    -0.562 NA 
ATOM      2  CA  TYR A   1     -12.161  13.000  68.358  1.00  0.00    -0.155 C  
ATOM      3  H1  TYR A   1     -12.620  10.997  67.813  1.00  0.00     0.000 HD 
ATOM      4  H2  TYR A   1     -11.982  11.173  69.356  1.00  0.00     0.000 HD 
ATOM      5  C   TYR A   1     -12.047  13.449  66.893  1.00  0.00    -0.354 C  
ATOM      6  OXT TYR A   1     -11.807  14.583  66.508  1.00  0.00    -0.383 OA 
ATOM      7  O   TYR A   1     -12.282  12.409  66.047  1.00  0.00    -0.636 OA 
ENDROOT
BRANCH   2   8
ATOM      8  CB  TYR A   1     -11.166  13.781  69.234  1.00  0.00    -0.291 C  
BRANCH   8   9
ATOM      9  CG  TYR A   1     -11.813  14.417  70.443  1.00  0.00    -0.381 A  
ATOM     10  CD1 TYR A   1     -12.949  13.843  71.031  1.00  0.00    -0.357 A  
ATOM     11  CE1 TYR A   1     -13.567  14.451  72.128  1.00  0.00    -0.529 A  
ATOM     12  CZ  TYR A   1     -13.041  15.631  72.640  1.00  0.00    -0.480 A  
ATOM     13  OH  TYR A   1     -13.617  16.264  73.702  1.00  0.00    -0.912 OA 
ATOM     14  CE2 TYR A   1     -11.909  16.208  72.079  1.00  0.00    -0.615 A  
ATOM     15  CD2 TYR A   1     -11.295  15.605  70.980  1.00  0.00    -0.426 A  
ATOM     16  HH  TYR A   1     -13.258  17.071  74.051  1.00  0.00     0.000 HD 
ENDBRANCH   8   9
ENDBRANCH   2   8
TORSDOF 2
ENDMDL
MODEL        7
REMARK 921   NORMALIZED FREE ENERGY PREDICTED BY IDOCK:   -5.38 KCAL/MOL
REMARK 922        TOTAL FREE ENERGY PREDICTED BY IDOCK:   -6.16 KCAL/MOL
REMARK 923 INTER-LIGAND FREE ENERGY PREDICTED BY IDOCK:   -5.94 KCAL/MOL
REMARK 924 INTRA-LIGAND FREE ENERGY PREDICTED BY IDOCK:   -0.22 KCAL/MOL
REMARK 927      BINDING AFFINITY PREDICTED BY RF-SCORE:    0.00 PKD
ROOT
ATOM      1  N   TYR A   1     -12.392  14.259  67.105  1.00  0.00    -0.586 NA 
ATOM      2  CA  TYR A   1     -11.547  14.492  68.321  1.00  0.00    -0.329 C  
ATOM      3  H1  TYR A   1     -12.176  14.885  66.328  1.00  0.00     0.000 HD 
ATOM      4  H2  TYR A   1     -13.383  14.306  67.341  1.00  0.00     0.000 HD 
ATOM      5  C   TYR A   1     -10.076  14.336  67.903  1.00  0.00    -0.233 C  
ATOM      6  OXT TYR A   1      -9.140  14.109  68.653  1.00  0.00    -0.192 OA 
ATOM      7  O   TYR A   1      -9.932  14.517  66.562  1.00  0.00    -0.262 OA 
ENDROOT
BRANCH   2   8
ATOM      8  CB  TYR A   1     -11.872  13.548  69.491  1.00  0.00    -0.392 C  
BRANCH   8   9
ATOM      9  CG  TYR A   1     -12.217  14.282  70.767  1.00  0.00    -0.423 A  
ATOM     10  CD1 TYR A   1     -11.659  15.539  71.042  1.00  0.00    -0.424 A  
ATOM     11  CE1 TYR A   1     -11.951  16.201  72.238  1.00  0.00    -0.637 A  
ATOM     12  CZ  TYR A   1     -12.808  15.606  73.156  1.00  0.00    -0.509 A  
ATOM     13  OH  TYR A   1     -13.113  16.210  74.339  1.00  0.00    -0.926 OA 
ATOM     14  CE2 TYR A   1     -13.381  14.367  72.896  1.00  0.00    -0.575 A  
ATOM     15  CD2 TYR A   1     -13.084  13.703  71.704  1.00  0.00    -0.455 A  
ATOM     16  HH  TYR A   1     -13.698  15.804  74.967  1.00  0.00     0.000 HD 
ENDBRANCH   8   9
ENDBRANCH   2   8
TORSDOF 2
ENDMDL
MODEL        8
REMARK 921   NORMALIZED FREE ENERGY PREDICTED BY IDOCK:   -5.37 KCAL/MOL
REMARK 922        TOTAL FREE ENERGY PREDICTED BY IDOCK:   -6.16 KCAL/MOL
REMARK 923 INTER-LIGAND FREE ENERGY PREDICTED BY IDOCK:   -5.98 KCAL/MOL
REMARK 924 INTRA-LIGAND FREE ENERGY PREDICTED BY IDOCK:   -0.18 KCAL/MOL
REMARK 927      BINDING AFFINITY PREDICTED BY RF-SCORE:    0.00 PKD
ROOT
ATOM      1  N   TYR A   1     -12.083  11.447  68.247  1.00  0.00    -0.608 NA 
ATOM      2  CA  TYR A   1     -12.147  12.944  68.257  1.00  0.00    -0.129 C  
ATOM      3  H1  TYR A   1     -12.751  11.011  67.611  1.00  0.00     0.000 HD 
ATOM      4  H2  TYR A   1     -12.190  11.076  69.192  1.00  0.00     0.000 HD 
ATOM      5  C   TYR A   1     -11.909  13.430  66.819  1.00  0.00    -0.403 C  
ATOM      6  OXT TYR A   1     -11.547  14.550  66.492  1.00  0.00    -0.360 OA 
ATOM      7  O   TYR A   1     -12.186  12.445  65.922  1.00  0.00    -0.629 OA 
ENDROOT
BRANCH   2   8
ATOM      8  CB  TYR A   1     -11.140  13.602  69.216  1.00  0.00    -0.241 C  
BRANCH   8   9
ATOM      9  CG  TYR A   1     -11.798  14.261  70.407  1.00  0.00    -0.375 A  
ATOM     10  CD1 TYR A   1     -11.539  15.605  70.713  1.00  0.00    -0.412 A  
ATOM     11  CE1 TYR A   1     -12.120  16.203  71.835  1.00  0.00    -0.548 A  
ATOM     12  CZ  TYR A   1     -12.968  15.457  72.645  1.00  0.00    -0.422 A  
ATOM     13  OH  TYR A   1     -13.549  15.997  73.755  1.00  0.00    -0.851 OA 
ATOM     14  CE2 TYR A   1     -13.247  14.128  72.351  1.00  0.00    -0.566 A  
ATOM     15  CD2 TYR A   1     -12.661  13.528  71.235  1.00  0.00    -0.432 A  
ATOM     16  HH  TYR A   1     -14.127  15.487  74.308  1.00  0.00     0.000 HD 
ENDBRANCH   8   9
ENDBRANCH   2   8
TORSDOF 2
ENDMDL
MODEL        9
REMARK 921   NORMALIZED FREE ENERGY PREDICTED BY IDOCK:   -5.35 KCAL/MOL
REMARK 922        TOTAL FREE ENERGY PREDICTED BY IDOCK:   -6.13 KCAL/MOL
REMARK 923 INTER-LIGAND FREE ENERGY PREDICTED BY IDOCK:   -5.96 KCAL/MOL
REMARK 924 INTRA-LIGAND FREE ENERGY PREDICTED BY IDOCK:   -0.17 KCAL/MOL
REMARK 927      BINDING AFFINITY PREDICTED BY RF-SCORE:    0.00 PKD
ROOT
ATOM      1  N   TYR A   1     -11.541  16.354  63.921  1.00  0.00    -1.602 NA 
ATOM      2  CA  TYR A   1     -11.110  15.265  64.857  1.00  0.00    -0.424 C  
ATOM      3  H1  TYR A   1     -11.568  16.067  62.942  1.00  0.00     0.000 HD 
ATOM      4  H2  TYR A   1     -10.955  17.181  64.038  1.00  0.00     0.000 HD 
ATOM      5  C   TYR A   1     -12.077  14.085  64.673  1.00  0.00    -0.440 C  
ATOM      6  OXT TYR A   1     -12.267  13.184  65.476  1.00  0.00    -0.411 OA 
ATOM      7  O   TYR A   1     -12.693  14.146  63.462  1.00  0.00    -0.794 OA 
ENDROOT
BRANCH   2   8
ATOM      8  CB  TYR A   1     -11.070  15.698  66.332  1.00  0.00    -0.123 C  
BRANCH   8   9
ATOM      9  CG  TYR A   1     -10.072  16.801  66.601  1.00  0.00    -0.304 A  
ATOM     10  CD1 TYR A   1      -8.742  16.682  66.169  1.00  0.00    -0.322 A  
ATOM     11  CE1 TYR A   1      -7.812  17.687  66.448  1.00  0.00    -0.318 A  
ATOM     12  CZ  TYR A   1      -8.215  18.815  67.153  1.00  0.00    -0.265 A  
ATOM     13  OH  TYR A   1      -7.339  19.815  67.456  1.00  0.00    -0.248 OA 
ATOM     14  CE2 TYR A   1      -9.530  18.956  67.577  1.00  0.00    -0.340 A  
ATOM     15  CD2 TYR A   1     -10.458  17.950  67.305  1.00  0.00    -0.373 A  
ATOM     16  HH  TYR A   1      -7.614  20.585  67.938  1.00  0.00     0.000 HD 
ENDBRANCH   8   9
ENDBRANCH   2   8
TORSDOF 2
ENDMDL
MODEL       10
REMARK 921   NORMALIZED FREE ENERGY PREDICTED BY IDOCK:   -5.31 KCAL/MOL
REMARK 922        TOTAL FREE ENERGY PREDICTED BY IDOCK:   -6.08 KCAL/MOL
REMARK 923 INTER-LIGAND FREE ENERGY PREDICTED BY IDOCK:   -5.88 KCAL/MOL
REMARK 924 INTRA-LIGAND FREE ENERGY PREDICTED BY IDOCK:   -0.20 KCAL/MOL
REMARK 927      BINDING AFFINITY PREDICTED BY RF-SCORE:    0.00 PKD
ROOT
ATOM      1  N   TYR A   1     -12.270  10.634  68.643  1.00  0.00    -0.814 NA 
ATOM      2  CA  TYR A   1     -11.411  11.642  67.942  1.00  0.00    -0.311 C  
ATOM      3  H1  TYR A   1     -12.007   9.666  68.451  1.00  0.00     0.000 HD 
ATOM      4  H2  TYR A   1     -13.255  10.788  68.428  1.00  0.00     0.000 HD 
ATOM      5  C   TYR A   1      -9.956  11.391  68.368  1.00  0.00    -0.204 C  
ATOM      6  OXT TYR A   1      -9.040  12.195  68.294  1.00  0.00    -0.193 OA 
ATOM      7  O   TYR A   1      -9.797  10.119  68.823  1.00  0.00    -0.162 OA 
ENDROOT
BRANCH   2   8
ATOM      8  CB  TYR A   1     -11.807  13.100  68.231  1.00  0.00    -0.384 C  
BRANCH   8   9
ATOM      9  CG  TYR A   1     -11.677  14.001  67.025  1.00  0.00    -0.425 A  
ATOM     10  CD1 TYR A   1     -10.810  15.104  67.046  1.00  0.00    -0.314 A  
ATOM     11  CE1 TYR A   1     -10.717  15.957  65.942  1.00  0.00    -0.303 A  
ATOM     12  CZ  TYR A   1     -11.487  15.700  64.814  1.00  0.00    -0.283 A  
ATOM     13  OH  TYR A   1     -11.435  16.510  63.718  1.00  0.00    -1.615 OA 
ATOM     14  CE2 TYR A   1     -12.341  14.605  64.769  1.00  0.00    -0.362 A  
ATOM     15  CD2 TYR A   1     -12.439  13.757  65.873  1.00  0.00    -0.512 A  
ATOM     16  HH  TYR A   1     -11.961  16.335  62.947  1.00  0.00     0.000 HD 
ENDBRANCH   8   9
ENDBRANCH   2   8
TORSDOF 2
ENDMDL
MODEL       11
REMARK 921   NORMALIZED FREE ENERGY PREDICTED BY IDOCK:   -5.29 KCAL/MOL
REMARK 922        TOTAL FREE ENERGY PREDICTED BY IDOCK:   -6.06 KCAL/MOL
REMARK 923 INTER-LIGAND FREE ENERGY PREDICTED BY IDOCK:   -5.84 KCAL/MOL
REMARK 924 INTRA-LIGAND FREE ENERGY PREDICTED BY IDOCK:   -0.22 KCAL/MOL
REMARK 927      BINDING AFFINITY PREDICTED BY RF-SCORE:    0.00 PKD
ROOT
ATOM      1  N   TYR A   1     -11.958  10.539  68.579  1.00  0.00    -0.786 NA 
ATOM      2  CA  TYR A   1     -11.229  11.061  67.378  1.00  0.00    -0.285 C  
ATOM      3  H1  TYR A   1     -12.466   9.671  68.406  1.00  0.00     0.000 HD 
ATOM      4  H2  TYR A   1     -12.582  11.252  68.958  1.00  0.00     0.000 HD 
ATOM      5  C   TYR A   1     -10.263   9.962  66.907  1.00  0.00    -0.240 C  
ATOM      6  OXT TYR A   1      -9.279  10.129  66.203  1.00  0.00    -0.151 OA 
ATOM      7  O   TYR A   1     -10.661   8.741  67.355  1.00  0.00    -0.267 OA 
ENDROOT
BRANCH   2   8
ATOM      8  CB  TYR A   1     -10.463  12.369  67.638  1.00  0.00    -0.229 C  
BRANCH   8   9
ATOM      9  CG  TYR A   1     -10.737  13.434  66.600  1.00  0.00    -0.282 A  
ATOM     10  CD1 TYR A   1      -9.826  14.480  66.392  1.00  0.00    -0.306 A  
ATOM     11  CE1 TYR A   1     -10.096  15.482  65.457  1.00  0.00    -0.406 A  
ATOM     12  CZ  TYR A   1     -11.276  15.433  64.724  1.00  0.00    -0.395 A  
ATOM     13  OH  TYR A   1     -11.585  16.395  63.808  1.00  0.00    -1.605 OA 
ATOM     14  CE2 TYR A   1     -12.184  14.398  64.906  1.00  0.00    -0.440 A  
ATOM     15  CD2 TYR A   1     -11.918  13.400  65.845  1.00  0.00    -0.452 A  
ATOM     16  HH  TYR A   1     -12.391  16.361  63.307  1.00  0.00     0.000 HD 
ENDBRANCH   8   9
ENDBRANCH   2   8
TORSDOF 2
ENDMDL
MODEL       12
REMARK 921   NORMALIZED FREE ENERGY PREDICTED BY IDOCK:   -5.27 KCAL/MOL
REMARK 922        TOTAL FREE ENERGY PREDICTED BY IDOCK:   -6.04 KCAL/MOL
REMARK 923 INTER-LIGAND FREE ENERGY PREDICTED BY IDOCK:   -5.85 KCAL/MOL
REMARK 924 INTRA-LIGAND FREE ENERGY PREDICTED BY IDOCK:   -0.19 KCAL/MOL
REMARK 927      BINDING AFFINITY PREDICTED BY RF-SCORE:    0.00 PKD
ROOT
ATOM      1  N   TYR A   1     -12.859  12.578  64.952  1.00  0.00    -0.800 NA 
ATOM      2  CA  TYR A   1     -12.411  13.841  65.623  1.00  0.00    -0.482 C  
ATOM      3  H1  TYR A   1     -13.619  12.715  64.284  1.00  0.00     0.000 HD 
ATOM      4  H2  TYR A   1     -13.111  11.873  65.645  1.00  0.00     0.000 HD 
ATOM      5  C   TYR A   1     -11.984  14.826  64.524  1.00  0.00    -0.440 C  
ATOM      6  OXT TYR A   1     -11.254  15.794  64.674  1.00  0.00    -0.445 OA 
ATOM      7  O   TYR A   1     -12.556  14.502  63.333  1.00  0.00    -0.673 OA 
ENDROOT
BRANCH   2   8
ATOM      8  CB  TYR A   1     -11.265  13.635  66.629  1.00  0.00    -0.324 C  
BRANCH   8   9
ATOM      9  CG  TYR A   1     -11.483  14.366  67.934  1.00  0.00    -0.346 A  
ATOM     10  CD1 TYR A   1     -11.040  15.686  68.096  1.00  0.00    -0.330 A  
ATOM     11  CE1 TYR A   1     -11.210  16.349  69.315  1.00  0.00    -0.272 A  
ATOM     12  CZ  TYR A   1     -11.832  15.691  70.370  1.00  0.00    -0.370 A  
ATOM     13  OH  TYR A   1     -12.010  16.295  71.579  1.00  0.00    -0.600 OA 
ATOM     14  CE2 TYR A   1     -12.289  14.387  70.224  1.00  0.00    -0.410 A  
ATOM     15  CD2 TYR A   1     -12.113  13.723  69.010  1.00  0.00    -0.359 A  
ATOM     16  HH  TYR A   1     -12.434  15.846  72.299  1.00  0.00     0.000 HD 
ENDBRANCH   8   9
ENDBRANCH   2   8
TORSDOF 2
ENDMDL
MODEL       13
REMARK 921   NORMALIZED FREE ENERGY PREDICTED BY IDOCK:   -5.16 KCAL/MOL
REMARK 922        TOTAL FREE ENERGY PREDICTED BY IDOCK:   -5.92 KCAL/MOL
REMARK 923 INTER-LIGAND FREE ENERGY PREDICTED BY IDOCK:   -5.70 KCAL/MOL
REMARK 924 INTRA-LIGAND FREE ENERGY PREDICTED BY IDOCK:   -0.22 KCAL/MOL
REMARK 927      BINDING AFFINITY PREDICTED BY RF-SCORE:    0.00 PKD
ROOT
ATOM      1  N   TYR A   1     -11.935  12.107  66.605  1.00  0.00    -0.629 NA 
ATOM      2  CA  TYR A   1     -11.964  13.505  66.067  1.00  0.00    -0.409 C  
ATOM      3  H1  TYR A   1     -12.856  11.671  66.667  1.00  0.00     0.000 HD 
ATOM      4  H2  TYR A   1     -11.462  12.079  67.509  1.00  0.00     0.000 HD 
ATOM      5  C   TYR A   1     -12.625  13.457  64.680  1.00  0.00    -0.265 C  
ATOM      6  OXT TYR A   1     -12.516  14.303  63.805  1.00  0.00    -0.810 OA 
ATOM      7  O   TYR A   1     -13.393  12.343  64.548  1.00  0.00    -0.800 OA 
ENDROOT
BRANCH   2   8
ATOM      8  CB  TYR A   1     -10.575  14.162  65.973  1.00  0.00    -0.297 C  
BRANCH   8   9
ATOM      9  CG  TYR A   1     -10.540  15.560  66.547  1.00  0.00    -0.307 A  
ATOM     10  CD1 TYR A   1     -10.718  15.773  67.922  1.00  0.00    -0.302 A  
ATOM     11  CE1 TYR A   1     -10.720  17.068  68.447  1.00  0.00    -0.361 A  
ATOM     12  CZ  TYR A   1     -10.536  18.150  67.594  1.00  0.00    -0.406 A  
ATOM     13  OH  TYR A   1     -10.541  19.432  68.061  1.00  0.00    -0.407 OA 
ATOM     14  CE2 TYR A   1     -10.345  17.959  66.232  1.00  0.00    -0.364 A  
ATOM     15  CD2 TYR A   1     -10.350  16.666  65.707  1.00  0.00    -0.338 A  
ATOM     16  HH  TYR A   1     -10.416  20.171  67.479  1.00  0.00     0.000 HD 
ENDBRANCH   8   9
ENDBRANCH   2   8
TORSDOF 2
ENDMDL
MODEL       14
REMARK 921   NORMALIZED FREE ENERGY PREDICTED BY IDOCK:   -5.16 KCAL/MOL
REMARK 922        TOTAL FREE ENERGY PREDICTED BY IDOCK:   -5.92 KCAL/MOL
REMARK 923 INTER-LIGAND FREE ENERGY PREDICTED BY IDOCK:   -5.70 KCAL/MOL
REMARK 924 INTRA-LIGAND FREE ENERGY PREDICTED BY IDOCK:   -0.21 KCAL/MOL
REMARK 927      BINDING AFFINITY PREDICTED BY RF-SCORE:    0.00 PKD
ROOT
ATOM      1  N   TYR A   1     -11.737  13.382  70.476  1.00  0.00    -0.532 NA 
ATOM      2  CA  TYR A   1     -11.768  12.898  69.058  1.00  0.00    -0.327 C  
ATOM      3  H1  TYR A   1     -12.584  13.165  71.003  1.00  0.00     0.000 HD 
ATOM      4  H2  TYR A   1     -11.538  14.382  70.510  1.00  0.00     0.000 HD 
ATOM      5  C   TYR A   1     -12.002  11.380  69.089  1.00  0.00    -0.328 C  
ATOM      6  OXT TYR A   1     -11.745  10.597  68.187  1.00  0.00    -0.474 OA 
ATOM      7  O   TYR A   1     -12.573  11.001  70.265  1.00  0.00    -0.297 OA 
ENDROOT
BRANCH   2   8
ATOM      8  CB  TYR A   1     -10.492  13.226  68.264  1.00  0.00    -0.257 C  
BRANCH   8   9
ATOM      9  CG  TYR A   1     -10.754  14.082  67.046  1.00  0.00    -0.284 A  
ATOM     10  CD1 TYR A   1     -10.474  15.456  67.064  1.00  0.00    -0.295 A  
ATOM     11  CE1 TYR A   1     -10.749  16.253  65.949  1.00  0.00    -0.235 A  
ATOM     12  CZ  TYR A   1     -11.299  15.671  64.813  1.00  0.00    -0.343 A  
ATOM     13  OH  TYR A   1     -11.593  16.412  63.706  1.00  0.00    -1.605 OA 
ATOM     14  CE2 TYR A   1     -11.571  14.310  64.771  1.00  0.00    -0.404 A  
ATOM     15  CD2 TYR A   1     -11.303  13.515  65.886  1.00  0.00    -0.321 A  
ATOM     16  HH  TYR A   1     -11.969  16.015  62.930  1.00  0.00     0.000 HD 
ENDBRANCH   8   9
ENDBRANCH   2   8
TORSDOF 2
ENDMDL
MODEL       15
REMARK 921   NORMALIZED FREE ENERGY PREDICTED BY IDOCK:   -5.13 KCAL/MOL
REMARK 922        TOTAL FREE ENERGY PREDICTED BY IDOCK:   -5.89 KCAL/MOL
REMARK 923 INTER-LIGAND FREE ENERGY PREDICTED BY IDOCK:   -5.67 KCAL/MOL
REMARK 924 INTRA-LIGAND FREE ENERGY PREDICTED BY IDOCK:   -0.21 KCAL/MOL
REMARK 927      BINDING AFFINITY PREDICTED BY RF-SCORE:    0.00 PKD
ROOT
ATOM      1  N   TYR A   1     -11.468  16.200  70.409  1.00  0.00    -0.421 NA 
ATOM      2  CA  TYR A   1     -11.828  15.015  69.565  1.00  0.00    -0.330 C  
ATOM      3  H1  TYR A   1     -12.213  16.497  71.040  1.00  0.00     0.000 HD 
ATOM      4  H2  TYR A   1     -11.160  16.977  69.824  1.00  0.00     0.000 HD 
ATOM      5  C   TYR A   1     -12.213  13.868  70.513  1.00  0.00    -0.373 C  
ATOM      6  OXT TYR A   1     -12.224  12.680  70.232  1.00  0.00    -0.331 OA 
ATOM      7  O   TYR A   1     -12.580  14.349  71.732  1.00  0.00    -0.332 OA 
ENDROOT
BRANCH   2   8
ATOM      8  CB  TYR A   1     -10.705  14.567  68.614  1.00  0.00    -0.257 C  
BRANCH   8   9
ATOM      9  CG  TYR A   1     -11.138  14.516  67.167  1.00  0.00    -0.325 A  
ATOM     10  CD1 TYR A   1     -10.472  15.276  66.194  1.00  0.00    -0.318 A  
ATOM     11  CE1 TYR A   1     -10.896  15.254  64.862  1.00  0.00    -0.444 A  
ATOM     12  CZ  TYR A   1     -11.983  14.465  64.503  1.00  0.00    -0.472 A  
ATOM     13  OH  TYR A   1     -12.436  14.422  63.218  1.00  0.00    -1.099 OA 
ATOM     14  CE2 TYR A   1     -12.647  13.696  65.450  1.00  0.00    -0.533 A  
ATOM     15  CD2 TYR A   1     -12.228  13.722  66.781  1.00  0.00    -0.440 A  
ATOM     16  HH  TYR A   1     -13.178  13.883  62.973  1.00  0.00     0.000 HD 
ENDBRANCH   8   9
ENDBRANCH   2   8
TORSDOF 2
ENDMDL
MODEL       16
REMARK 921   NORMALIZED FREE ENERGY PREDICTED BY IDOCK:   -5.13 KCAL/MOL
REMARK 922        TOTAL FREE ENERGY PREDICTED BY IDOCK:   -5.88 KCAL/MOL
REMARK 923 INTER-LIGAND FREE ENERGY PREDICTED BY IDOCK:   -5.72 KCAL/MOL
REMARK 924 INTRA-LIGAND FREE ENERGY PREDICTED BY IDOCK:   -0.16 KCAL/MOL
REMARK 927      BINDING AFFINITY PREDICTED BY RF-SCORE:    0.00 PKD
ROOT
ATOM      1  N   TYR A   1     -13.153  13.995  65.213  1.00  0.00    -0.765 NA 
ATOM      2  CA  TYR A   1     -11.831  14.015  64.508  1.00  0.00    -0.434 C  
ATOM      3  H1  TYR A   1     -13.952  13.894  64.586  1.00  0.00     0.000 HD 
ATOM      4  H2  TYR A   1     -13.259  14.822  65.801  1.00  0.00     0.000 HD 
ATOM      5  C   TYR A   1     -11.714  12.711  63.701  1.00  0.00    -0.522 C  
ATOM      6  OXT TYR A   1     -10.676  12.213  63.293  1.00  0.00    -0.421 OA 
ATOM      7  O   TYR A   1     -12.942  12.178  63.462  1.00  0.00    -0.794 OA 
ENDROOT
BRANCH   2   8
ATOM      8  CB  TYR A   1     -10.627  14.167  65.453  1.00  0.00    -0.358 C  
BRANCH   8   9
ATOM      9  CG  TYR A   1     -10.652  15.455  66.243  1.00  0.00    -0.311 A  
ATOM     10  CD1 TYR A   1     -10.405  16.685  65.615  1.00  0.00    -0.310 A  
ATOM     11  CE1 TYR A   1     -10.394  17.871  66.353  1.00  0.00    -0.365 A  
ATOM     12  CZ  TYR A   1     -10.638  17.827  67.721  1.00  0.00    -0.386 A  
ATOM     13  OH  TYR A   1     -10.628  18.958  68.482  1.00  0.00    -0.390 OA 
ATOM     14  CE2 TYR A   1     -10.898  16.621  68.359  1.00  0.00    -0.361 A  
ATOM     15  CD2 TYR A   1     -10.902  15.435  67.623  1.00  0.00    -0.304 A  
ATOM     16  HH  TYR A   1     -10.794  18.928  69.416  1.00  0.00     0.000 HD 
ENDBRANCH   8   9
ENDBRANCH   2   8
TORSDOF 2
ENDMDL
MODEL       17
REMARK 921   NORMALIZED FREE ENERGY PREDICTED BY IDOCK:   -5.13 KCAL/MOL
REMARK 922        TOTAL FREE ENERGY PREDICTED BY IDOCK:   -5.88 KCAL/MOL
REMARK 923 INTER-LIGAND FREE ENERGY PREDICTED BY IDOCK:   -5.66 KCAL/MOL
REMARK 924 INTRA-LIGAND FREE ENERGY PREDICTED BY IDOCK:   -0.22 KCAL/MOL
REMARK 927      BINDING AFFINITY PREDICTED BY RF-SCORE:    0.00 PKD
ROOT
ATOM      1  N   TYR A   1     -11.852  12.361  66.763  1.00  0.00    -0.562 NA 
ATOM      2  CA  TYR A   1     -11.934  13.721  66.138  1.00  0.00    -0.418 C  
ATOM      3  H1  TYR A   1     -12.756  11.897  66.858  1.00  0.00     0.000 HD 
ATOM      4  H2  TYR A   1     -11.375  12.408  67.664  1.00  0.00     0.000 HD 
ATOM      5  C   TYR A   1     -12.598  13.560  64.761  1.00  0.00    -0.301 C  
ATOM      6  OXT TYR A   1     -12.523  14.352  63.834  1.00  0.00    -0.798 OA 
ATOM      7  O   TYR A   1     -13.325  12.412  64.705  1.00  0.00    -0.778 OA 
ENDROOT
BRANCH   2   8
ATOM      8  CB  TYR A   1     -10.571  14.420  65.995  1.00  0.00    -0.304 C  
BRANCH   8   9
ATOM      9  CG  TYR A   1     -10.553  15.811  66.585  1.00  0.00    -0.307 A  
ATOM     10  CD1 TYR A   1     -10.502  16.940  65.754  1.00  0.00    -0.279 A  
ATOM     11  CE1 TYR A   1     -10.450  18.225  66.302  1.00  0.00    -0.397 A  
ATOM     12  CZ  TYR A   1     -10.457  18.379  67.684  1.00  0.00    -0.419 A  
ATOM     13  OH  TYR A   1     -10.397  19.613  68.261  1.00  0.00    -0.431 OA 
ATOM     14  CE2 TYR A   1     -10.520  17.274  68.523  1.00  0.00    -0.375 A  
ATOM     15  CD2 TYR A   1     -10.565  15.990  67.976  1.00  0.00    -0.295 A  
ATOM     16  HH  TYR A   1     -10.401  19.718  69.205  1.00  0.00     0.000 HD 
ENDBRANCH   8   9
ENDBRANCH   2   8
TORSDOF 2
ENDMDL
MODEL       18
REMARK 921   NORMALIZED FREE ENERGY PREDICTED BY IDOCK:   -5.13 KCAL/MOL
REMARK 922        TOTAL FREE ENERGY PREDICTED BY IDOCK:   -5.88 KCAL/MOL
REMARK 923 INTER-LIGAND FREE ENERGY PREDICTED BY IDOCK:   -5.67 KCAL/MOL
REMARK 924 INTRA-LIGAND FREE ENERGY PREDICTED BY IDOCK:   -0.21 KCAL/MOL
REMARK 927      BINDING AFFINITY PREDICTED BY RF-SCORE:    0.00 PKD
ROOT
ATOM      1  N   TYR A   1     -13.028  12.349  64.595  1.00  0.00    -0.802 NA 
ATOM      2  CA  TYR A   1     -12.468  13.401  65.503  1.00  0.00    -0.483 C  
ATOM      3  H1  TYR A   1     -13.768  12.688  63.980  1.00  0.00     0.000 HD 
ATOM      4  H2  TYR A   1     -13.348  11.543  65.132  1.00  0.00     0.000 HD 
ATOM      5  C   TYR A   1     -11.945  14.547  64.621  1.00  0.00    -0.468 C  
ATOM      6  OXT TYR A   1     -11.129  15.392  64.956  1.00  0.00    -0.388 OA 
ATOM      7  O   TYR A   1     -12.539  14.526  63.398  1.00  0.00    -0.673 OA 
ENDROOT
BRANCH   2   8
ATOM      8  CB  TYR A   1     -11.351  12.889  66.429  1.00  0.00    -0.361 C  
BRANCH   8   9
ATOM      9  CG  TYR A   1     -11.641  13.125  67.894  1.00  0.00    -0.375 A  
ATOM     10  CD1 TYR A   1     -11.715  12.048  68.791  1.00  0.00    -0.377 A  
ATOM     11  CE1 TYR A   1     -12.018  12.264  70.138  1.00  0.00    -0.377 A  
ATOM     12  CZ  TYR A   1     -12.239  13.560  70.589  1.00  0.00    -0.358 A  
ATOM     13  OH  TYR A   1     -12.547  13.816  71.893  1.00  0.00    -0.281 OA 
ATOM     14  CE2 TYR A   1     -12.158  14.640  69.719  1.00  0.00    -0.371 A  
ATOM     15  CD2 TYR A   1     -11.862  14.424  68.372  1.00  0.00    -0.354 A  
ATOM     16  HH  TYR A   1     -12.699  14.701  72.201  1.00  0.00     0.000 HD 
ENDBRANCH   8   9
ENDBRANCH   2   8
TORSDOF 2
ENDMDL
MODEL       19
REMARK 921   NORMALIZED FREE ENERGY PREDICTED BY IDOCK:   -5.12 KCAL/MOL
REMARK 922        TOTAL FREE ENERGY PREDICTED BY IDOCK:   -5.87 KCAL/MOL
REMARK 923 INTER-LIGAND FREE ENERGY PREDICTED BY IDOCK:   -5.70 KCAL/MOL
REMARK 924 INTRA-LIGAND FREE ENERGY PREDICTED BY IDOCK:   -0.18 KCAL/MOL
REMARK 927      BINDING AFFINITY PREDICTED BY RF-SCORE:    0.00 PKD
ROOT
ATOM      1  N   TYR A   1     -13.489  13.969  65.467  1.00  0.00    -0.627 NA 
ATOM      2  CA  TYR A   1     -11.991  13.953  65.495  1.00  0.00    -0.383 C  
ATOM      3  H1  TYR A   1     -13.880  14.440  64.651  1.00  0.00     0.000 HD 
ATOM      4  H2  TYR A   1     -13.860  14.372  66.328  1.00  0.00     0.000 HD 
ATOM      5  C   TYR A   1     -11.508  13.272  64.204  1.00  0.00    -0.396 C  
ATOM      6  OXT TYR A   1     -10.409  12.770  64.028  1.00  0.00    -0.415 OA 
ATOM      7  O   TYR A   1     -12.468  13.323  63.242  1.00  0.00    -0.736 OA 
ENDROOT
BRANCH   2   8
ATOM      8  CB  TYR A   1     -11.401  13.243  66.726  1.00  0.00    -0.359 C  
BRANCH   8   9
ATOM      9  CG  TYR A   1     -11.557  14.038  68.001  1.00  0.00    -0.372 A  
ATOM     10  CD1 TYR A   1     -11.984  13.416  69.184  1.00  0.00    -0.363 A  
ATOM     11  CE1 TYR A   1     -12.161  14.159  70.354  1.00  0.00    -0.427 A  
ATOM     12  CZ  TYR A   1     -11.904  15.525  70.342  1.00  0.00    -0.351 A  
ATOM     13  OH  TYR A   1     -12.073  16.291  71.458  1.00  0.00    -0.612 OA 
ATOM     14  CE2 TYR A   1     -11.468  16.157  69.184  1.00  0.00    -0.311 A  
ATOM     15  CD2 TYR A   1     -11.297  15.416  68.013  1.00  0.00    -0.345 A  
ATOM     16  HH  TYR A   1     -11.897  17.224  71.449  1.00  0.00     0.000 HD 
ENDBRANCH   8   9
ENDBRANCH   2   8
TORSDOF 2
ENDMDL
MODEL       20
REMARK 921   NORMALIZED FREE ENERGY PREDICTED BY IDOCK:   -5.12 KCAL/MOL
REMARK 922        TOTAL FREE ENERGY PREDICTED BY IDOCK:   -5.87 KCAL/MOL
REMARK 923 INTER-LIGAND FREE ENERGY PREDICTED BY IDOCK:   -5.67 KCAL/MOL
REMARK 924 INTRA-LIGAND FREE ENERGY PREDICTED BY IDOCK:   -0.20 KCAL/MOL
REMARK 927      BINDING AFFINITY PREDICTED BY RF-SCORE:    0.00 PKD
ROOT
ATOM      1  N   TYR A   1     -10.344  16.159  66.240  1.00  0.00    -0.315 NA 
ATOM      2  CA  TYR A   1     -10.900  14.959  65.535  1.00  0.00    -0.356 C  
ATOM      3  H1  TYR A   1      -9.804  16.778  65.635  1.00  0.00     0.000 HD 
ATOM      4  H2  TYR A   1      -9.792  15.876  67.050  1.00  0.00     0.000 HD 
ATOM      5  C   TYR A   1     -11.772  15.464  64.375  1.00  0.00    -0.258 C  
ATOM      6  OXT TYR A   1     -12.647  14.828  63.807  1.00  0.00    -0.806 OA 
ATOM      7  O   TYR A   1     -11.424  16.731  64.023  1.00  0.00    -1.198 OA 
ENDROOT
BRANCH   2   8
ATOM      8  CB  TYR A   1     -11.714  14.027  66.448  1.00  0.00    -0.407 C  
BRANCH   8   9
ATOM      9  CG  TYR A   1     -11.269  12.584  66.371  1.00  0.00    -0.353 A  
ATOM     10  CD1 TYR A   1     -11.389  11.739  67.484  1.00  0.00    -0.377 A  
ATOM     11  CE1 TYR A   1     -10.945  10.415  67.422  1.00  0.00    -0.335 A  
ATOM     12  CZ  TYR A   1     -10.388   9.935  66.242  1.00  0.00    -0.163 A  
ATOM     13  OH  TYR A   1      -9.933   8.654  66.140  1.00  0.00    -0.406 OA 
ATOM     14  CE2 TYR A   1     -10.273  10.753  65.125  1.00  0.00    -0.365 A  
ATOM     15  CD2 TYR A   1     -10.710  12.077  65.189  1.00  0.00    -0.332 A  
ATOM     16  HH  TYR A   1      -9.552   8.326  65.335  1.00  0.00     0.000 HD 
ENDBRANCH   8   9
ENDBRANCH   2   8
TORSDOF 2
ENDMDL
MODEL       21
REMARK 921   NORMALIZED FREE ENERGY PREDICTED BY IDOCK:   -5.11 KCAL/MOL
REMARK 922        TOTAL FREE ENERGY PREDICTED BY IDOCK:   -5.86 KCAL/MOL
REMARK 923 INTER-LIGAND FREE ENERGY PREDICTED BY IDOCK:   -5.70 KCAL/MOL
REMARK 924 INTRA-LIGAND FREE ENERGY PREDICTED BY IDOCK:   -0.16 KCAL/MOL
REMARK 927      BINDING AFFINITY PREDICTED BY RF-SCORE:    0.00 PKD
ROOT
ATOM      1  N   TYR A   1     -11.638  16.208  63.927  1.00  0.00    -1.469 NA 
ATOM      2  CA  TYR A   1     -11.170  15.037  64.736  1.00  0.00    -0.386 C  
ATOM      3  H1  TYR A   1     -11.575  16.062  62.918  1.00  0.00     0.000 HD 
ATOM      4  H2  TYR A   1     -11.140  17.056  64.199  1.00  0.00     0.000 HD 
ATOM      5  C   TYR A   1     -12.010  13.819  64.321  1.00  0.00    -0.443 C  
ATOM      6  OXT TYR A   1     -12.167  12.801  64.977  1.00  0.00    -0.419 OA 
ATOM      7  O   TYR A   1     -12.550  14.000  63.086  1.00  0.00    -0.733 OA 
ENDROOT
BRANCH   2   8
ATOM      8  CB  TYR A   1     -11.265  15.257  66.256  1.00  0.00    -0.223 C  
BRANCH   8   9
ATOM      9  CG  TYR A   1     -10.143  16.110  66.803  1.00  0.00    -0.275 A  
ATOM     10  CD1 TYR A   1     -10.352  16.941  67.913  1.00  0.00    -0.332 A  
ATOM     11  CE1 TYR A   1      -9.324  17.755  68.396  1.00  0.00    -0.294 A  
ATOM     12  CZ  TYR A   1      -8.082  17.730  67.771  1.00  0.00    -0.226 A  
ATOM     13  OH  TYR A   1      -7.054  18.515  68.203  1.00  0.00    -0.236 OA 
ATOM     14  CE2 TYR A   1      -7.851  16.904  66.679  1.00  0.00    -0.298 A  
ATOM     15  CD2 TYR A   1      -8.880  16.096  66.192  1.00  0.00    -0.367 A  
ATOM     16  HH  TYR A   1      -6.206  18.498  67.776  1.00  0.00     0.000 HD 
ENDBRANCH   8   9
ENDBRANCH   2   8
TORSDOF 2
ENDMDL
MODEL       22
REMARK 921   NORMALIZED FREE ENERGY PREDICTED BY IDOCK:   -5.09 KCAL/MOL
REMARK 922        TOTAL FREE ENERGY PREDICTED BY IDOCK:   -5.83 KCAL/MOL
REMARK 923 INTER-LIGAND FREE ENERGY PREDICTED BY IDOCK:   -5.65 KCAL/MOL
REMARK 924 INTRA-LIGAND FREE ENERGY PREDICTED BY IDOCK:   -0.18 KCAL/MOL
REMARK 927      BINDING AFFINITY PREDICTED BY RF-SCORE:    0.00 PKD
ROOT
ATOM      1  N   TYR A   1     -11.589  13.839  70.421  1.00  0.00    -0.515 NA 
ATOM      2  CA  TYR A   1     -11.843  13.050  69.173  1.00  0.00    -0.310 C  
ATOM      3  H1  TYR A   1     -12.349  13.787  71.102  1.00  0.00     0.000 HD 
ATOM      4  H2  TYR A   1     -11.374  14.810  70.195  1.00  0.00     0.000 HD 
ATOM      5  C   TYR A   1     -12.089  11.590  69.587  1.00  0.00    -0.296 C  
ATOM      6  OXT TYR A   1     -11.984  10.613  68.862  1.00  0.00    -0.330 OA 
ATOM      7  O   TYR A   1     -12.480  11.515  70.888  1.00  0.00    -0.379 OA 
ENDROOT
BRANCH   2   8
ATOM      8  CB  TYR A   1     -10.698  13.127  68.148  1.00  0.00    -0.258 C  
BRANCH   8   9
ATOM      9  CG  TYR A   1     -11.036  13.977  66.944  1.00  0.00    -0.310 A  
ATOM     10  CD1 TYR A   1     -12.101  13.629  66.100  1.00  0.00    -0.477 A  
ATOM     11  CE1 TYR A   1     -12.391  14.395  64.968  1.00  0.00    -0.401 A  
ATOM     12  CZ  TYR A   1     -11.618  15.515  64.685  1.00  0.00    -0.281 A  
ATOM     13  OH  TYR A   1     -11.858  16.286  63.586  1.00  0.00    -1.404 OA 
ATOM     14  CE2 TYR A   1     -10.567  15.883  65.516  1.00  0.00    -0.419 A  
ATOM     15  CD2 TYR A   1     -10.273  15.114  66.643  1.00  0.00    -0.270 A  
ATOM     16  HH  TYR A   1     -11.330  17.051  63.393  1.00  0.00     0.000 HD 
ENDBRANCH   8   9
ENDBRANCH   2   8
TORSDOF 2
ENDMDL
MODEL       23
REMARK 921   NORMALIZED FREE ENERGY PREDICTED BY IDOCK:   -5.08 KCAL/MOL
REMARK 922        TOTAL FREE ENERGY PREDICTED BY IDOCK:   -5.83 KCAL/MOL
REMARK 923 INTER-LIGAND FREE ENERGY PREDICTED BY IDOCK:   -5.78 KCAL/MOL
REMARK 924 INTRA-LIGAND FREE ENERGY PREDICTED BY IDOCK:   -0.05 KCAL/MOL
REMARK 927      BINDING AFFINITY PREDICTED BY RF-SCORE:    0.00 PKD
ROOT
ATOM      1  N   TYR A   1     -12.282  10.741  68.683  1.00  0.00    -0.827 NA 
ATOM      2  CA  TYR A   1     -11.619  12.083  68.611  1.00  0.00    -0.319 C  
ATOM      3  H1  TYR A   1     -12.016  10.194  69.503  1.00  0.00     0.000 HD 
ATOM      4  H2  TYR A   1     -12.114  10.211  67.828  1.00  0.00     0.000 HD 
ATOM      5  C   TYR A   1     -11.973  12.846  69.898  1.00  0.00    -0.307 C  
ATOM      6  OXT TYR A   1     -11.919  14.057  70.050  1.00  0.00    -0.297 OA 
ATOM      7  O   TYR A   1     -12.335  11.986  70.888  1.00  0.00    -0.373 OA 
ENDROOT
BRANCH   2   8
ATOM      8  CB  TYR A   1     -12.020  12.906  67.376  1.00  0.00    -0.360 C  
BRANCH   8   9
ATOM      9  CG  TYR A   1     -11.531  12.306  66.078  1.00  0.00    -0.434 A  
ATOM     10  CD1 TYR A   1     -10.379  11.505  66.050  1.00  0.00    -0.290 A  
ATOM     11  CE1 TYR A   1      -9.908  10.979  64.844  1.00  0.00    -0.327 A  
ATOM     12  CZ  TYR A   1     -10.594  11.248  63.666  1.00  0.00    -0.388 A  
ATOM     13  OH  TYR A   1     -10.165  10.764  62.466  1.00  0.00    -0.741 OA 
ATOM     14  CE2 TYR A   1     -11.744  12.028  63.675  1.00  0.00    -0.587 A  
ATOM     15  CD2 TYR A   1     -12.211  12.560  64.878  1.00  0.00    -0.534 A  
ATOM     16  HH  TYR A   1     -10.634  10.949  61.661  1.00  0.00     0.000 HD 
ENDBRANCH   8   9
ENDBRANCH   2   8
TORSDOF 2
ENDMDL
MODEL       24
REMARK 921   NORMALIZED FREE ENERGY PREDICTED BY IDOCK:   -5.08 KCAL/MOL
REMARK 922        TOTAL FREE ENERGY PREDICTED BY IDOCK:   -5.83 KCAL/MOL
REMARK 923 INTER-LIGAND FREE ENERGY PREDICTED BY IDOCK:   -5.64 KCAL/MOL
REMARK 924 INTRA-LIGAND FREE ENERGY PREDICTED BY IDOCK:   -0.19 KCAL/MOL
REMARK 927      BINDING AFFINITY PREDICTED BY RF-SCORE:    0.00 PKD
ROOT
ATOM      1  N   TYR A   1     -10.436  16.150  66.234  1.00  0.00    -0.318 NA 
ATOM      2  CA  TYR A   1     -10.916  14.915  65.532  1.00  0.00    -0.350 C  
ATOM      3  H1  TYR A   1      -9.932  16.798  65.627  1.00  0.00     0.000 HD 
ATOM      4  H2  TYR A   1      -9.872  15.904  67.047  1.00  0.00     0.000 HD 
ATOM      5  C   TYR A   1     -11.811  15.361  64.365  1.00  0.00    -0.256 C  
ATOM      6  OXT TYR A   1     -12.643  14.671  63.797  1.00  0.00    -0.820 OA 
ATOM      7  O   TYR A   1     -11.540  16.646  64.009  1.00  0.00    -1.197 OA 
ENDROOT
BRANCH   2   8
ATOM      8  CB  TYR A   1     -11.676  13.939  66.445  1.00  0.00    -0.403 C  
BRANCH   8   9
ATOM      9  CG  TYR A   1     -11.162  12.520  66.356  1.00  0.00    -0.353 A  
ATOM     10  CD1 TYR A   1     -10.740  11.989  65.129  1.00  0.00    -0.332 A  
ATOM     11  CE1 TYR A   1     -10.298  10.666  65.041  1.00  0.00    -0.341 A  
ATOM     12  CZ  TYR A   1     -10.272   9.877  66.185  1.00  0.00    -0.207 A  
ATOM     13  OH  TYR A   1      -9.859   8.578  66.144  1.00  0.00    -0.392 OA 
ATOM     14  CE2 TYR A   1     -10.674  10.389  67.412  1.00  0.00    -0.338 A  
ATOM     15  CD2 TYR A   1     -11.122  11.708  67.499  1.00  0.00    -0.333 A  
ATOM     16  HH  TYR A   1      -9.841   8.039  66.925  1.00  0.00     0.000 HD 
ENDBRANCH   8   9
ENDBRANCH   2   8
TORSDOF 2
ENDMDL
MODEL       25
REMARK 921   NORMALIZED FREE ENERGY PREDICTED BY IDOCK:   -5.07 KCAL/MOL
REMARK 922        TOTAL FREE ENERGY PREDICTED BY IDOCK:   -5.81 KCAL/MOL
REMARK 923 INTER-LIGAND FREE ENERGY PREDICTED BY IDOCK:   -5.60 KCAL/MOL
REMARK 924 INTRA-LIGAND FREE ENERGY PREDICTED BY IDOCK:   -0.21 KCAL/MOL
REMARK 927      BINDING AFFINITY PREDICTED BY RF-SCORE:    0.00 PKD
ROOT
ATOM      1  N   TYR A   1     -11.902  12.179  66.718  1.00  0.00    -0.606 NA 
ATOM      2  CA  TYR A   1     -11.875  12.524  68.176  1.00  0.00    -0.317 C  
ATOM      3  H1  TYR A   1     -12.520  12.775  66.165  1.00  0.00     0.000 HD 
ATOM      4  H2  TYR A   1     -12.137  11.196  66.585  1.00  0.00     0.000 HD 
ATOM      5  C   TYR A   1     -11.447  13.996  68.298  1.00  0.00    -0.304 C  
ATOM      6  OXT TYR A   1     -10.983  14.525  69.296  1.00  0.00    -0.250 OA 
ATOM      7  O   TYR A   1     -11.682  14.667  67.139  1.00  0.00    -0.378 OA 
ENDROOT
BRANCH   2   8
ATOM      8  CB  TYR A   1     -10.943  11.627  69.008  1.00  0.00    -0.283 C  
BRANCH   8   9
ATOM      9  CG  TYR A   1     -11.665  10.876  70.103  1.00  0.00    -0.433 A  
ATOM     10  CD1 TYR A   1     -12.621  11.520  70.901  1.00  0.00    -0.438 A  
ATOM     11  CE1 TYR A   1     -13.262  10.834  71.937  1.00  0.00    -0.524 A  
ATOM     12  CZ  TYR A   1     -12.951   9.499  72.167  1.00  0.00    -0.412 A  
ATOM     13  OH  TYR A   1     -13.545   8.794  73.172  1.00  0.00    -0.970 OA 
ATOM     14  CE2 TYR A   1     -12.017   8.840  71.378  1.00  0.00    -0.367 A  
ATOM     15  CD2 TYR A   1     -11.371   9.526  70.349  1.00  0.00    -0.318 A  
ATOM     16  HH  TYR A   1     -13.332   7.882  73.329  1.00  0.00     0.000 HD 
ENDBRANCH   8   9
ENDBRANCH   2   8
TORSDOF 2
ENDMDL
MODEL       26
REMARK 921   NORMALIZED FREE ENERGY PREDICTED BY IDOCK:   -5.05 KCAL/MOL
REMARK 922        TOTAL FREE ENERGY PREDICTED BY IDOCK:   -5.79 KCAL/MOL
REMARK 923 INTER-LIGAND FREE ENERGY PREDICTED BY IDOCK:   -5.57 KCAL/MOL
REMARK 924 INTRA-LIGAND FREE ENERGY PREDICTED BY IDOCK:   -0.22 KCAL/MOL
REMARK 927      BINDING AFFINITY PREDICTED BY RF-SCORE:    0.00 PKD
ROOT
ATOM      1  N   TYR A   1     -10.365   9.808  66.755  1.00  0.00    -0.232 NA 
ATOM      2  CA  TYR A   1     -11.188  10.606  67.720  1.00  0.00    -0.313 C  
ATOM      3  H1  TYR A   1     -10.796   9.702  65.836  1.00  0.00     0.000 HD 
ATOM      4  H2  TYR A   1     -10.131   8.896  67.149  1.00  0.00     0.000 HD 
ATOM      5  C   TYR A   1     -11.439  11.984  67.088  1.00  0.00    -0.335 C  
ATOM      6  OXT TYR A   1     -11.755  13.000  67.688  1.00  0.00    -0.331 OA 
ATOM      7  O   TYR A   1     -11.295  11.931  65.736  1.00  0.00    -0.332 OA 
ENDROOT
BRANCH   2   8
ATOM      8  CB  TYR A   1     -10.537  10.765  69.105  1.00  0.00    -0.254 C  
BRANCH   8   9
ATOM      9  CG  TYR A   1     -11.429  10.307  70.236  1.00  0.00    -0.395 A  
ATOM     10  CD1 TYR A   1     -11.309   9.012  70.762  1.00  0.00    -0.329 A  
ATOM     11  CE1 TYR A   1     -12.159   8.578  71.783  1.00  0.00    -0.391 A  
ATOM     12  CZ  TYR A   1     -13.123   9.445  72.284  1.00  0.00    -0.428 A  
ATOM     13  OH  TYR A   1     -13.979   9.060  73.273  1.00  0.00    -1.205 OA 
ATOM     14  CE2 TYR A   1     -13.249  10.735  71.785  1.00  0.00    -0.523 A  
ATOM     15  CD2 TYR A   1     -12.405  11.167  70.760  1.00  0.00    -0.504 A  
ATOM     16  HH  TYR A   1     -14.638   9.652  73.615  1.00  0.00     0.000 HD 
ENDBRANCH   8   9
ENDBRANCH   2   8
TORSDOF 2
ENDMDL
MODEL       27
REMARK 921   NORMALIZED FREE ENERGY PREDICTED BY IDOCK:   -5.04 KCAL/MOL
REMARK 922        TOTAL FREE ENERGY PREDICTED BY IDOCK:   -5.78 KCAL/MOL
REMARK 923 INTER-LIGAND FREE ENERGY PREDICTED BY IDOCK:   -5.56 KCAL/MOL
REMARK 924 INTRA-LIGAND FREE ENERGY PREDICTED BY IDOCK:   -0.22 KCAL/MOL
REMARK 927      BINDING AFFINITY PREDICTED BY RF-SCORE:    0.00 PKD
ROOT
ATOM      1  N   TYR A   1     -10.051  12.682  64.316  1.00  0.00    -0.563 NA 
ATOM      2  CA  TYR A   1     -10.929  13.678  65.012  1.00  0.00    -0.346 C  
ATOM      3  H1  TYR A   1     -10.541  11.835  64.024  1.00  0.00     0.000 HD 
ATOM      4  H2  TYR A   1      -9.242  12.450  64.893  1.00  0.00     0.000 HD 
ATOM      5  C   TYR A   1     -12.082  14.029  64.058  1.00  0.00    -0.376 C  
ATOM      6  OXT TYR A   1     -12.780  15.030  64.117  1.00  0.00    -0.729 OA 
ATOM      7  O   TYR A   1     -12.258  13.051  63.129  1.00  0.00    -0.607 OA 
ENDROOT
BRANCH   2   8
ATOM      8  CB  TYR A   1     -10.191  14.954  65.450  1.00  0.00    -0.409 C  
BRANCH   8   9
ATOM      9  CG  TYR A   1     -10.564  15.407  66.843  1.00  0.00    -0.309 A  
ATOM     10  CD1 TYR A   1     -10.067  16.612  67.361  1.00  0.00    -0.274 A  
ATOM     11  CE1 TYR A   1     -10.384  17.012  68.662  1.00  0.00    -0.351 A  
ATOM     12  CZ  TYR A   1     -11.207  16.208  69.442  1.00  0.00    -0.335 A  
ATOM     13  OH  TYR A   1     -11.535  16.555  70.720  1.00  0.00    -0.562 OA 
ATOM     14  CE2 TYR A   1     -11.720  15.018  68.943  1.00  0.00    -0.354 A  
ATOM     15  CD2 TYR A   1     -11.398  14.615  67.646  1.00  0.00    -0.350 A  
ATOM     16  HH  TYR A   1     -12.097  16.006  71.253  1.00  0.00     0.000 HD 
ENDBRANCH   8   9
ENDBRANCH   2   8
TORSDOF 2
ENDMDL
MODEL       28
REMARK 921   NORMALIZED FREE ENERGY PREDICTED BY IDOCK:   -5.04 KCAL/MOL
REMARK 922        TOTAL FREE ENERGY PREDICTED BY IDOCK:   -5.78 KCAL/MOL
REMARK 923 INTER-LIGAND FREE ENERGY PREDICTED BY IDOCK:   -5.73 KCAL/MOL
REMARK 924 INTRA-LIGAND FREE ENERGY PREDICTED BY IDOCK:   -0.05 KCAL/MOL
REMARK 927      BINDING AFFINITY PREDICTED BY RF-SCORE:    0.00 PKD
ROOT
ATOM      1  N   TYR A   1     -13.279  13.941  65.083  1.00  0.00    -0.690 NA 
ATOM      2  CA  TYR A   1     -11.914  13.906  64.464  1.00  0.00    -0.437 C  
ATOM      3  H1  TYR A   1     -14.039  13.864  64.406  1.00  0.00     0.000 HD 
ATOM      4  H2  TYR A   1     -13.392  14.777  65.657  1.00  0.00     0.000 HD 
ATOM      5  C   TYR A   1     -11.794  12.592  63.676  1.00  0.00    -0.530 C  
ATOM      6  OXT TYR A   1     -10.751  12.052  63.340  1.00  0.00    -0.415 OA 
ATOM      7  O   TYR A   1     -13.023  12.102  63.361  1.00  0.00    -0.776 OA 
ENDROOT
BRANCH   2   8
ATOM      8  CB  TYR A   1     -10.768  14.023  65.484  1.00  0.00    -0.317 C  
BRANCH   8   9
ATOM      9  CG  TYR A   1     -11.168  13.593  66.877  1.00  0.00    -0.326 A  
ATOM     10  CD1 TYR A   1     -11.456  14.547  67.865  1.00  0.00    -0.348 A  
ATOM     11  CE1 TYR A   1     -11.791  14.149  69.162  1.00  0.00    -0.380 A  
ATOM     12  CZ  TYR A   1     -11.846  12.794  69.468  1.00  0.00    -0.316 A  
ATOM     13  OH  TYR A   1     -12.159  12.361  70.723  1.00  0.00    -0.456 OA 
ATOM     14  CE2 TYR A   1     -11.578  11.835  68.500  1.00  0.00    -0.380 A  
ATOM     15  CD2 TYR A   1     -11.236  12.232  67.207  1.00  0.00    -0.358 A  
ATOM     16  HH  TYR A   1     -12.196  11.436  70.932  1.00  0.00     0.000 HD 
ENDBRANCH   8   9
ENDBRANCH   2   8
TORSDOF 2
ENDMDL
MODEL       29
REMARK 921   NORMALIZED FREE ENERGY PREDICTED BY IDOCK:   -5.04 KCAL/MOL
REMARK 922        TOTAL FREE ENERGY PREDICTED BY IDOCK:   -5.78 KCAL/MOL
REMARK 923 INTER-LIGAND FREE ENERGY PREDICTED BY IDOCK:   -5.64 KCAL/MOL
REMARK 924 INTRA-LIGAND FREE ENERGY PREDICTED BY IDOCK:   -0.14 KCAL/MOL
REMARK 927      BINDING AFFINITY PREDICTED BY RF-SCORE:    0.00 PKD
ROOT
ATOM      1  N   TYR A   1     -14.253  15.459  70.812  1.00  0.00    -0.811 NA 
ATOM      2  CA  TYR A   1     -13.078  14.901  71.557  1.00  0.00    -0.356 C  
ATOM      3  H1  TYR A   1     -15.131  15.408  71.331  1.00  0.00     0.000 HD 
ATOM      4  H2  TYR A   1     -14.347  15.011  69.901  1.00  0.00     0.000 HD 
ATOM      5  C   TYR A   1     -12.960  15.670  72.882  1.00  0.00    -0.497 C  
ATOM      6  OXT TYR A   1     -11.958  15.749  73.577  1.00  0.00    -0.432 OA 
ATOM      7  O   TYR A   1     -14.146  16.245  73.217  1.00  0.00    -0.434 OA 
ENDROOT
BRANCH   2   8
ATOM      8  CB  TYR A   1     -11.756  14.979  70.775  1.00  0.00    -0.371 C  
BRANCH   8   9
ATOM      9  CG  TYR A   1     -11.801  14.239  69.458  1.00  0.00    -0.378 A  
ATOM     10  CD1 TYR A   1     -11.723  12.839  69.422  1.00  0.00    -0.380 A  
ATOM     11  CE1 TYR A   1     -11.729  12.157  68.202  1.00  0.00    -0.402 A  
ATOM     12  CZ  TYR A   1     -11.821  12.878  67.017  1.00  0.00    -0.374 A  
ATOM     13  OH  TYR A   1     -11.821  12.255  65.804  1.00  0.00    -0.434 OA 
ATOM     14  CE2 TYR A   1     -11.913  14.264  67.033  1.00  0.00    -0.463 A  
ATOM     15  CD2 TYR A   1     -11.900  14.945  68.251  1.00  0.00    -0.308 A  
ATOM     16  HH  TYR A   1     -11.884  12.748  64.995  1.00  0.00     0.000 HD 
ENDBRANCH   8   9
ENDBRANCH   2   8
TORSDOF 2
ENDMDL
MODEL       30
REMARK 921   NORMALIZED FREE ENERGY PREDICTED BY IDOCK:   -5.03 KCAL/MOL
REMARK 922        TOTAL FREE ENERGY PREDICTED BY IDOCK:   -5.77 KCAL/MOL
REMARK 923 INTER-LIGAND FREE ENERGY PREDICTED BY IDOCK:   -5.67 KCAL/MOL
REMARK 924 INTRA-LIGAND FREE ENERGY PREDICTED BY IDOCK:   -0.10 KCAL/MOL
REMARK 927      BINDING AFFINITY PREDICTED BY RF-SCORE:    0.00 PKD
ROOT
ATOM      1  N   TYR A   1      -9.918  13.335  64.186  1.00  0.00    -0.760 NA 
ATOM      2  CA  TYR A   1     -10.908  13.482  65.302  1.00  0.00    -0.310 C  
ATOM      3  H1  TYR A   1     -10.117  12.553  63.561  1.00  0.00     0.000 HD 
ATOM      4  H2  TYR A   1      -8.969  13.271  64.554  1.00  0.00     0.000 HD 
ATOM      5  C   TYR A   1     -12.300  13.643  64.672  1.00  0.00    -0.371 C  
ATOM      6  OXT TYR A   1     -13.282  14.124  65.217  1.00  0.00    -0.760 OA 
ATOM      7  O   TYR A   1     -12.320  13.143  63.406  1.00  0.00    -0.705 OA 
ENDROOT
BRANCH   2   8
ATOM      8  CB  TYR A   1     -10.609  14.661  66.244  1.00  0.00    -0.306 C  
BRANCH   8   9
ATOM      9  CG  TYR A   1     -11.183  14.473  67.630  1.00  0.00    -0.335 A  
ATOM     10  CD1 TYR A   1     -11.578  15.580  68.396  1.00  0.00    -0.368 A  
ATOM     11  CE1 TYR A   1     -12.075  15.408  69.691  1.00  0.00    -0.354 A  
ATOM     12  CZ  TYR A   1     -12.185  14.126  70.215  1.00  0.00    -0.349 A  
ATOM     13  OH  TYR A   1     -12.655  13.912  71.477  1.00  0.00    -0.341 OA 
ATOM     14  CE2 TYR A   1     -11.811  13.016  69.467  1.00  0.00    -0.385 A  
ATOM     15  CD2 TYR A   1     -11.308  13.188  68.177  1.00  0.00    -0.328 A  
ATOM     16  HH  TYR A   1     -12.730  13.036  71.836  1.00  0.00     0.000 HD 
ENDBRANCH   8   9
ENDBRANCH   2   8
TORSDOF 2
ENDMDL
MODEL       31
REMARK 921   NORMALIZED FREE ENERGY PREDICTED BY IDOCK:   -5.02 KCAL/MOL
REMARK 922        TOTAL FREE ENERGY PREDICTED BY IDOCK:   -5.76 KCAL/MOL
REMARK 923 INTER-LIGAND FREE ENERGY PREDICTED BY IDOCK:   -5.57 KCAL/MOL
REMARK 924 INTRA-LIGAND FREE ENERGY PREDICTED BY IDOCK:   -0.19 KCAL/MOL
REMARK 927      BINDING AFFINITY PREDICTED BY RF-SCORE:    0.00 PKD
ROOT
ATOM      1  N   TYR A   1      -9.549  15.185  69.805  1.00  0.00    -0.458 NA 
ATOM      2  CA  TYR A   1     -10.875  14.683  69.318  1.00  0.00    -0.258 C  
ATOM      3  H1  TYR A   1      -9.610  16.051  70.342  1.00  0.00     0.000 HD 
ATOM      4  H2  TYR A   1      -8.896  15.288  69.028  1.00  0.00     0.000 HD 
ATOM      5  C   TYR A   1     -11.779  14.488  70.545  1.00  0.00    -0.276 C  
ATOM      6  OXT TYR A   1     -12.775  13.784  70.595  1.00  0.00    -0.313 OA 
ATOM      7  O   TYR A   1     -11.342  15.237  71.593  1.00  0.00    -0.390 OA 
ENDROOT
BRANCH   2   8
ATOM      8  CB  TYR A   1     -10.784  13.378  68.509  1.00  0.00    -0.278 C  
BRANCH   8   9
ATOM      9  CG  TYR A   1     -11.240  13.535  67.076  1.00  0.00    -0.330 A  
ATOM     10  CD1 TYR A   1     -11.868  12.475  66.406  1.00  0.00    -0.445 A  
ATOM     11  CE1 TYR A   1     -12.258  12.609  65.070  1.00  0.00    -0.535 A  
ATOM     12  CZ  TYR A   1     -12.025  13.809  64.408  1.00  0.00    -0.445 A  
ATOM     13  OH  TYR A   1     -12.379  13.981  63.103  1.00  0.00    -1.133 OA 
ATOM     14  CE2 TYR A   1     -11.416  14.874  65.059  1.00  0.00    -0.379 A  
ATOM     15  CD2 TYR A   1     -11.021  14.738  66.391  1.00  0.00    -0.331 A  
ATOM     16  HH  TYR A   1     -12.220  14.800  62.650  1.00  0.00     0.000 HD 
ENDBRANCH   8   9
ENDBRANCH   2   8
TORSDOF 2
ENDMDL
MODEL       32
REMARK 921   NORMALIZED FREE ENERGY PREDICTED BY IDOCK:   -5.02 KCAL/MOL
REMARK 922        TOTAL FREE ENERGY PREDICTED BY IDOCK:   -5.76 KCAL/MOL
REMARK 923 INTER-LIGAND FREE ENERGY PREDICTED BY IDOCK:   -5.54 KCAL/MOL
REMARK 924 INTRA-LIGAND FREE ENERGY PREDICTED BY IDOCK:   -0.22 KCAL/MOL
REMARK 927      BINDING AFFINITY PREDICTED BY RF-SCORE:    0.00 PKD
ROOT
ATOM      1  N   TYR A   1     -10.139  16.246  67.328  1.00  0.00    -0.259 NA 
ATOM      2  CA  TYR A   1     -10.445  15.602  66.010  1.00  0.00    -0.331 C  
ATOM      3  H1  TYR A   1      -9.443  16.991  67.270  1.00  0.00     0.000 HD 
ATOM      4  H2  TYR A   1      -9.859  15.545  68.015  1.00  0.00     0.000 HD 
ATOM      5  C   TYR A   1     -10.924  16.705  65.053  1.00  0.00    -0.162 C  
ATOM      6  OXT TYR A   1     -11.579  16.536  64.036  1.00  0.00    -1.154 OA 
ATOM      7  O   TYR A   1     -10.494  17.927  65.468  1.00  0.00    -0.650 OA 
ENDROOT
BRANCH   2   8
ATOM      8  CB  TYR A   1     -11.493  14.480  66.098  1.00  0.00    -0.357 C  
BRANCH   8   9
ATOM      9  CG  TYR A   1     -11.080  13.223  65.366  1.00  0.00    -0.300 A  
ATOM     10  CD1 TYR A   1     -10.249  12.277  65.983  1.00  0.00    -0.267 A  
ATOM     11  CE1 TYR A   1      -9.839  11.133  65.293  1.00  0.00    -0.296 A  
ATOM     12  CZ  TYR A   1     -10.269  10.933  63.986  1.00  0.00    -0.357 A  
ATOM     13  OH  TYR A   1      -9.886   9.836  63.272  1.00  0.00    -0.471 OA 
ATOM     14  CE2 TYR A   1     -11.103  11.852  63.362  1.00  0.00    -0.463 A  
ATOM     15  CD2 TYR A   1     -11.507  12.998  64.049  1.00  0.00    -0.473 A  
ATOM     16  HH  TYR A   1     -10.180   9.700  62.379  1.00  0.00     0.000 HD 
ENDBRANCH   8   9
ENDBRANCH   2   8
TORSDOF 2
ENDMDL
MODEL       33
REMARK 921   NORMALIZED FREE ENERGY PREDICTED BY IDOCK:   -5.01 KCAL/MOL
REMARK 922        TOTAL FREE ENERGY PREDICTED BY IDOCK:   -5.75 KCAL/MOL
REMARK 923 INTER-LIGAND FREE ENERGY PREDICTED BY IDOCK:   -5.53 KCAL/MOL
REMARK 924 INTRA-LIGAND FREE ENERGY PREDICTED BY IDOCK:   -0.22 KCAL/MOL
REMARK 927      BINDING AFFINITY PREDICTED BY RF-SCORE:    0.00 PKD
ROOT
ATOM      1  N   TYR A   1      -8.877   9.034  67.863  1.00  0.00    -0.129 NA 
ATOM      2  CA  TYR A   1     -10.213   9.529  68.328  1.00  0.00    -0.193 C  
ATOM      3  H1  TYR A   1      -8.913   8.520  66.981  1.00  0.00     0.000 HD 
ATOM      4  H2  TYR A   1      -8.429   8.473  68.588  1.00  0.00     0.000 HD 
ATOM      5  C   TYR A   1     -10.793  10.418  67.216  1.00  0.00    -0.264 C  
ATOM      6  OXT TYR A   1     -11.668  11.259  67.356  1.00  0.00    -0.580 OA 
ATOM      7  O   TYR A   1     -10.221  10.130  66.017  1.00  0.00    -0.252 OA 
ENDROOT
BRANCH   2   8
ATOM      8  CB  TYR A   1     -10.159  10.302  69.656  1.00  0.00    -0.257 C  
BRANCH   8   9
ATOM      9  CG  TYR A   1     -11.264   9.916  70.613  1.00  0.00    -0.416 A  
ATOM     10  CD1 TYR A   1     -12.282  10.826  70.934  1.00  0.00    -0.487 A  
ATOM     11  CE1 TYR A   1     -13.283  10.481  71.846  1.00  0.00    -0.526 A  
ATOM     12  CZ  TYR A   1     -13.269   9.220  72.431  1.00  0.00    -0.426 A  
ATOM     13  OH  TYR A   1     -14.220   8.845  73.333  1.00  0.00    -1.241 OA 
ATOM     14  CE2 TYR A   1     -12.276   8.301  72.116  1.00  0.00    -0.418 A  
ATOM     15  CD2 TYR A   1     -11.272   8.648  71.211  1.00  0.00    -0.338 A  
ATOM     16  HH  TYR A   1     -14.210   7.984  73.733  1.00  0.00     0.000 HD 
ENDBRANCH   8   9
ENDBRANCH   2   8
TORSDOF 2
ENDMDL
MODEL       34
REMARK 921   NORMALIZED FREE ENERGY PREDICTED BY IDOCK:   -5.00 KCAL/MOL
REMARK 922        TOTAL FREE ENERGY PREDICTED BY IDOCK:   -5.73 KCAL/MOL
REMARK 923 INTER-LIGAND FREE ENERGY PREDICTED BY IDOCK:   -5.57 KCAL/MOL
REMARK 924 INTRA-LIGAND FREE ENERGY PREDICTED BY IDOCK:   -0.16 KCAL/MOL
REMARK 927      BINDING AFFINITY PREDICTED BY RF-SCORE:    0.00 PKD
ROOT
ATOM      1  N   TYR A   1     -14.385   8.908  72.962  1.00  0.00    -1.154 NA 
ATOM      2  CA  TYR A   1     -13.565   8.787  71.714  1.00  0.00    -0.410 C  
ATOM      3  H1  TYR A   1     -15.276   8.412  72.918  1.00  0.00     0.000 HD 
ATOM      4  H2  TYR A   1     -14.530   9.888  73.204  1.00  0.00     0.000 HD 
ATOM      5  C   TYR A   1     -13.330   7.291  71.453  1.00  0.00    -0.331 C  
ATOM      6  OXT TYR A   1     -12.444   6.816  70.759  1.00  0.00    -0.351 OA 
ATOM      7  O   TYR A   1     -14.271   6.536  72.082  1.00  0.00    -0.103 OA 
ENDROOT
BRANCH   2   8
ATOM      8  CB  TYR A   1     -12.222   9.535  71.780  1.00  0.00    -0.465 C  
BRANCH   8   9
ATOM      9  CG  TYR A   1     -12.262  10.889  71.110  1.00  0.00    -0.441 A  
ATOM     10  CD1 TYR A   1     -11.721  11.069  69.828  1.00  0.00    -0.410 A  
ATOM     11  CE1 TYR A   1     -11.728  12.329  69.224  1.00  0.00    -0.388 A  
ATOM     12  CZ  TYR A   1     -12.284  13.408  69.901  1.00  0.00    -0.271 A  
ATOM     13  OH  TYR A   1     -12.303  14.657  69.353  1.00  0.00    -0.510 OA 
ATOM     14  CE2 TYR A   1     -12.836  13.247  71.165  1.00  0.00    -0.363 A  
ATOM     15  CD2 TYR A   1     -12.824  11.990  71.772  1.00  0.00    -0.377 A  
ATOM     16  HH  TYR A   1     -12.682  15.394  69.816  1.00  0.00     0.000 HD 
ENDBRANCH   8   9
ENDBRANCH   2   8
TORSDOF 2
ENDMDL
MODEL       35
REMARK 921   NORMALIZED FREE ENERGY PREDICTED BY IDOCK:   -4.94 KCAL/MOL
REMARK 922        TOTAL FREE ENERGY PREDICTED BY IDOCK:   -5.67 KCAL/MOL
REMARK 923 INTER-LIGAND FREE ENERGY PREDICTED BY IDOCK:   -5.46 KCAL/MOL
REMARK 924 INTRA-LIGAND FREE ENERGY PREDICTED BY IDOCK:   -0.20 KCAL/MOL
REMARK 927      BINDING AFFINITY PREDICTED BY RF-SCORE:    0.00 PKD
ROOT
ATOM      1  N   TYR A   1      -8.072  17.701  65.842  1.00  0.00    -0.554 NA 
ATOM      2  CA  TYR A   1      -9.549  17.629  66.087  1.00  0.00    -0.188 C  
ATOM      3  H1  TYR A   1      -7.801  18.423  65.173  1.00  0.00     0.000 HD 
ATOM      4  H2  TYR A   1      -7.710  16.792  65.555  1.00  0.00     0.000 HD 
ATOM      5  C   TYR A   1     -10.007  19.011  66.579  1.00  0.00    -0.385 C  
ATOM      6  OXT TYR A   1     -11.033  19.246  67.199  1.00  0.00    -0.476 OA 
ATOM      7  O   TYR A   1      -9.124  19.976  66.206  1.00  0.00    -0.357 OA 
ENDROOT
BRANCH   2   8
ATOM      8  CB  TYR A   1      -9.956  16.541  67.095  1.00  0.00    -0.266 C  
BRANCH   8   9
ATOM      9  CG  TYR A   1     -10.843  15.476  66.493  1.00  0.00    -0.284 A  
ATOM     10  CD1 TYR A   1     -11.572  14.603  67.315  1.00  0.00    -0.404 A  
ATOM     11  CE1 TYR A   1     -12.364  13.596  66.757  1.00  0.00    -0.354 A  
ATOM     12  CZ  TYR A   1     -12.433  13.468  65.375  1.00  0.00    -0.497 A  
ATOM     13  OH  TYR A   1     -13.186  12.494  64.788  1.00  0.00    -0.839 OA 
ATOM     14  CE2 TYR A   1     -11.730  14.331  64.544  1.00  0.00    -0.431 A  
ATOM     15  CD2 TYR A   1     -10.933  15.333  65.101  1.00  0.00    -0.428 A  
ATOM     16  HH  TYR A   1     -13.233  12.406  63.844  1.00  0.00     0.000 HD 
ENDBRANCH   8   9
ENDBRANCH   2   8
TORSDOF 2
ENDMDL
MODEL       36
REMARK 921   NORMALIZED FREE ENERGY PREDICTED BY IDOCK:   -4.92 KCAL/MOL
REMARK 922        TOTAL FREE ENERGY PREDICTED BY IDOCK:   -5.65 KCAL/MOL
REMARK 923 INTER-LIGAND FREE ENERGY PREDICTED BY IDOCK:   -5.46 KCAL/MOL
REMARK 924 INTRA-LIGAND FREE ENERGY PREDICTED BY IDOCK:   -0.19 KCAL/MOL
REMARK 927      BINDING AFFINITY PREDICTED BY RF-SCORE:    0.00 PKD
ROOT
ATOM      1  N   TYR A   1     -12.446  15.040  63.997  1.00  0.00    -0.993 NA 
ATOM      2  CA  TYR A   1     -11.670  14.307  65.048  1.00  0.00    -0.383 C  
ATOM      3  H1  TYR A   1     -12.402  14.605  63.075  1.00  0.00     0.000 HD 
ATOM      4  H2  TYR A   1     -12.153  16.016  63.949  1.00  0.00     0.000 HD 
ATOM      5  C   TYR A   1     -12.213  12.870  65.110  1.00  0.00    -0.470 C  
ATOM      6  OXT TYR A   1     -12.087  12.098  66.048  1.00  0.00    -0.612 OA 
ATOM      7  O   TYR A   1     -12.842  12.540  63.951  1.00  0.00    -0.714 OA 
ENDROOT
BRANCH   2   8
ATOM      8  CB  TYR A   1     -11.737  14.963  66.438  1.00  0.00    -0.193 C  
BRANCH   8   9
ATOM      9  CG  TYR A   1     -10.553  15.857  66.730  1.00  0.00    -0.309 A  
ATOM     10  CD1 TYR A   1      -9.357  15.716  66.011  1.00  0.00    -0.384 A  
ATOM     11  CE1 TYR A   1      -8.252  16.519  66.306  1.00  0.00    -0.360 A  
ATOM     12  CZ  TYR A   1      -8.347  17.469  67.316  1.00  0.00    -0.213 A  
ATOM     13  OH  TYR A   1      -7.291  18.267  67.644  1.00  0.00    -0.208 OA 
ATOM     14  CE2 TYR A   1      -9.528  17.632  68.030  1.00  0.00    -0.282 A  
ATOM     15  CD2 TYR A   1     -10.630  16.826  67.741  1.00  0.00    -0.341 A  
ATOM     16  HH  TYR A   1      -7.357  18.916  68.335  1.00  0.00     0.000 HD 
ENDBRANCH   8   9
ENDBRANCH   2   8
TORSDOF 2
ENDMDL
MODEL       37
REMARK 921   NORMALIZED FREE ENERGY PREDICTED BY IDOCK:   -4.91 KCAL/MOL
REMARK 922        TOTAL FREE ENERGY PREDICTED BY IDOCK:   -5.63 KCAL/MOL
REMARK 923 INTER-LIGAND FREE ENERGY PREDICTED BY IDOCK:   -5.43 KCAL/MOL
REMARK 924 INTRA-LIGAND FREE ENERGY PREDICTED BY IDOCK:   -0.21 KCAL/MOL
REMARK 927      BINDING AFFINITY PREDICTED BY RF-SCORE:    0.00 PKD
ROOT
ATOM      1  N   TYR A   1     -11.996  13.068  70.515  1.00  0.00    -0.534 NA 
ATOM      2  CA  TYR A   1     -11.712  12.253  69.290  1.00  0.00    -0.330 C  
ATOM      3  H1  TYR A   1     -12.751  12.694  71.092  1.00  0.00     0.000 HD 
ATOM      4  H2  TYR A   1     -12.182  14.040  70.265  1.00  0.00     0.000 HD 
ATOM      5  C   TYR A   1     -11.375  10.825  69.749  1.00  0.00    -0.300 C  
ATOM      6  OXT TYR A   1     -10.765   9.990  69.100  1.00  0.00    -0.201 OA 
ATOM      7  O   TYR A   1     -11.878  10.584  70.990  1.00  0.00    -0.350 OA 
ENDROOT
BRANCH   2   8
ATOM      8  CB  TYR A   1     -10.575  12.816  68.421  1.00  0.00    -0.262 C  
BRANCH   8   9
ATOM      9  CG  TYR A   1     -11.039  13.264  67.054  1.00  0.00    -0.304 A  
ATOM     10  CD1 TYR A   1     -10.938  14.610  66.670  1.00  0.00    -0.323 A  
ATOM     11  CE1 TYR A   1     -11.400  15.029  65.420  1.00  0.00    -0.328 A  
ATOM     12  CZ  TYR A   1     -11.957  14.099  64.550  1.00  0.00    -0.458 A  
ATOM     13  OH  TYR A   1     -12.429  14.465  63.324  1.00  0.00    -1.099 OA 
ATOM     14  CE2 TYR A   1     -12.053  12.760  64.906  1.00  0.00    -0.490 A  
ATOM     15  CD2 TYR A   1     -11.598  12.342  66.158  1.00  0.00    -0.450 A  
ATOM     16  HH  TYR A   1     -12.809  13.830  62.730  1.00  0.00     0.000 HD 
ENDBRANCH   8   9
ENDBRANCH   2   8
TORSDOF 2
ENDMDL
MODEL       38
REMARK 921   NORMALIZED FREE ENERGY PREDICTED BY IDOCK:   -4.89 KCAL/MOL
REMARK 922        TOTAL FREE ENERGY PREDICTED BY IDOCK:   -5.62 KCAL/MOL
REMARK 923 INTER-LIGAND FREE ENERGY PREDICTED BY IDOCK:   -5.53 KCAL/MOL
REMARK 924 INTRA-LIGAND FREE ENERGY PREDICTED BY IDOCK:   -0.09 KCAL/MOL
REMARK 927      BINDING AFFINITY PREDICTED BY RF-SCORE:    0.00 PKD
ROOT
ATOM      1  N   TYR A   1     -10.611  14.851  64.565  1.00  0.00    -0.556 NA 
ATOM      2  CA  TYR A   1     -11.213  13.622  65.176  1.00  0.00    -0.310 C  
ATOM      3  H1  TYR A   1     -10.381  14.748  63.576  1.00  0.00     0.000 HD 
ATOM      4  H2  TYR A   1      -9.794  15.153  65.095  1.00  0.00     0.000 HD 
ATOM      5  C   TYR A   1     -12.473  13.270  64.370  1.00  0.00    -0.290 C  
ATOM      6  OXT TYR A   1     -13.398  12.573  64.756  1.00  0.00    -0.773 OA 
ATOM      7  O   TYR A   1     -12.421  13.818  63.126  1.00  0.00    -0.786 OA 
ENDROOT
BRANCH   2   8
ATOM      8  CB  TYR A   1     -11.560  13.779  66.667  1.00  0.00    -0.392 C  
BRANCH   8   9
ATOM      9  CG  TYR A   1     -11.412  12.493  67.449  1.00  0.00    -0.404 A  
ATOM     10  CD1 TYR A   1     -10.865  11.350  66.848  1.00  0.00    -0.335 A  
ATOM     11  CE1 TYR A   1     -10.761  10.152  67.561  1.00  0.00    -0.347 A  
ATOM     12  CZ  TYR A   1     -11.199  10.102  68.879  1.00  0.00    -0.170 A  
ATOM     13  OH  TYR A   1     -11.126   8.953  69.609  1.00  0.00    -0.395 OA 
ATOM     14  CE2 TYR A   1     -11.732  11.227  69.495  1.00  0.00    -0.415 A  
ATOM     15  CD2 TYR A   1     -11.841  12.422  68.782  1.00  0.00    -0.358 A  
ATOM     16  HH  TYR A   1     -11.426   8.918  70.509  1.00  0.00     0.000 HD 
ENDBRANCH   8   9
ENDBRANCH   2   8
TORSDOF 2
ENDMDL
MODEL       39
REMARK 921   NORMALIZED FREE ENERGY PREDICTED BY IDOCK:   -4.83 KCAL/MOL
REMARK 922        TOTAL FREE ENERGY PREDICTED BY IDOCK:   -5.55 KCAL/MOL
REMARK 923 INTER-LIGAND FREE ENERGY PREDICTED BY IDOCK:   -5.34 KCAL/MOL
REMARK 924 INTRA-LIGAND FREE ENERGY PREDICTED BY IDOCK:   -0.21 KCAL/MOL
REMARK 927      BINDING AFFINITY PREDICTED BY RF-SCORE:    0.00 PKD
ROOT
ATOM      1  N   TYR A   1     -12.079  14.757  68.808  1.00  0.00    -0.551 NA 
ATOM      2  CA  TYR A   1     -11.437  14.632  67.459  1.00  0.00    -0.361 C  
ATOM      3  H1  TYR A   1     -11.436  15.055  69.543  1.00  0.00     0.000 HD 
ATOM      4  H2  TYR A   1     -12.544  13.887  69.067  1.00  0.00     0.000 HD 
ATOM      5  C   TYR A   1     -10.820  15.995  67.109  1.00  0.00    -0.239 C  
ATOM      6  OXT TYR A   1     -10.529  16.382  65.987  1.00  0.00    -0.329 OA 
ATOM      7  O   TYR A   1     -10.600  16.731  68.231  1.00  0.00    -0.318 OA 
ENDROOT
BRANCH   2   8
ATOM      8  CB  TYR A   1     -12.406  14.184  66.351  1.00  0.00    -0.431 C  
BRANCH   8   9
ATOM      9  CG  TYR A   1     -11.797  13.178  65.402  1.00  0.00    -0.410 A  
ATOM     10  CD1 TYR A   1     -10.541  12.613  65.667  1.00  0.00    -0.299 A  
ATOM     11  CE1 TYR A   1      -9.964  11.709  64.771  1.00  0.00    -0.292 A  
ATOM     12  CZ  TYR A   1     -10.648  11.366  63.611  1.00  0.00    -0.412 A  
ATOM     13  OH  TYR A   1     -10.119  10.496  62.704  1.00  0.00    -0.722 OA 
ATOM     14  CE2 TYR A   1     -11.899  11.905  63.337  1.00  0.00    -0.512 A  
ATOM     15  CD2 TYR A   1     -12.473  12.812  64.228  1.00  0.00    -0.461 A  
ATOM     16  HH  TYR A   1     -10.586  10.262  61.911  1.00  0.00     0.000 HD 
ENDBRANCH   8   9
ENDBRANCH   2   8
TORSDOF 2
ENDMDL
MODEL       40
REMARK 921   NORMALIZED FREE ENERGY PREDICTED BY IDOCK:   -4.81 KCAL/MOL
REMARK 922        TOTAL FREE ENERGY PREDICTED BY IDOCK:   -5.53 KCAL/MOL
REMARK 923 INTER-LIGAND FREE ENERGY PREDICTED BY IDOCK:   -5.42 KCAL/MOL
REMARK 924 INTRA-LIGAND FREE ENERGY PREDICTED BY IDOCK:   -0.11 KCAL/MOL
REMARK 927      BINDING AFFINITY PREDICTED BY RF-SCORE:    0.00 PKD
ROOT
ATOM      1  N   TYR A   1     -11.305   9.578  69.334  1.00  0.00    -0.443 NA 
ATOM      2  CA  TYR A   1     -11.501   9.886  70.788  1.00  0.00    -0.354 C  
ATOM      3  H1  TYR A   1     -10.391   9.176  69.119  1.00  0.00     0.000 HD 
ATOM      4  H2  TYR A   1     -11.477  10.406  68.764  1.00  0.00     0.000 HD 
ATOM      5  C   TYR A   1     -11.293   8.582  71.573  1.00  0.00    -0.283 C  
ATOM      6  OXT TYR A   1     -11.699   8.353  72.702  1.00  0.00    -0.386 OA 
ATOM      7  O   TYR A   1     -10.555   7.695  70.852  1.00  0.00    -0.211 OA 
ENDROOT
BRANCH   2   8
ATOM      8  CB  TYR A   1     -12.877  10.491  71.112  1.00  0.00    -0.513 C  
BRANCH   8   9
ATOM      9  CG  TYR A   1     -12.846  11.996  71.255  1.00  0.00    -0.364 A  
ATOM     10  CD1 TYR A   1     -12.123  12.785  70.348  1.00  0.00    -0.382 A  
ATOM     11  CE1 TYR A   1     -12.066  14.173  70.502  1.00  0.00    -0.420 A  
ATOM     12  CZ  TYR A   1     -12.740  14.771  71.561  1.00  0.00    -0.330 A  
ATOM     13  OH  TYR A   1     -12.703  16.121  71.755  1.00  0.00    -0.530 OA 
ATOM     14  CE2 TYR A   1     -13.471  14.008  72.461  1.00  0.00    -0.661 A  
ATOM     15  CD2 TYR A   1     -13.523  12.621  72.312  1.00  0.00    -0.541 A  
ATOM     16  HH  TYR A   1     -13.163  16.529  72.478  1.00  0.00     0.000 HD 
ENDBRANCH   8   9
ENDBRANCH   2   8
TORSDOF 2
ENDMDL
MODEL       41
REMARK 921   NORMALIZED FREE ENERGY PREDICTED BY IDOCK:   -4.79 KCAL/MOL
REMARK 922        TOTAL FREE ENERGY PREDICTED BY IDOCK:   -5.50 KCAL/MOL
REMARK 923 INTER-LIGAND FREE ENERGY PREDICTED BY IDOCK:   -5.28 KCAL/MOL
REMARK 924 INTRA-LIGAND FREE ENERGY PREDICTED BY IDOCK:   -0.22 KCAL/MOL
REMARK 927      BINDING AFFINITY PREDICTED BY RF-SCORE:    0.00 PKD
ROOT
ATOM      1  N   TYR A   1     -14.123   9.029  73.154  1.00  0.00    -1.223 NA 
ATOM      2  CA  TYR A   1     -12.972   8.774  72.229  1.00  0.00    -0.408 C  
ATOM      3  H1  TYR A   1     -13.958   9.787  73.816  1.00  0.00     0.000 HD 
ATOM      4  H2  TYR A   1     -14.387   8.174  73.644  1.00  0.00     0.000 HD 
ATOM      5  C   TYR A   1     -12.679  10.083  71.479  1.00  0.00    -0.429 C  
ATOM      6  OXT TYR A   1     -12.071  10.182  70.424  1.00  0.00    -0.272 OA 
ATOM      7  O   TYR A   1     -13.164  11.153  72.163  1.00  0.00    -0.481 OA 
ENDROOT
BRANCH   2   8
ATOM      8  CB  TYR A   1     -13.221   7.631  71.230  1.00  0.00    -0.276 C  
BRANCH   8   9
ATOM      9  CG  TYR A   1     -12.044   6.693  71.095  1.00  0.00    -0.391 A  
ATOM     10  CD1 TYR A   1     -11.492   6.415  69.836  1.00  0.00    -0.483 A  
ATOM     11  CE1 TYR A   1     -10.425   5.520  69.709  1.00  0.00    -0.389 A  
ATOM     12  CZ  TYR A   1      -9.907   4.909  70.845  1.00  0.00    -0.207 A  
ATOM     13  OH  TYR A   1      -8.873   4.023  70.766  1.00  0.00    -0.078 OA 
ATOM     14  CE2 TYR A   1     -10.431   5.182  72.102  1.00  0.00    -0.281 A  
ATOM     15  CD2 TYR A   1     -11.500   6.070  72.229  1.00  0.00    -0.364 A  
ATOM     16  HH  TYR A   1      -8.519   3.606  71.542  1.00  0.00     0.000 HD 
ENDBRANCH   8   9
ENDBRANCH   2   8
TORSDOF 2
ENDMDL
MODEL       42
REMARK 921   NORMALIZED FREE ENERGY PREDICTED BY IDOCK:   -4.71 KCAL/MOL
REMARK 922        TOTAL FREE ENERGY PREDICTED BY IDOCK:   -5.41 KCAL/MOL
REMARK 923 INTER-LIGAND FREE ENERGY PREDICTED BY IDOCK:   -5.23 KCAL/MOL
REMARK 924 INTRA-LIGAND FREE ENERGY PREDICTED BY IDOCK:   -0.18 KCAL/MOL
REMARK 927      BINDING AFFINITY PREDICTED BY RF-SCORE:    0.00 PKD
ROOT
ATOM      1  N   TYR A   1     -11.813  10.729  67.879  1.00  0.00    -0.742 NA 
ATOM      2  CA  TYR A   1     -11.056  11.050  69.132  1.00  0.00    -0.243 C  
ATOM      3  H1  TYR A   1     -11.259  10.827  67.027  1.00  0.00     0.000 HD 
ATOM      4  H2  TYR A   1     -12.665  11.288  67.820  1.00  0.00     0.000 HD 
ATOM      5  C   TYR A   1      -9.830  10.125  69.184  1.00  0.00    -0.214 C  
ATOM      6  OXT TYR A   1      -9.187   9.845  70.184  1.00  0.00    -0.228 OA 
ATOM      7  O   TYR A   1      -9.517   9.665  67.943  1.00  0.00    -0.132 OA 
ENDROOT
BRANCH   2   8
ATOM      8  CB  TYR A   1     -11.891  10.901  70.415  1.00  0.00    -0.449 C  
BRANCH   8   9
ATOM      9  CG  TYR A   1     -12.453  12.213  70.912  1.00  0.00    -0.374 A  
ATOM     10  CD1 TYR A   1     -13.362  12.243  71.980  1.00  0.00    -0.491 A  
ATOM     11  CE1 TYR A   1     -13.908  13.454  72.416  1.00  0.00    -0.665 A  
ATOM     12  CZ  TYR A   1     -13.536  14.636  71.788  1.00  0.00    -0.394 A  
ATOM     13  OH  TYR A   1     -14.051  15.839  72.173  1.00  0.00    -0.463 OA 
ATOM     14  CE2 TYR A   1     -12.627  14.629  70.737  1.00  0.00    -0.415 A  
ATOM     15  CD2 TYR A   1     -12.087  13.419  70.297  1.00  0.00    -0.419 A  
ATOM     16  HH  TYR A   1     -13.798  16.646  71.744  1.00  0.00     0.000 HD 
ENDBRANCH   8   9
ENDBRANCH   2   8
TORSDOF 2
ENDMDL
MODEL       43
REMARK 921   NORMALIZED FREE ENERGY PREDICTED BY IDOCK:   -4.70 KCAL/MOL
REMARK 922        TOTAL FREE ENERGY PREDICTED BY IDOCK:   -5.41 KCAL/MOL
REMARK 923 INTER-LIGAND FREE ENERGY PREDICTED BY IDOCK:   -5.19 KCAL/MOL
REMARK 924 INTRA-LIGAND FREE ENERGY PREDICTED BY IDOCK:   -0.22 KCAL/MOL
REMARK 927      BINDING AFFINITY PREDICTED BY RF-SCORE:    0.00 PKD
ROOT
ATOM      1  N   TYR A   1     -10.286  14.278  64.363  1.00  0.00    -0.631 NA 
ATOM      2  CA  TYR A   1     -10.900  12.936  64.623  1.00  0.00    -0.342 C  
ATOM      3  H1  TYR A   1     -10.321  14.563  63.383  1.00  0.00     0.000 HD 
ATOM      4  H2  TYR A   1      -9.328  14.309  64.712  1.00  0.00     0.000 HD 
ATOM      5  C   TYR A   1     -12.356  12.988  64.135  1.00  0.00    -0.358 C  
ATOM      6  OXT TYR A   1     -13.255  12.237  64.483  1.00  0.00    -0.799 OA 
ATOM      7  O   TYR A   1     -12.526  13.980  63.221  1.00  0.00    -0.795 OA 
ENDROOT
BRANCH   2   8
ATOM      8  CB  TYR A   1     -10.846  12.506  66.099  1.00  0.00    -0.304 C  
BRANCH   8   9
ATOM      9  CG  TYR A   1     -10.477  11.051  66.280  1.00  0.00    -0.310 A  
ATOM     10  CD1 TYR A   1     -10.907  10.340  67.410  1.00  0.00    -0.336 A  
ATOM     11  CE1 TYR A   1     -10.536   9.005  67.594  1.00  0.00    -0.324 A  
ATOM     12  CZ  TYR A   1      -9.739   8.380  66.642  1.00  0.00    -0.251 A  
ATOM     13  OH  TYR A   1      -9.345   7.083  66.786  1.00  0.00    -0.145 OA 
ATOM     14  CE2 TYR A   1      -9.314   9.064  65.510  1.00  0.00    -0.255 A  
ATOM     15  CD2 TYR A   1      -9.679  10.399  65.329  1.00  0.00    -0.339 A  
ATOM     16  HH  TYR A   1      -8.800   6.656  66.135  1.00  0.00     0.000 HD 
ENDBRANCH   8   9
ENDBRANCH   2   8
TORSDOF 2
ENDMDL
MODEL       44
REMARK 921   NORMALIZED FREE ENERGY PREDICTED BY IDOCK:   -4.69 KCAL/MOL
REMARK 922        TOTAL FREE ENERGY PREDICTED BY IDOCK:   -5.39 KCAL/MOL
REMARK 923 INTER-LIGAND FREE ENERGY PREDICTED BY IDOCK:   -5.52 KCAL/MOL
REMARK 924 INTRA-LIGAND FREE ENERGY PREDICTED BY IDOCK:    0.13 KCAL/MOL
REMARK 927      BINDING AFFINITY PREDICTED BY RF-SCORE:    0.00 PKD
ROOT
ATOM      1  N   TYR A   1     -13.189  13.869  65.240  1.00  0.00    -0.721 NA 
ATOM      2  CA  TYR A   1     -11.825  13.889  64.621  1.00  0.00    -0.407 C  
ATOM      3  H1  TYR A   1     -13.950  13.848  64.560  1.00  0.00     0.000 HD 
ATOM      4  H2  TYR A   1     -13.304  14.652  65.884  1.00  0.00     0.000 HD 
ATOM      5  C   TYR A   1     -11.703  12.649  63.723  1.00  0.00    -0.491 C  
ATOM      6  OXT TYR A   1     -10.659  12.141  63.341  1.00  0.00    -0.436 OA 
ATOM      7  O   TYR A   1     -12.931  12.185  63.367  1.00  0.00    -0.776 OA 
ENDROOT
BRANCH   2   8
ATOM      8  CB  TYR A   1     -10.679  13.920  65.648  1.00  0.00    -0.292 C  
BRANCH   8   9
ATOM      9  CG  TYR A   1     -11.137  14.306  67.036  1.00  0.00    -0.317 A  
ATOM     10  CD1 TYR A   1     -11.005  15.626  67.491  1.00  0.00    -0.309 A  
ATOM     11  CE1 TYR A   1     -11.396  15.974  68.787  1.00  0.00    -0.380 A  
ATOM     12  CZ  TYR A   1     -11.926  15.000  69.625  1.00  0.00    -0.321 A  
ATOM     13  OH  TYR A   1     -12.311  15.292  70.900  1.00  0.00    -0.317 OA 
ATOM     14  CE2 TYR A   1     -12.076  13.690  69.188  1.00  0.00    -0.361 A  
ATOM     15  CD2 TYR A   1     -11.680  13.341  67.896  1.00  0.00    -0.395 A  
ATOM     16  HH  TYR A   1     -12.672  14.627  71.473  1.00  0.00     0.000 HD 
ENDBRANCH   8   9
ENDBRANCH   2   8
TORSDOF 2
ENDMDL
MODEL       45
REMARK 921   NORMALIZED FREE ENERGY PREDICTED BY IDOCK:   -4.66 KCAL/MOL
REMARK 922        TOTAL FREE ENERGY PREDICTED BY IDOCK:   -5.36 KCAL/MOL
REMARK 923 INTER-LIGAND FREE ENERGY PREDICTED BY IDOCK:   -5.48 KCAL/MOL
REMARK 924 INTRA-LIGAND FREE ENERGY PREDICTED BY IDOCK:    0.12 KCAL/MOL
REMARK 927      BINDING AFFINITY PREDICTED BY RF-SCORE:    0.00 PKD
ROOT
ATOM      1  N   TYR A   1     -13.154  12.465  64.818  1.00  0.00    -0.735 NA 
ATOM      2  CA  TYR A   1     -12.578  13.664  65.509  1.00  0.00    -0.496 C  
ATOM      3  H1  TYR A   1     -13.877  12.693  64.134  1.00  0.00     0.000 HD 
ATOM      4  H2  TYR A   1     -13.503  11.791  65.500  1.00  0.00     0.000 HD 
ATOM      5  C   TYR A   1     -12.013  14.598  64.427  1.00  0.00    -0.437 C  
ATOM      6  OXT TYR A   1     -11.179  15.473  64.601  1.00  0.00    -0.423 OA 
ATOM      7  O   TYR A   1     -12.590  14.347  63.221  1.00  0.00    -0.655 OA 
ENDROOT
BRANCH   2   8
ATOM      8  CB  TYR A   1     -11.489  13.321  66.540  1.00  0.00    -0.372 C  
BRANCH   8   9
ATOM      9  CG  TYR A   1     -10.936  11.924  66.376  1.00  0.00    -0.337 A  
ATOM     10  CD1 TYR A   1     -10.228  11.566  65.219  1.00  0.00    -0.315 A  
ATOM     11  CE1 TYR A   1      -9.748  10.265  65.053  1.00  0.00    -0.370 A  
ATOM     12  CZ  TYR A   1      -9.969   9.323  66.051  1.00  0.00    -0.255 A  
ATOM     13  OH  TYR A   1      -9.526   8.039  65.927  1.00  0.00    -0.400 OA 
ATOM     14  CE2 TYR A   1     -10.655   9.661  67.210  1.00  0.00    -0.315 A  
ATOM     15  CD2 TYR A   1     -11.142  10.959  67.373  1.00  0.00    -0.373 A  
ATOM     16  HH  TYR A   1      -9.678   7.395  66.608  1.00  0.00     0.000 HD 
ENDBRANCH   8   9
ENDBRANCH   2   8
TORSDOF 2
ENDMDL
MODEL       46
REMARK 921   NORMALIZED FREE ENERGY PREDICTED BY IDOCK:   -4.66 KCAL/MOL
REMARK 922        TOTAL FREE ENERGY PREDICTED BY IDOCK:   -5.36 KCAL/MOL
REMARK 923 INTER-LIGAND FREE ENERGY PREDICTED BY IDOCK:   -5.45 KCAL/MOL
REMARK 924 INTRA-LIGAND FREE ENERGY PREDICTED BY IDOCK:    0.09 KCAL/MOL
REMARK 927      BINDING AFFINITY PREDICTED BY RF-SCORE:    0.00 PKD
ROOT
ATOM      1  N   TYR A   1     -10.548  16.490  65.173  1.00  0.00    -0.674 NA 
ATOM      2  CA  TYR A   1     -10.555  15.015  64.908  1.00  0.00    -0.374 C  
ATOM      3  H1  TYR A   1     -10.774  17.056  64.354  1.00  0.00     0.000 HD 
ATOM      4  H2  TYR A   1      -9.655  16.779  65.574  1.00  0.00     0.000 HD 
ATOM      5  C   TYR A   1     -11.948  14.645  64.373  1.00  0.00    -0.437 C  
ATOM      6  OXT TYR A   1     -12.443  13.529  64.377  1.00  0.00    -0.578 OA 
ATOM      7  O   TYR A   1     -12.572  15.736  63.852  1.00  0.00    -0.705 OA 
ENDROOT
BRANCH   2   8
ATOM      8  CB  TYR A   1     -10.214  14.163  66.142  1.00  0.00    -0.313 C  
BRANCH   8   9
ATOM      9  CG  TYR A   1     -10.582  14.832  67.446  1.00  0.00    -0.268 A  
ATOM     10  CD1 TYR A   1      -9.722  15.770  68.036  1.00  0.00    -0.212 A  
ATOM     11  CE1 TYR A   1     -10.047  16.363  69.259  1.00  0.00    -0.271 A  
ATOM     12  CZ  TYR A   1     -11.238  16.021  69.888  1.00  0.00    -0.361 A  
ATOM     13  OH  TYR A   1     -11.591  16.567  71.087  1.00  0.00    -0.612 OA 
ATOM     14  CE2 TYR A   1     -12.109  15.105  69.314  1.00  0.00    -0.278 A  
ATOM     15  CD2 TYR A   1     -11.782  14.508  68.095  1.00  0.00    -0.369 A  
ATOM     16  HH  TYR A   1     -12.404  16.334  71.517  1.00  0.00     0.000 HD 
ENDBRANCH   8   9
ENDBRANCH   2   8
TORSDOF 2
ENDMDL
MODEL       47
REMARK 921   NORMALIZED FREE ENERGY PREDICTED BY IDOCK:   -4.66 KCAL/MOL
REMARK 922        TOTAL FREE ENERGY PREDICTED BY IDOCK:   -5.36 KCAL/MOL
REMARK 923 INTER-LIGAND FREE ENERGY PREDICTED BY IDOCK:   -5.24 KCAL/MOL
REMARK 924 INTRA-LIGAND FREE ENERGY PREDICTED BY IDOCK:   -0.12 KCAL/MOL
REMARK 927      BINDING AFFINITY PREDICTED BY RF-SCORE:    0.00 PKD
ROOT
ATOM      1  N   TYR A   1      -9.818  14.985  67.147  1.00  0.00    -0.231 NA 
ATOM      2  CA  TYR A   1     -10.693  16.002  67.815  1.00  0.00    -0.323 C  
ATOM      3  H1  TYR A   1     -10.018  14.859  66.154  1.00  0.00     0.000 HD 
ATOM      4  H2  TYR A   1      -9.864  14.092  67.640  1.00  0.00     0.000 HD 
ATOM      5  C   TYR A   1     -10.519  17.331  67.064  1.00  0.00    -0.287 C  
ATOM      6  OXT TYR A   1     -10.780  18.441  67.502  1.00  0.00    -0.424 OA 
ATOM      7  O   TYR A   1     -10.054  17.118  65.803  1.00  0.00    -0.529 OA 
ENDROOT
BRANCH   2   8
ATOM      8  CB  TYR A   1     -10.391  16.191  69.312  1.00  0.00    -0.265 C  
BRANCH   8   9
ATOM      9  CG  TYR A   1     -11.368  15.468  70.210  1.00  0.00    -0.348 A  
ATOM     10  CD1 TYR A   1     -11.848  16.075  71.380  1.00  0.00    -0.531 A  
ATOM     11  CE1 TYR A   1     -12.723  15.392  72.228  1.00  0.00    -0.466 A  
ATOM     12  CZ  TYR A   1     -13.125  14.102  71.901  1.00  0.00    -0.375 A  
ATOM     13  OH  TYR A   1     -13.970  13.395  72.704  1.00  0.00    -0.755 OA 
ATOM     14  CE2 TYR A   1     -12.671  13.489  70.740  1.00  0.00    -0.316 A  
ATOM     15  CD2 TYR A   1     -11.791  14.168  69.896  1.00  0.00    -0.387 A  
ATOM     16  HH  TYR A   1     -14.243  12.513  72.480  1.00  0.00     0.000 HD 
ENDBRANCH   8   9
ENDBRANCH   2   8
TORSDOF 2
ENDMDL
MODEL       48
REMARK 921   NORMALIZED FREE ENERGY PREDICTED BY IDOCK:   -4.65 KCAL/MOL
REMARK 922        TOTAL FREE ENERGY PREDICTED BY IDOCK:   -5.35 KCAL/MOL
REMARK 923 INTER-LIGAND FREE ENERGY PREDICTED BY IDOCK:   -5.13 KCAL/MOL
REMARK 924 INTRA-LIGAND FREE ENERGY PREDICTED BY IDOCK:   -0.22 KCAL/MOL
REMARK 927      BINDING AFFINITY PREDICTED BY RF-SCORE:    0.00 PKD
ROOT
ATOM      1  N   TYR A   1     -12.499  15.393  69.318  1.00  0.00    -0.603 NA 
ATOM      2  CA  TYR A   1     -11.471  15.928  68.368  1.00  0.00    -0.348 C  
ATOM      3  H1  TYR A   1     -13.370  15.113  68.865  1.00  0.00     0.000 HD 
ATOM      4  H2  TYR A   1     -12.681  16.062  70.066  1.00  0.00     0.000 HD 
ATOM      5  C   TYR A   1     -11.200  14.842  67.314  1.00  0.00    -0.345 C  
ATOM      6  OXT TYR A   1     -10.207  14.763  66.607  1.00  0.00    -0.260 OA 
ATOM      7  O   TYR A   1     -12.241  13.970  67.239  1.00  0.00    -0.405 OA 
ENDROOT
BRANCH   2   8
ATOM      8  CB  TYR A   1     -10.158  16.350  69.049  1.00  0.00    -0.262 C  
BRANCH   8   9
ATOM      9  CG  TYR A   1      -9.597  17.644  68.507  1.00  0.00    -0.315 A  
ATOM     10  CD1 TYR A   1      -8.220  17.908  68.568  1.00  0.00    -0.300 A  
ATOM     11  CE1 TYR A   1      -7.707  19.120  68.098  1.00  0.00    -0.328 A  
ATOM     12  CZ  TYR A   1      -8.571  20.065  67.560  1.00  0.00    -0.340 A  
ATOM     13  OH  TYR A   1      -8.115  21.265  67.098  1.00  0.00    -0.655 OA 
ATOM     14  CE2 TYR A   1      -9.936  19.817  67.478  1.00  0.00    -0.540 A  
ATOM     15  CD2 TYR A   1     -10.450  18.609  67.953  1.00  0.00    -0.431 A  
ATOM     16  HH  TYR A   1      -8.706  21.910  66.731  1.00  0.00     0.000 HD 
ENDBRANCH   8   9
ENDBRANCH   2   8
TORSDOF 2
ENDMDL
MODEL       49
REMARK 921   NORMALIZED FREE ENERGY PREDICTED BY IDOCK:   -4.65 KCAL/MOL
REMARK 922        TOTAL FREE ENERGY PREDICTED BY IDOCK:   -5.34 KCAL/MOL
REMARK 923 INTER-LIGAND FREE ENERGY PREDICTED BY IDOCK:   -5.14 KCAL/MOL
REMARK 924 INTRA-LIGAND FREE ENERGY PREDICTED BY IDOCK:   -0.21 KCAL/MOL
REMARK 927      BINDING AFFINITY PREDICTED BY RF-SCORE:    0.00 PKD
ROOT
ATOM      1  N   TYR A   1      -8.259  14.548  69.462  1.00  0.00    -0.381 NA 
ATOM      2  CA  TYR A   1      -8.934  15.451  68.474  1.00  0.00    -0.192 C  
ATOM      3  H1  TYR A   1      -7.242  14.637  69.473  1.00  0.00     0.000 HD 
ATOM      4  H2  TYR A   1      -8.534  13.578  69.308  1.00  0.00     0.000 HD 
ATOM      5  C   TYR A   1      -8.528  16.895  68.811  1.00  0.00    -0.244 C  
ATOM      6  OXT TYR A   1      -9.127  17.904  68.472  1.00  0.00    -0.282 OA 
ATOM      7  O   TYR A   1      -7.372  16.919  69.527  1.00  0.00    -0.130 OA 
ENDROOT
BRANCH   2   8
ATOM      8  CB  TYR A   1     -10.466  15.317  68.459  1.00  0.00    -0.235 C  
BRANCH   8   9
ATOM      9  CG  TYR A   1     -11.022  15.026  67.084  1.00  0.00    -0.329 A  
ATOM     10  CD1 TYR A   1     -11.948  13.990  66.892  1.00  0.00    -0.479 A  
ATOM     11  CE1 TYR A   1     -12.435  13.699  65.615  1.00  0.00    -0.540 A  
ATOM     12  CZ  TYR A   1     -12.000  14.452  64.530  1.00  0.00    -0.472 A  
ATOM     13  OH  TYR A   1     -12.442  14.197  63.265  1.00  0.00    -1.146 OA 
ATOM     14  CE2 TYR A   1     -11.094  15.490  64.702  1.00  0.00    -0.373 A  
ATOM     15  CD2 TYR A   1     -10.602  15.777  65.976  1.00  0.00    -0.334 A  
ATOM     16  HH  TYR A   1     -12.144  14.710  62.524  1.00  0.00     0.000 HD 
ENDBRANCH   8   9
ENDBRANCH   2   8
TORSDOF 2
ENDMDL
MODEL       50
REMARK 921   NORMALIZED FREE ENERGY PREDICTED BY IDOCK:   -4.64 KCAL/MOL
REMARK 922        TOTAL FREE ENERGY PREDICTED BY IDOCK:   -5.34 KCAL/MOL
REMARK 923 INTER-LIGAND FREE ENERGY PREDICTED BY IDOCK:   -5.12 KCAL/MOL
REMARK 924 INTRA-LIGAND FREE ENERGY PREDICTED BY IDOCK:   -0.22 KCAL/MOL
REMARK 927      BINDING AFFINITY PREDICTED BY RF-SCORE:    0.00 PKD
ROOT
ATOM      1  N   TYR A   1      -9.436  15.486  68.622  1.00  0.00    -0.196 NA 
ATOM      2  CA  TYR A   1      -9.798  15.611  67.173  1.00  0.00    -0.229 C  
ATOM      3  H1  TYR A   1      -8.462  15.718  68.824  1.00  0.00     0.000 HD 
ATOM      4  H2  TYR A   1      -9.663  14.554  68.970  1.00  0.00     0.000 HD 
ATOM      5  C   TYR A   1      -9.493  17.053  66.740  1.00  0.00    -0.258 C  
ATOM      6  OXT TYR A   1      -9.965  17.624  65.768  1.00  0.00    -0.544 OA 
ATOM      7  O   TYR A   1      -8.586  17.629  67.574  1.00  0.00    -0.220 OA 
ENDROOT
BRANCH   2   8
ATOM      8  CB  TYR A   1     -11.265  15.261  66.869  1.00  0.00    -0.256 C  
BRANCH   8   9
ATOM      9  CG  TYR A   1     -11.414  14.219  65.784  1.00  0.00    -0.335 A  
ATOM     10  CD1 TYR A   1     -12.636  13.559  65.590  1.00  0.00    -0.512 A  
ATOM     11  CE1 TYR A   1     -12.763  12.570  64.610  1.00  0.00    -0.434 A  
ATOM     12  CZ  TYR A   1     -11.667  12.250  63.817  1.00  0.00    -0.478 A  
ATOM     13  OH  TYR A   1     -11.742  11.286  62.856  1.00  0.00    -0.842 OA 
ATOM     14  CE2 TYR A   1     -10.452  12.902  63.985  1.00  0.00    -0.395 A  
ATOM     15  CD2 TYR A   1     -10.323  13.884  64.969  1.00  0.00    -0.418 A  
ATOM     16  HH  TYR A   1     -10.993  11.067  62.315  1.00  0.00     0.000 HD 
ENDBRANCH   8   9
ENDBRANCH   2   8
TORSDOF 2
ENDMDL
MODEL       51
REMARK 921   NORMALIZED FREE ENERGY PREDICTED BY IDOCK:   -4.63 KCAL/MOL
REMARK 922        TOTAL FREE ENERGY PREDICTED BY IDOCK:   -5.33 KCAL/MOL
REMARK 923 INTER-LIGAND FREE ENERGY PREDICTED BY IDOCK:   -5.11 KCAL/MOL
REMARK 924 INTRA-LIGAND FREE ENERGY PREDICTED BY IDOCK:   -0.22 KCAL/MOL
REMARK 927      BINDING AFFINITY PREDICTED BY RF-SCORE:    0.00 PKD
ROOT
ATOM      1  N   TYR A   1      -9.337  13.158  66.341  1.00  0.00    -0.400 NA 
ATOM      2  CA  TYR A   1     -10.765  13.125  66.793  1.00  0.00    -0.267 C  
ATOM      3  H1  TYR A   1      -9.149  12.572  65.527  1.00  0.00     0.000 HD 
ATOM      4  H2  TYR A   1      -8.711  12.917  67.110  1.00  0.00     0.000 HD 
ATOM      5  C   TYR A   1     -11.639  13.563  65.607  1.00  0.00    -0.325 C  
ATOM      6  OXT TYR A   1     -12.781  13.990  65.679  1.00  0.00    -0.526 OA 
ATOM      7  O   TYR A   1     -10.981  13.388  64.429  1.00  0.00    -0.370 OA 
ENDROOT
BRANCH   2   8
ATOM      8  CB  TYR A   1     -11.048  14.009  68.020  1.00  0.00    -0.282 C  
BRANCH   8   9
ATOM      9  CG  TYR A   1     -11.677  13.250  69.166  1.00  0.00    -0.379 A  
ATOM     10  CD1 TYR A   1     -12.213  13.933  70.267  1.00  0.00    -0.428 A  
ATOM     11  CE1 TYR A   1     -12.763  13.229  71.342  1.00  0.00    -0.401 A  
ATOM     12  CZ  TYR A   1     -12.783  11.840  71.310  1.00  0.00    -0.316 A  
ATOM     13  OH  TYR A   1     -13.300  11.113  72.341  1.00  0.00    -0.600 OA 
ATOM     14  CE2 TYR A   1     -12.269  11.146  70.222  1.00  0.00    -0.436 A  
ATOM     15  CD2 TYR A   1     -11.714  11.848  69.152  1.00  0.00    -0.380 A  
ATOM     16  HH  TYR A   1     -13.314  10.164  72.320  1.00  0.00     0.000 HD 
ENDBRANCH   8   9
ENDBRANCH   2   8
TORSDOF 2
ENDMDL
MODEL       52
REMARK 921   NORMALIZED FREE ENERGY PREDICTED BY IDOCK:   -4.62 KCAL/MOL
REMARK 922        TOTAL FREE ENERGY PREDICTED BY IDOCK:   -5.32 KCAL/MOL
REMARK 923 INTER-LIGAND FREE ENERGY PREDICTED BY IDOCK:   -5.23 KCAL/MOL
REMARK 924 INTRA-LIGAND FREE ENERGY PREDICTED BY IDOCK:   -0.09 KCAL/MOL
REMARK 927      BINDING AFFINITY PREDICTED BY RF-SCORE:    0.00 PKD
ROOT
ATOM      1  N   TYR A   1     -13.385  11.414  72.163  1.00  0.00    -0.568 NA 
ATOM      2  CA  TYR A   1     -12.985  10.445  71.092  1.00  0.00    -0.412 C  
ATOM      3  H1  TYR A   1     -14.310  11.233  72.556  1.00  0.00     0.000 HD 
ATOM      4  H2  TYR A   1     -13.320  12.373  71.823  1.00  0.00     0.000 HD 
ATOM      5  C   TYR A   1     -13.042   9.033  71.697  1.00  0.00    -0.365 C  
ATOM      6  OXT TYR A   1     -12.468   8.045  71.264  1.00  0.00    -0.304 OA 
ATOM      7  O   TYR A   1     -13.855   9.004  72.787  1.00  0.00    -0.430 OA 
ENDROOT
BRANCH   2   8
ATOM      8  CB  TYR A   1     -11.592  10.716  70.500  1.00  0.00    -0.444 C  
BRANCH   8   9
ATOM      9  CG  TYR A   1     -11.619  11.683  69.338  1.00  0.00    -0.392 A  
ATOM     10  CD1 TYR A   1     -11.862  13.048  69.550  1.00  0.00    -0.385 A  
ATOM     11  CE1 TYR A   1     -11.922  13.936  68.472  1.00  0.00    -0.394 A  
ATOM     12  CZ  TYR A   1     -11.730  13.456  67.181  1.00  0.00    -0.379 A  
ATOM     13  OH  TYR A   1     -11.789  14.284  66.099  1.00  0.00    -0.378 OA 
ATOM     14  CE2 TYR A   1     -11.474  12.110  66.953  1.00  0.00    -0.414 A  
ATOM     15  CD2 TYR A   1     -11.421  11.223  68.029  1.00  0.00    -0.369 A  
ATOM     16  HH  TYR A   1     -11.658  13.957  65.218  1.00  0.00     0.000 HD 
ENDBRANCH   8   9
ENDBRANCH   2   8
TORSDOF 2
ENDMDL
MODEL       53
REMARK 921   NORMALIZED FREE ENERGY PREDICTED BY IDOCK:   -4.62 KCAL/MOL
REMARK 922        TOTAL FREE ENERGY PREDICTED BY IDOCK:   -5.31 KCAL/MOL
REMARK 923 INTER-LIGAND FREE ENERGY PREDICTED BY IDOCK:   -5.10 KCAL/MOL
REMARK 924 INTRA-LIGAND FREE ENERGY PREDICTED BY IDOCK:   -0.21 KCAL/MOL
REMARK 927      BINDING AFFINITY PREDICTED BY RF-SCORE:    0.00 PKD
ROOT
ATOM      1  N   TYR A   1      -8.829  17.645  68.602  1.00  0.00    -0.283 NA 
ATOM      2  CA  TYR A   1      -9.576  16.745  67.665  1.00  0.00    -0.244 C  
ATOM      3  H1  TYR A   1      -7.888  17.882  68.283  1.00  0.00     0.000 HD 
ATOM      4  H2  TYR A   1      -8.800  17.245  69.540  1.00  0.00     0.000 HD 
ATOM      5  C   TYR A   1      -9.637  17.444  66.298  1.00  0.00    -0.242 C  
ATOM      6  OXT TYR A   1     -10.435  17.201  65.406  1.00  0.00    -0.633 OA 
ATOM      7  O   TYR A   1      -8.648  18.371  66.183  1.00  0.00    -0.456 OA 
ENDROOT
BRANCH   2   8
ATOM      8  CB  TYR A   1     -10.993  16.389  68.147  1.00  0.00    -0.339 C  
BRANCH   8   9
ATOM      9  CG  TYR A   1     -11.255  14.901  68.171  1.00  0.00    -0.310 A  
ATOM     10  CD1 TYR A   1     -11.386  14.178  66.976  1.00  0.00    -0.346 A  
ATOM     11  CE1 TYR A   1     -11.664  12.808  67.000  1.00  0.00    -0.440 A  
ATOM     12  CZ  TYR A   1     -11.802  12.161  68.222  1.00  0.00    -0.301 A  
ATOM     13  OH  TYR A   1     -12.082  10.828  68.293  1.00  0.00    -0.805 OA 
ATOM     14  CE2 TYR A   1     -11.662  12.857  69.417  1.00  0.00    -0.382 A  
ATOM     15  CD2 TYR A   1     -11.392  14.226  69.393  1.00  0.00    -0.325 A  
ATOM     16  HH  TYR A   1     -12.177  10.386  69.128  1.00  0.00     0.000 HD 
ENDBRANCH   8   9
ENDBRANCH   2   8
TORSDOF 2
ENDMDL
MODEL       54
REMARK 921   NORMALIZED FREE ENERGY PREDICTED BY IDOCK:   -4.60 KCAL/MOL
REMARK 922        TOTAL FREE ENERGY PREDICTED BY IDOCK:   -5.29 KCAL/MOL
REMARK 923 INTER-LIGAND FREE ENERGY PREDICTED BY IDOCK:   -5.25 KCAL/MOL
REMARK 924 INTRA-LIGAND FREE ENERGY PREDICTED BY IDOCK:   -0.04 KCAL/MOL
REMARK 927      BINDING AFFINITY PREDICTED BY RF-SCORE:    0.00 PKD
ROOT
ATOM      1  N   TYR A   1     -10.155  13.509  64.209  1.00  0.00    -0.771 NA 
ATOM      2  CA  TYR A   1     -10.953  12.252  64.380  1.00  0.00    -0.329 C  
ATOM      3  H1  TYR A   1     -10.133  13.855  63.249  1.00  0.00     0.000 HD 
ATOM      4  H2  TYR A   1      -9.209  13.386  64.569  1.00  0.00     0.000 HD 
ATOM      5  C   TYR A   1     -12.379  12.535  63.882  1.00  0.00    -0.485 C  
ATOM      6  OXT TYR A   1     -13.379  11.896  64.173  1.00  0.00    -0.652 OA 
ATOM      7  O   TYR A   1     -12.394  13.594  63.028  1.00  0.00    -0.672 OA 
ENDROOT
BRANCH   2   8
ATOM      8  CB  TYR A   1     -10.987  11.731  65.827  1.00  0.00    -0.353 C  
BRANCH   8   9
ATOM      9  CG  TYR A   1     -10.794  12.823  66.855  1.00  0.00    -0.278 A  
ATOM     10  CD1 TYR A   1     -11.861  13.657  67.221  1.00  0.00    -0.429 A  
ATOM     11  CE1 TYR A   1     -11.673  14.688  68.145  1.00  0.00    -0.360 A  
ATOM     12  CZ  TYR A   1     -10.417  14.879  68.709  1.00  0.00    -0.242 A  
ATOM     13  OH  TYR A   1     -10.186  15.879  69.608  1.00  0.00    -0.256 OA 
ATOM     14  CE2 TYR A   1      -9.351  14.055  68.370  1.00  0.00    -0.210 A  
ATOM     15  CD2 TYR A   1      -9.537  13.029  67.441  1.00  0.00    -0.211 A  
ATOM     16  HH  TYR A   1      -9.328  16.009  69.993  1.00  0.00     0.000 HD 
ENDBRANCH   8   9
ENDBRANCH   2   8
TORSDOF 2
ENDMDL
MODEL       55
REMARK 921   NORMALIZED FREE ENERGY PREDICTED BY IDOCK:   -4.59 KCAL/MOL
REMARK 922        TOTAL FREE ENERGY PREDICTED BY IDOCK:   -5.28 KCAL/MOL
REMARK 923 INTER-LIGAND FREE ENERGY PREDICTED BY IDOCK:   -5.07 KCAL/MOL
REMARK 924 INTRA-LIGAND FREE ENERGY PREDICTED BY IDOCK:   -0.21 KCAL/MOL
REMARK 927      BINDING AFFINITY PREDICTED BY RF-SCORE:    0.00 PKD
ROOT
ATOM      1  N   TYR A   1     -10.167  13.940  64.535  1.00  0.00    -0.683 NA 
ATOM      2  CA  TYR A   1     -10.701  12.669  63.947  1.00  0.00    -0.431 C  
ATOM      3  H1  TYR A   1     -10.278  14.753  63.927  1.00  0.00     0.000 HD 
ATOM      4  H2  TYR A   1      -9.191  13.828  64.809  1.00  0.00     0.000 HD 
ATOM      5  C   TYR A   1     -12.186  12.894  63.624  1.00  0.00    -0.499 C  
ATOM      6  OXT TYR A   1     -13.025  12.019  63.469  1.00  0.00    -0.774 OA 
ATOM      7  O   TYR A   1     -12.460  14.220  63.496  1.00  0.00    -0.798 OA 
ENDROOT
BRANCH   2   8
ATOM      8  CB  TYR A   1     -10.533  11.445  64.863  1.00  0.00    -0.363 C  
BRANCH   8   9
ATOM      9  CG  TYR A   1      -9.597  10.402  64.296  1.00  0.00    -0.377 A  
ATOM     10  CD1 TYR A   1      -9.006   9.443  65.130  1.00  0.00    -0.258 A  
ATOM     11  CE1 TYR A   1      -8.113   8.501  64.610  1.00  0.00    -0.153 A  
ATOM     12  CZ  TYR A   1      -7.819   8.516  63.252  1.00  0.00    -0.153 A  
ATOM     13  OH  TYR A   1      -6.947   7.623  62.703  1.00  0.00    -0.073 OA 
ATOM     14  CE2 TYR A   1      -8.405   9.450  62.407  1.00  0.00    -0.169 A  
ATOM     15  CD2 TYR A   1      -9.291  10.395  62.927  1.00  0.00    -0.342 A  
ATOM     16  HH  TYR A   1      -6.746   7.633  61.775  1.00  0.00     0.000 HD 
ENDBRANCH   8   9
ENDBRANCH   2   8
TORSDOF 2
ENDMDL
MODEL       56
REMARK 921   NORMALIZED FREE ENERGY PREDICTED BY IDOCK:   -4.59 KCAL/MOL
REMARK 922        TOTAL FREE ENERGY PREDICTED BY IDOCK:   -5.28 KCAL/MOL
REMARK 923 INTER-LIGAND FREE ENERGY PREDICTED BY IDOCK:   -5.12 KCAL/MOL
REMARK 924 INTRA-LIGAND FREE ENERGY PREDICTED BY IDOCK:   -0.16 KCAL/MOL
REMARK 927      BINDING AFFINITY PREDICTED BY RF-SCORE:    0.00 PKD
ROOT
ATOM      1  N   TYR A   1     -12.404  15.688  68.858  1.00  0.00    -0.559 NA 
ATOM      2  CA  TYR A   1     -11.308  14.921  69.533  1.00  0.00    -0.281 C  
ATOM      3  H1  TYR A   1     -12.473  16.660  69.162  1.00  0.00     0.000 HD 
ATOM      4  H2  TYR A   1     -13.299  15.212  68.972  1.00  0.00     0.000 HD 
ATOM      5  C   TYR A   1      -9.987  15.659  69.261  1.00  0.00    -0.265 C  
ATOM      6  OXT TYR A   1      -8.868  15.176  69.338  1.00  0.00    -0.220 OA 
ATOM      7  O   TYR A   1     -10.217  16.962  68.943  1.00  0.00    -0.276 OA 
ENDROOT
BRANCH   2   8
ATOM      8  CB  TYR A   1     -11.204  13.456  69.074  1.00  0.00    -0.323 C  
BRANCH   8   9
ATOM      9  CG  TYR A   1     -11.840  12.485  70.043  1.00  0.00    -0.363 A  
ATOM     10  CD1 TYR A   1     -11.681  11.101  69.876  1.00  0.00    -0.433 A  
ATOM     11  CE1 TYR A   1     -12.298  10.204  70.751  1.00  0.00    -0.422 A  
ATOM     12  CZ  TYR A   1     -13.069  10.692  71.799  1.00  0.00    -0.466 A  
ATOM     13  OH  TYR A   1     -13.697   9.853  72.671  1.00  0.00    -0.657 OA 
ATOM     14  CE2 TYR A   1     -13.228  12.059  71.989  1.00  0.00    -0.481 A  
ATOM     15  CD2 TYR A   1     -12.617  12.956  71.111  1.00  0.00    -0.373 A  
ATOM     16  HH  TYR A   1     -14.224  10.187  73.387  1.00  0.00     0.000 HD 
ENDBRANCH   8   9
ENDBRANCH   2   8
TORSDOF 2
ENDMDL
MODEL       57
REMARK 921   NORMALIZED FREE ENERGY PREDICTED BY IDOCK:   -4.57 KCAL/MOL
REMARK 922        TOTAL FREE ENERGY PREDICTED BY IDOCK:   -5.26 KCAL/MOL
REMARK 923 INTER-LIGAND FREE ENERGY PREDICTED BY IDOCK:   -5.06 KCAL/MOL
REMARK 924 INTRA-LIGAND FREE ENERGY PREDICTED BY IDOCK:   -0.19 KCAL/MOL
REMARK 927      BINDING AFFINITY PREDICTED BY RF-SCORE:    0.00 PKD
ROOT
ATOM      1  N   TYR A   1      -9.501  10.194  68.822  1.00  0.00    -0.163 NA 
ATOM      2  CA  TYR A   1     -10.315   9.754  67.643  1.00  0.00    -0.230 C  
ATOM      3  H1  TYR A   1      -9.932   9.979  69.722  1.00  0.00     0.000 HD 
ATOM      4  H2  TYR A   1      -9.281  11.188  68.756  1.00  0.00     0.000 HD 
ATOM      5  C   TYR A   1     -10.547   8.240  67.776  1.00  0.00    -0.168 C  
ATOM      6  OXT TYR A   1     -10.849   7.480  66.869  1.00  0.00    -0.345 OA 
ATOM      7  O   TYR A   1     -10.400   7.839  69.067  1.00  0.00    -0.205 OA 
ENDROOT
BRANCH   2   8
ATOM      8  CB  TYR A   1      -9.665  10.077  66.287  1.00  0.00    -0.272 C  
BRANCH   8   9
ATOM      9  CG  TYR A   1     -10.444  11.094  65.483  1.00  0.00    -0.317 A  
ATOM     10  CD1 TYR A   1     -10.309  11.157  64.088  1.00  0.00    -0.423 A  
ATOM     11  CE1 TYR A   1     -11.002  12.121  63.350  1.00  0.00    -0.480 A  
ATOM     12  CZ  TYR A   1     -11.837  13.016  64.009  1.00  0.00    -0.445 A  
ATOM     13  OH  TYR A   1     -12.524  13.978  63.329  1.00  0.00    -1.139 OA 
ATOM     14  CE2 TYR A   1     -11.994  12.960  65.388  1.00  0.00    -0.470 A  
ATOM     15  CD2 TYR A   1     -11.296  12.003  66.126  1.00  0.00    -0.407 A  
ATOM     16  HH  TYR A   1     -13.094  14.590  63.779  1.00  0.00     0.000 HD 
ENDBRANCH   8   9
ENDBRANCH   2   8
TORSDOF 2
ENDMDL
MODEL       58
REMARK 921   NORMALIZED FREE ENERGY PREDICTED BY IDOCK:   -4.57 KCAL/MOL
REMARK 922        TOTAL FREE ENERGY PREDICTED BY IDOCK:   -5.25 KCAL/MOL
REMARK 923 INTER-LIGAND FREE ENERGY PREDICTED BY IDOCK:   -5.08 KCAL/MOL
REMARK 924 INTRA-LIGAND FREE ENERGY PREDICTED BY IDOCK:   -0.17 KCAL/MOL
REMARK 927      BINDING AFFINITY PREDICTED BY RF-SCORE:    0.00 PKD
ROOT
ATOM      1  N   TYR A   1     -11.572  13.556  70.365  1.00  0.00    -0.521 NA 
ATOM      2  CA  TYR A   1     -11.200  12.753  69.155  1.00  0.00    -0.237 C  
ATOM      3  H1  TYR A   1     -11.000  14.392  70.494  1.00  0.00     0.000 HD 
ATOM      4  H2  TYR A   1     -11.553  12.974  71.202  1.00  0.00     0.000 HD 
ATOM      5  C   TYR A   1     -11.318  13.675  67.930  1.00  0.00    -0.295 C  
ATOM      6  OXT TYR A   1     -11.439  13.312  66.770  1.00  0.00    -0.320 OA 
ATOM      7  O   TYR A   1     -11.240  14.982  68.298  1.00  0.00    -0.273 OA 
ENDROOT
BRANCH   2   8
ATOM      8  CB  TYR A   1     -12.061  11.494  68.959  1.00  0.00    -0.303 C  
BRANCH   8   9
ATOM      9  CG  TYR A   1     -11.982  10.534  70.124  1.00  0.00    -0.398 A  
ATOM     10  CD1 TYR A   1     -10.788   9.857  70.412  1.00  0.00    -0.380 A  
ATOM     11  CE1 TYR A   1     -10.725   8.943  71.468  1.00  0.00    -0.398 A  
ATOM     12  CZ  TYR A   1     -11.858   8.714  72.241  1.00  0.00    -0.366 A  
ATOM     13  OH  TYR A   1     -11.845   7.824  73.274  1.00  0.00    -0.651 OA 
ATOM     14  CE2 TYR A   1     -13.046   9.385  71.979  1.00  0.00    -0.516 A  
ATOM     15  CD2 TYR A   1     -13.110  10.292  70.921  1.00  0.00    -0.423 A  
ATOM     16  HH  TYR A   1     -12.619   7.667  73.802  1.00  0.00     0.000 HD 
ENDBRANCH   8   9
ENDBRANCH   2   8
TORSDOF 2
ENDMDL
MODEL       59
REMARK 921   NORMALIZED FREE ENERGY PREDICTED BY IDOCK:   -4.52 KCAL/MOL
REMARK 922        TOTAL FREE ENERGY PREDICTED BY IDOCK:   -5.20 KCAL/MOL
REMARK 923 INTER-LIGAND FREE ENERGY PREDICTED BY IDOCK:   -5.01 KCAL/MOL
REMARK 924 INTRA-LIGAND FREE ENERGY PREDICTED BY IDOCK:   -0.19 KCAL/MOL
REMARK 927      BINDING AFFINITY PREDICTED BY RF-SCORE:    0.00 PKD
ROOT
ATOM      1  N   TYR A   1     -11.974  11.417  62.974  1.00  0.00    -0.867 NA 
ATOM      2  CA  TYR A   1     -11.258  12.100  64.099  1.00  0.00    -0.368 C  
ATOM      3  H1  TYR A   1     -11.352  11.051  62.252  1.00  0.00     0.000 HD 
ATOM      4  H2  TYR A   1     -12.674  12.036  62.565  1.00  0.00     0.000 HD 
ATOM      5  C   TYR A   1     -10.275  11.087  64.707  1.00  0.00    -0.319 C  
ATOM      6  OXT TYR A   1      -9.784  11.148  65.824  1.00  0.00    -0.206 OA 
ATOM      7  O   TYR A   1      -9.982  10.101  63.817  1.00  0.00    -0.180 OA 
ENDROOT
BRANCH   2   8
ATOM      8  CB  TYR A   1     -12.196  12.651  65.186  1.00  0.00    -0.539 C  
BRANCH   8   9
ATOM      9  CG  TYR A   1     -11.675  13.913  65.836  1.00  0.00    -0.372 A  
ATOM     10  CD1 TYR A   1     -11.077  14.920  65.064  1.00  0.00    -0.422 A  
ATOM     11  CE1 TYR A   1     -10.564  16.070  65.670  1.00  0.00    -0.392 A  
ATOM     12  CZ  TYR A   1     -10.657  16.215  67.050  1.00  0.00    -0.292 A  
ATOM     13  OH  TYR A   1     -10.161  17.316  67.684  1.00  0.00    -0.307 OA 
ATOM     14  CE2 TYR A   1     -11.258  15.235  67.829  1.00  0.00    -0.327 A  
ATOM     15  CD2 TYR A   1     -11.764  14.083  67.225  1.00  0.00    -0.420 A  
ATOM     16  HH  TYR A   1     -10.225  17.415  68.626  1.00  0.00     0.000 HD 
ENDBRANCH   8   9
ENDBRANCH   2   8
TORSDOF 2
ENDMDL
MODEL       60
REMARK 921   NORMALIZED FREE ENERGY PREDICTED BY IDOCK:   -4.48 KCAL/MOL
REMARK 922        TOTAL FREE ENERGY PREDICTED BY IDOCK:   -5.16 KCAL/MOL
REMARK 923 INTER-LIGAND FREE ENERGY PREDICTED BY IDOCK:   -5.08 KCAL/MOL
REMARK 924 INTRA-LIGAND FREE ENERGY PREDICTED BY IDOCK:   -0.08 KCAL/MOL
REMARK 927      BINDING AFFINITY PREDICTED BY RF-SCORE:    0.00 PKD
ROOT
ATOM      1  N   TYR A   1      -9.888  15.958  67.138  1.00  0.00    -0.229 NA 
ATOM      2  CA  TYR A   1     -10.446  15.456  65.840  1.00  0.00    -0.340 C  
ATOM      3  H1  TYR A   1      -9.094  16.590  67.026  1.00  0.00     0.000 HD 
ATOM      4  H2  TYR A   1      -9.646  15.180  67.751  1.00  0.00     0.000 HD 
ATOM      5  C   TYR A   1     -10.851  16.679  65.003  1.00  0.00    -0.176 C  
ATOM      6  OXT TYR A   1     -11.639  16.678  64.070  1.00  0.00    -1.197 OA 
ATOM      7  O   TYR A   1     -10.185  17.791  65.415  1.00  0.00    -0.551 OA 
ENDROOT
BRANCH   2   8
ATOM      8  CB  TYR A   1     -11.643  14.504  66.008  1.00  0.00    -0.356 C  
BRANCH   8   9
ATOM      9  CG  TYR A   1     -11.436  13.476  67.097  1.00  0.00    -0.368 A  
ATOM     10  CD1 TYR A   1     -12.025  13.643  68.359  1.00  0.00    -0.391 A  
ATOM     11  CE1 TYR A   1     -11.804  12.710  69.376  1.00  0.00    -0.356 A  
ATOM     12  CZ  TYR A   1     -10.999  11.606  69.127  1.00  0.00    -0.219 A  
ATOM     13  OH  TYR A   1     -10.748  10.676  70.092  1.00  0.00    -0.437 OA 
ATOM     14  CE2 TYR A   1     -10.417  11.416  67.879  1.00  0.00    -0.212 A  
ATOM     15  CD2 TYR A   1     -10.632  12.351  66.866  1.00  0.00    -0.251 A  
ATOM     16  HH  TYR A   1     -10.198   9.921  69.922  1.00  0.00     0.000 HD 
ENDBRANCH   8   9
ENDBRANCH   2   8
TORSDOF 2
ENDMDL
MODEL       61
REMARK 921   NORMALIZED FREE ENERGY PREDICTED BY IDOCK:   -4.46 KCAL/MOL
REMARK 922        TOTAL FREE ENERGY PREDICTED BY IDOCK:   -5.14 KCAL/MOL
REMARK 923 INTER-LIGAND FREE ENERGY PREDICTED BY IDOCK:   -4.93 KCAL/MOL
REMARK 924 INTRA-LIGAND FREE ENERGY PREDICTED BY IDOCK:   -0.20 KCAL/MOL
REMARK 927      BINDING AFFINITY PREDICTED BY RF-SCORE:    0.00 PKD
ROOT
ATOM      1  N   TYR A   1     -10.114  12.763  63.552  1.00  0.00    -0.680 NA 
ATOM      2  CA  TYR A   1     -10.797  13.268  64.787  1.00  0.00    -0.360 C  
ATOM      3  H1  TYR A   1     -10.401  11.822  63.279  1.00  0.00     0.000 HD 
ATOM      4  H2  TYR A   1      -9.100  12.814  63.655  1.00  0.00     0.000 HD 
ATOM      5  C   TYR A   1     -12.312  13.226  64.531  1.00  0.00    -0.368 C  
ATOM      6  OXT TYR A   1     -13.158  13.864  65.138  1.00  0.00    -0.773 OA 
ATOM      7  O   TYR A   1     -12.611  12.345  63.539  1.00  0.00    -0.681 OA 
ENDROOT
BRANCH   2   8
ATOM      8  CB  TYR A   1     -10.364  14.686  65.197  1.00  0.00    -0.431 C  
BRANCH   8   9
ATOM      9  CG  TYR A   1      -9.529  14.711  66.456  1.00  0.00    -0.319 A  
ATOM     10  CD1 TYR A   1      -8.783  15.849  66.798  1.00  0.00    -0.303 A  
ATOM     11  CE1 TYR A   1      -7.984  15.858  67.944  1.00  0.00    -0.146 A  
ATOM     12  CZ  TYR A   1      -7.937  14.729  68.753  1.00  0.00    -0.152 A  
ATOM     13  OH  TYR A   1      -7.163  14.689  69.875  1.00  0.00    -0.338 OA 
ATOM     14  CE2 TYR A   1      -8.678  13.597  68.439  1.00  0.00    -0.153 A  
ATOM     15  CD2 TYR A   1      -9.471  13.585  67.291  1.00  0.00    -0.230 A  
ATOM     16  HH  TYR A   1      -7.130  13.918  70.427  1.00  0.00     0.000 HD 
ENDBRANCH   8   9
ENDBRANCH   2   8
TORSDOF 2
ENDMDL
MODEL       62
REMARK 921   NORMALIZED FREE ENERGY PREDICTED BY IDOCK:   -4.43 KCAL/MOL
REMARK 922        TOTAL FREE ENERGY PREDICTED BY IDOCK:   -5.11 KCAL/MOL
REMARK 923 INTER-LIGAND FREE ENERGY PREDICTED BY IDOCK:   -4.93 KCAL/MOL
REMARK 924 INTRA-LIGAND FREE ENERGY PREDICTED BY IDOCK:   -0.18 KCAL/MOL
REMARK 927      BINDING AFFINITY PREDICTED BY RF-SCORE:    0.00 PKD
ROOT
ATOM      1  N   TYR A   1      -8.484  11.542  67.940  1.00  0.00    -0.136 NA 
ATOM      2  CA  TYR A   1      -9.835  10.922  68.136  1.00  0.00    -0.175 C  
ATOM      3  H1  TYR A   1      -8.069  11.902  68.800  1.00  0.00     0.000 HD 
ATOM      4  H2  TYR A   1      -8.522  12.269  67.227  1.00  0.00     0.000 HD 
ATOM      5  C   TYR A   1      -9.685   9.795  69.169  1.00  0.00    -0.184 C  
ATOM      6  OXT TYR A   1     -10.456   8.860  69.324  1.00  0.00    -0.221 OA 
ATOM      7  O   TYR A   1      -8.575   9.981  69.933  1.00  0.00    -0.194 OA 
ENDROOT
BRANCH   2   8
ATOM      8  CB  TYR A   1     -10.460  10.379  66.840  1.00  0.00    -0.300 C  
BRANCH   8   9
ATOM      9  CG  TYR A   1     -10.976  11.469  65.928  1.00  0.00    -0.301 A  
ATOM     10  CD1 TYR A   1     -11.791  12.495  66.429  1.00  0.00    -0.445 A  
ATOM     11  CE1 TYR A   1     -12.296  13.482  65.578  1.00  0.00    -0.524 A  
ATOM     12  CZ  TYR A   1     -11.978  13.446  64.226  1.00  0.00    -0.430 A  
ATOM     13  OH  TYR A   1     -12.457  14.383  63.358  1.00  0.00    -1.109 OA 
ATOM     14  CE2 TYR A   1     -11.162  12.446  63.713  1.00  0.00    -0.520 A  
ATOM     15  CD2 TYR A   1     -10.663  11.456  64.561  1.00  0.00    -0.391 A  
ATOM     16  HH  TYR A   1     -12.240  14.358  62.434  1.00  0.00     0.000 HD 
ENDBRANCH   8   9
ENDBRANCH   2   8
TORSDOF 2
ENDMDL
MODEL       63
REMARK 921   NORMALIZED FREE ENERGY PREDICTED BY IDOCK:   -4.43 KCAL/MOL
REMARK 922        TOTAL FREE ENERGY PREDICTED BY IDOCK:   -5.10 KCAL/MOL
REMARK 923 INTER-LIGAND FREE ENERGY PREDICTED BY IDOCK:   -5.07 KCAL/MOL
REMARK 924 INTRA-LIGAND FREE ENERGY PREDICTED BY IDOCK:   -0.03 KCAL/MOL
REMARK 927      BINDING AFFINITY PREDICTED BY RF-SCORE:    0.00 PKD
ROOT
ATOM      1  N   TYR A   1     -11.183  16.495  68.412  1.00  0.00    -0.337 NA 
ATOM      2  CA  TYR A   1     -10.288  15.503  69.091  1.00  0.00    -0.237 C  
ATOM      3  H1  TYR A   1     -11.126  17.436  68.803  1.00  0.00     0.000 HD 
ATOM      4  H2  TYR A   1     -12.149  16.165  68.409  1.00  0.00     0.000 HD 
ATOM      5  C   TYR A   1      -8.849  16.034  68.996  1.00  0.00    -0.244 C  
ATOM      6  OXT TYR A   1      -7.832  15.368  69.112  1.00  0.00    -0.175 OA 
ATOM      7  O   TYR A   1      -8.840  17.378  68.790  1.00  0.00    -0.274 OA 
ENDROOT
BRANCH   2   8
ATOM      8  CB  TYR A   1     -10.375  14.085  68.502  1.00  0.00    -0.247 C  
BRANCH   8   9
ATOM      9  CG  TYR A   1     -10.918  14.062  67.091  1.00  0.00    -0.303 A  
ATOM     10  CD1 TYR A   1     -10.104  14.418  66.006  1.00  0.00    -0.338 A  
ATOM     11  CE1 TYR A   1     -10.618  14.429  64.706  1.00  0.00    -0.417 A  
ATOM     12  CZ  TYR A   1     -11.945  14.076  64.492  1.00  0.00    -0.448 A  
ATOM     13  OH  TYR A   1     -12.491  14.082  63.243  1.00  0.00    -1.139 OA 
ATOM     14  CE2 TYR A   1     -12.763  13.707  65.553  1.00  0.00    -0.514 A  
ATOM     15  CD2 TYR A   1     -12.252  13.702  66.852  1.00  0.00    -0.398 A  
ATOM     16  HH  TYR A   1     -13.397  13.841  63.097  1.00  0.00     0.000 HD 
ENDBRANCH   8   9
ENDBRANCH   2   8
TORSDOF 2
ENDMDL
MODEL       64
REMARK 921   NORMALIZED FREE ENERGY PREDICTED BY IDOCK:   -4.42 KCAL/MOL
REMARK 922        TOTAL FREE ENERGY PREDICTED BY IDOCK:   -5.09 KCAL/MOL
REMARK 923 INTER-LIGAND FREE ENERGY PREDICTED BY IDOCK:   -6.08 KCAL/MOL
REMARK 924 INTRA-LIGAND FREE ENERGY PREDICTED BY IDOCK:    0.98 KCAL/MOL
REMARK 927      BINDING AFFINITY PREDICTED BY RF-SCORE:    0.00 PKD
ROOT
ATOM      1  N   TYR A   1     -13.599  15.588  70.757  1.00  0.00    -0.847 NA 
ATOM      2  CA  TYR A   1     -13.768  15.230  72.202  1.00  0.00    -0.494 C  
ATOM      3  H1  TYR A   1     -13.367  16.570  70.601  1.00  0.00     0.000 HD 
ATOM      4  H2  TYR A   1     -14.426  15.324  70.222  1.00  0.00     0.000 HD 
ATOM      5  C   TYR A   1     -12.462  15.591  72.927  1.00  0.00    -0.424 C  
ATOM      6  OXT TYR A   1     -12.091  15.141  74.000  1.00  0.00    -0.566 OA 
ATOM      7  O   TYR A   1     -11.759  16.522  72.226  1.00  0.00    -0.501 OA 
ENDROOT
BRANCH   2   8
ATOM      8  CB  TYR A   1     -14.116  13.750  72.436  1.00  0.00    -0.593 C  
BRANCH   8   9
ATOM      9  CG  TYR A   1     -13.230  12.802  71.661  1.00  0.00    -0.410 A  
ATOM     10  CD1 TYR A   1     -12.407  13.275  70.629  1.00  0.00    -0.416 A  
ATOM     11  CE1 TYR A   1     -11.615  12.392  69.889  1.00  0.00    -0.260 A  
ATOM     12  CZ  TYR A   1     -11.641  11.035  70.190  1.00  0.00    -0.334 A  
ATOM     13  OH  TYR A   1     -10.892  10.137  69.489  1.00  0.00    -0.223 OA 
ATOM     14  CE2 TYR A   1     -12.439  10.549  71.218  1.00  0.00    -0.524 A  
ATOM     15  CD2 TYR A   1     -13.236  11.430  71.952  1.00  0.00    -0.485 A  
ATOM     16  HH  TYR A   1     -10.910   9.210  69.695  1.00  0.00     0.000 HD 
ENDBRANCH   8   9
ENDBRANCH   2   8
TORSDOF 2
ENDMDL
MODEL       65
REMARK 921   NORMALIZED FREE ENERGY PREDICTED BY IDOCK:   -4.39 KCAL/MOL
REMARK 922        TOTAL FREE ENERGY PREDICTED BY IDOCK:   -5.06 KCAL/MOL
REMARK 923 INTER-LIGAND FREE ENERGY PREDICTED BY IDOCK:   -4.84 KCAL/MOL
REMARK 924 INTRA-LIGAND FREE ENERGY PREDICTED BY IDOCK:   -0.22 KCAL/MOL
REMARK 927      BINDING AFFINITY PREDICTED BY RF-SCORE:    0.00 PKD
ROOT
ATOM      1  N   TYR A   1     -12.324  14.235  68.112  1.00  0.00    -0.565 NA 
ATOM      2  CA  TYR A   1     -11.470  15.041  67.182  1.00  0.00    -0.297 C  
ATOM      3  H1  TYR A   1     -13.228  13.972  67.717  1.00  0.00     0.000 HD 
ATOM      4  H2  TYR A   1     -12.448  14.722  69.000  1.00  0.00     0.000 HD 
ATOM      5  C   TYR A   1     -11.272  14.217  65.900  1.00  0.00    -0.319 C  
ATOM      6  OXT TYR A   1     -10.380  14.372  65.080  1.00  0.00    -0.402 OA 
ATOM      7  O   TYR A   1     -12.254  13.286  65.766  1.00  0.00    -0.417 OA 
ENDROOT
BRANCH   2   8
ATOM      8  CB  TYR A   1     -10.108  15.437  67.778  1.00  0.00    -0.227 C  
BRANCH   8   9
ATOM      9  CG  TYR A   1      -9.819  16.916  67.666  1.00  0.00    -0.259 A  
ATOM     10  CD1 TYR A   1     -10.393  17.827  68.564  1.00  0.00    -0.366 A  
ATOM     11  CE1 TYR A   1     -10.153  19.198  68.438  1.00  0.00    -0.498 A  
ATOM     12  CZ  TYR A   1      -9.330  19.656  67.416  1.00  0.00    -0.326 A  
ATOM     13  OH  TYR A   1      -9.076  20.986  67.250  1.00  0.00    -0.568 OA 
ATOM     14  CE2 TYR A   1      -8.741  18.769  66.525  1.00  0.00    -0.317 A  
ATOM     15  CD2 TYR A   1      -8.986  17.400  66.646  1.00  0.00    -0.274 A  
ATOM     16  HH  TYR A   1      -8.514  21.299  66.552  1.00  0.00     0.000 HD 
ENDBRANCH   8   9
ENDBRANCH   2   8
TORSDOF 2
ENDMDL
MODEL       66
REMARK 921   NORMALIZED FREE ENERGY PREDICTED BY IDOCK:   -4.39 KCAL/MOL
REMARK 922        TOTAL FREE ENERGY PREDICTED BY IDOCK:   -5.06 KCAL/MOL
REMARK 923 INTER-LIGAND FREE ENERGY PREDICTED BY IDOCK:   -4.86 KCAL/MOL
REMARK 924 INTRA-LIGAND FREE ENERGY PREDICTED BY IDOCK:   -0.19 KCAL/MOL
REMARK 927      BINDING AFFINITY PREDICTED BY RF-SCORE:    0.00 PKD
ROOT
ATOM      1  N   TYR A   1     -13.402  11.225  72.306  1.00  0.00    -0.538 NA 
ATOM      2  CA  TYR A   1     -13.011  10.167  71.319  1.00  0.00    -0.413 C  
ATOM      3  H1  TYR A   1     -14.390  11.204  72.562  1.00  0.00     0.000 HD 
ATOM      4  H2  TYR A   1     -13.138  12.150  71.965  1.00  0.00     0.000 HD 
ATOM      5  C   TYR A   1     -13.374   8.804  71.929  1.00  0.00    -0.389 C  
ATOM      6  OXT TYR A   1     -12.907   7.725  71.599  1.00  0.00    -0.325 OA 
ATOM      7  O   TYR A   1     -14.328   8.941  72.889  1.00  0.00    -0.548 OA 
ENDROOT
BRANCH   2   8
ATOM      8  CB  TYR A   1     -11.522  10.199  70.934  1.00  0.00    -0.444 C  
BRANCH   8   9
ATOM      9  CG  TYR A   1     -11.295  10.482  69.466  1.00  0.00    -0.341 A  
ATOM     10  CD1 TYR A   1     -10.652   9.542  68.648  1.00  0.00    -0.239 A  
ATOM     11  CE1 TYR A   1     -10.411   9.819  67.300  1.00  0.00    -0.308 A  
ATOM     12  CZ  TYR A   1     -10.821  11.036  66.769  1.00  0.00    -0.251 A  
ATOM     13  OH  TYR A   1     -10.598  11.353  65.461  1.00  0.00    -0.268 OA 
ATOM     14  CE2 TYR A   1     -11.471  11.975  67.560  1.00  0.00    -0.403 A  
ATOM     15  CD2 TYR A   1     -11.706  11.701  68.908  1.00  0.00    -0.397 A  
ATOM     16  HH  TYR A   1     -10.878  12.185  65.098  1.00  0.00     0.000 HD 
ENDBRANCH   8   9
ENDBRANCH   2   8
TORSDOF 2
ENDMDL
MODEL       67
REMARK 921   NORMALIZED FREE ENERGY PREDICTED BY IDOCK:   -4.37 KCAL/MOL
REMARK 922        TOTAL FREE ENERGY PREDICTED BY IDOCK:   -5.04 KCAL/MOL
REMARK 923 INTER-LIGAND FREE ENERGY PREDICTED BY IDOCK:   -5.13 KCAL/MOL
REMARK 924 INTRA-LIGAND FREE ENERGY PREDICTED BY IDOCK:    0.10 KCAL/MOL
REMARK 927      BINDING AFFINITY PREDICTED BY RF-SCORE:    0.00 PKD
ROOT
ATOM      1  N   TYR A   1     -12.495  14.661  68.913  1.00  0.00    -0.574 NA 
ATOM      2  CA  TYR A   1     -11.561  14.771  70.080  1.00  0.00    -0.290 C  
ATOM      3  H1  TYR A   1     -13.411  14.279  69.153  1.00  0.00     0.000 HD 
ATOM      4  H2  TYR A   1     -12.067  14.123  68.159  1.00  0.00     0.000 HD 
ATOM      5  C   TYR A   1     -12.244  15.649  71.141  1.00  0.00    -0.413 C  
ATOM      6  OXT TYR A   1     -11.681  16.241  72.049  1.00  0.00    -0.496 OA 
ATOM      7  O   TYR A   1     -13.592  15.665  70.963  1.00  0.00    -0.588 OA 
ENDROOT
BRANCH   2   8
ATOM      8  CB  TYR A   1     -10.182  15.347  69.718  1.00  0.00    -0.278 C  
BRANCH   8   9
ATOM      9  CG  TYR A   1     -10.242  16.384  68.620  1.00  0.00    -0.258 A  
ATOM     10  CD1 TYR A   1     -10.284  15.997  67.272  1.00  0.00    -0.277 A  
ATOM     11  CE1 TYR A   1     -10.304  16.957  66.257  1.00  0.00    -0.312 A  
ATOM     12  CZ  TYR A   1     -10.289  18.306  66.592  1.00  0.00    -0.381 A  
ATOM     13  OH  TYR A   1     -10.297  19.277  65.634  1.00  0.00    -0.489 OA 
ATOM     14  CE2 TYR A   1     -10.260  18.709  67.921  1.00  0.00    -0.433 A  
ATOM     15  CD2 TYR A   1     -10.234  17.751  68.935  1.00  0.00    -0.345 A  
ATOM     16  HH  TYR A   1     -10.287  20.198  65.863  1.00  0.00     0.000 HD 
ENDBRANCH   8   9
ENDBRANCH   2   8
TORSDOF 2
ENDMDL
MODEL       68
REMARK 921   NORMALIZED FREE ENERGY PREDICTED BY IDOCK:   -4.36 KCAL/MOL
REMARK 922        TOTAL FREE ENERGY PREDICTED BY IDOCK:   -5.02 KCAL/MOL
REMARK 923 INTER-LIGAND FREE ENERGY PREDICTED BY IDOCK:   -5.35 KCAL/MOL
REMARK 924 INTRA-LIGAND FREE ENERGY PREDICTED BY IDOCK:    0.33 KCAL/MOL
REMARK 927      BINDING AFFINITY PREDICTED BY RF-SCORE:    0.00 PKD
ROOT
ATOM      1  N   TYR A   1     -12.253  14.880  63.640  1.00  0.00    -0.994 NA 
ATOM      2  CA  TYR A   1     -12.394  14.582  65.103  1.00  0.00    -0.323 C  
ATOM      3  H1  TYR A   1     -12.077  15.864  63.437  1.00  0.00     0.000 HD 
ATOM      4  H2  TYR A   1     -13.068  14.545  63.125  1.00  0.00     0.000 HD 
ATOM      5  C   TYR A   1     -11.105  15.048  65.798  1.00  0.00    -0.346 C  
ATOM      6  OXT TYR A   1     -10.704  14.671  66.889  1.00  0.00    -0.285 OA 
ATOM      7  O   TYR A   1     -10.460  15.981  65.048  1.00  0.00    -0.558 OA 
ENDROOT
BRANCH   2   8
ATOM      8  CB  TYR A   1     -12.659  13.098  65.410  1.00  0.00    -0.512 C  
BRANCH   8   9
ATOM      9  CG  TYR A   1     -11.566  12.183  64.905  1.00  0.00    -0.371 A  
ATOM     10  CD1 TYR A   1     -11.265  12.116  63.537  1.00  0.00    -0.536 A  
ATOM     11  CE1 TYR A   1     -10.279  11.244  63.068  1.00  0.00    -0.293 A  
ATOM     12  CZ  TYR A   1      -9.588  10.444  63.971  1.00  0.00    -0.317 A  
ATOM     13  OH  TYR A   1      -8.625   9.572  63.557  1.00  0.00    -0.187 OA 
ATOM     14  CE2 TYR A   1      -9.863  10.507  65.331  1.00  0.00    -0.335 A  
ATOM     15  CD2 TYR A   1     -10.852  11.372  65.799  1.00  0.00    -0.290 A  
ATOM     16  HH  TYR A   1      -8.153   9.026  64.174  1.00  0.00     0.000 HD 
ENDBRANCH   8   9
ENDBRANCH   2   8
TORSDOF 2
ENDMDL
MODEL       69
REMARK 921   NORMALIZED FREE ENERGY PREDICTED BY IDOCK:   -4.34 KCAL/MOL
REMARK 922        TOTAL FREE ENERGY PREDICTED BY IDOCK:   -5.00 KCAL/MOL
REMARK 923 INTER-LIGAND FREE ENERGY PREDICTED BY IDOCK:   -4.79 KCAL/MOL
REMARK 924 INTRA-LIGAND FREE ENERGY PREDICTED BY IDOCK:   -0.22 KCAL/MOL
REMARK 927      BINDING AFFINITY PREDICTED BY RF-SCORE:    0.00 PKD
ROOT
ATOM      1  N   TYR A   1     -10.571  17.877  65.338  1.00  0.00    -0.599 NA 
ATOM      2  CA  TYR A   1     -10.125  16.814  66.296  1.00  0.00    -0.326 C  
ATOM      3  H1  TYR A   1     -10.124  18.782  65.493  1.00  0.00     0.000 HD 
ATOM      4  H2  TYR A   1     -11.587  17.970  65.351  1.00  0.00     0.000 HD 
ATOM      5  C   TYR A   1      -8.599  16.684  66.170  1.00  0.00    -0.289 C  
ATOM      6  OXT TYR A   1      -7.933  15.719  66.512  1.00  0.00    -0.248 OA 
ATOM      7  O   TYR A   1      -8.058  17.816  65.646  1.00  0.00    -0.518 OA 
ENDROOT
BRANCH   2   8
ATOM      8  CB  TYR A   1     -10.798  15.450  66.063  1.00  0.00    -0.315 C  
BRANCH   8   9
ATOM      9  CG  TYR A   1     -11.206  14.763  67.347  1.00  0.00    -0.346 A  
ATOM     10  CD1 TYR A   1     -11.557  15.513  68.479  1.00  0.00    -0.379 A  
ATOM     11  CE1 TYR A   1     -11.900  14.877  69.675  1.00  0.00    -0.356 A  
ATOM     12  CZ  TYR A   1     -11.900  13.488  69.735  1.00  0.00    -0.329 A  
ATOM     13  OH  TYR A   1     -12.218  12.826  70.883  1.00  0.00    -0.420 OA 
ATOM     14  CE2 TYR A   1     -11.569  12.728  68.620  1.00  0.00    -0.352 A  
ATOM     15  CD2 TYR A   1     -11.219  13.363  67.427  1.00  0.00    -0.311 A  
ATOM     16  HH  TYR A   1     -12.218  11.878  70.924  1.00  0.00     0.000 HD 
ENDBRANCH   8   9
ENDBRANCH   2   8
TORSDOF 2
ENDMDL
MODEL       70
REMARK 921   NORMALIZED FREE ENERGY PREDICTED BY IDOCK:   -4.33 KCAL/MOL
REMARK 922        TOTAL FREE ENERGY PREDICTED BY IDOCK:   -4.99 KCAL/MOL
REMARK 923 INTER-LIGAND FREE ENERGY PREDICTED BY IDOCK:   -4.78 KCAL/MOL
REMARK 924 INTRA-LIGAND FREE ENERGY PREDICTED BY IDOCK:   -0.21 KCAL/MOL
REMARK 927      BINDING AFFINITY PREDICTED BY RF-SCORE:    0.00 PKD
ROOT
ATOM      1  N   TYR A   1     -11.505  11.848  70.200  1.00  0.00    -0.521 NA 
ATOM      2  CA  TYR A   1     -11.882  10.408  70.377  1.00  0.00    -0.328 C  
ATOM      3  H1  TYR A   1     -12.304  12.482  70.180  1.00  0.00     0.000 HD 
ATOM      4  H2  TYR A   1     -10.928  11.969  69.367  1.00  0.00     0.000 HD 
ATOM      5  C   TYR A   1     -12.686  10.294  71.681  1.00  0.00    -0.456 C  
ATOM      6  OXT TYR A   1     -12.859   9.273  72.329  1.00  0.00    -0.389 OA 
ATOM      7  O   TYR A   1     -13.223  11.495  72.026  1.00  0.00    -0.509 OA 
ENDROOT
BRANCH   2   8
ATOM      8  CB  TYR A   1     -10.677   9.451  70.407  1.00  0.00    -0.317 C  
BRANCH   8   9
ATOM      9  CG  TYR A   1     -10.779   8.337  69.390  1.00  0.00    -0.160 A  
ATOM     10  CD1 TYR A   1     -11.066   7.025  69.794  1.00  0.00    -0.278 A  
ATOM     11  CE1 TYR A   1     -11.125   5.989  68.858  1.00  0.00    -0.349 A  
ATOM     12  CZ  TYR A   1     -10.903   6.270  67.514  1.00  0.00    -0.349 A  
ATOM     13  OH  TYR A   1     -10.941   5.289  66.568  1.00  0.00    -0.506 OA 
ATOM     14  CE2 TYR A   1     -10.630   7.565  67.093  1.00  0.00    -0.415 A  
ATOM     15  CD2 TYR A   1     -10.565   8.599  68.029  1.00  0.00    -0.205 A  
ATOM     16  HH  TYR A   1     -10.789   5.480  65.650  1.00  0.00     0.000 HD 
ENDBRANCH   8   9
ENDBRANCH   2   8
TORSDOF 2
ENDMDL
MODEL       71
REMARK 921   NORMALIZED FREE ENERGY PREDICTED BY IDOCK:   -4.33 KCAL/MOL
REMARK 922        TOTAL FREE ENERGY PREDICTED BY IDOCK:   -4.99 KCAL/MOL
REMARK 923 INTER-LIGAND FREE ENERGY PREDICTED BY IDOCK:   -5.58 KCAL/MOL
REMARK 924 INTRA-LIGAND FREE ENERGY PREDICTED BY IDOCK:    0.59 KCAL/MOL
REMARK 927      BINDING AFFINITY PREDICTED BY RF-SCORE:    0.00 PKD
ROOT
ATOM      1  N   TYR A   1     -10.224  13.625  64.494  1.00  0.00    -0.647 NA 
ATOM      2  CA  TYR A   1     -10.770  12.469  63.711  1.00  0.00    -0.445 C  
ATOM      3  H1  TYR A   1     -10.329  14.526  64.024  1.00  0.00     0.000 HD 
ATOM      4  H2  TYR A   1      -9.249  13.462  64.744  1.00  0.00     0.000 HD 
ATOM      5  C   TYR A   1     -12.254  12.756  63.433  1.00  0.00    -0.504 C  
ATOM      6  OXT TYR A   1     -13.101  11.925  63.142  1.00  0.00    -0.605 OA 
ATOM      7  O   TYR A   1     -12.516  14.087  63.521  1.00  0.00    -0.826 OA 
ENDROOT
BRANCH   2   8
ATOM      8  CB  TYR A   1     -10.612  11.113  64.419  1.00  0.00    -0.411 C  
BRANCH   8   9
ATOM      9  CG  TYR A   1     -10.765  11.205  65.920  1.00  0.00    -0.261 A  
ATOM     10  CD1 TYR A   1     -11.673  12.109  66.492  1.00  0.00    -0.392 A  
ATOM     11  CE1 TYR A   1     -11.788  12.219  67.880  1.00  0.00    -0.358 A  
ATOM     12  CZ  TYR A   1     -11.000  11.416  68.697  1.00  0.00    -0.220 A  
ATOM     13  OH  TYR A   1     -11.072  11.497  70.056  1.00  0.00    -0.476 OA 
ATOM     14  CE2 TYR A   1     -10.105  10.506  68.149  1.00  0.00    -0.180 A  
ATOM     15  CD2 TYR A   1      -9.985  10.401  66.763  1.00  0.00    -0.256 A  
ATOM     16  HH  TYR A   1     -10.534  10.949  70.614  1.00  0.00     0.000 HD 
ENDBRANCH   8   9
ENDBRANCH   2   8
TORSDOF 2
ENDMDL
MODEL       72
REMARK 921   NORMALIZED FREE ENERGY PREDICTED BY IDOCK:   -4.32 KCAL/MOL
REMARK 922        TOTAL FREE ENERGY PREDICTED BY IDOCK:   -4.98 KCAL/MOL
REMARK 923 INTER-LIGAND FREE ENERGY PREDICTED BY IDOCK:   -5.02 KCAL/MOL
REMARK 924 INTRA-LIGAND FREE ENERGY PREDICTED BY IDOCK:    0.04 KCAL/MOL
REMARK 927      BINDING AFFINITY PREDICTED BY RF-SCORE:    0.00 PKD
ROOT
ATOM      1  N   TYR A   1      -8.747  11.962  65.969  1.00  0.00    -0.400 NA 
ATOM      2  CA  TYR A   1      -9.583  10.979  66.732  1.00  0.00    -0.190 C  
ATOM      3  H1  TYR A   1      -7.761  11.704  65.911  1.00  0.00     0.000 HD 
ATOM      4  H2  TYR A   1      -8.852  12.900  66.355  1.00  0.00     0.000 HD 
ATOM      5  C   TYR A   1      -9.428   9.610  66.053  1.00  0.00    -0.225 C  
ATOM      6  OXT TYR A   1     -10.198   8.667  66.159  1.00  0.00    -0.210 OA 
ATOM      7  O   TYR A   1      -8.283   9.558  65.322  1.00  0.00    -0.121 OA 
ENDROOT
BRANCH   2   8
ATOM      8  CB  TYR A   1     -11.069  11.367  66.819  1.00  0.00    -0.343 C  
BRANCH   8   9
ATOM      9  CG  TYR A   1     -11.414  12.586  65.994  1.00  0.00    -0.423 A  
ATOM     10  CD1 TYR A   1     -11.785  12.456  64.647  1.00  0.00    -0.426 A  
ATOM     11  CE1 TYR A   1     -12.069  13.586  63.876  1.00  0.00    -0.493 A  
ATOM     12  CZ  TYR A   1     -11.989  14.847  64.456  1.00  0.00    -0.410 A  
ATOM     13  OH  TYR A   1     -12.248  15.977  63.738  1.00  0.00    -1.269 OA 
ATOM     14  CE2 TYR A   1     -11.636  14.995  65.791  1.00  0.00    -0.171 A  
ATOM     15  CD2 TYR A   1     -11.345  13.867  66.560  1.00  0.00    -0.340 A  
ATOM     16  HH  TYR A   1     -12.193  16.839  64.134  1.00  0.00     0.000 HD 
ENDBRANCH   8   9
ENDBRANCH   2   8
TORSDOF 2
ENDMDL
MODEL       73
REMARK 921   NORMALIZED FREE ENERGY PREDICTED BY IDOCK:   -4.31 KCAL/MOL
REMARK 922        TOTAL FREE ENERGY PREDICTED BY IDOCK:   -4.97 KCAL/MOL
REMARK 923 INTER-LIGAND FREE ENERGY PREDICTED BY IDOCK:   -4.77 KCAL/MOL
REMARK 924 INTRA-LIGAND FREE ENERGY PREDICTED BY IDOCK:   -0.20 KCAL/MOL
REMARK 927      BINDING AFFINITY PREDICTED BY RF-SCORE:    0.00 PKD
ROOT
ATOM      1  N   TYR A   1     -11.020  18.878  65.367  1.00  0.00    -0.393 NA 
ATOM      2  CA  TYR A   1     -10.240  17.743  65.959  1.00  0.00    -0.293 C  
ATOM      3  H1  TYR A   1     -10.975  18.920  64.348  1.00  0.00     0.000 HD 
ATOM      4  H2  TYR A   1     -10.729  19.766  65.777  1.00  0.00     0.000 HD 
ATOM      5  C   TYR A   1     -10.778  16.440  65.348  1.00  0.00    -0.296 C  
ATOM      6  OXT TYR A   1     -10.650  15.321  65.820  1.00  0.00    -0.308 OA 
ATOM      7  O   TYR A   1     -11.408  16.682  64.167  1.00  0.00    -1.141 OA 
ENDROOT
BRANCH   2   8
ATOM      8  CB  TYR A   1     -10.308  17.679  67.495  1.00  0.00    -0.365 C  
BRANCH   8   9
ATOM      9  CG  TYR A   1      -8.974  17.936  68.158  1.00  0.00    -0.268 A  
ATOM     10  CD1 TYR A   1      -8.546  19.246  68.419  1.00  0.00    -0.389 A  
ATOM     11  CE1 TYR A   1      -7.297  19.484  69.001  1.00  0.00    -0.392 A  
ATOM     12  CZ  TYR A   1      -6.481  18.408  69.329  1.00  0.00    -0.257 A  
ATOM     13  OH  TYR A   1      -5.251  18.593  69.889  1.00  0.00    -0.190 OA 
ATOM     14  CE2 TYR A   1      -6.893  17.103  69.090  1.00  0.00    -0.236 A  
ATOM     15  CD2 TYR A   1      -8.137  16.865  68.503  1.00  0.00    -0.244 A  
ATOM     16  HH  TYR A   1      -4.693  17.858  70.112  1.00  0.00     0.000 HD 
ENDBRANCH   8   9
ENDBRANCH   2   8
TORSDOF 2
ENDMDL
MODEL       74
REMARK 921   NORMALIZED FREE ENERGY PREDICTED BY IDOCK:   -4.30 KCAL/MOL
REMARK 922        TOTAL FREE ENERGY PREDICTED BY IDOCK:   -4.96 KCAL/MOL
REMARK 923 INTER-LIGAND FREE ENERGY PREDICTED BY IDOCK:   -4.75 KCAL/MOL
REMARK 924 INTRA-LIGAND FREE ENERGY PREDICTED BY IDOCK:   -0.21 KCAL/MOL
REMARK 927      BINDING AFFINITY PREDICTED BY RF-SCORE:    0.00 PKD
ROOT
ATOM      1  N   TYR A   1      -7.603   8.294  69.674  1.00  0.00    -0.091 NA 
ATOM      2  CA  TYR A   1      -9.060   8.514  69.401  1.00  0.00    -0.150 C  
ATOM      3  H1  TYR A   1      -7.239   7.422  69.287  1.00  0.00     0.000 HD 
ATOM      4  H2  TYR A   1      -7.412   8.351  70.675  1.00  0.00     0.000 HD 
ATOM      5  C   TYR A   1      -9.257   8.483  67.877  1.00  0.00    -0.139 C  
ATOM      6  OXT TYR A   1     -10.204   8.958  67.269  1.00  0.00    -0.216 OA 
ATOM      7  O   TYR A   1      -8.238   7.819  67.269  1.00  0.00    -0.116 OA 
ENDROOT
BRANCH   2   8
ATOM      8  CB  TYR A   1      -9.608   9.827  69.984  1.00  0.00    -0.282 C  
BRANCH   8   9
ATOM      9  CG  TYR A   1     -10.849   9.631  70.824  1.00  0.00    -0.400 A  
ATOM     10  CD1 TYR A   1     -10.973   8.517  71.668  1.00  0.00    -0.362 A  
ATOM     11  CE1 TYR A   1     -12.135   8.318  72.418  1.00  0.00    -0.430 A  
ATOM     12  CZ  TYR A   1     -13.172   9.240  72.328  1.00  0.00    -0.460 A  
ATOM     13  OH  TYR A   1     -14.328   9.081  73.034  1.00  0.00    -1.108 OA 
ATOM     14  CE2 TYR A   1     -13.063  10.356  71.508  1.00  0.00    -0.532 A  
ATOM     15  CD2 TYR A   1     -11.905  10.551  70.754  1.00  0.00    -0.465 A  
ATOM     16  HH  TYR A   1     -15.036   9.710  72.972  1.00  0.00     0.000 HD 
ENDBRANCH   8   9
ENDBRANCH   2   8
TORSDOF 2
ENDMDL
MODEL       75
REMARK 921   NORMALIZED FREE ENERGY PREDICTED BY IDOCK:   -4.29 KCAL/MOL
REMARK 922        TOTAL FREE ENERGY PREDICTED BY IDOCK:   -4.94 KCAL/MOL
REMARK 923 INTER-LIGAND FREE ENERGY PREDICTED BY IDOCK:   -4.72 KCAL/MOL
REMARK 924 INTRA-LIGAND FREE ENERGY PREDICTED BY IDOCK:   -0.22 KCAL/MOL
REMARK 927      BINDING AFFINITY PREDICTED BY RF-SCORE:    0.00 PKD
ROOT
ATOM      1  N   TYR A   1      -8.081  13.363  69.046  1.00  0.00    -0.332 NA 
ATOM      2  CA  TYR A   1      -8.812  14.460  68.334  1.00  0.00    -0.182 C  
ATOM      3  H1  TYR A   1      -7.067  13.476  69.046  1.00  0.00     0.000 HD 
ATOM      4  H2  TYR A   1      -8.341  12.452  68.668  1.00  0.00     0.000 HD 
ATOM      5  C   TYR A   1      -8.424  15.788  69.002  1.00  0.00    -0.242 C  
ATOM      6  OXT TYR A   1      -9.056  16.832  68.941  1.00  0.00    -0.254 OA 
ATOM      7  O   TYR A   1      -7.242  15.671  69.664  1.00  0.00    -0.200 OA 
ENDROOT
BRANCH   2   8
ATOM      8  CB  TYR A   1     -10.341  14.289  68.335  1.00  0.00    -0.247 C  
BRANCH   8   9
ATOM      9  CG  TYR A   1     -10.933  14.232  66.945  1.00  0.00    -0.304 A  
ATOM     10  CD1 TYR A   1     -10.247  14.783  65.853  1.00  0.00    -0.331 A  
ATOM     11  CE1 TYR A   1     -10.811  14.761  64.574  1.00  0.00    -0.181 A  
ATOM     12  CZ  TYR A   1     -12.060  14.180  64.389  1.00  0.00    -0.463 A  
ATOM     13  OH  TYR A   1     -12.652  14.145  63.161  1.00  0.00    -1.058 OA 
ATOM     14  CE2 TYR A   1     -12.749  13.617  65.456  1.00  0.00    -0.514 A  
ATOM     15  CD2 TYR A   1     -12.188  13.645  66.734  1.00  0.00    -0.416 A  
ATOM     16  HH  TYR A   1     -13.505  13.748  63.034  1.00  0.00     0.000 HD 
ENDBRANCH   8   9
ENDBRANCH   2   8
TORSDOF 2
ENDMDL
MODEL       76
REMARK 921   NORMALIZED FREE ENERGY PREDICTED BY IDOCK:   -4.29 KCAL/MOL
REMARK 922        TOTAL FREE ENERGY PREDICTED BY IDOCK:   -4.94 KCAL/MOL
REMARK 923 INTER-LIGAND FREE ENERGY PREDICTED BY IDOCK:   -4.73 KCAL/MOL
REMARK 924 INTRA-LIGAND FREE ENERGY PREDICTED BY IDOCK:   -0.21 KCAL/MOL
REMARK 927      BINDING AFFINITY PREDICTED BY RF-SCORE:    0.00 PKD
ROOT
ATOM      1  N   TYR A   1      -9.891  12.696  64.045  1.00  0.00    -0.640 NA 
ATOM      2  CA  TYR A   1     -10.437  12.893  65.427  1.00  0.00    -0.292 C  
ATOM      3  H1  TYR A   1      -9.150  11.996  63.992  1.00  0.00     0.000 HD 
ATOM      4  H2  TYR A   1      -9.578  13.584  63.652  1.00  0.00     0.000 HD 
ATOM      5  C   TYR A   1     -10.951  11.532  65.923  1.00  0.00    -0.243 C  
ATOM      6  OXT TYR A   1     -11.756  11.357  66.824  1.00  0.00    -0.474 OA 
ATOM      7  O   TYR A   1     -10.362  10.514  65.241  1.00  0.00    -0.287 OA 
ENDROOT
BRANCH   2   8
ATOM      8  CB  TYR A   1     -11.554  13.947  65.507  1.00  0.00    -0.332 C  
BRANCH   8   9
ATOM      9  CG  TYR A   1     -11.249  15.063  66.480  1.00  0.00    -0.312 A  
ATOM     10  CD1 TYR A   1     -11.715  15.007  67.801  1.00  0.00    -0.294 A  
ATOM     11  CE1 TYR A   1     -11.462  16.056  68.690  1.00  0.00    -0.377 A  
ATOM     12  CZ  TYR A   1     -10.735  17.158  68.256  1.00  0.00    -0.363 A  
ATOM     13  OH  TYR A   1     -10.473  18.208  69.086  1.00  0.00    -0.445 OA 
ATOM     14  CE2 TYR A   1     -10.253  17.226  66.955  1.00  0.00    -0.320 A  
ATOM     15  CD2 TYR A   1     -10.512  16.182  66.066  1.00  0.00    -0.349 A  
ATOM     16  HH  TYR A   1      -9.977  18.961  68.790  1.00  0.00     0.000 HD 
ENDBRANCH   8   9
ENDBRANCH   2   8
TORSDOF 2
ENDMDL
MODEL       77
REMARK 921   NORMALIZED FREE ENERGY PREDICTED BY IDOCK:   -4.28 KCAL/MOL
REMARK 922        TOTAL FREE ENERGY PREDICTED BY IDOCK:   -4.93 KCAL/MOL
REMARK 923 INTER-LIGAND FREE ENERGY PREDICTED BY IDOCK:   -4.76 KCAL/MOL
REMARK 924 INTRA-LIGAND FREE ENERGY PREDICTED BY IDOCK:   -0.18 KCAL/MOL
REMARK 927      BINDING AFFINITY PREDICTED BY RF-SCORE:    0.00 PKD
ROOT
ATOM      1  N   TYR A   1      -8.910  13.812  68.747  1.00  0.00    -0.368 NA 
ATOM      2  CA  TYR A   1     -10.023  14.430  67.956  1.00  0.00    -0.225 C  
ATOM      3  H1  TYR A   1      -8.079  14.400  68.816  1.00  0.00     0.000 HD 
ATOM      4  H2  TYR A   1      -8.671  12.893  68.373  1.00  0.00     0.000 HD 
ATOM      5  C   TYR A   1     -10.373  15.773  68.617  1.00  0.00    -0.225 C  
ATOM      6  OXT TYR A   1     -11.422  16.384  68.485  1.00  0.00    -0.351 OA 
ATOM      7  O   TYR A   1      -9.333  16.231  69.365  1.00  0.00    -0.232 OA 
ENDROOT
BRANCH   2   8
ATOM      8  CB  TYR A   1     -11.276  13.544  67.851  1.00  0.00    -0.302 C  
BRANCH   8   9
ATOM      9  CG  TYR A   1     -11.477  12.961  66.472  1.00  0.00    -0.390 A  
ATOM     10  CD1 TYR A   1     -12.528  13.402  65.655  1.00  0.00    -0.519 A  
ATOM     11  CE1 TYR A   1     -12.734  12.837  64.393  1.00  0.00    -0.370 A  
ATOM     12  CZ  TYR A   1     -11.881  11.834  63.946  1.00  0.00    -0.349 A  
ATOM     13  OH  TYR A   1     -12.051  11.248  62.727  1.00  0.00    -0.782 OA 
ATOM     14  CE2 TYR A   1     -10.827  11.393  64.735  1.00  0.00    -0.339 A  
ATOM     15  CD2 TYR A   1     -10.625  11.953  65.998  1.00  0.00    -0.304 A  
ATOM     16  HH  TYR A   1     -11.469  10.563  62.422  1.00  0.00     0.000 HD 
ENDBRANCH   8   9
ENDBRANCH   2   8
TORSDOF 2
ENDMDL
MODEL       78
REMARK 921   NORMALIZED FREE ENERGY PREDICTED BY IDOCK:   -4.26 KCAL/MOL
REMARK 922        TOTAL FREE ENERGY PREDICTED BY IDOCK:   -4.91 KCAL/MOL
REMARK 923 INTER-LIGAND FREE ENERGY PREDICTED BY IDOCK:   -4.72 KCAL/MOL
REMARK 924 INTRA-LIGAND FREE ENERGY PREDICTED BY IDOCK:   -0.18 KCAL/MOL
REMARK 927      BINDING AFFINITY PREDICTED BY RF-SCORE:    0.00 PKD
ROOT
ATOM      1  N   TYR A   1     -10.480  18.726  67.407  1.00  0.00    -0.410 NA 
ATOM      2  CA  TYR A   1      -9.689  17.535  66.958  1.00  0.00    -0.284 C  
ATOM      3  H1  TYR A   1     -10.032  19.260  68.153  1.00  0.00     0.000 HD 
ATOM      4  H2  TYR A   1     -11.423  18.448  67.681  1.00  0.00     0.000 HD 
ATOM      5  C   TYR A   1      -8.311  18.039  66.498  1.00  0.00    -0.268 C  
ATOM      6  OXT TYR A   1      -7.541  17.444  65.760  1.00  0.00    -0.484 OA 
ATOM      7  O   TYR A   1      -8.028  19.249  67.051  1.00  0.00    -0.249 OA 
ENDROOT
BRANCH   2   8
ATOM      8  CB  TYR A   1     -10.364  16.731  65.834  1.00  0.00    -0.341 C  
BRANCH   8   9
ATOM      9  CG  TYR A   1     -10.870  15.382  66.292  1.00  0.00    -0.301 A  
ATOM     10  CD1 TYR A   1     -11.202  15.162  67.637  1.00  0.00    -0.329 A  
ATOM     11  CE1 TYR A   1     -11.636  13.904  68.066  1.00  0.00    -0.368 A  
ATOM     12  CZ  TYR A   1     -11.746  12.869  67.145  1.00  0.00    -0.377 A  
ATOM     13  OH  TYR A   1     -12.156  11.624  67.521  1.00  0.00    -0.611 OA 
ATOM     14  CE2 TYR A   1     -11.435  13.071  65.806  1.00  0.00    -0.367 A  
ATOM     15  CD2 TYR A   1     -10.995  14.325  65.379  1.00  0.00    -0.335 A  
ATOM     16  HH  TYR A   1     -12.231  10.916  66.892  1.00  0.00     0.000 HD 
ENDBRANCH   8   9
ENDBRANCH   2   8
TORSDOF 2
ENDMDL
MODEL       79
REMARK 921   NORMALIZED FREE ENERGY PREDICTED BY IDOCK:   -4.25 KCAL/MOL
REMARK 922        TOTAL FREE ENERGY PREDICTED BY IDOCK:   -4.90 KCAL/MOL
REMARK 923 INTER-LIGAND FREE ENERGY PREDICTED BY IDOCK:   -4.69 KCAL/MOL
REMARK 924 INTRA-LIGAND FREE ENERGY PREDICTED BY IDOCK:   -0.21 KCAL/MOL
REMARK 927      BINDING AFFINITY PREDICTED BY RF-SCORE:    0.00 PKD
ROOT
ATOM      1  N   TYR A   1      -9.521   5.185  68.645  1.00  0.00    -0.126 NA 
ATOM      2  CA  TYR A   1     -10.443   6.366  68.608  1.00  0.00    -0.223 C  
ATOM      3  H1  TYR A   1      -9.772   4.447  67.986  1.00  0.00     0.000 HD 
ATOM      4  H2  TYR A   1      -9.450   4.814  69.592  1.00  0.00     0.000 HD 
ATOM      5  C   TYR A   1     -10.444   6.911  67.171  1.00  0.00    -0.303 C  
ATOM      6  OXT TYR A   1     -10.780   8.036  66.832  1.00  0.00    -0.322 OA 
ATOM      7  O   TYR A   1     -10.044   5.956  66.290  1.00  0.00    -0.136 OA 
ENDROOT
BRANCH   2   8
ATOM      8  CB  TYR A   1     -10.064   7.479  69.600  1.00  0.00    -0.189 C  
BRANCH   8   9
ATOM      9  CG  TYR A   1     -11.198   7.861  70.524  1.00  0.00    -0.259 A  
ATOM     10  CD1 TYR A   1     -12.236   6.958  70.794  1.00  0.00    -0.364 A  
ATOM     11  CE1 TYR A   1     -13.302   7.325  71.621  1.00  0.00    -0.421 A  
ATOM     12  CZ  TYR A   1     -13.323   8.596  72.183  1.00  0.00    -0.396 A  
ATOM     13  OH  TYR A   1     -14.348   9.000  72.987  1.00  0.00    -1.108 OA 
ATOM     14  CE2 TYR A   1     -12.298   9.500  71.938  1.00  0.00    -0.450 A  
ATOM     15  CD2 TYR A   1     -11.237   9.136  71.107  1.00  0.00    -0.395 A  
ATOM     16  HH  TYR A   1     -14.363   9.869  73.371  1.00  0.00     0.000 HD 
ENDBRANCH   8   9
ENDBRANCH   2   8
TORSDOF 2
ENDMDL
MODEL       80
REMARK 921   NORMALIZED FREE ENERGY PREDICTED BY IDOCK:   -4.25 KCAL/MOL
REMARK 922        TOTAL FREE ENERGY PREDICTED BY IDOCK:   -4.90 KCAL/MOL
REMARK 923 INTER-LIGAND FREE ENERGY PREDICTED BY IDOCK:   -4.74 KCAL/MOL
REMARK 924 INTRA-LIGAND FREE ENERGY PREDICTED BY IDOCK:   -0.16 KCAL/MOL
REMARK 927      BINDING AFFINITY PREDICTED BY RF-SCORE:    0.00 PKD
ROOT
ATOM      1  N   TYR A   1     -11.890  13.577  70.711  1.00  0.00    -0.511 NA 
ATOM      2  CA  TYR A   1     -11.833  12.116  70.382  1.00  0.00    -0.187 C  
ATOM      3  H1  TYR A   1     -11.071  14.101  70.400  1.00  0.00     0.000 HD 
ATOM      4  H2  TYR A   1     -12.048  13.715  71.709  1.00  0.00     0.000 HD 
ATOM      5  C   TYR A   1     -11.664  11.988  68.860  1.00  0.00    -0.326 C  
ATOM      6  OXT TYR A   1     -11.924  10.999  68.192  1.00  0.00    -0.610 OA 
ATOM      7  O   TYR A   1     -11.147  13.130  68.332  1.00  0.00    -0.242 OA 
ENDROOT
BRANCH   2   8
ATOM      8  CB  TYR A   1     -13.069  11.328  70.850  1.00  0.00    -0.095 C  
BRANCH   8   9
ATOM      9  CG  TYR A   1     -12.748   9.906  71.251  1.00  0.00    -0.482 A  
ATOM     10  CD1 TYR A   1     -13.762   8.940  71.331  1.00  0.00    -0.323 A  
ATOM     11  CE1 TYR A   1     -13.470   7.635  71.737  1.00  0.00    -0.379 A  
ATOM     12  CZ  TYR A   1     -12.160   7.295  72.053  1.00  0.00    -0.290 A  
ATOM     13  OH  TYR A   1     -11.832   6.036  72.463  1.00  0.00    -0.445 OA 
ATOM     14  CE2 TYR A   1     -11.140   8.233  71.967  1.00  0.00    -0.379 A  
ATOM     15  CD2 TYR A   1     -11.433   9.539  71.569  1.00  0.00    -0.466 A  
ATOM     16  HH  TYR A   1     -10.937   5.804  72.679  1.00  0.00     0.000 HD 
ENDBRANCH   8   9
ENDBRANCH   2   8
TORSDOF 2
ENDMDL
MODEL       81
REMARK 921   NORMALIZED FREE ENERGY PREDICTED BY IDOCK:   -4.21 KCAL/MOL
REMARK 922        TOTAL FREE ENERGY PREDICTED BY IDOCK:   -4.86 KCAL/MOL
REMARK 923 INTER-LIGAND FREE ENERGY PREDICTED BY IDOCK:   -4.89 KCAL/MOL
REMARK 924 INTRA-LIGAND FREE ENERGY PREDICTED BY IDOCK:    0.03 KCAL/MOL
REMARK 927      BINDING AFFINITY PREDICTED BY RF-SCORE:    0.00 PKD
ROOT
ATOM      1  N   TYR A   1     -11.049   7.195  73.336  1.00  0.00    -0.568 NA 
ATOM      2  CA  TYR A   1     -11.723   6.369  72.282  1.00  0.00    -0.290 C  
ATOM      3  H1  TYR A   1     -10.284   6.713  73.809  1.00  0.00     0.000 HD 
ATOM      4  H2  TYR A   1     -11.731   7.540  74.012  1.00  0.00     0.000 HD 
ATOM      5  C   TYR A   1     -10.649   5.946  71.266  1.00  0.00    -0.252 C  
ATOM      6  OXT TYR A   1     -10.854   5.579  70.119  1.00  0.00    -0.306 OA 
ATOM      7  O   TYR A   1      -9.408   6.002  71.821  1.00  0.00    -0.149 OA 
ENDROOT
BRANCH   2   8
ATOM      8  CB  TYR A   1     -12.876   7.095  71.568  1.00  0.00    -0.434 C  
BRANCH   8   9
ATOM      9  CG  TYR A   1     -12.612   8.570  71.364  1.00  0.00    -0.309 A  
ATOM     10  CD1 TYR A   1     -13.372   9.533  72.044  1.00  0.00    -0.535 A  
ATOM     11  CE1 TYR A   1     -13.151  10.896  71.828  1.00  0.00    -0.564 A  
ATOM     12  CZ  TYR A   1     -12.163  11.294  70.935  1.00  0.00    -0.356 A  
ATOM     13  OH  TYR A   1     -11.919  12.613  70.686  1.00  0.00    -0.510 OA 
ATOM     14  CE2 TYR A   1     -11.391  10.356  70.262  1.00  0.00    -0.406 A  
ATOM     15  CD2 TYR A   1     -11.616   8.994  70.472  1.00  0.00    -0.209 A  
ATOM     16  HH  TYR A   1     -11.245  12.885  70.076  1.00  0.00     0.000 HD 
ENDBRANCH   8   9
ENDBRANCH   2   8
TORSDOF 2
ENDMDL
MODEL       82
REMARK 921   NORMALIZED FREE ENERGY PREDICTED BY IDOCK:   -4.21 KCAL/MOL
REMARK 922        TOTAL FREE ENERGY PREDICTED BY IDOCK:   -4.86 KCAL/MOL
REMARK 923 INTER-LIGAND FREE ENERGY PREDICTED BY IDOCK:   -4.71 KCAL/MOL
REMARK 924 INTRA-LIGAND FREE ENERGY PREDICTED BY IDOCK:   -0.14 KCAL/MOL
REMARK 927      BINDING AFFINITY PREDICTED BY RF-SCORE:    0.00 PKD
ROOT
ATOM      1  N   TYR A   1     -12.485  10.504  69.209  1.00  0.00    -0.717 NA 
ATOM      2  CA  TYR A   1     -11.049  10.386  68.796  1.00  0.00    -0.250 C  
ATOM      3  H1  TYR A   1     -12.870  11.443  69.094  1.00  0.00     0.000 HD 
ATOM      4  H2  TYR A   1     -12.612  10.178  70.167  1.00  0.00     0.000 HD 
ATOM      5  C   TYR A   1     -10.949  10.827  67.327  1.00  0.00    -0.297 C  
ATOM      6  OXT TYR A   1     -10.045  10.546  66.555  1.00  0.00    -0.210 OA 
ATOM      7  O   TYR A   1     -12.003  11.616  66.985  1.00  0.00    -0.593 OA 
ENDROOT
BRANCH   2   8
ATOM      8  CB  TYR A   1     -10.470   8.972  68.969  1.00  0.00    -0.235 C  
BRANCH   8   9
ATOM      9  CG  TYR A   1     -10.552   8.466  70.391  1.00  0.00    -0.236 A  
ATOM     10  CD1 TYR A   1      -9.682   8.956  71.375  1.00  0.00    -0.370 A  
ATOM     11  CE1 TYR A   1      -9.735   8.463  72.682  1.00  0.00    -0.332 A  
ATOM     12  CZ  TYR A   1     -10.668   7.484  73.004  1.00  0.00    -0.384 A  
ATOM     13  OH  TYR A   1     -10.749   6.967  74.264  1.00  0.00    -0.463 OA 
ATOM     14  CE2 TYR A   1     -11.547   6.996  72.047  1.00  0.00    -0.322 A  
ATOM     15  CD2 TYR A   1     -11.489   7.483  70.740  1.00  0.00    -0.305 A  
ATOM     16  HH  TYR A   1     -11.385   6.298  74.484  1.00  0.00     0.000 HD 
ENDBRANCH   8   9
ENDBRANCH   2   8
TORSDOF 2
ENDMDL
MODEL       83
REMARK 921   NORMALIZED FREE ENERGY PREDICTED BY IDOCK:   -4.21 KCAL/MOL
REMARK 922        TOTAL FREE ENERGY PREDICTED BY IDOCK:   -4.85 KCAL/MOL
REMARK 923 INTER-LIGAND FREE ENERGY PREDICTED BY IDOCK:   -4.65 KCAL/MOL
REMARK 924 INTRA-LIGAND FREE ENERGY PREDICTED BY IDOCK:   -0.20 KCAL/MOL
REMARK 927      BINDING AFFINITY PREDICTED BY RF-SCORE:    0.00 PKD
ROOT
ATOM      1  N   TYR A   1     -12.516  14.976  69.093  1.00  0.00    -0.588 NA 
ATOM      2  CA  TYR A   1     -11.201  15.472  68.573  1.00  0.00    -0.333 C  
ATOM      3  H1  TYR A   1     -12.867  14.151  68.604  1.00  0.00     0.000 HD 
ATOM      4  H2  TYR A   1     -13.211  15.723  69.084  1.00  0.00     0.000 HD 
ATOM      5  C   TYR A   1     -10.192  14.318  68.682  1.00  0.00    -0.246 C  
ATOM      6  OXT TYR A   1      -8.976  14.429  68.691  1.00  0.00    -0.189 OA 
ATOM      7  O   TYR A   1     -10.832  13.119  68.738  1.00  0.00    -0.251 OA 
ENDROOT
BRANCH   2   8
ATOM      8  CB  TYR A   1     -10.672  16.714  69.310  1.00  0.00    -0.337 C  
BRANCH   8   9
ATOM      9  CG  TYR A   1     -10.048  17.733  68.384  1.00  0.00    -0.376 A  
ATOM     10  CD1 TYR A   1     -10.846  18.497  67.520  1.00  0.00    -0.337 A  
ATOM     11  CE1 TYR A   1     -10.264  19.414  66.640  1.00  0.00    -0.533 A  
ATOM     12  CZ  TYR A   1      -8.883  19.570  66.631  1.00  0.00    -0.346 A  
ATOM     13  OH  TYR A   1      -8.272  20.446  65.782  1.00  0.00    -0.542 OA 
ATOM     14  CE2 TYR A   1      -8.077  18.832  67.488  1.00  0.00    -0.273 A  
ATOM     15  CD2 TYR A   1      -8.657  17.912  68.363  1.00  0.00    -0.296 A  
ATOM     16  HH  TYR A   1      -7.329  20.552  65.775  1.00  0.00     0.000 HD 
ENDBRANCH   8   9
ENDBRANCH   2   8
TORSDOF 2
ENDMDL
MODEL       84
REMARK 921   NORMALIZED FREE ENERGY PREDICTED BY IDOCK:   -4.19 KCAL/MOL
REMARK 922        TOTAL FREE ENERGY PREDICTED BY IDOCK:   -4.84 KCAL/MOL
REMARK 923 INTER-LIGAND FREE ENERGY PREDICTED BY IDOCK:   -4.67 KCAL/MOL
REMARK 924 INTRA-LIGAND FREE ENERGY PREDICTED BY IDOCK:   -0.17 KCAL/MOL
REMARK 927      BINDING AFFINITY PREDICTED BY RF-SCORE:    0.00 PKD
ROOT
ATOM      1  N   TYR A   1     -13.809   8.878  73.184  1.00  0.00    -1.176 NA 
ATOM      2  CA  TYR A   1     -12.887   8.652  72.024  1.00  0.00    -0.379 C  
ATOM      3  H1  TYR A   1     -14.797   8.777  72.949  1.00  0.00     0.000 HD 
ATOM      4  H2  TYR A   1     -13.631   9.786  73.613  1.00  0.00     0.000 HD 
ATOM      5  C   TYR A   1     -13.164   7.243  71.477  1.00  0.00    -0.379 C  
ATOM      6  OXT TYR A   1     -12.404   6.581  70.787  1.00  0.00    -0.284 OA 
ATOM      7  O   TYR A   1     -14.406   6.819  71.836  1.00  0.00    -0.290 OA 
ENDROOT
BRANCH   2   8
ATOM      8  CB  TYR A   1     -11.398   8.803  72.378  1.00  0.00    -0.272 C  
BRANCH   8   9
ATOM      9  CG  TYR A   1     -10.563   9.314  71.226  1.00  0.00    -0.417 A  
ATOM     10  CD1 TYR A   1      -9.195   9.013  71.145  1.00  0.00    -0.326 A  
ATOM     11  CE1 TYR A   1      -8.417   9.515  70.098  1.00  0.00    -0.227 A  
ATOM     12  CZ  TYR A   1      -9.011  10.312  69.127  1.00  0.00    -0.180 A  
ATOM     13  OH  TYR A   1      -8.288  10.831  68.094  1.00  0.00    -0.113 OA 
ATOM     14  CE2 TYR A   1     -10.366  10.610  69.182  1.00  0.00    -0.242 A  
ATOM     15  CD2 TYR A   1     -11.143  10.115  70.231  1.00  0.00    -0.384 A  
ATOM     16  HH  TYR A   1      -8.693  11.375  67.430  1.00  0.00     0.000 HD 
ENDBRANCH   8   9
ENDBRANCH   2   8
TORSDOF 2
ENDMDL
MODEL       85
REMARK 921   NORMALIZED FREE ENERGY PREDICTED BY IDOCK:   -4.19 KCAL/MOL
REMARK 922        TOTAL FREE ENERGY PREDICTED BY IDOCK:   -4.83 KCAL/MOL
REMARK 923 INTER-LIGAND FREE ENERGY PREDICTED BY IDOCK:   -4.69 KCAL/MOL
REMARK 924 INTRA-LIGAND FREE ENERGY PREDICTED BY IDOCK:   -0.15 KCAL/MOL
REMARK 927      BINDING AFFINITY PREDICTED BY RF-SCORE:    0.00 PKD
ROOT
ATOM      1  N   TYR A   1     -11.647  16.045  71.849  1.00  0.00    -0.456 NA 
ATOM      2  CA  TYR A   1     -11.667  14.905  70.876  1.00  0.00    -0.323 C  
ATOM      3  H1  TYR A   1     -10.831  16.651  71.756  1.00  0.00     0.000 HD 
ATOM      4  H2  TYR A   1     -11.733  15.702  72.806  1.00  0.00     0.000 HD 
ATOM      5  C   TYR A   1     -11.604  15.500  69.461  1.00  0.00    -0.350 C  
ATOM      6  OXT TYR A   1     -11.944  14.936  68.432  1.00  0.00    -0.299 OA 
ATOM      7  O   TYR A   1     -11.081  16.756  69.485  1.00  0.00    -0.240 OA 
ENDROOT
BRANCH   2   8
ATOM      8  CB  TYR A   1     -12.896  13.991  71.017  1.00  0.00    -0.410 C  
BRANCH   8   9
ATOM      9  CG  TYR A   1     -12.543  12.522  71.054  1.00  0.00    -0.350 A  
ATOM     10  CD1 TYR A   1     -11.570  11.999  70.189  1.00  0.00    -0.228 A  
ATOM     11  CE1 TYR A   1     -11.269  10.634  70.199  1.00  0.00    -0.378 A  
ATOM     12  CZ  TYR A   1     -11.939   9.794  71.082  1.00  0.00    -0.376 A  
ATOM     13  OH  TYR A   1     -11.684   8.455  71.119  1.00  0.00    -0.276 OA 
ATOM     14  CE2 TYR A   1     -12.896  10.295  71.954  1.00  0.00    -0.528 A  
ATOM     15  CD2 TYR A   1     -13.201  11.657  71.940  1.00  0.00    -0.475 A  
ATOM     16  HH  TYR A   1     -12.142   7.881  71.721  1.00  0.00     0.000 HD 
ENDBRANCH   8   9
ENDBRANCH   2   8
TORSDOF 2
ENDMDL
MODEL       86
REMARK 921   NORMALIZED FREE ENERGY PREDICTED BY IDOCK:   -4.16 KCAL/MOL
REMARK 922        TOTAL FREE ENERGY PREDICTED BY IDOCK:   -4.81 KCAL/MOL
REMARK 923 INTER-LIGAND FREE ENERGY PREDICTED BY IDOCK:   -4.73 KCAL/MOL
REMARK 924 INTRA-LIGAND FREE ENERGY PREDICTED BY IDOCK:   -0.08 KCAL/MOL
REMARK 927      BINDING AFFINITY PREDICTED BY RF-SCORE:    0.00 PKD
ROOT
ATOM      1  N   TYR A   1     -12.562  12.420  70.747  1.00  0.00    -0.266 NA 
ATOM      2  CA  TYR A   1     -12.345  13.884  70.987  1.00  0.00    -0.376 C  
ATOM      3  H1  TYR A   1     -12.617  11.867  71.603  1.00  0.00     0.000 HD 
ATOM      4  H2  TYR A   1     -11.846  12.048  70.123  1.00  0.00     0.000 HD 
ATOM      5  C   TYR A   1     -13.496  14.385  71.874  1.00  0.00    -0.393 C  
ATOM      6  OXT TYR A   1     -13.855  15.547  71.991  1.00  0.00    -0.473 OA 
ATOM      7  O   TYR A   1     -14.066  13.356  72.557  1.00  0.00    -0.726 OA 
ENDROOT
BRANCH   2   8
ATOM      8  CB  TYR A   1     -12.263  14.717  69.697  1.00  0.00    -0.310 C  
BRANCH   8   9
ATOM      9  CG  TYR A   1     -11.419  14.069  68.624  1.00  0.00    -0.337 A  
ATOM     10  CD1 TYR A   1     -10.019  14.159  68.664  1.00  0.00    -0.222 A  
ATOM     11  CE1 TYR A   1      -9.241  13.590  67.652  1.00  0.00    -0.214 A  
ATOM     12  CZ  TYR A   1      -9.864  12.922  66.605  1.00  0.00    -0.250 A  
ATOM     13  OH  TYR A   1      -9.145  12.360  65.592  1.00  0.00    -0.433 OA 
ATOM     14  CE2 TYR A   1     -11.248  12.810  66.555  1.00  0.00    -0.349 A  
ATOM     15  CD2 TYR A   1     -12.026  13.385  67.561  1.00  0.00    -0.381 A  
ATOM     16  HH  TYR A   1      -9.571  11.904  64.876  1.00  0.00     0.000 HD 
ENDBRANCH   8   9
ENDBRANCH   2   8
TORSDOF 2
ENDMDL
MODEL       87
REMARK 921   NORMALIZED FREE ENERGY PREDICTED BY IDOCK:   -4.15 KCAL/MOL
REMARK 922        TOTAL FREE ENERGY PREDICTED BY IDOCK:   -4.79 KCAL/MOL
REMARK 923 INTER-LIGAND FREE ENERGY PREDICTED BY IDOCK:   -4.57 KCAL/MOL
REMARK 924 INTRA-LIGAND FREE ENERGY PREDICTED BY IDOCK:   -0.22 KCAL/MOL
REMARK 927      BINDING AFFINITY PREDICTED BY RF-SCORE:    0.00 PKD
ROOT
ATOM      1  N   TYR A   1      -6.667  17.474  67.003  1.00  0.00    -0.164 NA 
ATOM      2  CA  TYR A   1      -8.161  17.426  67.099  1.00  0.00    -0.210 C  
ATOM      3  H1  TYR A   1      -6.298  18.401  66.788  1.00  0.00     0.000 HD 
ATOM      4  H2  TYR A   1      -6.328  16.787  66.329  1.00  0.00     0.000 HD 
ATOM      5  C   TYR A   1      -8.590  18.433  68.178  1.00  0.00    -0.284 C  
ATOM      6  OXT TYR A   1      -9.656  18.432  68.776  1.00  0.00    -0.339 OA 
ATOM      7  O   TYR A   1      -7.628  19.374  68.373  1.00  0.00    -0.296 OA 
ENDROOT
BRANCH   2   8
ATOM      8  CB  TYR A   1      -8.717  16.029  67.423  1.00  0.00    -0.195 C  
BRANCH   8   9
ATOM      9  CG  TYR A   1      -9.711  15.533  66.399  1.00  0.00    -0.306 A  
ATOM     10  CD1 TYR A   1      -9.866  14.160  66.159  1.00  0.00    -0.326 A  
ATOM     11  CE1 TYR A   1     -10.760  13.704  65.186  1.00  0.00    -0.359 A  
ATOM     12  CZ  TYR A   1     -11.507  14.624  64.460  1.00  0.00    -0.335 A  
ATOM     13  OH  TYR A   1     -12.384  14.225  63.495  1.00  0.00    -1.080 OA 
ATOM     14  CE2 TYR A   1     -11.377  15.988  64.692  1.00  0.00    -0.312 A  
ATOM     15  CD2 TYR A   1     -10.479  16.443  65.659  1.00  0.00    -0.364 A  
ATOM     16  HH  TYR A   1     -12.893  14.854  62.998  1.00  0.00     0.000 HD 
ENDBRANCH   8   9
ENDBRANCH   2   8
TORSDOF 2
ENDMDL
MODEL       88
REMARK 921   NORMALIZED FREE ENERGY PREDICTED BY IDOCK:   -4.13 KCAL/MOL
REMARK 922        TOTAL FREE ENERGY PREDICTED BY IDOCK:   -4.76 KCAL/MOL
REMARK 923 INTER-LIGAND FREE ENERGY PREDICTED BY IDOCK:   -4.56 KCAL/MOL
REMARK 924 INTRA-LIGAND FREE ENERGY PREDICTED BY IDOCK:   -0.21 KCAL/MOL
REMARK 927      BINDING AFFINITY PREDICTED BY RF-SCORE:    0.00 PKD
ROOT
ATOM      1  N   TYR A   1     -11.293   6.238  67.812  1.00  0.00    -0.590 NA 
ATOM      2  CA  TYR A   1     -10.712   6.748  69.096  1.00  0.00    -0.253 C  
ATOM      3  H1  TYR A   1     -10.666   6.330  67.012  1.00  0.00     0.000 HD 
ATOM      4  H2  TYR A   1     -12.189   6.686  67.620  1.00  0.00     0.000 HD 
ATOM      5  C   TYR A   1      -9.405   5.981  69.352  1.00  0.00    -0.131 C  
ATOM      6  OXT TYR A   1      -8.844   5.862  70.431  1.00  0.00    -0.139 OA 
ATOM      7  O   TYR A   1      -8.914   5.459  68.195  1.00  0.00    -0.109 OA 
ENDROOT
BRANCH   2   8
ATOM      8  CB  TYR A   1     -11.657   6.609  70.301  1.00  0.00    -0.454 C  
BRANCH   8   9
ATOM      9  CG  TYR A   1     -12.119   7.940  70.849  1.00  0.00    -0.181 A  
ATOM     10  CD1 TYR A   1     -13.227   8.014  71.706  1.00  0.00    -0.367 A  
ATOM     11  CE1 TYR A   1     -13.675   9.249  72.183  1.00  0.00    -0.517 A  
ATOM     12  CZ  TYR A   1     -13.008  10.409  71.809  1.00  0.00    -0.475 A  
ATOM     13  OH  TYR A   1     -13.416  11.636  72.243  1.00  0.00    -0.610 OA 
ATOM     14  CE2 TYR A   1     -11.900  10.355  70.972  1.00  0.00    -0.458 A  
ATOM     15  CD2 TYR A   1     -11.457   9.123  70.489  1.00  0.00    -0.271 A  
ATOM     16  HH  TYR A   1     -12.960  12.428  71.987  1.00  0.00     0.000 HD 
ENDBRANCH   8   9
ENDBRANCH   2   8
TORSDOF 2
ENDMDL
MODEL       89
REMARK 921   NORMALIZED FREE ENERGY PREDICTED BY IDOCK:   -4.10 KCAL/MOL
REMARK 922        TOTAL FREE ENERGY PREDICTED BY IDOCK:   -4.74 KCAL/MOL
REMARK 923 INTER-LIGAND FREE ENERGY PREDICTED BY IDOCK:   -4.87 KCAL/MOL
REMARK 924 INTRA-LIGAND FREE ENERGY PREDICTED BY IDOCK:    0.14 KCAL/MOL
REMARK 927      BINDING AFFINITY PREDICTED BY RF-SCORE:    0.00 PKD
ROOT
ATOM      1  N   TYR A   1      -9.820  13.388  68.536  1.00  0.00    -0.338 NA 
ATOM      2  CA  TYR A   1      -9.601  11.914  68.375  1.00  0.00    -0.196 C  
ATOM      3  H1  TYR A   1      -9.065  13.865  69.029  1.00  0.00     0.000 HD 
ATOM      4  H2  TYR A   1     -10.717  13.571  68.987  1.00  0.00     0.000 HD 
ATOM      5  C   TYR A   1      -8.271  11.721  67.629  1.00  0.00    -0.145 C  
ATOM      6  OXT TYR A   1      -7.932  10.718  67.019  1.00  0.00    -0.117 OA 
ATOM      7  O   TYR A   1      -7.479  12.819  67.757  1.00  0.00    -0.108 OA 
ENDROOT
BRANCH   2   8
ATOM      8  CB  TYR A   1     -10.739  11.196  67.631  1.00  0.00    -0.273 C  
BRANCH   8   9
ATOM      9  CG  TYR A   1     -11.220  11.949  66.412  1.00  0.00    -0.387 A  
ATOM     10  CD1 TYR A   1     -10.743  11.620  65.134  1.00  0.00    -0.351 A  
ATOM     11  CE1 TYR A   1     -11.161  12.341  64.012  1.00  0.00    -0.456 A  
ATOM     12  CZ  TYR A   1     -12.063  13.386  64.168  1.00  0.00    -0.433 A  
ATOM     13  OH  TYR A   1     -12.490  14.122  63.103  1.00  0.00    -1.126 OA 
ATOM     14  CE2 TYR A   1     -12.556  13.719  65.423  1.00  0.00    -0.534 A  
ATOM     15  CD2 TYR A   1     -12.134  13.004  66.546  1.00  0.00    -0.410 A  
ATOM     16  HH  TYR A   1     -13.106  14.837  63.209  1.00  0.00     0.000 HD 
ENDBRANCH   8   9
ENDBRANCH   2   8
TORSDOF 2
ENDMDL
MODEL       90
REMARK 921   NORMALIZED FREE ENERGY PREDICTED BY IDOCK:   -4.09 KCAL/MOL
REMARK 922        TOTAL FREE ENERGY PREDICTED BY IDOCK:   -4.72 KCAL/MOL
REMARK 923 INTER-LIGAND FREE ENERGY PREDICTED BY IDOCK:   -4.51 KCAL/MOL
REMARK 924 INTRA-LIGAND FREE ENERGY PREDICTED BY IDOCK:   -0.21 KCAL/MOL
REMARK 927      BINDING AFFINITY PREDICTED BY RF-SCORE:    0.00 PKD
ROOT
ATOM      1  N   TYR A   1     -11.259  12.847  69.852  1.00  0.00    -0.482 NA 
ATOM      2  CA  TYR A   1     -11.342  13.075  68.373  1.00  0.00    -0.291 C  
ATOM      3  H1  TYR A   1     -12.119  12.480  70.260  1.00  0.00     0.000 HD 
ATOM      4  H2  TYR A   1     -10.968  13.699  70.331  1.00  0.00     0.000 HD 
ATOM      5  C   TYR A   1     -11.716  11.737  67.716  1.00  0.00    -0.267 C  
ATOM      6  OXT TYR A   1     -11.538  11.441  66.544  1.00  0.00    -0.408 OA 
ATOM      7  O   TYR A   1     -12.313  10.907  68.612  1.00  0.00    -0.501 OA 
ENDROOT
BRANCH   2   8
ATOM      8  CB  TYR A   1     -10.046  13.629  67.757  1.00  0.00    -0.242 C  
BRANCH   8   9
ATOM      9  CG  TYR A   1     -10.228  14.980  67.105  1.00  0.00    -0.249 A  
ATOM     10  CD1 TYR A   1     -10.528  15.079  65.738  1.00  0.00    -0.353 A  
ATOM     11  CE1 TYR A   1     -10.661  16.329  65.128  1.00  0.00    -0.350 A  
ATOM     12  CZ  TYR A   1     -10.502  17.481  65.889  1.00  0.00    -0.249 A  
ATOM     13  OH  TYR A   1     -10.614  18.721  65.333  1.00  0.00    -0.552 OA 
ATOM     14  CE2 TYR A   1     -10.218  17.403  67.247  1.00  0.00    -0.324 A  
ATOM     15  CD2 TYR A   1     -10.078  16.155  67.855  1.00  0.00    -0.244 A  
ATOM     16  HH  TYR A   1     -10.505  19.508  65.853  1.00  0.00     0.000 HD 
ENDBRANCH   8   9
ENDBRANCH   2   8
TORSDOF 2
ENDMDL
MODEL       91
REMARK 921   NORMALIZED FREE ENERGY PREDICTED BY IDOCK:   -4.09 KCAL/MOL
REMARK 922        TOTAL FREE ENERGY PREDICTED BY IDOCK:   -4.72 KCAL/MOL
REMARK 923 INTER-LIGAND FREE ENERGY PREDICTED BY IDOCK:   -4.72 KCAL/MOL
REMARK 924 INTRA-LIGAND FREE ENERGY PREDICTED BY IDOCK:    0.00 KCAL/MOL
REMARK 927      BINDING AFFINITY PREDICTED BY RF-SCORE:    0.00 PKD
ROOT
ATOM      1  N   TYR A   1     -12.381  14.371  67.122  1.00  0.00    -0.576 NA 
ATOM      2  CA  TYR A   1     -12.264  13.835  65.727  1.00  0.00    -0.462 C  
ATOM      3  H1  TYR A   1     -12.986  13.814  67.727  1.00  0.00     0.000 HD 
ATOM      4  H2  TYR A   1     -12.684  15.345  67.108  1.00  0.00     0.000 HD 
ATOM      5  C   TYR A   1     -11.740  12.393  65.825  1.00  0.00    -0.414 C  
ATOM      6  OXT TYR A   1     -11.196  11.767  64.928  1.00  0.00    -0.309 OA 
ATOM      7  O   TYR A   1     -11.986  11.870  67.056  1.00  0.00    -0.615 OA 
ENDROOT
BRANCH   2   8
ATOM      8  CB  TYR A   1     -11.352  14.674  64.816  1.00  0.00    -0.398 C  
BRANCH   8   9
ATOM      9  CG  TYR A   1     -10.499  15.661  65.577  1.00  0.00    -0.426 A  
ATOM     10  CD1 TYR A   1      -9.318  15.246  66.211  1.00  0.00    -0.345 A  
ATOM     11  CE1 TYR A   1      -8.548  16.153  66.945  1.00  0.00    -0.253 A  
ATOM     12  CZ  TYR A   1      -8.957  17.479  67.036  1.00  0.00    -0.240 A  
ATOM     13  OH  TYR A   1      -8.242  18.395  67.749  1.00  0.00    -0.248 OA 
ATOM     14  CE2 TYR A   1     -10.115  17.912  66.404  1.00  0.00    -0.369 A  
ATOM     15  CD2 TYR A   1     -10.889  17.005  65.678  1.00  0.00    -0.063 A  
ATOM     16  HH  TYR A   1      -8.521  19.301  67.812  1.00  0.00     0.000 HD 
ENDBRANCH   8   9
ENDBRANCH   2   8
TORSDOF 2
ENDMDL
MODEL       92
REMARK 921   NORMALIZED FREE ENERGY PREDICTED BY IDOCK:   -4.05 KCAL/MOL
REMARK 922        TOTAL FREE ENERGY PREDICTED BY IDOCK:   -4.68 KCAL/MOL
REMARK 923 INTER-LIGAND FREE ENERGY PREDICTED BY IDOCK:   -4.51 KCAL/MOL
REMARK 924 INTRA-LIGAND FREE ENERGY PREDICTED BY IDOCK:   -0.18 KCAL/MOL
REMARK 927      BINDING AFFINITY PREDICTED BY RF-SCORE:    0.00 PKD
ROOT
ATOM      1  N   TYR A   1     -11.436  12.617  69.812  1.00  0.00    -0.489 NA 
ATOM      2  CA  TYR A   1     -11.750  14.082  69.814  1.00  0.00    -0.313 C  
ATOM      3  H1  TYR A   1     -11.165  12.253  70.727  1.00  0.00     0.000 HD 
ATOM      4  H2  TYR A   1     -10.724  12.402  69.114  1.00  0.00     0.000 HD 
ATOM      5  C   TYR A   1     -12.873  14.317  70.836  1.00  0.00    -0.347 C  
ATOM      6  OXT TYR A   1     -13.620  15.283  70.870  1.00  0.00    -0.421 OA 
ATOM      7  O   TYR A   1     -12.921  13.305  71.745  1.00  0.00    -0.358 OA 
ENDROOT
BRANCH   2   8
ATOM      8  CB  TYR A   1     -12.159  14.630  68.436  1.00  0.00    -0.223 C  
BRANCH   8   9
ATOM      9  CG  TYR A   1     -11.046  15.380  67.741  1.00  0.00    -0.320 A  
ATOM     10  CD1 TYR A   1     -10.229  14.737  66.800  1.00  0.00    -0.266 A  
ATOM     11  CE1 TYR A   1      -9.178  15.422  66.184  1.00  0.00    -0.362 A  
ATOM     12  CZ  TYR A   1      -8.950  16.754  66.506  1.00  0.00    -0.273 A  
ATOM     13  OH  TYR A   1      -7.930  17.458  65.937  1.00  0.00    -0.525 OA 
ATOM     14  CE2 TYR A   1      -9.756  17.413  67.426  1.00  0.00    -0.269 A  
ATOM     15  CD2 TYR A   1     -10.801  16.727  68.046  1.00  0.00    -0.341 A  
ATOM     16  HH  TYR A   1      -7.774  18.369  66.157  1.00  0.00     0.000 HD 
ENDBRANCH   8   9
ENDBRANCH   2   8
TORSDOF 2
ENDMDL
MODEL       93
REMARK 921   NORMALIZED FREE ENERGY PREDICTED BY IDOCK:   -4.04 KCAL/MOL
REMARK 922        TOTAL FREE ENERGY PREDICTED BY IDOCK:   -4.66 KCAL/MOL
REMARK 923 INTER-LIGAND FREE ENERGY PREDICTED BY IDOCK:   -4.49 KCAL/MOL
REMARK 924 INTRA-LIGAND FREE ENERGY PREDICTED BY IDOCK:   -0.17 KCAL/MOL
REMARK 927      BINDING AFFINITY PREDICTED BY RF-SCORE:    0.00 PKD
ROOT
ATOM      1  N   TYR A   1     -12.444   6.008  72.553  1.00  0.00    -0.513 NA 
ATOM      2  CA  TYR A   1     -11.034   6.510  72.636  1.00  0.00    -0.255 C  
ATOM      3  H1  TYR A   1     -12.513   5.008  72.360  1.00  0.00     0.000 HD 
ATOM      4  H2  TYR A   1     -12.977   6.544  71.869  1.00  0.00     0.000 HD 
ATOM      5  C   TYR A   1     -10.317   5.705  73.731  1.00  0.00    -0.250 C  
ATOM      6  OXT TYR A   1      -9.301   6.043  74.319  1.00  0.00    -0.130 OA 
ATOM      7  O   TYR A   1     -10.947   4.520  73.953  1.00  0.00    -0.280 OA 
ENDROOT
BRANCH   2   8
ATOM      8  CB  TYR A   1     -10.930   8.017  72.927  1.00  0.00    -0.398 C  
BRANCH   8   9
ATOM      9  CG  TYR A   1     -11.295   8.877  71.739  1.00  0.00    -0.431 A  
ATOM     10  CD1 TYR A   1     -10.483   8.898  70.595  1.00  0.00    -0.271 A  
ATOM     11  CE1 TYR A   1     -10.802   9.721  69.511  1.00  0.00    -0.264 A  
ATOM     12  CZ  TYR A   1     -11.940  10.517  69.570  1.00  0.00    -0.186 A  
ATOM     13  OH  TYR A   1     -12.285  11.342  68.540  1.00  0.00    -0.588 OA 
ATOM     14  CE2 TYR A   1     -12.764  10.500  70.688  1.00  0.00    -0.441 A  
ATOM     15  CD2 TYR A   1     -12.441   9.684  71.774  1.00  0.00    -0.487 A  
ATOM     16  HH  TYR A   1     -13.062  11.886  68.580  1.00  0.00     0.000 HD 
ENDBRANCH   8   9
ENDBRANCH   2   8
TORSDOF 2
ENDMDL
MODEL       94
REMARK 921   NORMALIZED FREE ENERGY PREDICTED BY IDOCK:   -4.03 KCAL/MOL
REMARK 922        TOTAL FREE ENERGY PREDICTED BY IDOCK:   -4.66 KCAL/MOL
REMARK 923 INTER-LIGAND FREE ENERGY PREDICTED BY IDOCK:   -4.44 KCAL/MOL
REMARK 924 INTRA-LIGAND FREE ENERGY PREDICTED BY IDOCK:   -0.22 KCAL/MOL
REMARK 927      BINDING AFFINITY PREDICTED BY RF-SCORE:    0.00 PKD
ROOT
ATOM      1  N   TYR A   1      -9.032  11.375  63.015  1.00  0.00    -0.523 NA 
ATOM      2  CA  TYR A   1      -9.573  11.272  64.408  1.00  0.00    -0.225 C  
ATOM      3  H1  TYR A   1      -8.048  11.113  62.935  1.00  0.00     0.000 HD 
ATOM      4  H2  TYR A   1      -9.187  12.310  62.637  1.00  0.00     0.000 HD 
ATOM      5  C   TYR A   1      -9.367   9.824  64.882  1.00  0.00    -0.265 C  
ATOM      6  OXT TYR A   1      -9.972   9.276  65.790  1.00  0.00    -0.299 OA 
ATOM      7  O   TYR A   1      -8.381   9.217  64.168  1.00  0.00    -0.161 OA 
ENDROOT
BRANCH   2   8
ATOM      8  CB  TYR A   1     -11.055  11.667  64.528  1.00  0.00    -0.365 C  
BRANCH   8   9
ATOM      9  CG  TYR A   1     -11.310  12.698  65.603  1.00  0.00    -0.357 A  
ATOM     10  CD1 TYR A   1     -11.622  12.303  66.912  1.00  0.00    -0.427 A  
ATOM     11  CE1 TYR A   1     -11.892  13.257  67.898  1.00  0.00    -0.388 A  
ATOM     12  CZ  TYR A   1     -11.841  14.608  67.573  1.00  0.00    -0.347 A  
ATOM     13  OH  TYR A   1     -12.106  15.572  68.500  1.00  0.00    -0.546 OA 
ATOM     14  CE2 TYR A   1     -11.520  15.019  66.286  1.00  0.00    -0.214 A  
ATOM     15  CD2 TYR A   1     -11.257  14.066  65.300  1.00  0.00    -0.319 A  
ATOM     16  HH  TYR A   1     -12.072  16.495  68.278  1.00  0.00     0.000 HD 
ENDBRANCH   8   9
ENDBRANCH   2   8
TORSDOF 2
ENDMDL
MODEL       95
REMARK 921   NORMALIZED FREE ENERGY PREDICTED BY IDOCK:   -3.98 KCAL/MOL
REMARK 922        TOTAL FREE ENERGY PREDICTED BY IDOCK:   -4.60 KCAL/MOL
REMARK 923 INTER-LIGAND FREE ENERGY PREDICTED BY IDOCK:   -4.40 KCAL/MOL
REMARK 924 INTRA-LIGAND FREE ENERGY PREDICTED BY IDOCK:   -0.19 KCAL/MOL
REMARK 927      BINDING AFFINITY PREDICTED BY RF-SCORE:    0.00 PKD
ROOT
ATOM      1  N   TYR A   1      -8.599  10.340  69.863  1.00  0.00    -0.374 NA 
ATOM      2  CA  TYR A   1      -9.968  10.152  69.282  1.00  0.00    -0.219 C  
ATOM      3  H1  TYR A   1      -7.848  10.000  69.262  1.00  0.00     0.000 HD 
ATOM      4  H2  TYR A   1      -8.540   9.916  70.788  1.00  0.00     0.000 HD 
ATOM      5  C   TYR A   1     -10.001  10.874  67.926  1.00  0.00    -0.176 C  
ATOM      6  OXT TYR A   1     -11.006  11.239  67.333  1.00  0.00    -0.247 OA 
ATOM      7  O   TYR A   1      -8.744  11.038  67.433  1.00  0.00    -0.131 OA 
ENDROOT
BRANCH   2   8
ATOM      8  CB  TYR A   1     -11.101  10.666  70.187  1.00  0.00    -0.341 C  
BRANCH   8   9
ATOM      9  CG  TYR A   1     -11.932   9.554  70.786  1.00  0.00    -0.326 A  
ATOM     10  CD1 TYR A   1     -11.471   8.229  70.771  1.00  0.00    -0.268 A  
ATOM     11  CE1 TYR A   1     -12.256   7.197  71.293  1.00  0.00    -0.403 A  
ATOM     12  CZ  TYR A   1     -13.499   7.494  71.839  1.00  0.00    -0.242 A  
ATOM     13  OH  TYR A   1     -14.302   6.518  72.351  1.00  0.00    -0.701 OA 
ATOM     14  CE2 TYR A   1     -13.967   8.802  71.875  1.00  0.00    -0.493 A  
ATOM     15  CD2 TYR A   1     -13.187   9.831  71.347  1.00  0.00    -0.482 A  
ATOM     16  HH  TYR A   1     -15.152   6.720  72.723  1.00  0.00     0.000 HD 
ENDBRANCH   8   9
ENDBRANCH   2   8
TORSDOF 2
ENDMDL
MODEL       96
REMARK 921   NORMALIZED FREE ENERGY PREDICTED BY IDOCK:   -3.97 KCAL/MOL
REMARK 922        TOTAL FREE ENERGY PREDICTED BY IDOCK:   -4.58 KCAL/MOL
REMARK 923 INTER-LIGAND FREE ENERGY PREDICTED BY IDOCK:   -4.41 KCAL/MOL
REMARK 924 INTRA-LIGAND FREE ENERGY PREDICTED BY IDOCK:   -0.18 KCAL/MOL
REMARK 927      BINDING AFFINITY PREDICTED BY RF-SCORE:    0.00 PKD
ROOT
ATOM      1  N   TYR A   1     -10.355  17.324  65.520  1.00  0.00    -0.642 NA 
ATOM      2  CA  TYR A   1     -10.729  17.749  66.908  1.00  0.00    -0.160 C  
ATOM      3  H1  TYR A   1     -10.884  17.800  64.788  1.00  0.00     0.000 HD 
ATOM      4  H2  TYR A   1     -10.434  16.312  65.421  1.00  0.00     0.000 HD 
ATOM      5  C   TYR A   1     -10.521  19.269  67.001  1.00  0.00    -0.456 C  
ATOM      6  OXT TYR A   1     -10.382  19.910  68.032  1.00  0.00    -0.428 OA 
ATOM      7  O   TYR A   1     -10.540  19.838  65.766  1.00  0.00    -0.523 OA 
ENDROOT
BRANCH   2   8
ATOM      8  CB  TYR A   1      -9.932  17.033  68.011  1.00  0.00    -0.283 C  
BRANCH   8   9
ATOM      9  CG  TYR A   1     -10.330  15.585  68.185  1.00  0.00    -0.237 A  
ATOM     10  CD1 TYR A   1     -11.655  15.238  68.486  1.00  0.00    -0.368 A  
ATOM     11  CE1 TYR A   1     -12.014  13.902  68.682  1.00  0.00    -0.401 A  
ATOM     12  CZ  TYR A   1     -11.046  12.911  68.568  1.00  0.00    -0.267 A  
ATOM     13  OH  TYR A   1     -11.350  11.595  68.760  1.00  0.00    -0.215 OA 
ATOM     14  CE2 TYR A   1      -9.731  13.233  68.257  1.00  0.00    -0.225 A  
ATOM     15  CD2 TYR A   1      -9.371  14.568  68.068  1.00  0.00    -0.201 A  
ATOM     16  HH  TYR A   1     -10.689  10.918  68.682  1.00  0.00     0.000 HD 
ENDBRANCH   8   9
ENDBRANCH   2   8
TORSDOF 2
ENDMDL
MODEL       97
REMARK 921   NORMALIZED FREE ENERGY PREDICTED BY IDOCK:   -3.95 KCAL/MOL
REMARK 922        TOTAL FREE ENERGY PREDICTED BY IDOCK:   -4.57 KCAL/MOL
REMARK 923 INTER-LIGAND FREE ENERGY PREDICTED BY IDOCK:   -4.61 KCAL/MOL
REMARK 924 INTRA-LIGAND FREE ENERGY PREDICTED BY IDOCK:    0.04 KCAL/MOL
REMARK 927      BINDING AFFINITY PREDICTED BY RF-SCORE:    0.00 PKD
ROOT
ATOM      1  N   TYR A   1     -10.213  15.038  70.307  1.00  0.00    -0.504 NA 
ATOM      2  CA  TYR A   1     -11.390  15.947  70.118  1.00  0.00    -0.365 C  
ATOM      3  H1  TYR A   1      -9.877  14.996  71.270  1.00  0.00     0.000 HD 
ATOM      4  H2  TYR A   1      -9.457  15.293  69.672  1.00  0.00     0.000 HD 
ATOM      5  C   TYR A   1     -12.509  15.461  71.053  1.00  0.00    -0.411 C  
ATOM      6  OXT TYR A   1     -13.698  15.712  70.937  1.00  0.00    -0.549 OA 
ATOM      7  O   TYR A   1     -11.999  14.720  72.074  1.00  0.00    -0.347 OA 
ENDROOT
BRANCH   2   8
ATOM      8  CB  TYR A   1     -11.897  16.010  68.667  1.00  0.00    -0.174 C  
BRANCH   8   9
ATOM      9  CG  TYR A   1     -11.273  14.962  67.774  1.00  0.00    -0.329 A  
ATOM     10  CD1 TYR A   1     -11.865  13.699  67.633  1.00  0.00    -0.404 A  
ATOM     11  CE1 TYR A   1     -11.268  12.719  66.835  1.00  0.00    -0.339 A  
ATOM     12  CZ  TYR A   1     -10.081  13.008  66.171  1.00  0.00    -0.285 A  
ATOM     13  OH  TYR A   1      -9.458  12.080  65.390  1.00  0.00    -0.387 OA 
ATOM     14  CE2 TYR A   1      -9.486  14.258  66.288  1.00  0.00    -0.277 A  
ATOM     15  CD2 TYR A   1     -10.079  15.234  67.091  1.00  0.00    -0.240 A  
ATOM     16  HH  TYR A   1      -8.648  12.277  64.937  1.00  0.00     0.000 HD 
ENDBRANCH   8   9
ENDBRANCH   2   8
TORSDOF 2
ENDMDL
MODEL       98
REMARK 921   NORMALIZED FREE ENERGY PREDICTED BY IDOCK:   -3.94 KCAL/MOL
REMARK 922        TOTAL FREE ENERGY PREDICTED BY IDOCK:   -4.56 KCAL/MOL
REMARK 923 INTER-LIGAND FREE ENERGY PREDICTED BY IDOCK:   -4.38 KCAL/MOL
REMARK 924 INTRA-LIGAND FREE ENERGY PREDICTED BY IDOCK:   -0.18 KCAL/MOL
REMARK 927      BINDING AFFINITY PREDICTED BY RF-SCORE:    0.00 PKD
ROOT
ATOM      1  N   TYR A   1     -10.106  10.964  67.648  1.00  0.00    -0.175 NA 
ATOM      2  CA  TYR A   1     -10.851  10.448  68.842  1.00  0.00    -0.236 C  
ATOM      3  H1  TYR A   1     -10.711  11.344  66.919  1.00  0.00     0.000 HD 
ATOM      4  H2  TYR A   1      -9.493  10.243  67.268  1.00  0.00     0.000 HD 
ATOM      5  C   TYR A   1     -11.696  11.605  69.399  1.00  0.00    -0.340 C  
ATOM      6  OXT TYR A   1     -12.149  11.679  70.530  1.00  0.00    -0.361 OA 
ATOM      7  O   TYR A   1     -11.912  12.550  68.445  1.00  0.00    -0.322 OA 
ENDROOT
BRANCH   2   8
ATOM      8  CB  TYR A   1      -9.940   9.876  69.941  1.00  0.00    -0.292 C  
BRANCH   8   9
ATOM      9  CG  TYR A   1     -10.563   8.717  70.685  1.00  0.00    -0.258 A  
ATOM     10  CD1 TYR A   1     -10.979   7.567  69.999  1.00  0.00    -0.252 A  
ATOM     11  CE1 TYR A   1     -11.587   6.511  70.684  1.00  0.00    -0.442 A  
ATOM     12  CZ  TYR A   1     -11.772   6.605  72.058  1.00  0.00    -0.313 A  
ATOM     13  OH  TYR A   1     -12.370   5.603  72.765  1.00  0.00    -0.522 OA 
ATOM     14  CE2 TYR A   1     -11.356   7.730  72.757  1.00  0.00    -0.446 A  
ATOM     15  CD2 TYR A   1     -10.754   8.788  72.073  1.00  0.00    -0.417 A  
ATOM     16  HH  TYR A   1     -12.497   5.667  73.703  1.00  0.00     0.000 HD 
ENDBRANCH   8   9
ENDBRANCH   2   8
TORSDOF 2
ENDMDL
MODEL       99
REMARK 921   NORMALIZED FREE ENERGY PREDICTED BY IDOCK:   -3.90 KCAL/MOL
REMARK 922        TOTAL FREE ENERGY PREDICTED BY IDOCK:   -4.51 KCAL/MOL
REMARK 923 INTER-LIGAND FREE ENERGY PREDICTED BY IDOCK:   -4.34 KCAL/MOL
REMARK 924 INTRA-LIGAND FREE ENERGY PREDICTED BY IDOCK:   -0.17 KCAL/MOL
REMARK 927      BINDING AFFINITY PREDICTED BY RF-SCORE:    0.00 PKD
ROOT
ATOM      1  N   TYR A   1     -10.929   9.141  68.116  1.00  0.00    -0.484 NA 
ATOM      2  CA  TYR A   1     -10.895  10.132  69.240  1.00  0.00    -0.235 C  
ATOM      3  H1  TYR A   1     -10.363   8.308  68.285  1.00  0.00     0.000 HD 
ATOM      4  H2  TYR A   1     -10.663   9.584  67.237  1.00  0.00     0.000 HD 
ATOM      5  C   TYR A   1     -11.371   9.411  70.511  1.00  0.00    -0.274 C  
ATOM      6  OXT TYR A   1     -11.805   9.949  71.518  1.00  0.00    -0.381 OA 
ATOM      7  O   TYR A   1     -11.221   8.065  70.390  1.00  0.00    -0.268 OA 
ENDROOT
BRANCH   2   8
ATOM      8  CB  TYR A   1     -11.748  11.386  68.985  1.00  0.00    -0.409 C  
BRANCH   8   9
ATOM      9  CG  TYR A   1     -11.294  12.178  67.780  1.00  0.00    -0.371 A  
ATOM     10  CD1 TYR A   1     -12.094  12.252  66.630  1.00  0.00    -0.074 A  
ATOM     11  CE1 TYR A   1     -11.658  12.955  65.504  1.00  0.00    -0.395 A  
ATOM     12  CZ  TYR A   1     -10.423  13.592  65.533  1.00  0.00    -0.306 A  
ATOM     13  OH  TYR A   1      -9.953  14.282  64.454  1.00  0.00    -0.634 OA 
ATOM     14  CE2 TYR A   1      -9.622  13.542  66.667  1.00  0.00    -0.282 A  
ATOM     15  CD2 TYR A   1     -10.055  12.834  67.790  1.00  0.00    -0.224 A  
ATOM     16  HH  TYR A   1      -9.109  14.716  64.474  1.00  0.00     0.000 HD 
ENDBRANCH   8   9
ENDBRANCH   2   8
TORSDOF 2
ENDMDL
MODEL      100
REMARK 921   NORMALIZED FREE ENERGY PREDICTED BY IDOCK:   -3.89 KCAL/MOL
REMARK 922        TOTAL FREE ENERGY PREDICTED BY IDOCK:   -4.50 KCAL/MOL
REMARK 923 INTER-LIGAND FREE ENERGY PREDICTED BY IDOCK:   -4.29 KCAL/MOL
REMARK 924 INTRA-LIGAND FREE ENERGY PREDICTED BY IDOCK:   -0.21 KCAL/MOL
REMARK 927      BINDING AFFINITY PREDICTED BY RF-SCORE:    0.00 PKD
ROOT
ATOM      1  N   TYR A   1     -13.278  14.614  70.118  1.00  0.00    -0.481 NA 
ATOM      2  CA  TYR A   1     -11.899  14.576  69.532  1.00  0.00    -0.329 C  
ATOM      3  H1  TYR A   1     -13.294  14.540  71.136  1.00  0.00     0.000 HD 
ATOM      4  H2  TYR A   1     -13.868  13.897  69.696  1.00  0.00     0.000 HD 
ATOM      5  C   TYR A   1     -11.094  15.723  70.164  1.00  0.00    -0.352 C  
ATOM      6  OXT TYR A   1     -10.079  16.223  69.703  1.00  0.00    -0.242 OA 
ATOM      7  O   TYR A   1     -11.643  16.107  71.347  1.00  0.00    -0.445 OA 
ENDROOT
BRANCH   2   8
ATOM      8  CB  TYR A   1     -11.875  14.688  67.998  1.00  0.00    -0.343 C  
BRANCH   8   9
ATOM      9  CG  TYR A   1     -11.360  13.439  67.320  1.00  0.00    -0.348 A  
ATOM     10  CD1 TYR A   1     -11.464  13.287  65.930  1.00  0.00    -0.359 A  
ATOM     11  CE1 TYR A   1     -11.020  12.117  65.308  1.00  0.00    -0.349 A  
ATOM     12  CZ  TYR A   1     -10.465  11.102  66.078  1.00  0.00    -0.256 A  
ATOM     13  OH  TYR A   1     -10.027   9.939  65.515  1.00  0.00    -0.304 OA 
ATOM     14  CE2 TYR A   1     -10.342  11.240  67.455  1.00  0.00    -0.233 A  
ATOM     15  CD2 TYR A   1     -10.791  12.405  68.077  1.00  0.00    -0.251 A  
ATOM     16  HH  TYR A   1      -9.648   9.246  66.041  1.00  0.00     0.000 HD 
ENDBRANCH   8   9
ENDBRANCH   2   8
TORSDOF 2
ENDMDL
MODEL      101
REMARK 921   NORMALIZED FREE ENERGY PREDICTED BY IDOCK:   -3.89 KCAL/MOL
REMARK 922        TOTAL FREE ENERGY PREDICTED BY IDOCK:   -4.50 KCAL/MOL
REMARK 923 INTER-LIGAND FREE ENERGY PREDICTED BY IDOCK:   -4.29 KCAL/MOL
REMARK 924 INTRA-LIGAND FREE ENERGY PREDICTED BY IDOCK:   -0.22 KCAL/MOL
REMARK 927      BINDING AFFINITY PREDICTED BY RF-SCORE:    0.00 PKD
ROOT
ATOM      1  N   TYR A   1     -11.371   6.796  67.264  1.00  0.00    -0.753 NA 
ATOM      2  CA  TYR A   1     -10.535   8.040  67.225  1.00  0.00    -0.314 C  
ATOM      3  H1  TYR A   1     -11.464   6.335  66.358  1.00  0.00     0.000 HD 
ATOM      4  H2  TYR A   1     -12.289   6.992  67.663  1.00  0.00     0.000 HD 
ATOM      5  C   TYR A   1      -9.151   7.653  66.680  1.00  0.00    -0.164 C  
ATOM      6  OXT TYR A   1      -8.121   8.292  66.826  1.00  0.00    -0.100 OA 
ATOM      7  O   TYR A   1      -9.217   6.496  65.967  1.00  0.00    -0.136 OA 
ENDROOT
BRANCH   2   8
ATOM      8  CB  TYR A   1     -10.396   8.735  68.590  1.00  0.00    -0.230 C  
BRANCH   8   9
ATOM      9  CG  TYR A   1     -10.953  10.140  68.600  1.00  0.00    -0.273 A  
ATOM     10  CD1 TYR A   1     -11.074  10.869  67.408  1.00  0.00    -0.373 A  
ATOM     11  CE1 TYR A   1     -11.556  12.181  67.423  1.00  0.00    -0.410 A  
ATOM     12  CZ  TYR A   1     -11.924  12.760  68.632  1.00  0.00    -0.233 A  
ATOM     13  OH  TYR A   1     -12.390  14.040  68.695  1.00  0.00    -0.525 OA 
ATOM     14  CE2 TYR A   1     -11.823  12.049  69.821  1.00  0.00    -0.401 A  
ATOM     15  CD2 TYR A   1     -11.336  10.742  69.808  1.00  0.00    -0.372 A  
ATOM     16  HH  TYR A   1     -12.641  14.436  69.520  1.00  0.00     0.000 HD 
ENDBRANCH   8   9
ENDBRANCH   2   8
TORSDOF 2
ENDMDL
MODEL      102
REMARK 921   NORMALIZED FREE ENERGY PREDICTED BY IDOCK:   -3.88 KCAL/MOL
REMARK 922        TOTAL FREE ENERGY PREDICTED BY IDOCK:   -4.49 KCAL/MOL
REMARK 923 INTER-LIGAND FREE ENERGY PREDICTED BY IDOCK:   -4.34 KCAL/MOL
REMARK 924 INTRA-LIGAND FREE ENERGY PREDICTED BY IDOCK:   -0.14 KCAL/MOL
REMARK 927      BINDING AFFINITY PREDICTED BY RF-SCORE:    0.00 PKD
ROOT
ATOM      1  N   TYR A   1     -11.202  13.425  69.842  1.00  0.00    -0.482 NA 
ATOM      2  CA  TYR A   1     -11.531  14.836  70.224  1.00  0.00    -0.260 C  
ATOM      3  H1  TYR A   1     -11.126  12.791  70.639  1.00  0.00     0.000 HD 
ATOM      4  H2  TYR A   1     -10.354  13.393  69.276  1.00  0.00     0.000 HD 
ATOM      5  C   TYR A   1     -12.850  14.810  71.011  1.00  0.00    -0.352 C  
ATOM      6  OXT TYR A   1     -13.601  15.758  71.181  1.00  0.00    -0.576 OA 
ATOM      7  O   TYR A   1     -13.075  13.577  71.539  1.00  0.00    -0.351 OA 
ENDROOT
BRANCH   2   8
ATOM      8  CB  TYR A   1     -11.645  15.791  69.023  1.00  0.00    -0.406 C  
BRANCH   8   9
ATOM      9  CG  TYR A   1     -10.433  16.679  68.854  1.00  0.00    -0.322 A  
ATOM     10  CD1 TYR A   1     -10.581  18.058  68.647  1.00  0.00    -0.114 A  
ATOM     11  CE1 TYR A   1      -9.461  18.873  68.455  1.00  0.00    -0.416 A  
ATOM     12  CZ  TYR A   1      -8.192  18.306  68.480  1.00  0.00    -0.312 A  
ATOM     13  OH  TYR A   1      -7.073  19.061  68.288  1.00  0.00    -0.251 OA 
ATOM     14  CE2 TYR A   1      -8.025  16.944  68.698  1.00  0.00    -0.256 A  
ATOM     15  CD2 TYR A   1      -9.143  16.130  68.882  1.00  0.00    -0.246 A  
ATOM     16  HH  TYR A   1      -6.206  18.674  68.305  1.00  0.00     0.000 HD 
ENDBRANCH   8   9
ENDBRANCH   2   8
TORSDOF 2
ENDMDL
MODEL      103
REMARK 921   NORMALIZED FREE ENERGY PREDICTED BY IDOCK:   -3.85 KCAL/MOL
REMARK 922        TOTAL FREE ENERGY PREDICTED BY IDOCK:   -4.46 KCAL/MOL
REMARK 923 INTER-LIGAND FREE ENERGY PREDICTED BY IDOCK:   -4.24 KCAL/MOL
REMARK 924 INTRA-LIGAND FREE ENERGY PREDICTED BY IDOCK:   -0.22 KCAL/MOL
REMARK 927      BINDING AFFINITY PREDICTED BY RF-SCORE:    0.00 PKD
ROOT
ATOM      1  N   TYR A   1     -11.407   6.693  66.962  1.00  0.00    -0.795 NA 
ATOM      2  CA  TYR A   1     -10.314   7.654  66.601  1.00  0.00    -0.187 C  
ATOM      3  H1  TYR A   1     -11.351   5.803  66.466  1.00  0.00     0.000 HD 
ATOM      4  H2  TYR A   1     -12.322   7.124  66.828  1.00  0.00     0.000 HD 
ATOM      5  C   TYR A   1      -8.973   6.963  66.894  1.00  0.00    -0.122 C  
ATOM      6  OXT TYR A   1      -7.900   7.524  67.061  1.00  0.00    -0.111 OA 
ATOM      7  O   TYR A   1      -9.118   5.611  66.916  1.00  0.00    -0.115 OA 
ENDROOT
BRANCH   2   8
ATOM      8  CB  TYR A   1     -10.398   8.996  67.349  1.00  0.00    -0.335 C  
BRANCH   8   9
ATOM      9  CG  TYR A   1     -10.375  10.192  66.425  1.00  0.00    -0.258 A  
ATOM     10  CD1 TYR A   1      -9.913  10.068  65.106  1.00  0.00    -0.350 A  
ATOM     11  CE1 TYR A   1      -9.860  11.182  64.264  1.00  0.00    -0.335 A  
ATOM     12  CZ  TYR A   1     -10.278  12.419  64.740  1.00  0.00    -0.279 A  
ATOM     13  OH  TYR A   1     -10.234  13.534  63.956  1.00  0.00    -0.723 OA 
ATOM     14  CE2 TYR A   1     -10.752  12.559  66.038  1.00  0.00    -0.292 A  
ATOM     15  CD2 TYR A   1     -10.798  11.448  66.882  1.00  0.00    -0.335 A  
ATOM     16  HH  TYR A   1     -10.520  14.379  64.282  1.00  0.00     0.000 HD 
ENDBRANCH   8   9
ENDBRANCH   2   8
TORSDOF 2
ENDMDL
MODEL      104
REMARK 921   NORMALIZED FREE ENERGY PREDICTED BY IDOCK:   -3.81 KCAL/MOL
REMARK 922        TOTAL FREE ENERGY PREDICTED BY IDOCK:   -4.41 KCAL/MOL
REMARK 923 INTER-LIGAND FREE ENERGY PREDICTED BY IDOCK:   -4.41 KCAL/MOL
REMARK 924 INTRA-LIGAND FREE ENERGY PREDICTED BY IDOCK:   -0.00 KCAL/MOL
REMARK 927      BINDING AFFINITY PREDICTED BY RF-SCORE:    0.00 PKD
ROOT
ATOM      1  N   TYR A   1      -9.089  20.181  66.166  1.00  0.00    -0.584 NA 
ATOM      2  CA  TYR A   1      -8.672  20.321  67.599  1.00  0.00    -0.267 C  
ATOM      3  H1  TYR A   1      -8.839  20.982  65.585  1.00  0.00     0.000 HD 
ATOM      4  H2  TYR A   1     -10.088  19.985  66.099  1.00  0.00     0.000 HD 
ATOM      5  C   TYR A   1      -7.152  20.544  67.622  1.00  0.00    -0.321 C  
ATOM      6  OXT TYR A   1      -6.416  20.356  68.578  1.00  0.00    -0.298 OA 
ATOM      7  O   TYR A   1      -6.713  21.019  66.426  1.00  0.00    -0.247 OA 
ENDROOT
BRANCH   2   8
ATOM      8  CB  TYR A   1      -9.048  19.113  68.474  1.00  0.00    -0.416 C  
BRANCH   8   9
ATOM      9  CG  TYR A   1      -9.214  17.836  67.683  1.00  0.00    -0.249 A  
ATOM     10  CD1 TYR A   1      -8.101  17.193  67.122  1.00  0.00    -0.215 A  
ATOM     11  CE1 TYR A   1      -8.259  16.031  66.361  1.00  0.00    -0.309 A  
ATOM     12  CZ  TYR A   1      -9.533  15.509  66.169  1.00  0.00    -0.341 A  
ATOM     13  OH  TYR A   1      -9.735  14.383  65.426  1.00  0.00    -0.530 OA 
ATOM     14  CE2 TYR A   1     -10.646  16.124  66.728  1.00  0.00    -0.277 A  
ATOM     15  CD2 TYR A   1     -10.489  17.288  67.483  1.00  0.00    -0.356 A  
ATOM     16  HH  TYR A   1     -10.605  14.027  65.295  1.00  0.00     0.000 HD 
ENDBRANCH   8   9
ENDBRANCH   2   8
TORSDOF 2
ENDMDL
MODEL      105
REMARK 921   NORMALIZED FREE ENERGY PREDICTED BY IDOCK:   -3.81 KCAL/MOL
REMARK 922        TOTAL FREE ENERGY PREDICTED BY IDOCK:   -4.41 KCAL/MOL
REMARK 923 INTER-LIGAND FREE ENERGY PREDICTED BY IDOCK:   -4.40 KCAL/MOL
REMARK 924 INTRA-LIGAND FREE ENERGY PREDICTED BY IDOCK:   -0.01 KCAL/MOL
REMARK 927      BINDING AFFINITY PREDICTED BY RF-SCORE:    0.00 PKD
ROOT
ATOM      1  N   TYR A   1     -12.581  12.235  71.607  1.00  0.00    -0.167 NA 
ATOM      2  CA  TYR A   1     -12.546  13.624  71.045  1.00  0.00    -0.363 C  
ATOM      3  H1  TYR A   1     -12.611  12.205  72.627  1.00  0.00     0.000 HD 
ATOM      4  H2  TYR A   1     -11.798  11.685  71.254  1.00  0.00     0.000 HD 
ATOM      5  C   TYR A   1     -13.787  14.367  71.563  1.00  0.00    -0.379 C  
ATOM      6  OXT TYR A   1     -14.283  15.366  71.065  1.00  0.00    -0.460 OA 
ATOM      7  O   TYR A   1     -14.266  13.782  72.693  1.00  0.00    -0.710 OA 
ENDROOT
BRANCH   2   8
ATOM      8  CB  TYR A   1     -12.500  13.669  69.508  1.00  0.00    -0.092 C  
BRANCH   8   9
ATOM      9  CG  TYR A   1     -11.667  14.812  68.972  1.00  0.00    -0.343 A  
ATOM     10  CD1 TYR A   1     -11.191  15.813  69.831  1.00  0.00    -0.335 A  
ATOM     11  CE1 TYR A   1     -10.451  16.888  69.329  1.00  0.00    -0.319 A  
ATOM     12  CZ  TYR A   1     -10.182  16.955  67.968  1.00  0.00    -0.310 A  
ATOM     13  OH  TYR A   1      -9.473  17.990  67.433  1.00  0.00    -0.258 OA 
ATOM     14  CE2 TYR A   1     -10.634  15.966  67.103  1.00  0.00    -0.316 A  
ATOM     15  CD2 TYR A   1     -11.379  14.897  67.603  1.00  0.00    -0.348 A  
ATOM     16  HH  TYR A   1      -9.289  18.036  66.503  1.00  0.00     0.000 HD 
ENDBRANCH   8   9
ENDBRANCH   2   8
TORSDOF 2
ENDMDL
MODEL      106
REMARK 921   NORMALIZED FREE ENERGY PREDICTED BY IDOCK:   -3.79 KCAL/MOL
REMARK 922        TOTAL FREE ENERGY PREDICTED BY IDOCK:   -4.39 KCAL/MOL
REMARK 923 INTER-LIGAND FREE ENERGY PREDICTED BY IDOCK:   -4.36 KCAL/MOL
REMARK 924 INTRA-LIGAND FREE ENERGY PREDICTED BY IDOCK:   -0.03 KCAL/MOL
REMARK 927      BINDING AFFINITY PREDICTED BY RF-SCORE:    0.00 PKD
ROOT
ATOM      1  N   TYR A   1      -9.121  12.984  68.852  1.00  0.00    -0.363 NA 
ATOM      2  CA  TYR A   1      -9.957  13.707  67.839  1.00  0.00    -0.244 C  
ATOM      3  H1  TYR A   1      -8.168  13.342  68.928  1.00  0.00     0.000 HD 
ATOM      4  H2  TYR A   1      -9.114  11.982  68.664  1.00  0.00     0.000 HD 
ATOM      5  C   TYR A   1      -9.976  15.194  68.227  1.00  0.00    -0.223 C  
ATOM      6  OXT TYR A   1     -10.805  16.016  67.869  1.00  0.00    -0.316 OA 
ATOM      7  O   TYR A   1      -8.911  15.503  69.015  1.00  0.00    -0.201 OA 
ENDROOT
BRANCH   2   8
ATOM      8  CB  TYR A   1     -11.393  13.167  67.724  1.00  0.00    -0.326 C  
BRANCH   8   9
ATOM      9  CG  TYR A   1     -11.889  12.523  68.999  1.00  0.00    -0.344 A  
ATOM     10  CD1 TYR A   1     -12.248  13.309  70.104  1.00  0.00    -0.376 A  
ATOM     11  CE1 TYR A   1     -12.673  12.711  71.294  1.00  0.00    -0.354 A  
ATOM     12  CZ  TYR A   1     -12.746  11.325  71.374  1.00  0.00    -0.396 A  
ATOM     13  OH  TYR A   1     -13.145  10.699  72.517  1.00  0.00    -0.428 OA 
ATOM     14  CE2 TYR A   1     -12.407  10.531  70.286  1.00  0.00    -0.377 A  
ATOM     15  CD2 TYR A   1     -11.976  11.127  69.100  1.00  0.00    -0.413 A  
ATOM     16  HH  TYR A   1     -13.195   9.752  72.572  1.00  0.00     0.000 HD 
ENDBRANCH   8   9
ENDBRANCH   2   8
TORSDOF 2
ENDMDL
MODEL      107
REMARK 921   NORMALIZED FREE ENERGY PREDICTED BY IDOCK:   -3.78 KCAL/MOL
REMARK 922        TOTAL FREE ENERGY PREDICTED BY IDOCK:   -4.38 KCAL/MOL
REMARK 923 INTER-LIGAND FREE ENERGY PREDICTED BY IDOCK:   -4.38 KCAL/MOL
REMARK 924 INTRA-LIGAND FREE ENERGY PREDICTED BY IDOCK:    0.01 KCAL/MOL
REMARK 927      BINDING AFFINITY PREDICTED BY RF-SCORE:    0.00 PKD
ROOT
ATOM      1  N   TYR A   1     -11.318   5.660  73.119  1.00  0.00    -0.477 NA 
ATOM      2  CA  TYR A   1     -10.700   5.458  71.768  1.00  0.00    -0.204 C  
ATOM      3  H1  TYR A   1     -10.808   5.203  73.876  1.00  0.00     0.000 HD 
ATOM      4  H2  TYR A   1     -12.295   5.367  73.115  1.00  0.00     0.000 HD 
ATOM      5  C   TYR A   1      -9.257   5.982  71.833  1.00  0.00    -0.150 C  
ATOM      6  OXT TYR A   1      -8.570   6.307  70.877  1.00  0.00    -0.133 OA 
ATOM      7  O   TYR A   1      -8.811   6.015  73.118  1.00  0.00    -0.129 OA 
ENDROOT
BRANCH   2   8
ATOM      8  CB  TYR A   1     -11.468   6.146  70.627  1.00  0.00    -0.331 C  
BRANCH   8   9
ATOM      9  CG  TYR A   1     -12.040   7.489  71.022  1.00  0.00    -0.305 A  
ATOM     10  CD1 TYR A   1     -11.255   8.649  70.951  1.00  0.00    -0.311 A  
ATOM     11  CE1 TYR A   1     -11.774   9.884  71.350  1.00  0.00    -0.449 A  
ATOM     12  CZ  TYR A   1     -13.082   9.958  71.812  1.00  0.00    -0.452 A  
ATOM     13  OH  TYR A   1     -13.626  11.140  72.221  1.00  0.00    -0.543 OA 
ATOM     14  CE2 TYR A   1     -13.880   8.822  71.877  1.00  0.00    -0.491 A  
ATOM     15  CD2 TYR A   1     -13.360   7.587  71.485  1.00  0.00    -0.409 A  
ATOM     16  HH  TYR A   1     -14.520  11.190  72.537  1.00  0.00     0.000 HD 
ENDBRANCH   8   9
ENDBRANCH   2   8
TORSDOF 2
ENDMDL
MODEL      108
REMARK 921   NORMALIZED FREE ENERGY PREDICTED BY IDOCK:   -3.76 KCAL/MOL
REMARK 922        TOTAL FREE ENERGY PREDICTED BY IDOCK:   -4.36 KCAL/MOL
REMARK 923 INTER-LIGAND FREE ENERGY PREDICTED BY IDOCK:   -4.15 KCAL/MOL
REMARK 924 INTRA-LIGAND FREE ENERGY PREDICTED BY IDOCK:   -0.21 KCAL/MOL
REMARK 927      BINDING AFFINITY PREDICTED BY RF-SCORE:    0.00 PKD
ROOT
ATOM      1  N   TYR A   1      -8.918   8.911  70.271  1.00  0.00    -0.168 NA 
ATOM      2  CA  TYR A   1     -10.254   9.557  70.480  1.00  0.00    -0.287 C  
ATOM      3  H1  TYR A   1      -8.347   8.865  71.117  1.00  0.00     0.000 HD 
ATOM      4  H2  TYR A   1      -8.408   9.373  69.518  1.00  0.00     0.000 HD 
ATOM      5  C   TYR A   1     -10.987   8.767  71.575  1.00  0.00    -0.307 C  
ATOM      6  OXT TYR A   1     -12.193   8.764  71.771  1.00  0.00    -0.306 OA 
ATOM      7  O   TYR A   1     -10.106   8.073  72.345  1.00  0.00    -0.218 OA 
ENDROOT
BRANCH   2   8
ATOM      8  CB  TYR A   1     -11.114   9.626  69.206  1.00  0.00    -0.149 C  
BRANCH   8   9
ATOM      9  CG  TYR A   1     -11.381  11.041  68.747  1.00  0.00    -0.349 A  
ATOM     10  CD1 TYR A   1     -11.631  12.060  69.678  1.00  0.00    -0.371 A  
ATOM     11  CE1 TYR A   1     -11.913  13.360  69.250  1.00  0.00    -0.367 A  
ATOM     12  CZ  TYR A   1     -11.937  13.642  67.890  1.00  0.00    -0.347 A  
ATOM     13  OH  TYR A   1     -12.217  14.894  67.428  1.00  0.00    -0.470 OA 
ATOM     14  CE2 TYR A   1     -11.678  12.650  66.953  1.00  0.00    -0.453 A  
ATOM     15  CD2 TYR A   1     -11.404  11.349  67.379  1.00  0.00    -0.359 A  
ATOM     16  HH  TYR A   1     -12.233  15.087  66.498  1.00  0.00     0.000 HD 
ENDBRANCH   8   9
ENDBRANCH   2   8
TORSDOF 2
ENDMDL
MODEL      109
REMARK 921   NORMALIZED FREE ENERGY PREDICTED BY IDOCK:   -3.76 KCAL/MOL
REMARK 922        TOTAL FREE ENERGY PREDICTED BY IDOCK:   -4.36 KCAL/MOL
REMARK 923 INTER-LIGAND FREE ENERGY PREDICTED BY IDOCK:   -4.13 KCAL/MOL
REMARK 924 INTRA-LIGAND FREE ENERGY PREDICTED BY IDOCK:   -0.23 KCAL/MOL
REMARK 927      BINDING AFFINITY PREDICTED BY RF-SCORE:    0.00 PKD
ROOT
ATOM      1  N   TYR A   1      -9.036   8.259  66.719  1.00  0.00    -0.147 NA 
ATOM      2  CA  TYR A   1      -8.837   9.327  65.687  1.00  0.00    -0.180 C  
ATOM      3  H1  TYR A   1      -8.949   7.310  66.351  1.00  0.00     0.000 HD 
ATOM      4  H2  TYR A   1      -9.931   8.380  67.194  1.00  0.00     0.000 HD 
ATOM      5  C   TYR A   1      -7.446   9.122  65.067  1.00  0.00    -0.105 C  
ATOM      6  OXT TYR A   1      -6.798   9.965  64.467  1.00  0.00    -0.114 OA 
ATOM      7  O   TYR A   1      -7.020   7.842  65.244  1.00  0.00    -0.057 OA 
ENDROOT
BRANCH   2   8
ATOM      8  CB  TYR A   1      -8.968  10.756  66.242  1.00  0.00    -0.184 C  
BRANCH   8   9
ATOM      9  CG  TYR A   1      -9.848  11.644  65.392  1.00  0.00    -0.268 A  
ATOM     10  CD1 TYR A   1      -9.984  13.008  65.687  1.00  0.00    -0.239 A  
ATOM     11  CE1 TYR A   1     -10.825  13.821  64.922  1.00  0.00    -0.398 A  
ATOM     12  CZ  TYR A   1     -11.524  13.269  63.855  1.00  0.00    -0.362 A  
ATOM     13  OH  TYR A   1     -12.362  14.022  63.088  1.00  0.00    -1.133 OA 
ATOM     14  CE2 TYR A   1     -11.391  11.923  63.538  1.00  0.00    -0.516 A  
ATOM     15  CD2 TYR A   1     -10.557  11.109  64.306  1.00  0.00    -0.425 A  
ATOM     16  HH  TYR A   1     -12.840  13.644  62.359  1.00  0.00     0.000 HD 
ENDBRANCH   8   9
ENDBRANCH   2   8
TORSDOF 2
ENDMDL
MODEL      110
REMARK 921   NORMALIZED FREE ENERGY PREDICTED BY IDOCK:   -3.74 KCAL/MOL
REMARK 922        TOTAL FREE ENERGY PREDICTED BY IDOCK:   -4.33 KCAL/MOL
REMARK 923 INTER-LIGAND FREE ENERGY PREDICTED BY IDOCK:   -4.12 KCAL/MOL
REMARK 924 INTRA-LIGAND FREE ENERGY PREDICTED BY IDOCK:   -0.21 KCAL/MOL
REMARK 927      BINDING AFFINITY PREDICTED BY RF-SCORE:    0.00 PKD
ROOT
ATOM      1  N   TYR A   1      -6.460  18.470  67.382  1.00  0.00    -0.193 NA 
ATOM      2  CA  TYR A   1      -7.950  18.535  67.237  1.00  0.00    -0.236 C  
ATOM      3  H1  TYR A   1      -5.952  18.820  66.568  1.00  0.00     0.000 HD 
ATOM      4  H2  TYR A   1      -6.162  17.522  67.611  1.00  0.00     0.000 HD 
ATOM      5  C   TYR A   1      -8.328  20.000  66.962  1.00  0.00    -0.323 C  
ATOM      6  OXT TYR A   1      -9.430  20.498  67.132  1.00  0.00    -0.412 OA 
ATOM      7  O   TYR A   1      -7.266  20.689  66.464  1.00  0.00    -0.254 OA 
ENDROOT
BRANCH   2   8
ATOM      8  CB  TYR A   1      -8.715  18.008  68.463  1.00  0.00    -0.304 C  
BRANCH   8   9
ATOM      9  CG  TYR A   1      -9.702  16.915  68.121  1.00  0.00    -0.254 A  
ATOM     10  CD1 TYR A   1      -9.654  16.272  66.876  1.00  0.00    -0.244 A  
ATOM     11  CE1 TYR A   1     -10.589  15.286  66.548  1.00  0.00    -0.304 A  
ATOM     12  CZ  TYR A   1     -11.567  14.938  67.472  1.00  0.00    -0.339 A  
ATOM     13  OH  TYR A   1     -12.505  13.989  67.190  1.00  0.00    -0.533 OA 
ATOM     14  CE2 TYR A   1     -11.623  15.554  68.715  1.00  0.00    -0.390 A  
ATOM     15  CD2 TYR A   1     -10.694  16.544  69.041  1.00  0.00    -0.332 A  
ATOM     16  HH  TYR A   1     -13.174  13.752  67.821  1.00  0.00     0.000 HD 
ENDBRANCH   8   9
ENDBRANCH   2   8
TORSDOF 2
ENDMDL
MODEL      111
REMARK 921   NORMALIZED FREE ENERGY PREDICTED BY IDOCK:   -3.68 KCAL/MOL
REMARK 922        TOTAL FREE ENERGY PREDICTED BY IDOCK:   -4.27 KCAL/MOL
REMARK 923 INTER-LIGAND FREE ENERGY PREDICTED BY IDOCK:   -4.27 KCAL/MOL
REMARK 924 INTRA-LIGAND FREE ENERGY PREDICTED BY IDOCK:    0.00 KCAL/MOL
REMARK 927      BINDING AFFINITY PREDICTED BY RF-SCORE:    0.00 PKD
ROOT
ATOM      1  N   TYR A   1      -9.964  12.171  65.846  1.00  0.00    -0.241 NA 
ATOM      2  CA  TYR A   1     -11.452  12.153  66.032  1.00  0.00    -0.370 C  
ATOM      3  H1  TYR A   1      -9.634  11.540  65.115  1.00  0.00     0.000 HD 
ATOM      4  H2  TYR A   1      -9.490  11.980  66.729  1.00  0.00     0.000 HD 
ATOM      5  C   TYR A   1     -12.093  12.517  64.683  1.00  0.00    -0.428 C  
ATOM      6  OXT TYR A   1     -13.228  12.938  64.521  1.00  0.00    -0.634 OA 
ATOM      7  O   TYR A   1     -11.232  12.278  63.657  1.00  0.00    -0.397 OA 
ENDROOT
BRANCH   2   8
ATOM      8  CB  TYR A   1     -11.950  13.104  67.133  1.00  0.00    -0.397 C  
BRANCH   8   9
ATOM      9  CG  TYR A   1     -11.000  14.249  67.403  1.00  0.00    -0.301 A  
ATOM     10  CD1 TYR A   1     -10.293  14.321  68.613  1.00  0.00    -0.246 A  
ATOM     11  CE1 TYR A   1      -9.442  15.398  68.876  1.00  0.00    -0.219 A  
ATOM     12  CZ  TYR A   1      -9.293  16.399  67.924  1.00  0.00    -0.214 A  
ATOM     13  OH  TYR A   1      -8.482  17.473  68.143  1.00  0.00    -0.238 OA 
ATOM     14  CE2 TYR A   1      -9.975  16.339  66.715  1.00  0.00    -0.268 A  
ATOM     15  CD2 TYR A   1     -10.830  15.267  66.454  1.00  0.00    -0.317 A  
ATOM     16  HH  TYR A   1      -8.380  18.157  67.493  1.00  0.00     0.000 HD 
ENDBRANCH   8   9
ENDBRANCH   2   8
TORSDOF 2
ENDMDL
MODEL      112
REMARK 921   NORMALIZED FREE ENERGY PREDICTED BY IDOCK:   -3.67 KCAL/MOL
REMARK 922        TOTAL FREE ENERGY PREDICTED BY IDOCK:   -4.25 KCAL/MOL
REMARK 923 INTER-LIGAND FREE ENERGY PREDICTED BY IDOCK:   -4.11 KCAL/MOL
REMARK 924 INTRA-LIGAND FREE ENERGY PREDICTED BY IDOCK:   -0.14 KCAL/MOL
REMARK 927      BINDING AFFINITY PREDICTED BY RF-SCORE:    0.00 PKD
ROOT
ATOM      1  N   TYR A   1      -9.062   8.597  69.164  1.00  0.00    -0.142 NA 
ATOM      2  CA  TYR A   1     -10.294   8.572  68.311  1.00  0.00    -0.201 C  
ATOM      3  H1  TYR A   1      -9.140   8.039  70.015  1.00  0.00     0.000 HD 
ATOM      4  H2  TYR A   1      -8.797   9.557  69.386  1.00  0.00     0.000 HD 
ATOM      5  C   TYR A   1     -10.589   7.105  67.962  1.00  0.00    -0.196 C  
ATOM      6  OXT TYR A   1     -11.274   6.715  67.029  1.00  0.00    -0.404 OA 
ATOM      7  O   TYR A   1     -10.003   6.266  68.858  1.00  0.00    -0.143 OA 
ENDROOT
BRANCH   2   8
ATOM      8  CB  TYR A   1     -10.176   9.413  67.028  1.00  0.00    -0.322 C  
BRANCH   8   9
ATOM      9  CG  TYR A   1     -10.763  10.799  67.171  1.00  0.00    -0.324 A  
ATOM     10  CD1 TYR A   1     -11.177  11.275  68.424  1.00  0.00    -0.324 A  
ATOM     11  CE1 TYR A   1     -11.752  12.542  68.548  1.00  0.00    -0.369 A  
ATOM     12  CZ  TYR A   1     -11.906  13.337  67.418  1.00  0.00    -0.366 A  
ATOM     13  OH  TYR A   1     -12.471  14.575  67.492  1.00  0.00    -0.590 OA 
ATOM     14  CE2 TYR A   1     -11.491  12.888  66.171  1.00  0.00    -0.393 A  
ATOM     15  CD2 TYR A   1     -10.923  11.620  66.045  1.00  0.00    -0.338 A  
ATOM     16  HH  TYR A   1     -12.577  15.118  66.720  1.00  0.00     0.000 HD 
ENDBRANCH   8   9
ENDBRANCH   2   8
TORSDOF 2
ENDMDL
MODEL      113
REMARK 921   NORMALIZED FREE ENERGY PREDICTED BY IDOCK:   -3.66 KCAL/MOL
REMARK 922        TOTAL FREE ENERGY PREDICTED BY IDOCK:   -4.25 KCAL/MOL
REMARK 923 INTER-LIGAND FREE ENERGY PREDICTED BY IDOCK:   -4.04 KCAL/MOL
REMARK 924 INTRA-LIGAND FREE ENERGY PREDICTED BY IDOCK:   -0.21 KCAL/MOL
REMARK 927      BINDING AFFINITY PREDICTED BY RF-SCORE:    0.00 PKD
ROOT
ATOM      1  N   TYR A   1     -13.835   7.933  71.771  1.00  0.00    -0.414 NA 
ATOM      2  CA  TYR A   1     -12.439   8.450  71.589  1.00  0.00    -0.328 C  
ATOM      3  H1  TYR A   1     -13.940   6.943  71.546  1.00  0.00     0.000 HD 
ATOM      4  H2  TYR A   1     -14.499   8.496  71.239  1.00  0.00     0.000 HD 
ATOM      5  C   TYR A   1     -11.510   7.600  72.470  1.00  0.00    -0.352 C  
ATOM      6  OXT TYR A   1     -10.396   7.923  72.854  1.00  0.00    -0.299 OA 
ATOM      7  O   TYR A   1     -12.078   6.398  72.756  1.00  0.00     0.015 OA 
ENDROOT
BRANCH   2   8
ATOM      8  CB  TYR A   1     -12.281   9.941  71.929  1.00  0.00    -0.333 C  
BRANCH   8   9
ATOM      9  CG  TYR A   1     -11.917  10.788  70.731  1.00  0.00    -0.464 A  
ATOM     10  CD1 TYR A   1     -12.248  12.150  70.691  1.00  0.00    -0.392 A  
ATOM     11  CE1 TYR A   1     -11.942  12.924  69.568  1.00  0.00    -0.346 A  
ATOM     12  CZ  TYR A   1     -11.297  12.334  68.488  1.00  0.00    -0.286 A  
ATOM     13  OH  TYR A   1     -10.987  13.049  67.368  1.00  0.00    -0.250 OA 
ATOM     14  CE2 TYR A   1     -10.949  10.990  68.514  1.00  0.00    -0.276 A  
ATOM     15  CD2 TYR A   1     -11.260  10.215  69.632  1.00  0.00    -0.310 A  
ATOM     16  HH  TYR A   1     -10.547  12.646  66.630  1.00  0.00     0.000 HD 
ENDBRANCH   8   9
ENDBRANCH   2   8
TORSDOF 2
ENDMDL
MODEL      114
REMARK 921   NORMALIZED FREE ENERGY PREDICTED BY IDOCK:   -3.66 KCAL/MOL
REMARK 922        TOTAL FREE ENERGY PREDICTED BY IDOCK:   -4.25 KCAL/MOL
REMARK 923 INTER-LIGAND FREE ENERGY PREDICTED BY IDOCK:   -4.04 KCAL/MOL
REMARK 924 INTRA-LIGAND FREE ENERGY PREDICTED BY IDOCK:   -0.21 KCAL/MOL
REMARK 927      BINDING AFFINITY PREDICTED BY RF-SCORE:    0.00 PKD
ROOT
ATOM      1  N   TYR A   1     -12.644  14.313  65.905  1.00  0.00    -0.420 NA 
ATOM      2  CA  TYR A   1     -11.317  13.791  65.443  1.00  0.00    -0.308 C  
ATOM      3  H1  TYR A   1     -13.051  15.010  65.280  1.00  0.00     0.000 HD 
ATOM      4  H2  TYR A   1     -12.576  14.678  66.855  1.00  0.00     0.000 HD 
ATOM      5  C   TYR A   1     -11.512  13.198  64.039  1.00  0.00    -0.406 C  
ATOM      6  OXT TYR A   1     -10.776  12.390  63.495  1.00  0.00    -0.442 OA 
ATOM      7  O   TYR A   1     -12.619  13.718  63.443  1.00  0.00    -0.842 OA 
ENDROOT
BRANCH   2   8
ATOM      8  CB  TYR A   1     -10.703  12.742  66.385  1.00  0.00    -0.282 C  
BRANCH   8   9
ATOM      9  CG  TYR A   1      -9.309  13.102  66.848  1.00  0.00    -0.246 A  
ATOM     10  CD1 TYR A   1      -8.945  14.442  67.042  1.00  0.00    -0.257 A  
ATOM     11  CE1 TYR A   1      -7.646  14.776  67.436  1.00  0.00    -0.228 A  
ATOM     12  CZ  TYR A   1      -6.714  13.765  67.642  1.00  0.00    -0.176 A  
ATOM     13  OH  TYR A   1      -5.433  14.045  68.017  1.00  0.00    -0.115 OA 
ATOM     14  CE2 TYR A   1      -7.060  12.431  67.467  1.00  0.00    -0.145 A  
ATOM     15  CD2 TYR A   1      -8.355  12.098  67.068  1.00  0.00    -0.173 A  
ATOM     16  HH  TYR A   1      -4.796  13.355  68.158  1.00  0.00     0.000 HD 
ENDBRANCH   8   9
ENDBRANCH   2   8
TORSDOF 2
ENDMDL
MODEL      115
REMARK 921   NORMALIZED FREE ENERGY PREDICTED BY IDOCK:   -3.66 KCAL/MOL
REMARK 922        TOTAL FREE ENERGY PREDICTED BY IDOCK:   -4.24 KCAL/MOL
REMARK 923 INTER-LIGAND FREE ENERGY PREDICTED BY IDOCK:   -4.04 KCAL/MOL
REMARK 924 INTRA-LIGAND FREE ENERGY PREDICTED BY IDOCK:   -0.20 KCAL/MOL
REMARK 927      BINDING AFFINITY PREDICTED BY RF-SCORE:    0.00 PKD
ROOT
ATOM      1  N   TYR A   1     -13.145   9.904  70.911  1.00  0.00    -0.557 NA 
ATOM      2  CA  TYR A   1     -11.726   9.549  70.584  1.00  0.00    -0.262 C  
ATOM      3  H1  TYR A   1     -13.673   9.140  71.335  1.00  0.00     0.000 HD 
ATOM      4  H2  TYR A   1     -13.626  10.260  70.085  1.00  0.00     0.000 HD 
ATOM      5  C   TYR A   1     -11.049   9.090  71.885  1.00  0.00    -0.363 C  
ATOM      6  OXT TYR A   1      -9.846   9.059  72.093  1.00  0.00    -0.273 OA 
ATOM      7  O   TYR A   1     -11.974   8.682  72.795  1.00  0.00    -0.286 OA 
ENDROOT
BRANCH   2   8
ATOM      8  CB  TYR A   1     -10.931  10.701  69.946  1.00  0.00    -0.337 C  
BRANCH   8   9
ATOM      9  CG  TYR A   1     -10.541  10.429  68.511  1.00  0.00    -0.237 A  
ATOM     10  CD1 TYR A   1     -10.840  11.356  67.501  1.00  0.00    -0.291 A  
ATOM     11  CE1 TYR A   1     -10.511  11.088  66.170  1.00  0.00    -0.301 A  
ATOM     12  CZ  TYR A   1      -9.873   9.895  65.850  1.00  0.00    -0.274 A  
ATOM     13  OH  TYR A   1      -9.542   9.588  64.564  1.00  0.00    -0.433 OA 
ATOM     14  CE2 TYR A   1      -9.556   8.971  66.838  1.00  0.00    -0.242 A  
ATOM     15  CD2 TYR A   1      -9.892   9.235  68.167  1.00  0.00    -0.185 A  
ATOM     16  HH  TYR A   1      -9.107   8.772  64.346  1.00  0.00     0.000 HD 
ENDBRANCH   8   9
ENDBRANCH   2   8
TORSDOF 2
ENDMDL
MODEL      116
REMARK 921   NORMALIZED FREE ENERGY PREDICTED BY IDOCK:   -3.63 KCAL/MOL
REMARK 922        TOTAL FREE ENERGY PREDICTED BY IDOCK:   -4.21 KCAL/MOL
REMARK 923 INTER-LIGAND FREE ENERGY PREDICTED BY IDOCK:   -4.07 KCAL/MOL
REMARK 924 INTRA-LIGAND FREE ENERGY PREDICTED BY IDOCK:   -0.15 KCAL/MOL
REMARK 927      BINDING AFFINITY PREDICTED BY RF-SCORE:    0.00 PKD
ROOT
ATOM      1  N   TYR A   1     -11.005  16.021  67.794  1.00  0.00    -0.326 NA 
ATOM      2  CA  TYR A   1     -10.626  16.023  66.344  1.00  0.00    -0.284 C  
ATOM      3  H1  TYR A   1     -12.011  15.962  67.956  1.00  0.00     0.000 HD 
ATOM      4  H2  TYR A   1     -10.611  16.833  68.270  1.00  0.00     0.000 HD 
ATOM      5  C   TYR A   1     -11.193  14.741  65.713  1.00  0.00    -0.337 C  
ATOM      6  OXT TYR A   1     -10.811  14.225  64.675  1.00  0.00    -0.401 OA 
ATOM      7  O   TYR A   1     -12.223  14.251  66.454  1.00  0.00    -0.436 OA 
ENDROOT
BRANCH   2   8
ATOM      8  CB  TYR A   1      -9.110  16.112  66.100  1.00  0.00    -0.382 C  
BRANCH   8   9
ATOM      9  CG  TYR A   1      -8.441  17.196  66.913  1.00  0.00    -0.249 A  
ATOM     10  CD1 TYR A   1      -7.567  16.867  67.960  1.00  0.00    -0.182 A  
ATOM     11  CE1 TYR A   1      -6.976  17.870  68.734  1.00  0.00    -0.262 A  
ATOM     12  CZ  TYR A   1      -7.254  19.203  68.454  1.00  0.00    -0.295 A  
ATOM     13  OH  TYR A   1      -6.708  20.213  69.189  1.00  0.00    -0.303 OA 
ATOM     14  CE2 TYR A   1      -8.106  19.548  67.412  1.00  0.00    -0.315 A  
ATOM     15  CD2 TYR A   1      -8.702  18.547  66.643  1.00  0.00    -0.294 A  
ATOM     16  HH  TYR A   1      -6.898  21.123  68.997  1.00  0.00     0.000 HD 
ENDBRANCH   8   9
ENDBRANCH   2   8
TORSDOF 2
ENDMDL
MODEL      117
REMARK 921   NORMALIZED FREE ENERGY PREDICTED BY IDOCK:   -3.63 KCAL/MOL
REMARK 922        TOTAL FREE ENERGY PREDICTED BY IDOCK:   -4.21 KCAL/MOL
REMARK 923 INTER-LIGAND FREE ENERGY PREDICTED BY IDOCK:   -4.03 KCAL/MOL
REMARK 924 INTRA-LIGAND FREE ENERGY PREDICTED BY IDOCK:   -0.18 KCAL/MOL
REMARK 927      BINDING AFFINITY PREDICTED BY RF-SCORE:    0.00 PKD
ROOT
ATOM      1  N   TYR A   1     -12.947  12.225  64.519  1.00  0.00    -0.749 NA 
ATOM      2  CA  TYR A   1     -11.555  12.587  64.941  1.00  0.00    -0.341 C  
ATOM      3  H1  TYR A   1     -13.628  12.260  65.278  1.00  0.00     0.000 HD 
ATOM      4  H2  TYR A   1     -12.959  11.311  64.066  1.00  0.00     0.000 HD 
ATOM      5  C   TYR A   1     -11.605  13.997  65.549  1.00  0.00    -0.332 C  
ATOM      6  OXT TYR A   1     -10.655  14.755  65.678  1.00  0.00    -0.301 OA 
ATOM      7  O   TYR A   1     -12.863  14.301  65.967  1.00  0.00    -0.379 OA 
ENDROOT
BRANCH   2   8
ATOM      8  CB  TYR A   1     -10.528  12.535  63.797  1.00  0.00    -0.451 C  
BRANCH   8   9
ATOM      9  CG  TYR A   1      -9.713  11.262  63.789  1.00  0.00    -0.330 A  
ATOM     10  CD1 TYR A   1      -9.623  10.478  62.629  1.00  0.00    -0.285 A  
ATOM     11  CE1 TYR A   1      -8.898   9.283  62.633  1.00  0.00    -0.210 A  
ATOM     12  CZ  TYR A   1      -8.256   8.877  63.796  1.00  0.00    -0.172 A  
ATOM     13  OH  TYR A   1      -7.546   7.714  63.848  1.00  0.00    -0.103 OA 
ATOM     14  CE2 TYR A   1      -8.322   9.647  64.951  1.00  0.00    -0.152 A  
ATOM     15  CD2 TYR A   1      -9.051  10.837  64.950  1.00  0.00    -0.221 A  
ATOM     16  HH  TYR A   1      -7.107   7.437  64.643  1.00  0.00     0.000 HD 
ENDBRANCH   8   9
ENDBRANCH   2   8
TORSDOF 2
ENDMDL
MODEL      118
REMARK 921   NORMALIZED FREE ENERGY PREDICTED BY IDOCK:   -3.62 KCAL/MOL
REMARK 922        TOTAL FREE ENERGY PREDICTED BY IDOCK:   -4.20 KCAL/MOL
REMARK 923 INTER-LIGAND FREE ENERGY PREDICTED BY IDOCK:   -4.04 KCAL/MOL
REMARK 924 INTRA-LIGAND FREE ENERGY PREDICTED BY IDOCK:   -0.16 KCAL/MOL
REMARK 927      BINDING AFFINITY PREDICTED BY RF-SCORE:    0.00 PKD
ROOT
ATOM      1  N   TYR A   1      -9.941   8.494  66.189  1.00  0.00    -0.468 NA 
ATOM      2  CA  TYR A   1     -10.620   9.441  67.133  1.00  0.00    -0.224 C  
ATOM      3  H1  TYR A   1     -10.349   8.483  65.254  1.00  0.00     0.000 HD 
ATOM      4  H2  TYR A   1      -9.915   7.552  66.582  1.00  0.00     0.000 HD 
ATOM      5  C   TYR A   1     -10.559  10.843  66.508  1.00  0.00    -0.237 C  
ATOM      6  OXT TYR A   1     -10.682  11.900  67.108  1.00  0.00    -0.223 OA 
ATOM      7  O   TYR A   1     -10.376  10.767  65.162  1.00  0.00    -0.291 OA 
ENDROOT
BRANCH   2   8
ATOM      8  CB  TYR A   1     -10.005   9.457  68.542  1.00  0.00    -0.190 C  
BRANCH   8   9
ATOM      9  CG  TYR A   1     -10.779   8.624  69.538  1.00  0.00    -0.189 A  
ATOM     10  CD1 TYR A   1     -10.766   7.224  69.462  1.00  0.00    -0.244 A  
ATOM     11  CE1 TYR A   1     -11.511   6.456  70.361  1.00  0.00    -0.458 A  
ATOM     12  CZ  TYR A   1     -12.264   7.091  71.342  1.00  0.00    -0.366 A  
ATOM     13  OH  TYR A   1     -13.013   6.382  72.233  1.00  0.00    -0.545 OA 
ATOM     14  CE2 TYR A   1     -12.279   8.476  71.441  1.00  0.00    -0.343 A  
ATOM     15  CD2 TYR A   1     -11.541   9.244  70.539  1.00  0.00    -0.266 A  
ATOM     16  HH  TYR A   1     -13.527   6.816  72.903  1.00  0.00     0.000 HD 
ENDBRANCH   8   9
ENDBRANCH   2   8
TORSDOF 2
ENDMDL
MODEL      119
REMARK 921   NORMALIZED FREE ENERGY PREDICTED BY IDOCK:   -3.62 KCAL/MOL
REMARK 922        TOTAL FREE ENERGY PREDICTED BY IDOCK:   -4.20 KCAL/MOL
REMARK 923 INTER-LIGAND FREE ENERGY PREDICTED BY IDOCK:   -4.08 KCAL/MOL
REMARK 924 INTRA-LIGAND FREE ENERGY PREDICTED BY IDOCK:   -0.12 KCAL/MOL
REMARK 927      BINDING AFFINITY PREDICTED BY RF-SCORE:    0.00 PKD
ROOT
ATOM      1  N   TYR A   1      -8.102  10.153  68.451  1.00  0.00    -0.101 NA 
ATOM      2  CA  TYR A   1      -9.506  10.306  68.951  1.00  0.00    -0.188 C  
ATOM      3  H1  TYR A   1      -7.396  10.535  69.083  1.00  0.00     0.000 HD 
ATOM      4  H2  TYR A   1      -8.006  10.556  67.519  1.00  0.00     0.000 HD 
ATOM      5  C   TYR A   1      -9.589   9.617  70.323  1.00  0.00    -0.254 C  
ATOM      6  OXT TYR A   1     -10.612   9.232  70.869  1.00  0.00    -0.246 OA 
ATOM      7  O   TYR A   1      -8.357   9.510  70.887  1.00  0.00    -0.280 OA 
ENDROOT
BRANCH   2   8
ATOM      8  CB  TYR A   1     -10.569   9.731  68.000  1.00  0.00    -0.291 C  
BRANCH   8   9
ATOM      9  CG  TYR A   1     -10.672  10.490  66.697  1.00  0.00    -0.222 A  
ATOM     10  CD1 TYR A   1     -10.017  10.027  65.546  1.00  0.00    -0.367 A  
ATOM     11  CE1 TYR A   1     -10.084  10.749  64.351  1.00  0.00    -0.419 A  
ATOM     12  CZ  TYR A   1     -10.815  11.930  64.307  1.00  0.00    -0.344 A  
ATOM     13  OH  TYR A   1     -10.900  12.671  63.165  1.00  0.00    -0.629 OA 
ATOM     14  CE2 TYR A   1     -11.481  12.398  65.432  1.00  0.00    -0.402 A  
ATOM     15  CD2 TYR A   1     -11.409  11.681  66.628  1.00  0.00    -0.338 A  
ATOM     16  HH  TYR A   1     -11.398  13.479  63.135  1.00  0.00     0.000 HD 
ENDBRANCH   8   9
ENDBRANCH   2   8
TORSDOF 2
ENDMDL
MODEL      120
REMARK 921   NORMALIZED FREE ENERGY PREDICTED BY IDOCK:   -3.62 KCAL/MOL
REMARK 922        TOTAL FREE ENERGY PREDICTED BY IDOCK:   -4.20 KCAL/MOL
REMARK 923 INTER-LIGAND FREE ENERGY PREDICTED BY IDOCK:   -4.16 KCAL/MOL
REMARK 924 INTRA-LIGAND FREE ENERGY PREDICTED BY IDOCK:   -0.03 KCAL/MOL
REMARK 927      BINDING AFFINITY PREDICTED BY RF-SCORE:    0.00 PKD
ROOT
ATOM      1  N   TYR A   1      -8.087  17.316  68.067  1.00  0.00    -0.214 NA 
ATOM      2  CA  TYR A   1      -9.031  17.892  67.055  1.00  0.00    -0.250 C  
ATOM      3  H1  TYR A   1      -7.437  17.999  68.459  1.00  0.00     0.000 HD 
ATOM      4  H2  TYR A   1      -7.581  16.521  67.676  1.00  0.00     0.000 HD 
ATOM      5  C   TYR A   1      -9.803  19.033  67.735  1.00  0.00    -0.336 C  
ATOM      6  OXT TYR A   1     -10.870  19.496  67.364  1.00  0.00    -0.486 OA 
ATOM      7  O   TYR A   1      -9.122  19.502  68.816  1.00  0.00    -0.368 OA 
ENDROOT
BRANCH   2   8
ATOM      8  CB  TYR A   1     -10.010  16.863  66.465  1.00  0.00    -0.309 C  
BRANCH   8   9
ATOM      9  CG  TYR A   1     -10.391  15.777  67.446  1.00  0.00    -0.282 A  
ATOM     10  CD1 TYR A   1      -9.891  14.475  67.301  1.00  0.00    -0.236 A  
ATOM     11  CE1 TYR A   1     -10.272  13.464  68.187  1.00  0.00    -0.246 A  
ATOM     12  CZ  TYR A   1     -11.149  13.759  69.224  1.00  0.00    -0.208 A  
ATOM     13  OH  TYR A   1     -11.555  12.802  70.106  1.00  0.00    -0.515 OA 
ATOM     14  CE2 TYR A   1     -11.645  15.046  69.392  1.00  0.00    -0.337 A  
ATOM     15  CD2 TYR A   1     -11.270  16.054  68.503  1.00  0.00    -0.374 A  
ATOM     16  HH  TYR A   1     -12.155  13.003  70.814  1.00  0.00     0.000 HD 
ENDBRANCH   8   9
ENDBRANCH   2   8
TORSDOF 2
ENDMDL
MODEL      121
REMARK 921   NORMALIZED FREE ENERGY PREDICTED BY IDOCK:   -3.61 KCAL/MOL
REMARK 922        TOTAL FREE ENERGY PREDICTED BY IDOCK:   -4.19 KCAL/MOL
REMARK 923 INTER-LIGAND FREE ENERGY PREDICTED BY IDOCK:   -4.22 KCAL/MOL
REMARK 924 INTRA-LIGAND FREE ENERGY PREDICTED BY IDOCK:    0.03 KCAL/MOL
REMARK 927      BINDING AFFINITY PREDICTED BY RF-SCORE:    0.00 PKD
ROOT
ATOM      1  N   TYR A   1      -5.608  20.725  66.237  1.00  0.00    -0.185 NA 
ATOM      2  CA  TYR A   1      -5.453  19.539  65.334  1.00  0.00    -0.163 C  
ATOM      3  H1  TYR A   1      -4.940  21.474  66.050  1.00  0.00     0.000 HD 
ATOM      4  H2  TYR A   1      -5.565  20.440  67.216  1.00  0.00     0.000 HD 
ATOM      5  C   TYR A   1      -5.599  20.035  63.887  1.00  0.00    -0.239 C  
ATOM      6  OXT TYR A   1      -5.878  19.344  62.919  1.00  0.00    -0.369 OA 
ATOM      7  O   TYR A   1      -5.343  21.368  63.802  1.00  0.00    -0.207 OA 
ENDROOT
BRANCH   2   8
ATOM      8  CB  TYR A   1      -6.460  18.411  65.616  1.00  0.00    -0.314 C  
BRANCH   8   9
ATOM      9  CG  TYR A   1      -7.561  18.821  66.567  1.00  0.00    -0.267 A  
ATOM     10  CD1 TYR A   1      -8.638  19.600  66.120  1.00  0.00    -0.357 A  
ATOM     11  CE1 TYR A   1      -9.637  20.008  67.008  1.00  0.00    -0.542 A  
ATOM     12  CZ  TYR A   1      -9.561  19.630  68.343  1.00  0.00    -0.379 A  
ATOM     13  OH  TYR A   1     -10.507  20.013  69.247  1.00  0.00    -0.615 OA 
ATOM     14  CE2 TYR A   1      -8.508  18.847  68.802  1.00  0.00    -0.340 A  
ATOM     15  CD2 TYR A   1      -7.507  18.445  67.917  1.00  0.00    -0.245 A  
ATOM     16  HH  TYR A   1     -10.455  19.755  70.159  1.00  0.00     0.000 HD 
ENDBRANCH   8   9
ENDBRANCH   2   8
TORSDOF 2
ENDMDL
MODEL      122
REMARK 921   NORMALIZED FREE ENERGY PREDICTED BY IDOCK:   -3.60 KCAL/MOL
REMARK 922        TOTAL FREE ENERGY PREDICTED BY IDOCK:   -4.18 KCAL/MOL
REMARK 923 INTER-LIGAND FREE ENERGY PREDICTED BY IDOCK:   -4.14 KCAL/MOL
REMARK 924 INTRA-LIGAND FREE ENERGY PREDICTED BY IDOCK:   -0.04 KCAL/MOL
REMARK 927      BINDING AFFINITY PREDICTED BY RF-SCORE:    0.00 PKD
ROOT
ATOM      1  N   TYR A   1     -12.274  12.570  67.142  1.00  0.00    -0.416 NA 
ATOM      2  CA  TYR A   1     -11.246  13.048  66.162  1.00  0.00    -0.291 C  
ATOM      3  H1  TYR A   1     -13.178  13.037  67.052  1.00  0.00     0.000 HD 
ATOM      4  H2  TYR A   1     -11.924  12.647  68.097  1.00  0.00     0.000 HD 
ATOM      5  C   TYR A   1     -11.816  12.838  64.750  1.00  0.00    -0.374 C  
ATOM      6  OXT TYR A   1     -11.166  12.775  63.718  1.00  0.00    -0.407 OA 
ATOM      7  O   TYR A   1     -13.174  12.757  64.783  1.00  0.00    -0.812 OA 
ENDROOT
BRANCH   2   8
ATOM      8  CB  TYR A   1      -9.886  12.344  66.299  1.00  0.00    -0.257 C  
BRANCH   8   9
ATOM      9  CG  TYR A   1      -9.980  10.997  66.978  1.00  0.00    -0.223 A  
ATOM     10  CD1 TYR A   1      -9.750  10.874  68.356  1.00  0.00    -0.179 A  
ATOM     11  CE1 TYR A   1      -9.803   9.623  68.977  1.00  0.00    -0.183 A  
ATOM     12  CZ  TYR A   1     -10.095   8.495  68.218  1.00  0.00    -0.192 A  
ATOM     13  OH  TYR A   1     -10.147   7.254  68.781  1.00  0.00    -0.166 OA 
ATOM     14  CE2 TYR A   1     -10.339   8.599  66.855  1.00  0.00    -0.355 A  
ATOM     15  CD2 TYR A   1     -10.279   9.847  66.233  1.00  0.00    -0.282 A  
ATOM     16  HH  TYR A   1     -10.346   6.484  68.262  1.00  0.00     0.000 HD 
ENDBRANCH   8   9
ENDBRANCH   2   8
TORSDOF 2
ENDMDL
MODEL      123
REMARK 921   NORMALIZED FREE ENERGY PREDICTED BY IDOCK:   -3.59 KCAL/MOL
REMARK 922        TOTAL FREE ENERGY PREDICTED BY IDOCK:   -4.16 KCAL/MOL
REMARK 923 INTER-LIGAND FREE ENERGY PREDICTED BY IDOCK:   -3.96 KCAL/MOL
REMARK 924 INTRA-LIGAND FREE ENERGY PREDICTED BY IDOCK:   -0.21 KCAL/MOL
REMARK 927      BINDING AFFINITY PREDICTED BY RF-SCORE:    0.00 PKD
ROOT
ATOM      1  N   TYR A   1     -10.043  14.363  68.768  1.00  0.00    -0.239 NA 
ATOM      2  CA  TYR A   1     -10.576  13.545  67.631  1.00  0.00    -0.241 C  
ATOM      3  H1  TYR A   1      -9.644  15.257  68.481  1.00  0.00     0.000 HD 
ATOM      4  H2  TYR A   1      -9.367  13.826  69.312  1.00  0.00     0.000 HD 
ATOM      5  C   TYR A   1     -11.633  14.392  66.905  1.00  0.00    -0.388 C  
ATOM      6  OXT TYR A   1     -12.513  13.964  66.173  1.00  0.00    -0.459 OA 
ATOM      7  O   TYR A   1     -11.450  15.716  67.156  1.00  0.00    -0.168 OA 
ENDROOT
BRANCH   2   8
ATOM      8  CB  TYR A   1     -11.176  12.198  68.065  1.00  0.00    -0.319 C  
BRANCH   8   9
ATOM      9  CG  TYR A   1     -10.606  11.022  67.305  1.00  0.00    -0.287 A  
ATOM     10  CD1 TYR A   1     -10.557   9.748  67.891  1.00  0.00    -0.310 A  
ATOM     11  CE1 TYR A   1      -9.997   8.669  67.201  1.00  0.00    -0.297 A  
ATOM     12  CZ  TYR A   1      -9.494   8.864  65.920  1.00  0.00    -0.234 A  
ATOM     13  OH  TYR A   1      -8.930   7.842  65.215  1.00  0.00    -0.384 OA 
ATOM     14  CE2 TYR A   1      -9.546  10.115  65.318  1.00  0.00    -0.338 A  
ATOM     15  CD2 TYR A   1     -10.098  11.194  66.009  1.00  0.00    -0.292 A  
ATOM     16  HH  TYR A   1      -8.586   7.976  64.340  1.00  0.00     0.000 HD 
ENDBRANCH   8   9
ENDBRANCH   2   8
TORSDOF 2
ENDMDL
MODEL      124
REMARK 921   NORMALIZED FREE ENERGY PREDICTED BY IDOCK:   -3.57 KCAL/MOL
REMARK 922        TOTAL FREE ENERGY PREDICTED BY IDOCK:   -4.15 KCAL/MOL
REMARK 923 INTER-LIGAND FREE ENERGY PREDICTED BY IDOCK:   -4.00 KCAL/MOL
REMARK 924 INTRA-LIGAND FREE ENERGY PREDICTED BY IDOCK:   -0.14 KCAL/MOL
REMARK 927      BINDING AFFINITY PREDICTED BY RF-SCORE:    0.00 PKD
ROOT
ATOM      1  N   TYR A   1     -12.369  15.306  68.511  1.00  0.00    -0.508 NA 
ATOM      2  CA  TYR A   1     -11.333  15.644  69.540  1.00  0.00    -0.327 C  
ATOM      3  H1  TYR A   1     -12.921  14.479  68.741  1.00  0.00     0.000 HD 
ATOM      4  H2  TYR A   1     -11.942  15.211  67.590  1.00  0.00     0.000 HD 
ATOM      5  C   TYR A   1     -12.056  15.841  70.882  1.00  0.00    -0.416 C  
ATOM      6  OXT TYR A   1     -11.620  16.449  71.847  1.00  0.00    -0.450 OA 
ATOM      7  O   TYR A   1     -13.262  15.213  70.879  1.00  0.00    -0.425 OA 
ENDROOT
BRANCH   2   8
ATOM      8  CB  TYR A   1     -10.501  16.891  69.195  1.00  0.00    -0.335 C  
BRANCH   8   9
ATOM      9  CG  TYR A   1      -9.137  16.558  68.633  1.00  0.00    -0.239 A  
ATOM     10  CD1 TYR A   1      -8.114  17.517  68.626  1.00  0.00    -0.263 A  
ATOM     11  CE1 TYR A   1      -6.864  17.219  68.074  1.00  0.00    -0.178 A  
ATOM     12  CZ  TYR A   1      -6.638  15.957  67.537  1.00  0.00    -0.182 A  
ATOM     13  OH  TYR A   1      -5.438  15.626  66.980  1.00  0.00    -0.291 OA 
ATOM     14  CE2 TYR A   1      -7.635  14.990  67.547  1.00  0.00    -0.216 A  
ATOM     15  CD2 TYR A   1      -8.885  15.289  68.092  1.00  0.00    -0.171 A  
ATOM     16  HH  TYR A   1      -5.284  14.764  66.613  1.00  0.00     0.000 HD 
ENDBRANCH   8   9
ENDBRANCH   2   8
TORSDOF 2
ENDMDL
MODEL      125
REMARK 921   NORMALIZED FREE ENERGY PREDICTED BY IDOCK:   -3.57 KCAL/MOL
REMARK 922        TOTAL FREE ENERGY PREDICTED BY IDOCK:   -4.14 KCAL/MOL
REMARK 923 INTER-LIGAND FREE ENERGY PREDICTED BY IDOCK:   -4.03 KCAL/MOL
REMARK 924 INTRA-LIGAND FREE ENERGY PREDICTED BY IDOCK:   -0.12 KCAL/MOL
REMARK 927      BINDING AFFINITY PREDICTED BY RF-SCORE:    0.00 PKD
ROOT
ATOM      1  N   TYR A   1     -10.295   8.837  69.837  1.00  0.00    -0.200 NA 
ATOM      2  CA  TYR A   1      -9.888   9.762  68.730  1.00  0.00    -0.169 C  
ATOM      3  H1  TYR A   1      -9.580   8.151  70.082  1.00  0.00     0.000 HD 
ATOM      4  H2  TYR A   1     -11.176   8.374  69.613  1.00  0.00     0.000 HD 
ATOM      5  C   TYR A   1      -8.597  10.471  69.167  1.00  0.00    -0.150 C  
ATOM      6  OXT TYR A   1      -8.166  11.519  68.711  1.00  0.00    -0.145 OA 
ATOM      7  O   TYR A   1      -7.954   9.758  70.131  1.00  0.00    -0.167 OA 
ENDROOT
BRANCH   2   8
ATOM      8  CB  TYR A   1     -10.965  10.796  68.360  1.00  0.00    -0.299 C  
BRANCH   8   9
ATOM      9  CG  TYR A   1     -10.956  11.165  66.894  1.00  0.00    -0.333 A  
ATOM     10  CD1 TYR A   1     -11.737  12.229  66.420  1.00  0.00    -0.431 A  
ATOM     11  CE1 TYR A   1     -11.754  12.546  65.059  1.00  0.00    -0.407 A  
ATOM     12  CZ  TYR A   1     -10.983  11.802  64.174  1.00  0.00    -0.374 A  
ATOM     13  OH  TYR A   1     -10.977  12.070  62.837  1.00  0.00    -0.637 OA 
ATOM     14  CE2 TYR A   1     -10.193  10.753  64.627  1.00  0.00    -0.419 A  
ATOM     15  CD2 TYR A   1     -10.181  10.431  65.985  1.00  0.00    -0.295 A  
ATOM     16  HH  TYR A   1     -10.451  11.562  62.232  1.00  0.00     0.000 HD 
ENDBRANCH   8   9
ENDBRANCH   2   8
TORSDOF 2
ENDMDL
MODEL      126
REMARK 921   NORMALIZED FREE ENERGY PREDICTED BY IDOCK:   -3.57 KCAL/MOL
REMARK 922        TOTAL FREE ENERGY PREDICTED BY IDOCK:   -4.14 KCAL/MOL
REMARK 923 INTER-LIGAND FREE ENERGY PREDICTED BY IDOCK:   -3.92 KCAL/MOL
REMARK 924 INTRA-LIGAND FREE ENERGY PREDICTED BY IDOCK:   -0.22 KCAL/MOL
REMARK 927      BINDING AFFINITY PREDICTED BY RF-SCORE:    0.00 PKD
ROOT
ATOM      1  N   TYR A   1     -12.687  12.078  71.809  1.00  0.00    -0.232 NA 
ATOM      2  CA  TYR A   1     -12.157  10.898  71.052  1.00  0.00    -0.320 C  
ATOM      3  H1  TYR A   1     -12.124  12.923  71.701  1.00  0.00     0.000 HD 
ATOM      4  H2  TYR A   1     -12.806  11.848  72.795  1.00  0.00     0.000 HD 
ATOM      5  C   TYR A   1     -12.071  11.297  69.570  1.00  0.00    -0.317 C  
ATOM      6  OXT TYR A   1     -12.025  10.526  68.623  1.00  0.00    -0.334 OA 
ATOM      7  O   TYR A   1     -12.021  12.649  69.433  1.00  0.00    -0.301 OA 
ENDROOT
BRANCH   2   8
ATOM      8  CB  TYR A   1     -13.006   9.626  71.214  1.00  0.00    -0.446 C  
BRANCH   8   9
ATOM      9  CG  TYR A   1     -12.178   8.391  71.487  1.00  0.00    -0.340 A  
ATOM     10  CD1 TYR A   1     -11.483   8.249  72.698  1.00  0.00    -0.423 A  
ATOM     11  CE1 TYR A   1     -10.690   7.123  72.935  1.00  0.00    -0.339 A  
ATOM     12  CZ  TYR A   1     -10.598   6.135  71.962  1.00  0.00    -0.218 A  
ATOM     13  OH  TYR A   1      -9.829   5.025  72.146  1.00  0.00    -0.159 OA 
ATOM     14  CE2 TYR A   1     -11.289   6.251  70.762  1.00  0.00    -0.397 A  
ATOM     15  CD2 TYR A   1     -12.076   7.378  70.522  1.00  0.00    -0.089 A  
ATOM     16  HH  TYR A   1      -9.766   4.350  71.482  1.00  0.00     0.000 HD 
ENDBRANCH   8   9
ENDBRANCH   2   8
TORSDOF 2
ENDMDL
MODEL      127
REMARK 921   NORMALIZED FREE ENERGY PREDICTED BY IDOCK:   -3.56 KCAL/MOL
REMARK 922        TOTAL FREE ENERGY PREDICTED BY IDOCK:   -4.13 KCAL/MOL
REMARK 923 INTER-LIGAND FREE ENERGY PREDICTED BY IDOCK:   -4.43 KCAL/MOL
REMARK 924 INTRA-LIGAND FREE ENERGY PREDICTED BY IDOCK:    0.30 KCAL/MOL
REMARK 927      BINDING AFFINITY PREDICTED BY RF-SCORE:    0.00 PKD
ROOT
ATOM      1  N   TYR A   1      -9.973  14.172  65.323  1.00  0.00    -0.552 NA 
ATOM      2  CA  TYR A   1     -10.907  15.167  65.941  1.00  0.00    -0.339 C  
ATOM      3  H1  TYR A   1      -9.123  14.588  64.940  1.00  0.00     0.000 HD 
ATOM      4  H2  TYR A   1     -10.454  13.620  64.612  1.00  0.00     0.000 HD 
ATOM      5  C   TYR A   1     -10.134  15.908  67.043  1.00  0.00    -0.268 C  
ATOM      6  OXT TYR A   1     -10.630  16.521  67.977  1.00  0.00    -0.302 OA 
ATOM      7  O   TYR A   1      -8.793  15.825  66.835  1.00  0.00    -0.208 OA 
ENDROOT
BRANCH   2   8
ATOM      8  CB  TYR A   1     -12.187  14.539  66.518  1.00  0.00    -0.268 C  
BRANCH   8   9
ATOM      9  CG  TYR A   1     -11.911  13.458  67.537  1.00  0.00    -0.381 A  
ATOM     10  CD1 TYR A   1     -11.604  12.151  67.129  1.00  0.00    -0.405 A  
ATOM     11  CE1 TYR A   1     -11.384  11.144  68.073  1.00  0.00    -0.380 A  
ATOM     12  CZ  TYR A   1     -11.463  11.448  69.427  1.00  0.00    -0.310 A  
ATOM     13  OH  TYR A   1     -11.265  10.495  70.382  1.00  0.00    -0.304 OA 
ATOM     14  CE2 TYR A   1     -11.752  12.739  69.851  1.00  0.00    -0.321 A  
ATOM     15  CD2 TYR A   1     -11.979  13.743  68.909  1.00  0.00    -0.394 A  
ATOM     16  HH  TYR A   1     -11.319  10.703  71.307  1.00  0.00     0.000 HD 
ENDBRANCH   8   9
ENDBRANCH   2   8
TORSDOF 2
ENDMDL
MODEL      128
REMARK 921   NORMALIZED FREE ENERGY PREDICTED BY IDOCK:   -3.54 KCAL/MOL
REMARK 922        TOTAL FREE ENERGY PREDICTED BY IDOCK:   -4.11 KCAL/MOL
REMARK 923 INTER-LIGAND FREE ENERGY PREDICTED BY IDOCK:   -3.94 KCAL/MOL
REMARK 924 INTRA-LIGAND FREE ENERGY PREDICTED BY IDOCK:   -0.17 KCAL/MOL
REMARK 927      BINDING AFFINITY PREDICTED BY RF-SCORE:    0.00 PKD
ROOT
ATOM      1  N   TYR A   1      -9.004   9.592  68.301  1.00  0.00    -0.123 NA 
ATOM      2  CA  TYR A   1     -10.463   9.597  68.643  1.00  0.00    -0.210 C  
ATOM      3  H1  TYR A   1      -8.814   9.392  67.318  1.00  0.00     0.000 HD 
ATOM      4  H2  TYR A   1      -8.495   8.947  68.905  1.00  0.00     0.000 HD 
ATOM      5  C   TYR A   1     -11.149  10.638  67.744  1.00  0.00    -0.321 C  
ATOM      6  OXT TYR A   1     -12.228  11.169  67.959  1.00  0.00    -0.584 OA 
ATOM      7  O   TYR A   1     -10.405  10.884  66.632  1.00  0.00    -0.223 OA 
ENDROOT
BRANCH   2   8
ATOM      8  CB  TYR A   1     -10.751   9.899  70.124  1.00  0.00    -0.361 C  
BRANCH   8   9
ATOM      9  CG  TYR A   1     -11.068   8.662  70.931  1.00  0.00    -0.310 A  
ATOM     10  CD1 TYR A   1     -10.040   7.898  71.504  1.00  0.00    -0.221 A  
ATOM     11  CE1 TYR A   1     -10.332   6.735  72.221  1.00  0.00    -0.219 A  
ATOM     12  CZ  TYR A   1     -11.656   6.340  72.371  1.00  0.00    -0.282 A  
ATOM     13  OH  TYR A   1     -11.987   5.206  73.053  1.00  0.00    -0.484 OA 
ATOM     14  CE2 TYR A   1     -12.689   7.089  71.822  1.00  0.00    -0.378 A  
ATOM     15  CD2 TYR A   1     -12.397   8.248  71.101  1.00  0.00    -0.224 A  
ATOM     16  HH  TYR A   1     -12.892   4.936  73.155  1.00  0.00     0.000 HD 
ENDBRANCH   8   9
ENDBRANCH   2   8
TORSDOF 2
ENDMDL
MODEL      129
REMARK 921   NORMALIZED FREE ENERGY PREDICTED BY IDOCK:   -3.54 KCAL/MOL
REMARK 922        TOTAL FREE ENERGY PREDICTED BY IDOCK:   -4.11 KCAL/MOL
REMARK 923 INTER-LIGAND FREE ENERGY PREDICTED BY IDOCK:   -3.94 KCAL/MOL
REMARK 924 INTRA-LIGAND FREE ENERGY PREDICTED BY IDOCK:   -0.16 KCAL/MOL
REMARK 927      BINDING AFFINITY PREDICTED BY RF-SCORE:    0.00 PKD
ROOT
ATOM      1  N   TYR A   1      -7.019  17.959  66.456  1.00  0.00    -0.207 NA 
ATOM      2  CA  TYR A   1      -8.457  18.306  66.219  1.00  0.00    -0.191 C  
ATOM      3  H1  TYR A   1      -6.366  18.503  65.891  1.00  0.00     0.000 HD 
ATOM      4  H2  TYR A   1      -6.863  16.960  66.324  1.00  0.00     0.000 HD 
ATOM      5  C   TYR A   1      -8.627  19.807  66.504  1.00  0.00    -0.354 C  
ATOM      6  OXT TYR A   1      -9.679  20.372  66.758  1.00  0.00    -0.417 OA 
ATOM      7  O   TYR A   1      -7.436  20.456  66.408  1.00  0.00    -0.261 OA 
ENDROOT
BRANCH   2   8
ATOM      8  CB  TYR A   1      -9.441  17.486  67.071  1.00  0.00    -0.268 C  
BRANCH   8   9
ATOM      9  CG  TYR A   1      -9.812  16.163  66.442  1.00  0.00    -0.304 A  
ATOM     10  CD1 TYR A   1     -10.665  16.115  65.330  1.00  0.00    -0.386 A  
ATOM     11  CE1 TYR A   1     -11.036  14.889  64.770  1.00  0.00    -0.390 A  
ATOM     12  CZ  TYR A   1     -10.544  13.711  65.320  1.00  0.00    -0.346 A  
ATOM     13  OH  TYR A   1     -10.887  12.492  64.813  1.00  0.00    -0.277 OA 
ATOM     14  CE2 TYR A   1      -9.687  13.739  66.413  1.00  0.00    -0.304 A  
ATOM     15  CD2 TYR A   1      -9.322  14.963  66.976  1.00  0.00    -0.240 A  
ATOM     16  HH  TYR A   1     -10.551  11.687  65.189  1.00  0.00     0.000 HD 
ENDBRANCH   8   9
ENDBRANCH   2   8
TORSDOF 2
ENDMDL
MODEL      130
REMARK 921   NORMALIZED FREE ENERGY PREDICTED BY IDOCK:   -3.50 KCAL/MOL
REMARK 922        TOTAL FREE ENERGY PREDICTED BY IDOCK:   -4.06 KCAL/MOL
REMARK 923 INTER-LIGAND FREE ENERGY PREDICTED BY IDOCK:   -4.41 KCAL/MOL
REMARK 924 INTRA-LIGAND FREE ENERGY PREDICTED BY IDOCK:    0.35 KCAL/MOL
REMARK 927      BINDING AFFINITY PREDICTED BY RF-SCORE:    0.00 PKD
ROOT
ATOM      1  N   TYR A   1      -8.361  17.688  65.990  1.00  0.00    -0.530 NA 
ATOM      2  CA  TYR A   1      -8.786  17.784  67.424  1.00  0.00    -0.240 C  
ATOM      3  H1  TYR A   1      -7.360  17.830  65.847  1.00  0.00     0.000 HD 
ATOM      4  H2  TYR A   1      -8.902  18.329  65.410  1.00  0.00     0.000 HD 
ATOM      5  C   TYR A   1      -7.980  16.745  68.219  1.00  0.00    -0.200 C  
ATOM      6  OXT TYR A   1      -8.282  16.289  69.312  1.00  0.00    -0.234 OA 
ATOM      7  O   TYR A   1      -6.841  16.405  67.558  1.00  0.00    -0.125 OA 
ENDROOT
BRANCH   2   8
ATOM      8  CB  TYR A   1     -10.294  17.569  67.639  1.00  0.00    -0.360 C  
BRANCH   8   9
ATOM      9  CG  TYR A   1     -10.778  16.226  67.141  1.00  0.00    -0.247 A  
ATOM     10  CD1 TYR A   1     -10.615  15.861  65.796  1.00  0.00    -0.368 A  
ATOM     11  CE1 TYR A   1     -11.095  14.634  65.329  1.00  0.00    -0.363 A  
ATOM     12  CZ  TYR A   1     -11.731  13.769  66.212  1.00  0.00    -0.376 A  
ATOM     13  OH  TYR A   1     -12.224  12.567  65.798  1.00  0.00    -0.578 OA 
ATOM     14  CE2 TYR A   1     -11.891  14.107  67.550  1.00  0.00    -0.437 A  
ATOM     15  CD2 TYR A   1     -11.418  15.335  68.015  1.00  0.00    -0.351 A  
ATOM     16  HH  TYR A   1     -12.659  11.976  66.400  1.00  0.00     0.000 HD 
ENDBRANCH   8   9
ENDBRANCH   2   8
TORSDOF 2
ENDMDL
MODEL      131
REMARK 921   NORMALIZED FREE ENERGY PREDICTED BY IDOCK:   -3.46 KCAL/MOL
REMARK 922        TOTAL FREE ENERGY PREDICTED BY IDOCK:   -4.02 KCAL/MOL
REMARK 923 INTER-LIGAND FREE ENERGY PREDICTED BY IDOCK:   -3.99 KCAL/MOL
REMARK 924 INTRA-LIGAND FREE ENERGY PREDICTED BY IDOCK:   -0.03 KCAL/MOL
REMARK 927      BINDING AFFINITY PREDICTED BY RF-SCORE:    0.00 PKD
ROOT
ATOM      1  N   TYR A   1     -12.669   6.898  72.312  1.00  0.00    -0.533 NA 
ATOM      2  CA  TYR A   1     -11.891   8.171  72.453  1.00  0.00    -0.388 C  
ATOM      3  H1  TYR A   1     -13.588   6.926  72.756  1.00  0.00     0.000 HD 
ATOM      4  H2  TYR A   1     -12.127   6.105  72.656  1.00  0.00     0.000 HD 
ATOM      5  C   TYR A   1     -12.739   9.303  71.852  1.00  0.00    -0.394 C  
ATOM      6  OXT TYR A   1     -12.321  10.386  71.471  1.00  0.00    -0.376 OA 
ATOM      7  O   TYR A   1     -14.055   8.959  71.821  1.00  0.00    -0.394 OA 
ENDROOT
BRANCH   2   8
ATOM      8  CB  TYR A   1     -10.507   8.128  71.783  1.00  0.00    -0.304 C  
BRANCH   8   9
ATOM      9  CG  TYR A   1     -10.431   7.143  70.639  1.00  0.00    -0.226 A  
ATOM     10  CD1 TYR A   1      -9.991   5.829  70.856  1.00  0.00    -0.243 A  
ATOM     11  CE1 TYR A   1      -9.887   4.929  69.792  1.00  0.00    -0.292 A  
ATOM     12  CZ  TYR A   1     -10.233   5.344  68.511  1.00  0.00    -0.169 A  
ATOM     13  OH  TYR A   1     -10.138   4.502  67.441  1.00  0.00    -0.151 OA 
ATOM     14  CE2 TYR A   1     -10.684   6.637  68.278  1.00  0.00    -0.317 A  
ATOM     15  CD2 TYR A   1     -10.781   7.538  69.340  1.00  0.00    -0.200 A  
ATOM     16  HH  TYR A   1     -10.374   4.786  66.566  1.00  0.00     0.000 HD 
ENDBRANCH   8   9
ENDBRANCH   2   8
TORSDOF 2
ENDMDL
MODEL      132
REMARK 921   NORMALIZED FREE ENERGY PREDICTED BY IDOCK:   -3.46 KCAL/MOL
REMARK 922        TOTAL FREE ENERGY PREDICTED BY IDOCK:   -4.01 KCAL/MOL
REMARK 923 INTER-LIGAND FREE ENERGY PREDICTED BY IDOCK:   -3.80 KCAL/MOL
REMARK 924 INTRA-LIGAND FREE ENERGY PREDICTED BY IDOCK:   -0.21 KCAL/MOL
REMARK 927      BINDING AFFINITY PREDICTED BY RF-SCORE:    0.00 PKD
ROOT
ATOM      1  N   TYR A   1      -9.135  15.325  69.792  1.00  0.00    -0.432 NA 
ATOM      2  CA  TYR A   1      -9.808  14.658  68.630  1.00  0.00    -0.224 C  
ATOM      3  H1  TYR A   1      -8.237  15.750  69.558  1.00  0.00     0.000 HD 
ATOM      4  H2  TYR A   1      -9.032  14.673  70.570  1.00  0.00     0.000 HD 
ATOM      5  C   TYR A   1      -9.990  15.714  67.529  1.00  0.00    -0.231 C  
ATOM      6  OXT TYR A   1     -10.784  15.653  66.603  1.00  0.00    -0.308 OA 
ATOM      7  O   TYR A   1      -9.114  16.742  67.693  1.00  0.00    -0.215 OA 
ENDROOT
BRANCH   2   8
ATOM      8  CB  TYR A   1     -11.161  14.017  68.983  1.00  0.00    -0.296 C  
BRANCH   8   9
ATOM      9  CG  TYR A   1     -11.174  12.517  68.794  1.00  0.00    -0.318 A  
ATOM     10  CD1 TYR A   1     -11.557  11.668  69.842  1.00  0.00    -0.366 A  
ATOM     11  CE1 TYR A   1     -11.536  10.280  69.677  1.00  0.00    -0.297 A  
ATOM     12  CZ  TYR A   1     -11.138   9.743  68.459  1.00  0.00    -0.087 A  
ATOM     13  OH  TYR A   1     -11.092   8.395  68.256  1.00  0.00    -0.433 OA 
ATOM     14  CE2 TYR A   1     -10.768  10.568  67.404  1.00  0.00    -0.334 A  
ATOM     15  CD2 TYR A   1     -10.783  11.954  67.571  1.00  0.00    -0.263 A  
ATOM     16  HH  TYR A   1     -10.820   8.029  67.424  1.00  0.00     0.000 HD 
ENDBRANCH   8   9
ENDBRANCH   2   8
TORSDOF 2
ENDMDL
MODEL      133
REMARK 921   NORMALIZED FREE ENERGY PREDICTED BY IDOCK:   -3.45 KCAL/MOL
REMARK 922        TOTAL FREE ENERGY PREDICTED BY IDOCK:   -4.01 KCAL/MOL
REMARK 923 INTER-LIGAND FREE ENERGY PREDICTED BY IDOCK:   -4.03 KCAL/MOL
REMARK 924 INTRA-LIGAND FREE ENERGY PREDICTED BY IDOCK:    0.02 KCAL/MOL
REMARK 927      BINDING AFFINITY PREDICTED BY RF-SCORE:    0.00 PKD
ROOT
ATOM      1  N   TYR A   1      -8.704  15.655  68.853  1.00  0.00    -0.197 NA 
ATOM      2  CA  TYR A   1      -9.474  16.467  67.856  1.00  0.00    -0.220 C  
ATOM      3  H1  TYR A   1      -7.726  15.512  68.599  1.00  0.00     0.000 HD 
ATOM      4  H2  TYR A   1      -9.166  14.761  69.023  1.00  0.00     0.000 HD 
ATOM      5  C   TYR A   1      -8.759  17.819  67.706  1.00  0.00    -0.241 C  
ATOM      6  OXT TYR A   1      -9.255  18.847  67.272  1.00  0.00    -0.279 OA 
ATOM      7  O   TYR A   1      -7.459  17.726  68.097  1.00  0.00    -0.221 OA 
ENDROOT
BRANCH   2   8
ATOM      8  CB  TYR A   1     -10.948  16.683  68.239  1.00  0.00    -0.341 C  
BRANCH   8   9
ATOM      9  CG  TYR A   1     -11.461  15.659  69.225  1.00  0.00    -0.368 A  
ATOM     10  CD1 TYR A   1     -11.701  14.336  68.823  1.00  0.00    -0.378 A  
ATOM     11  CE1 TYR A   1     -12.208  13.399  69.727  1.00  0.00    -0.307 A  
ATOM     12  CZ  TYR A   1     -12.469  13.784  71.037  1.00  0.00    -0.380 A  
ATOM     13  OH  TYR A   1     -12.973  12.906  71.949  1.00  0.00    -0.348 OA 
ATOM     14  CE2 TYR A   1     -12.225  15.085  71.457  1.00  0.00    -0.399 A  
ATOM     15  CD2 TYR A   1     -11.725  16.024  70.553  1.00  0.00    -0.350 A  
ATOM     16  HH  TYR A   1     -13.151  13.169  72.844  1.00  0.00     0.000 HD 
ENDBRANCH   8   9
ENDBRANCH   2   8
TORSDOF 2
ENDMDL
MODEL      134
REMARK 921   NORMALIZED FREE ENERGY PREDICTED BY IDOCK:   -3.45 KCAL/MOL
REMARK 922        TOTAL FREE ENERGY PREDICTED BY IDOCK:   -4.00 KCAL/MOL
REMARK 923 INTER-LIGAND FREE ENERGY PREDICTED BY IDOCK:   -3.97 KCAL/MOL
REMARK 924 INTRA-LIGAND FREE ENERGY PREDICTED BY IDOCK:   -0.03 KCAL/MOL
REMARK 927      BINDING AFFINITY PREDICTED BY RF-SCORE:    0.00 PKD
ROOT
ATOM      1  N   TYR A   1      -8.787  14.308  69.029  1.00  0.00    -0.377 NA 
ATOM      2  CA  TYR A   1      -9.750  15.100  68.198  1.00  0.00    -0.217 C  
ATOM      3  H1  TYR A   1      -8.407  14.825  69.823  1.00  0.00     0.000 HD 
ATOM      4  H2  TYR A   1      -8.034  13.935  68.450  1.00  0.00     0.000 HD 
ATOM      5  C   TYR A   1     -10.886  15.567  69.122  1.00  0.00    -0.251 C  
ATOM      6  OXT TYR A   1     -11.999  15.921  68.764  1.00  0.00    -0.368 OA 
ATOM      7  O   TYR A   1     -10.485  15.568  70.421  1.00  0.00    -0.313 OA 
ENDROOT
BRANCH   2   8
ATOM      8  CB  TYR A   1     -10.322  14.321  67.001  1.00  0.00    -0.267 C  
BRANCH   8   9
ATOM      9  CG  TYR A   1     -10.504  12.847  67.285  1.00  0.00    -0.236 A  
ATOM     10  CD1 TYR A   1      -9.642  11.898  66.716  1.00  0.00    -0.214 A  
ATOM     11  CE1 TYR A   1      -9.832  10.533  66.950  1.00  0.00    -0.235 A  
ATOM     12  CZ  TYR A   1     -10.882  10.120  67.762  1.00  0.00    -0.292 A  
ATOM     13  OH  TYR A   1     -11.111   8.798  68.009  1.00  0.00    -0.477 OA 
ATOM     14  CE2 TYR A   1     -11.739  11.045  68.345  1.00  0.00    -0.329 A  
ATOM     15  CD2 TYR A   1     -11.553  12.408  68.105  1.00  0.00    -0.395 A  
ATOM     16  HH  TYR A   1     -11.829   8.516  68.563  1.00  0.00     0.000 HD 
ENDBRANCH   8   9
ENDBRANCH   2   8
TORSDOF 2
ENDMDL
MODEL      135
REMARK 921   NORMALIZED FREE ENERGY PREDICTED BY IDOCK:   -3.44 KCAL/MOL
REMARK 922        TOTAL FREE ENERGY PREDICTED BY IDOCK:   -3.99 KCAL/MOL
REMARK 923 INTER-LIGAND FREE ENERGY PREDICTED BY IDOCK:   -3.80 KCAL/MOL
REMARK 924 INTRA-LIGAND FREE ENERGY PREDICTED BY IDOCK:   -0.19 KCAL/MOL
REMARK 927      BINDING AFFINITY PREDICTED BY RF-SCORE:    0.00 PKD
ROOT
ATOM      1  N   TYR A   1     -11.439   6.591  67.240  1.00  0.00    -0.743 NA 
ATOM      2  CA  TYR A   1     -10.621   6.394  68.480  1.00  0.00    -0.252 C  
ATOM      3  H1  TYR A   1     -10.882   6.669  66.388  1.00  0.00     0.000 HD 
ATOM      4  H2  TYR A   1     -12.057   7.397  67.341  1.00  0.00     0.000 HD 
ATOM      5  C   TYR A   1      -9.772   5.129  68.281  1.00  0.00    -0.142 C  
ATOM      6  OXT TYR A   1      -9.261   4.463  69.169  1.00  0.00    -0.116 OA 
ATOM      7  O   TYR A   1      -9.627   4.845  66.959  1.00  0.00    -0.138 OA 
ENDROOT
BRANCH   2   8
ATOM      8  CB  TYR A   1     -11.461   6.277  69.764  1.00  0.00    -0.449 C  
BRANCH   8   9
ATOM      9  CG  TYR A   1     -10.781   6.876  70.974  1.00  0.00    -0.258 A  
ATOM     10  CD1 TYR A   1      -9.937   7.989  70.842  1.00  0.00    -0.207 A  
ATOM     11  CE1 TYR A   1      -9.282   8.520  71.957  1.00  0.00    -0.326 A  
ATOM     12  CZ  TYR A   1      -9.478   7.941  73.205  1.00  0.00    -0.278 A  
ATOM     13  OH  TYR A   1      -8.852   8.420  74.317  1.00  0.00    -0.253 OA 
ATOM     14  CE2 TYR A   1     -10.321   6.847  73.358  1.00  0.00    -0.337 A  
ATOM     15  CD2 TYR A   1     -10.970   6.312  72.244  1.00  0.00    -0.297 A  
ATOM     16  HH  TYR A   1      -8.986   8.025  75.170  1.00  0.00     0.000 HD 
ENDBRANCH   8   9
ENDBRANCH   2   8
TORSDOF 2
ENDMDL
MODEL      136
REMARK 921   NORMALIZED FREE ENERGY PREDICTED BY IDOCK:   -3.40 KCAL/MOL
REMARK 922        TOTAL FREE ENERGY PREDICTED BY IDOCK:   -3.95 KCAL/MOL
REMARK 923 INTER-LIGAND FREE ENERGY PREDICTED BY IDOCK:   -3.92 KCAL/MOL
REMARK 924 INTRA-LIGAND FREE ENERGY PREDICTED BY IDOCK:   -0.04 KCAL/MOL
REMARK 927      BINDING AFFINITY PREDICTED BY RF-SCORE:    0.00 PKD
ROOT
ATOM      1  N   TYR A   1     -10.275  13.096  63.841  1.00  0.00    -0.744 NA 
ATOM      2  CA  TYR A   1     -11.475  13.084  64.739  1.00  0.00    -0.327 C  
ATOM      3  H1  TYR A   1     -10.237  13.902  63.216  1.00  0.00     0.000 HD 
ATOM      4  H2  TYR A   1     -10.215  12.226  63.310  1.00  0.00     0.000 HD 
ATOM      5  C   TYR A   1     -11.459  14.388  65.553  1.00  0.00    -0.340 C  
ATOM      6  OXT TYR A   1     -12.049  14.582  66.605  1.00  0.00    -0.393 OA 
ATOM      7  O   TYR A   1     -10.714  15.339  64.929  1.00  0.00    -0.419 OA 
ENDROOT
BRANCH   2   8
ATOM      8  CB  TYR A   1     -11.532  11.869  65.680  1.00  0.00    -0.314 C  
BRANCH   8   9
ATOM      9  CG  TYR A   1     -10.179  11.240  65.920  1.00  0.00    -0.298 A  
ATOM     10  CD1 TYR A   1      -9.268  11.823  66.814  1.00  0.00    -0.196 A  
ATOM     11  CE1 TYR A   1      -8.004  11.260  67.009  1.00  0.00    -0.150 A  
ATOM     12  CZ  TYR A   1      -7.654  10.108  66.314  1.00  0.00    -0.111 A  
ATOM     13  OH  TYR A   1      -6.428   9.531  66.466  1.00  0.00    -0.065 OA 
ATOM     14  CE2 TYR A   1      -8.547   9.508  65.435  1.00  0.00    -0.173 A  
ATOM     15  CD2 TYR A   1      -9.808  10.074  65.235  1.00  0.00    -0.388 A  
ATOM     16  HH  TYR A   1      -6.190   8.744  65.992  1.00  0.00     0.000 HD 
ENDBRANCH   8   9
ENDBRANCH   2   8
TORSDOF 2
ENDMDL
MODEL      137
REMARK 921   NORMALIZED FREE ENERGY PREDICTED BY IDOCK:   -3.40 KCAL/MOL
REMARK 922        TOTAL FREE ENERGY PREDICTED BY IDOCK:   -3.95 KCAL/MOL
REMARK 923 INTER-LIGAND FREE ENERGY PREDICTED BY IDOCK:   -3.78 KCAL/MOL
REMARK 924 INTRA-LIGAND FREE ENERGY PREDICTED BY IDOCK:   -0.18 KCAL/MOL
REMARK 927      BINDING AFFINITY PREDICTED BY RF-SCORE:    0.00 PKD
ROOT
ATOM      1  N   TYR A   1      -7.147  14.945  70.076  1.00  0.00    -0.294 NA 
ATOM      2  CA  TYR A   1      -7.567  15.940  69.037  1.00  0.00    -0.202 C  
ATOM      3  H1  TYR A   1      -6.144  14.752  70.078  1.00  0.00     0.000 HD 
ATOM      4  H2  TYR A   1      -7.679  14.080  69.981  1.00  0.00     0.000 HD 
ATOM      5  C   TYR A   1      -6.776  17.234  69.285  1.00  0.00    -0.230 C  
ATOM      6  OXT TYR A   1      -7.082  18.348  68.887  1.00  0.00    -0.275 OA 
ATOM      7  O   TYR A   1      -5.644  16.981  69.995  1.00  0.00    -0.203 OA 
ENDROOT
BRANCH   2   8
ATOM      8  CB  TYR A   1      -9.078  16.231  69.033  1.00  0.00    -0.255 C  
BRANCH   8   9
ATOM      9  CG  TYR A   1      -9.893  15.127  68.399  1.00  0.00    -0.223 A  
ATOM     10  CD1 TYR A   1      -9.598  14.674  67.104  1.00  0.00    -0.236 A  
ATOM     11  CE1 TYR A   1     -10.375  13.678  66.505  1.00  0.00    -0.282 A  
ATOM     12  CZ  TYR A   1     -11.442  13.130  67.207  1.00  0.00    -0.331 A  
ATOM     13  OH  TYR A   1     -12.232  12.163  66.658  1.00  0.00    -0.566 OA 
ATOM     14  CE2 TYR A   1     -11.741  13.556  68.495  1.00  0.00    -0.392 A  
ATOM     15  CD2 TYR A   1     -10.970  14.555  69.091  1.00  0.00    -0.286 A  
ATOM     16  HH  TYR A   1     -12.961  11.789  67.137  1.00  0.00     0.000 HD 
ENDBRANCH   8   9
ENDBRANCH   2   8
TORSDOF 2
ENDMDL
MODEL      138
REMARK 921   NORMALIZED FREE ENERGY PREDICTED BY IDOCK:   -3.40 KCAL/MOL
REMARK 922        TOTAL FREE ENERGY PREDICTED BY IDOCK:   -3.95 KCAL/MOL
REMARK 923 INTER-LIGAND FREE ENERGY PREDICTED BY IDOCK:   -3.74 KCAL/MOL
REMARK 924 INTRA-LIGAND FREE ENERGY PREDICTED BY IDOCK:   -0.21 KCAL/MOL
REMARK 927      BINDING AFFINITY PREDICTED BY RF-SCORE:    0.00 PKD
ROOT
ATOM      1  N   TYR A   1     -11.181   4.633  65.432  1.00  0.00    -0.984 NA 
ATOM      2  CA  TYR A   1     -10.188   5.290  66.342  1.00  0.00    -0.249 C  
ATOM      3  H1  TYR A   1     -10.804   4.399  64.512  1.00  0.00     0.000 HD 
ATOM      4  H2  TYR A   1     -12.021   5.206  65.342  1.00  0.00     0.000 HD 
ATOM      5  C   TYR A   1      -8.987   4.342  66.483  1.00  0.00    -0.120 C  
ATOM      6  OXT TYR A   1      -8.164   4.360  67.385  1.00  0.00    -0.100 OA 
ATOM      7  O   TYR A   1      -8.930   3.473  65.438  1.00  0.00    -0.127 OA 
ENDROOT
BRANCH   2   8
ATOM      8  CB  TYR A   1     -10.756   5.642  67.727  1.00  0.00    -0.250 C  
BRANCH   8   9
ATOM      9  CG  TYR A   1     -10.535   7.088  68.110  1.00  0.00    -0.242 A  
ATOM     10  CD1 TYR A   1     -10.483   7.471  69.458  1.00  0.00    -0.227 A  
ATOM     11  CE1 TYR A   1     -10.314   8.813  69.810  1.00  0.00    -0.214 A  
ATOM     12  CZ  TYR A   1     -10.189   9.771  68.811  1.00  0.00    -0.194 A  
ATOM     13  OH  TYR A   1     -10.032  11.092  69.109  1.00  0.00    -0.349 OA 
ATOM     14  CE2 TYR A   1     -10.225   9.409  67.470  1.00  0.00    -0.288 A  
ATOM     15  CD2 TYR A   1     -10.400   8.070  67.118  1.00  0.00    -0.395 A  
ATOM     16  HH  TYR A   1      -9.947  11.747  68.426  1.00  0.00     0.000 HD 
ENDBRANCH   8   9
ENDBRANCH   2   8
TORSDOF 2
ENDMDL
MODEL      139
REMARK 921   NORMALIZED FREE ENERGY PREDICTED BY IDOCK:   -3.39 KCAL/MOL
REMARK 922        TOTAL FREE ENERGY PREDICTED BY IDOCK:   -3.94 KCAL/MOL
REMARK 923 INTER-LIGAND FREE ENERGY PREDICTED BY IDOCK:   -3.78 KCAL/MOL
REMARK 924 INTRA-LIGAND FREE ENERGY PREDICTED BY IDOCK:   -0.15 KCAL/MOL
REMARK 927      BINDING AFFINITY PREDICTED BY RF-SCORE:    0.00 PKD
ROOT
ATOM      1  N   TYR A   1     -12.488  10.515  69.208  1.00  0.00    -0.717 NA 
ATOM      2  CA  TYR A   1     -11.052  10.414  68.791  1.00  0.00    -0.250 C  
ATOM      3  H1  TYR A   1     -12.888  11.446  69.081  1.00  0.00     0.000 HD 
ATOM      4  H2  TYR A   1     -12.606  10.200  70.171  1.00  0.00     0.000 HD 
ATOM      5  C   TYR A   1     -10.965  10.836  67.316  1.00  0.00    -0.297 C  
ATOM      6  OXT TYR A   1     -10.059  10.559  66.544  1.00  0.00    -0.210 OA 
ATOM      7  O   TYR A   1     -12.032  11.604  66.967  1.00  0.00    -0.593 OA 
ENDROOT
BRANCH   2   8
ATOM      8  CB  TYR A   1     -10.449   9.011  68.981  1.00  0.00    -0.235 C  
BRANCH   8   9
ATOM      9  CG  TYR A   1      -9.771   8.833  70.320  1.00  0.00    -0.198 A  
ATOM     10  CD1 TYR A   1      -8.397   9.078  70.463  1.00  0.00    -0.205 A  
ATOM     11  CE1 TYR A   1      -7.764   8.879  71.693  1.00  0.00    -0.061 A  
ATOM     12  CZ  TYR A   1      -8.510   8.442  72.782  1.00  0.00    -0.155 A  
ATOM     13  OH  TYR A   1      -7.932   8.226  73.998  1.00  0.00    -0.214 OA 
ATOM     14  CE2 TYR A   1      -9.874   8.207  72.663  1.00  0.00    -0.364 A  
ATOM     15  CD2 TYR A   1     -10.505   8.399  71.433  1.00  0.00    -0.286 A  
ATOM     16  HH  TYR A   1      -8.441   7.927  74.742  1.00  0.00     0.000 HD 
ENDBRANCH   8   9
ENDBRANCH   2   8
TORSDOF 2
ENDMDL
MODEL      140
REMARK 921   NORMALIZED FREE ENERGY PREDICTED BY IDOCK:   -3.36 KCAL/MOL
REMARK 922        TOTAL FREE ENERGY PREDICTED BY IDOCK:   -3.91 KCAL/MOL
REMARK 923 INTER-LIGAND FREE ENERGY PREDICTED BY IDOCK:   -3.95 KCAL/MOL
REMARK 924 INTRA-LIGAND FREE ENERGY PREDICTED BY IDOCK:    0.04 KCAL/MOL
REMARK 927      BINDING AFFINITY PREDICTED BY RF-SCORE:    0.00 PKD
ROOT
ATOM      1  N   TYR A   1     -11.342   6.929  67.338  1.00  0.00    -0.687 NA 
ATOM      2  CA  TYR A   1     -10.061   7.001  68.112  1.00  0.00    -0.169 C  
ATOM      3  H1  TYR A   1     -11.936   6.140  67.598  1.00  0.00     0.000 HD 
ATOM      4  H2  TYR A   1     -11.156   6.924  66.335  1.00  0.00     0.000 HD 
ATOM      5  C   TYR A   1     -10.422   7.075  69.604  1.00  0.00    -0.223 C  
ATOM      6  OXT TYR A   1      -9.697   7.486  70.497  1.00  0.00    -0.179 OA 
ATOM      7  O   TYR A   1     -11.672   6.585  69.825  1.00  0.00    -0.382 OA 
ENDROOT
BRANCH   2   8
ATOM      8  CB  TYR A   1      -9.167   8.190  67.720  1.00  0.00    -0.143 C  
BRANCH   8   9
ATOM      9  CG  TYR A   1      -9.953   9.419  67.327  1.00  0.00    -0.252 A  
ATOM     10  CD1 TYR A   1     -10.742  10.095  68.270  1.00  0.00    -0.277 A  
ATOM     11  CE1 TYR A   1     -11.496  11.211  67.897  1.00  0.00    -0.359 A  
ATOM     12  CZ  TYR A   1     -11.453  11.656  66.581  1.00  0.00    -0.206 A  
ATOM     13  OH  TYR A   1     -12.180  12.734  66.171  1.00  0.00    -0.521 OA 
ATOM     14  CE2 TYR A   1     -10.667  11.008  65.636  1.00  0.00    -0.217 A  
ATOM     15  CD2 TYR A   1      -9.919   9.889  66.007  1.00  0.00    -0.338 A  
ATOM     16  HH  TYR A   1     -12.151  13.038  65.272  1.00  0.00     0.000 HD 
ENDBRANCH   8   9
ENDBRANCH   2   8
TORSDOF 2
ENDMDL
MODEL      141
REMARK 921   NORMALIZED FREE ENERGY PREDICTED BY IDOCK:   -3.34 KCAL/MOL
REMARK 922        TOTAL FREE ENERGY PREDICTED BY IDOCK:   -3.88 KCAL/MOL
REMARK 923 INTER-LIGAND FREE ENERGY PREDICTED BY IDOCK:   -3.67 KCAL/MOL
REMARK 924 INTRA-LIGAND FREE ENERGY PREDICTED BY IDOCK:   -0.21 KCAL/MOL
REMARK 927      BINDING AFFINITY PREDICTED BY RF-SCORE:    0.00 PKD
ROOT
ATOM      1  N   TYR A   1     -11.516   6.711  67.209  1.00  0.00    -0.749 NA 
ATOM      2  CA  TYR A   1     -10.419   7.683  66.897  1.00  0.00    -0.318 C  
ATOM      3  H1  TYR A   1     -11.674   6.019  66.475  1.00  0.00     0.000 HD 
ATOM      4  H2  TYR A   1     -12.381   7.203  67.431  1.00  0.00     0.000 HD 
ATOM      5  C   TYR A   1      -9.138   6.874  66.643  1.00  0.00    -0.151 C  
ATOM      6  OXT TYR A   1      -7.996   7.303  66.705  1.00  0.00    -0.113 OA 
ATOM      7  O   TYR A   1      -9.435   5.591  66.299  1.00  0.00    -0.152 OA 
ENDROOT
BRANCH   2   8
ATOM      8  CB  TYR A   1     -10.182   8.725  68.003  1.00  0.00    -0.264 C  
BRANCH   8   9
ATOM      9  CG  TYR A   1      -9.944  10.118  67.466  1.00  0.00    -0.231 A  
ATOM     10  CD1 TYR A   1      -9.563  11.159  68.325  1.00  0.00    -0.185 A  
ATOM     11  CE1 TYR A   1      -9.378  12.454  67.833  1.00  0.00    -0.195 A  
ATOM     12  CZ  TYR A   1      -9.566  12.704  66.479  1.00  0.00    -0.248 A  
ATOM     13  OH  TYR A   1      -9.406  13.954  65.957  1.00  0.00    -0.485 OA 
ATOM     14  CE2 TYR A   1      -9.931  11.683  65.610  1.00  0.00    -0.274 A  
ATOM     15  CD2 TYR A   1     -10.123  10.391  66.102  1.00  0.00    -0.299 A  
ATOM     16  HH  TYR A   1      -9.536  14.125  65.032  1.00  0.00     0.000 HD 
ENDBRANCH   8   9
ENDBRANCH   2   8
TORSDOF 2
ENDMDL
MODEL      142
REMARK 921   NORMALIZED FREE ENERGY PREDICTED BY IDOCK:   -3.32 KCAL/MOL
REMARK 922        TOTAL FREE ENERGY PREDICTED BY IDOCK:   -3.86 KCAL/MOL
REMARK 923 INTER-LIGAND FREE ENERGY PREDICTED BY IDOCK:   -3.67 KCAL/MOL
REMARK 924 INTRA-LIGAND FREE ENERGY PREDICTED BY IDOCK:   -0.19 KCAL/MOL
REMARK 927      BINDING AFFINITY PREDICTED BY RF-SCORE:    0.00 PKD
ROOT
ATOM      1  N   TYR A   1     -11.630  15.014  68.914  1.00  0.00    -0.309 NA 
ATOM      2  CA  TYR A   1     -10.559  14.505  67.997  1.00  0.00    -0.237 C  
ATOM      3  H1  TYR A   1     -11.273  15.389  69.794  1.00  0.00     0.000 HD 
ATOM      4  H2  TYR A   1     -12.328  14.291  69.088  1.00  0.00     0.000 HD 
ATOM      5  C   TYR A   1      -9.587  15.664  67.728  1.00  0.00    -0.209 C  
ATOM      6  OXT TYR A   1      -8.814  15.746  66.785  1.00  0.00    -0.220 OA 
ATOM      7  O   TYR A   1      -9.669  16.604  68.708  1.00  0.00    -0.236 OA 
ENDROOT
BRANCH   2   8
ATOM      8  CB  TYR A   1     -11.097  13.941  66.671  1.00  0.00    -0.310 C  
BRANCH   8   9
ATOM      9  CG  TYR A   1     -10.797  12.470  66.486  1.00  0.00    -0.287 A  
ATOM     10  CD1 TYR A   1     -10.109  12.018  65.351  1.00  0.00    -0.285 A  
ATOM     11  CE1 TYR A   1      -9.864  10.655  65.164  1.00  0.00    -0.344 A  
ATOM     12  CZ  TYR A   1     -10.301   9.745  66.120  1.00  0.00    -0.144 A  
ATOM     13  OH  TYR A   1     -10.091   8.405  65.974  1.00  0.00    -0.470 OA 
ATOM     14  CE2 TYR A   1     -10.972  10.175  67.258  1.00  0.00    -0.250 A  
ATOM     15  CD2 TYR A   1     -11.224  11.536  67.441  1.00  0.00    -0.367 A  
ATOM     16  HH  TYR A   1     -10.390   7.784  66.627  1.00  0.00     0.000 HD 
ENDBRANCH   8   9
ENDBRANCH   2   8
TORSDOF 2
ENDMDL
MODEL      143
REMARK 921   NORMALIZED FREE ENERGY PREDICTED BY IDOCK:   -3.31 KCAL/MOL
REMARK 922        TOTAL FREE ENERGY PREDICTED BY IDOCK:   -3.85 KCAL/MOL
REMARK 923 INTER-LIGAND FREE ENERGY PREDICTED BY IDOCK:   -3.90 KCAL/MOL
REMARK 924 INTRA-LIGAND FREE ENERGY PREDICTED BY IDOCK:    0.05 KCAL/MOL
REMARK 927      BINDING AFFINITY PREDICTED BY RF-SCORE:    0.00 PKD
ROOT
ATOM      1  N   TYR A   1      -8.971   9.227  65.203  1.00  0.00    -0.208 NA 
ATOM      2  CA  TYR A   1      -9.650  10.441  64.647  1.00  0.00    -0.300 C  
ATOM      3  H1  TYR A   1      -9.106   8.386  64.641  1.00  0.00     0.000 HD 
ATOM      4  H2  TYR A   1      -9.258   9.065  66.169  1.00  0.00     0.000 HD 
ATOM      5  C   TYR A   1      -9.118  10.661  63.222  1.00  0.00    -0.257 C  
ATOM      6  OXT TYR A   1      -9.162  11.708  62.595  1.00  0.00    -0.349 OA 
ATOM      7  O   TYR A   1      -8.605   9.508  62.713  1.00  0.00    -0.182 OA 
ENDROOT
BRANCH   2   8
ATOM      8  CB  TYR A   1      -9.445  11.709  65.494  1.00  0.00    -0.215 C  
BRANCH   8   9
ATOM      9  CG  TYR A   1     -10.408  12.820  65.142  1.00  0.00    -0.314 A  
ATOM     10  CD1 TYR A   1     -11.745  12.535  64.831  1.00  0.00    -0.409 A  
ATOM     11  CE1 TYR A   1     -12.626  13.560  64.471  1.00  0.00    -0.262 A  
ATOM     12  CZ  TYR A   1     -12.167  14.871  64.432  1.00  0.00    -0.381 A  
ATOM     13  OH  TYR A   1     -12.988  15.901  64.077  1.00  0.00    -0.379 OA 
ATOM     14  CE2 TYR A   1     -10.850  15.175  64.750  1.00  0.00    -0.378 A  
ATOM     15  CD2 TYR A   1      -9.969  14.151  65.103  1.00  0.00    -0.263 A  
ATOM     16  HH  TYR A   1     -12.675  16.797  64.050  1.00  0.00     0.000 HD 
ENDBRANCH   8   9
ENDBRANCH   2   8
TORSDOF 2
ENDMDL
MODEL      144
REMARK 921   NORMALIZED FREE ENERGY PREDICTED BY IDOCK:   -3.31 KCAL/MOL
REMARK 922        TOTAL FREE ENERGY PREDICTED BY IDOCK:   -3.85 KCAL/MOL
REMARK 923 INTER-LIGAND FREE ENERGY PREDICTED BY IDOCK:   -3.66 KCAL/MOL
REMARK 924 INTRA-LIGAND FREE ENERGY PREDICTED BY IDOCK:   -0.19 KCAL/MOL
REMARK 927      BINDING AFFINITY PREDICTED BY RF-SCORE:    0.00 PKD
ROOT
ATOM      1  N   TYR A   1      -8.593  10.251  67.652  1.00  0.00    -0.118 NA 
ATOM      2  CA  TYR A   1      -8.853   9.944  69.096  1.00  0.00    -0.164 C  
ATOM      3  H1  TYR A   1      -8.264  11.203  67.487  1.00  0.00     0.000 HD 
ATOM      4  H2  TYR A   1      -9.419  10.052  67.088  1.00  0.00     0.000 HD 
ATOM      5  C   TYR A   1      -7.548  10.200  69.868  1.00  0.00    -0.166 C  
ATOM      6  OXT TYR A   1      -7.265   9.743  70.965  1.00  0.00    -0.332 OA 
ATOM      7  O   TYR A   1      -6.734  11.044  69.179  1.00  0.00    -0.065 OA 
ENDROOT
BRANCH   2   8
ATOM      8  CB  TYR A   1      -9.348   8.509  69.345  1.00  0.00    -0.154 C  
BRANCH   8   9
ATOM      9  CG  TYR A   1     -10.545   8.446  70.265  1.00  0.00    -0.234 A  
ATOM     10  CD1 TYR A   1     -11.371   7.312  70.287  1.00  0.00    -0.266 A  
ATOM     11  CE1 TYR A   1     -12.498   7.269  71.113  1.00  0.00    -0.373 A  
ATOM     12  CZ  TYR A   1     -12.792   8.359  71.924  1.00  0.00    -0.353 A  
ATOM     13  OH  TYR A   1     -13.887   8.364  72.738  1.00  0.00    -0.628 OA 
ATOM     14  CE2 TYR A   1     -11.979   9.485  71.926  1.00  0.00    -0.381 A  
ATOM     15  CD2 TYR A   1     -10.858   9.531  71.097  1.00  0.00    -0.425 A  
ATOM     16  HH  TYR A   1     -14.088   9.108  73.291  1.00  0.00     0.000 HD 
ENDBRANCH   8   9
ENDBRANCH   2   8
TORSDOF 2
ENDMDL
MODEL      145
REMARK 921   NORMALIZED FREE ENERGY PREDICTED BY IDOCK:   -3.30 KCAL/MOL
REMARK 922        TOTAL FREE ENERGY PREDICTED BY IDOCK:   -3.84 KCAL/MOL
REMARK 923 INTER-LIGAND FREE ENERGY PREDICTED BY IDOCK:   -3.67 KCAL/MOL
REMARK 924 INTRA-LIGAND FREE ENERGY PREDICTED BY IDOCK:   -0.17 KCAL/MOL
REMARK 927      BINDING AFFINITY PREDICTED BY RF-SCORE:    0.00 PKD
ROOT
ATOM      1  N   TYR A   1     -10.157   8.343  66.330  1.00  0.00    -0.455 NA 
ATOM      2  CA  TYR A   1      -9.967   9.629  67.076  1.00  0.00    -0.206 C  
ATOM      3  H1  TYR A   1     -10.728   8.437  65.488  1.00  0.00     0.000 HD 
ATOM      4  H2  TYR A   1     -10.538   7.623  66.944  1.00  0.00     0.000 HD 
ATOM      5  C   TYR A   1      -9.330  10.639  66.109  1.00  0.00    -0.177 C  
ATOM      6  OXT TYR A   1      -8.718  11.647  66.428  1.00  0.00    -0.192 OA 
ATOM      7  O   TYR A   1      -9.559  10.284  64.816  1.00  0.00    -0.258 OA 
ENDROOT
BRANCH   2   8
ATOM      8  CB  TYR A   1      -9.107   9.487  68.344  1.00  0.00    -0.127 C  
BRANCH   8   9
ATOM      9  CG  TYR A   1      -9.917   9.160  69.577  1.00  0.00    -0.193 A  
ATOM     10  CD1 TYR A   1     -11.067   9.899  69.895  1.00  0.00    -0.318 A  
ATOM     11  CE1 TYR A   1     -11.795   9.618  71.054  1.00  0.00    -0.428 A  
ATOM     12  CZ  TYR A   1     -11.376   8.592  71.892  1.00  0.00    -0.329 A  
ATOM     13  OH  TYR A   1     -12.050   8.290  73.038  1.00  0.00    -0.596 OA 
ATOM     14  CE2 TYR A   1     -10.248   7.840  71.588  1.00  0.00    -0.225 A  
ATOM     15  CD2 TYR A   1      -9.517   8.124  70.434  1.00  0.00    -0.163 A  
ATOM     16  HH  TYR A   1     -11.764   7.589  73.611  1.00  0.00     0.000 HD 
ENDBRANCH   8   9
ENDBRANCH   2   8
TORSDOF 2
ENDMDL
MODEL      146
REMARK 921   NORMALIZED FREE ENERGY PREDICTED BY IDOCK:   -3.28 KCAL/MOL
REMARK 922        TOTAL FREE ENERGY PREDICTED BY IDOCK:   -3.82 KCAL/MOL
REMARK 923 INTER-LIGAND FREE ENERGY PREDICTED BY IDOCK:   -3.65 KCAL/MOL
REMARK 924 INTRA-LIGAND FREE ENERGY PREDICTED BY IDOCK:   -0.17 KCAL/MOL
REMARK 927      BINDING AFFINITY PREDICTED BY RF-SCORE:    0.00 PKD
ROOT
ATOM      1  N   TYR A   1      -9.354  13.086  68.633  1.00  0.00    -0.406 NA 
ATOM      2  CA  TYR A   1     -10.418  12.532  67.736  1.00  0.00    -0.220 C  
ATOM      3  H1  TYR A   1      -8.673  13.674  68.150  1.00  0.00     0.000 HD 
ATOM      4  H2  TYR A   1      -8.885  12.336  69.142  1.00  0.00     0.000 HD 
ATOM      5  C   TYR A   1     -11.123  13.719  67.060  1.00  0.00    -0.302 C  
ATOM      6  OXT TYR A   1     -12.233  13.697  66.552  1.00  0.00    -0.419 OA 
ATOM      7  O   TYR A   1     -10.328  14.823  67.068  1.00  0.00    -0.252 OA 
ENDROOT
BRANCH   2   8
ATOM      8  CB  TYR A   1     -11.444  11.647  68.465  1.00  0.00    -0.358 C  
BRANCH   8   9
ATOM      9  CG  TYR A   1     -11.050  10.188  68.501  1.00  0.00    -0.266 A  
ATOM     10  CD1 TYR A   1     -10.944   9.506  69.722  1.00  0.00    -0.245 A  
ATOM     11  CE1 TYR A   1     -10.545   8.166  69.755  1.00  0.00    -0.231 A  
ATOM     12  CZ  TYR A   1     -10.261   7.508  68.565  1.00  0.00    -0.197 A  
ATOM     13  OH  TYR A   1      -9.860   6.205  68.551  1.00  0.00    -0.130 OA 
ATOM     14  CE2 TYR A   1     -10.374   8.163  67.345  1.00  0.00    -0.351 A  
ATOM     15  CD2 TYR A   1     -10.765   9.502  67.311  1.00  0.00    -0.269 A  
ATOM     16  HH  TYR A   1      -9.666   5.755  67.738  1.00  0.00     0.000 HD 
ENDBRANCH   8   9
ENDBRANCH   2   8
TORSDOF 2
ENDMDL
MODEL      147
REMARK 921   NORMALIZED FREE ENERGY PREDICTED BY IDOCK:   -3.26 KCAL/MOL
REMARK 922        TOTAL FREE ENERGY PREDICTED BY IDOCK:   -3.80 KCAL/MOL
REMARK 923 INTER-LIGAND FREE ENERGY PREDICTED BY IDOCK:   -3.77 KCAL/MOL
REMARK 924 INTRA-LIGAND FREE ENERGY PREDICTED BY IDOCK:   -0.03 KCAL/MOL
REMARK 927      BINDING AFFINITY PREDICTED BY RF-SCORE:    0.00 PKD
ROOT
ATOM      1  N   TYR A   1      -8.387  12.594  68.729  1.00  0.00    -0.356 NA 
ATOM      2  CA  TYR A   1      -8.926  12.296  67.363  1.00  0.00    -0.183 C  
ATOM      3  H1  TYR A   1      -7.862  13.467  68.783  1.00  0.00     0.000 HD 
ATOM      4  H2  TYR A   1      -7.826  11.814  69.072  1.00  0.00     0.000 HD 
ATOM      5  C   TYR A   1      -9.813  13.479  66.944  1.00  0.00    -0.257 C  
ATOM      6  OXT TYR A   1     -10.679  13.454  66.084  1.00  0.00    -0.280 OA 
ATOM      7  O   TYR A   1      -9.490  14.599  67.645  1.00  0.00    -0.200 OA 
ENDROOT
BRANCH   2   8
ATOM      8  CB  TYR A   1      -9.718  10.980  67.282  1.00  0.00    -0.188 C  
BRANCH   8   9
ATOM      9  CG  TYR A   1     -10.471  10.662  68.554  1.00  0.00    -0.212 A  
ATOM     10  CD1 TYR A   1     -11.721  11.247  68.810  1.00  0.00    -0.405 A  
ATOM     11  CE1 TYR A   1     -12.400  10.980  70.001  1.00  0.00    -0.377 A  
ATOM     12  CZ  TYR A   1     -11.832  10.121  70.934  1.00  0.00    -0.374 A  
ATOM     13  OH  TYR A   1     -12.454   9.840  72.114  1.00  0.00    -0.336 OA 
ATOM     14  CE2 TYR A   1     -10.602   9.522  70.693  1.00  0.00    -0.374 A  
ATOM     15  CD2 TYR A   1      -9.919   9.793  69.506  1.00  0.00    -0.230 A  
ATOM     16  HH  TYR A   1     -12.066   9.253  72.752  1.00  0.00     0.000 HD 
ENDBRANCH   8   9
ENDBRANCH   2   8
TORSDOF 2
ENDMDL
MODEL      148
REMARK 921   NORMALIZED FREE ENERGY PREDICTED BY IDOCK:   -3.26 KCAL/MOL
REMARK 922        TOTAL FREE ENERGY PREDICTED BY IDOCK:   -3.79 KCAL/MOL
REMARK 923 INTER-LIGAND FREE ENERGY PREDICTED BY IDOCK:   -3.81 KCAL/MOL
REMARK 924 INTRA-LIGAND FREE ENERGY PREDICTED BY IDOCK:    0.01 KCAL/MOL
REMARK 927      BINDING AFFINITY PREDICTED BY RF-SCORE:    0.00 PKD
ROOT
ATOM      1  N   TYR A   1     -11.493   6.699  67.299  1.00  0.00    -0.749 NA 
ATOM      2  CA  TYR A   1     -10.045   6.729  66.910  1.00  0.00    -0.202 C  
ATOM      3  H1  TYR A   1     -11.887   5.758  67.342  1.00  0.00     0.000 HD 
ATOM      4  H2  TYR A   1     -12.044   7.292  66.678  1.00  0.00     0.000 HD 
ATOM      5  C   TYR A   1      -9.273   5.873  67.926  1.00  0.00    -0.108 C  
ATOM      6  OXT TYR A   1      -8.074   5.936  68.150  1.00  0.00    -0.107 OA 
ATOM      7  O   TYR A   1     -10.101   4.988  68.544  1.00  0.00    -0.162 OA 
ENDROOT
BRANCH   2   8
ATOM      8  CB  TYR A   1      -9.451   8.147  66.845  1.00  0.00    -0.244 C  
BRANCH   8   9
ATOM      9  CG  TYR A   1     -10.049   9.088  67.866  1.00  0.00    -0.246 A  
ATOM     10  CD1 TYR A   1      -9.800   8.910  69.235  1.00  0.00    -0.176 A  
ATOM     11  CE1 TYR A   1     -10.381   9.759  70.180  1.00  0.00    -0.335 A  
ATOM     12  CZ  TYR A   1     -11.207  10.793  69.753  1.00  0.00    -0.297 A  
ATOM     13  OH  TYR A   1     -11.803  11.640  70.640  1.00  0.00    -0.452 OA 
ATOM     14  CE2 TYR A   1     -11.455  10.994  68.401  1.00  0.00    -0.378 A  
ATOM     15  CD2 TYR A   1     -10.880  10.141  67.457  1.00  0.00    -0.349 A  
ATOM     16  HH  TYR A   1     -12.367  12.345  70.349  1.00  0.00     0.000 HD 
ENDBRANCH   8   9
ENDBRANCH   2   8
TORSDOF 2
ENDMDL
MODEL      149
REMARK 921   NORMALIZED FREE ENERGY PREDICTED BY IDOCK:   -3.25 KCAL/MOL
REMARK 922        TOTAL FREE ENERGY PREDICTED BY IDOCK:   -3.79 KCAL/MOL
REMARK 923 INTER-LIGAND FREE ENERGY PREDICTED BY IDOCK:   -3.63 KCAL/MOL
REMARK 924 INTRA-LIGAND FREE ENERGY PREDICTED BY IDOCK:   -0.16 KCAL/MOL
REMARK 927      BINDING AFFINITY PREDICTED BY RF-SCORE:    0.00 PKD
ROOT
ATOM      1  N   TYR A   1      -8.814   8.703  65.052  1.00  0.00    -0.381 NA 
ATOM      2  CA  TYR A   1      -9.648   9.941  64.914  1.00  0.00    -0.288 C  
ATOM      3  H1  TYR A   1      -9.117   7.934  64.454  1.00  0.00     0.000 HD 
ATOM      4  H2  TYR A   1      -8.771   8.405  66.027  1.00  0.00     0.000 HD 
ATOM      5  C   TYR A   1      -9.609  10.366  63.438  1.00  0.00    -0.312 C  
ATOM      6  OXT TYR A   1      -9.862  11.481  63.007  1.00  0.00    -0.375 OA 
ATOM      7  O   TYR A   1      -9.277   9.316  62.639  1.00  0.00    -0.171 OA 
ENDROOT
BRANCH   2   8
ATOM      8  CB  TYR A   1      -9.191  11.100  65.816  1.00  0.00    -0.234 C  
BRANCH   8   9
ATOM      9  CG  TYR A   1      -9.899  11.128  67.151  1.00  0.00    -0.212 A  
ATOM     10  CD1 TYR A   1      -9.337  10.498  68.272  1.00  0.00    -0.156 A  
ATOM     11  CE1 TYR A   1     -10.009  10.494  69.497  1.00  0.00    -0.187 A  
ATOM     12  CZ  TYR A   1     -11.241  11.129  69.602  1.00  0.00    -0.264 A  
ATOM     13  OH  TYR A   1     -11.937  11.141  70.775  1.00  0.00    -0.339 OA 
ATOM     14  CE2 TYR A   1     -11.808  11.769  68.507  1.00  0.00    -0.365 A  
ATOM     15  CD2 TYR A   1     -11.140  11.767  67.281  1.00  0.00    -0.342 A  
ATOM     16  HH  TYR A   1     -12.779  11.574  70.847  1.00  0.00     0.000 HD 
ENDBRANCH   8   9
ENDBRANCH   2   8
TORSDOF 2
ENDMDL
MODEL      150
REMARK 921   NORMALIZED FREE ENERGY PREDICTED BY IDOCK:   -3.23 KCAL/MOL
REMARK 922        TOTAL FREE ENERGY PREDICTED BY IDOCK:   -3.77 KCAL/MOL
REMARK 923 INTER-LIGAND FREE ENERGY PREDICTED BY IDOCK:   -3.61 KCAL/MOL
REMARK 924 INTRA-LIGAND FREE ENERGY PREDICTED BY IDOCK:   -0.16 KCAL/MOL
REMARK 927      BINDING AFFINITY PREDICTED BY RF-SCORE:    0.00 PKD
ROOT
ATOM      1  N   TYR A   1      -8.870   9.797  67.631  1.00  0.00    -0.125 NA 
ATOM      2  CA  TYR A   1      -9.727  10.431  66.577  1.00  0.00    -0.194 C  
ATOM      3  H1  TYR A   1      -9.099   8.819  67.815  1.00  0.00     0.000 HD 
ATOM      4  H2  TYR A   1      -8.898  10.341  68.493  1.00  0.00     0.000 HD 
ATOM      5  C   TYR A   1      -9.580   9.598  65.294  1.00  0.00    -0.277 C  
ATOM      6  OXT TYR A   1      -9.831   9.978  64.161  1.00  0.00    -0.257 OA 
ATOM      7  O   TYR A   1      -9.153   8.338  65.580  1.00  0.00    -0.156 OA 
ENDROOT
BRANCH   2   8
ATOM      8  CB  TYR A   1      -9.380  11.903  66.300  1.00  0.00    -0.234 C  
BRANCH   8   9
ATOM      9  CG  TYR A   1     -10.227  12.872  67.094  1.00  0.00    -0.239 A  
ATOM     10  CD1 TYR A   1      -9.972  14.250  67.044  1.00  0.00    -0.258 A  
ATOM     11  CE1 TYR A   1     -10.733  15.142  67.806  1.00  0.00    -0.279 A  
ATOM     12  CZ  TYR A   1     -11.755  14.652  68.611  1.00  0.00    -0.329 A  
ATOM     13  OH  TYR A   1     -12.516  15.485  69.378  1.00  0.00    -0.598 OA 
ATOM     14  CE2 TYR A   1     -12.031  13.292  68.663  1.00  0.00    -0.345 A  
ATOM     15  CD2 TYR A   1     -11.267  12.401  67.908  1.00  0.00    -0.316 A  
ATOM     16  HH  TYR A   1     -13.214  15.150  69.929  1.00  0.00     0.000 HD 
ENDBRANCH   8   9
ENDBRANCH   2   8
TORSDOF 2
ENDMDL
MODEL      151
REMARK 921   NORMALIZED FREE ENERGY PREDICTED BY IDOCK:   -3.23 KCAL/MOL
REMARK 922        TOTAL FREE ENERGY PREDICTED BY IDOCK:   -3.76 KCAL/MOL
REMARK 923 INTER-LIGAND FREE ENERGY PREDICTED BY IDOCK:   -3.86 KCAL/MOL
REMARK 924 INTRA-LIGAND FREE ENERGY PREDICTED BY IDOCK:    0.10 KCAL/MOL
REMARK 927      BINDING AFFINITY PREDICTED BY RF-SCORE:    0.00 PKD
ROOT
ATOM      1  N   TYR A   1     -10.872  12.803  68.991  1.00  0.00    -0.398 NA 
ATOM      2  CA  TYR A   1     -10.369  14.173  68.652  1.00  0.00    -0.243 C  
ATOM      3  H1  TYR A   1     -11.163  12.701  69.964  1.00  0.00     0.000 HD 
ATOM      4  H2  TYR A   1     -10.180  12.095  68.747  1.00  0.00     0.000 HD 
ATOM      5  C   TYR A   1     -11.488  15.174  68.981  1.00  0.00    -0.309 C  
ATOM      6  OXT TYR A   1     -11.592  16.305  68.531  1.00  0.00    -0.346 OA 
ATOM      7  O   TYR A   1     -12.359  14.648  69.884  1.00  0.00    -0.321 OA 
ENDROOT
BRANCH   2   8
ATOM      8  CB  TYR A   1      -9.931  14.327  67.185  1.00  0.00    -0.255 C  
BRANCH   8   9
ATOM      9  CG  TYR A   1      -9.793  13.004  66.466  1.00  0.00    -0.263 A  
ATOM     10  CD1 TYR A   1     -10.747  12.602  65.519  1.00  0.00    -0.303 A  
ATOM     11  CE1 TYR A   1     -10.637  11.364  64.881  1.00  0.00    -0.368 A  
ATOM     12  CZ  TYR A   1      -9.566  10.531  65.185  1.00  0.00    -0.260 A  
ATOM     13  OH  TYR A   1      -9.425   9.310  64.594  1.00  0.00    -0.439 OA 
ATOM     14  CE2 TYR A   1      -8.604  10.917  66.110  1.00  0.00    -0.170 A  
ATOM     15  CD2 TYR A   1      -8.718  12.151  66.753  1.00  0.00    -0.183 A  
ATOM     16  HH  TYR A   1      -8.694   8.742  64.801  1.00  0.00     0.000 HD 
ENDBRANCH   8   9
ENDBRANCH   2   8
TORSDOF 2
ENDMDL
MODEL      152
REMARK 921   NORMALIZED FREE ENERGY PREDICTED BY IDOCK:   -3.21 KCAL/MOL
REMARK 922        TOTAL FREE ENERGY PREDICTED BY IDOCK:   -3.74 KCAL/MOL
REMARK 923 INTER-LIGAND FREE ENERGY PREDICTED BY IDOCK:   -3.53 KCAL/MOL
REMARK 924 INTRA-LIGAND FREE ENERGY PREDICTED BY IDOCK:   -0.21 KCAL/MOL
REMARK 927      BINDING AFFINITY PREDICTED BY RF-SCORE:    0.00 PKD
ROOT
ATOM      1  N   TYR A   1     -11.666  12.442  67.835  1.00  0.00    -0.357 NA 
ATOM      2  CA  TYR A   1     -10.801  13.215  66.886  1.00  0.00    -0.265 C  
ATOM      3  H1  TYR A   1     -12.666  12.596  67.699  1.00  0.00     0.000 HD 
ATOM      4  H2  TYR A   1     -11.401  12.633  68.801  1.00  0.00     0.000 HD 
ATOM      5  C   TYR A   1     -11.212  12.824  65.458  1.00  0.00    -0.294 C  
ATOM      6  OXT TYR A   1     -10.531  12.964  64.454  1.00  0.00    -0.362 OA 
ATOM      7  O   TYR A   1     -12.473  12.316  65.438  1.00  0.00    -0.596 OA 
ENDROOT
BRANCH   2   8
ATOM      8  CB  TYR A   1      -9.295  12.982  67.091  1.00  0.00    -0.230 C  
BRANCH   8   9
ATOM      9  CG  TYR A   1      -8.537  14.248  67.416  1.00  0.00    -0.223 A  
ATOM     10  CD1 TYR A   1      -7.696  14.311  68.538  1.00  0.00    -0.137 A  
ATOM     11  CE1 TYR A   1      -7.023  15.493  68.857  1.00  0.00    -0.130 A  
ATOM     12  CZ  TYR A   1      -7.186  16.612  68.048  1.00  0.00    -0.155 A  
ATOM     13  OH  TYR A   1      -6.557  17.789  68.327  1.00  0.00    -0.186 OA 
ATOM     14  CE2 TYR A   1      -8.004  16.566  66.926  1.00  0.00    -0.260 A  
ATOM     15  CD2 TYR A   1      -8.681  15.387  66.610  1.00  0.00    -0.332 A  
ATOM     16  HH  TYR A   1      -6.668  18.553  67.775  1.00  0.00     0.000 HD 
ENDBRANCH   8   9
ENDBRANCH   2   8
TORSDOF 2
ENDMDL
MODEL      153
REMARK 921   NORMALIZED FREE ENERGY PREDICTED BY IDOCK:   -3.20 KCAL/MOL
REMARK 922        TOTAL FREE ENERGY PREDICTED BY IDOCK:   -3.73 KCAL/MOL
REMARK 923 INTER-LIGAND FREE ENERGY PREDICTED BY IDOCK:   -3.73 KCAL/MOL
REMARK 924 INTRA-LIGAND FREE ENERGY PREDICTED BY IDOCK:    0.00 KCAL/MOL
REMARK 927      BINDING AFFINITY PREDICTED BY RF-SCORE:    0.00 PKD
ROOT
ATOM      1  N   TYR A   1      -8.383  10.345  68.218  1.00  0.00    -0.116 NA 
ATOM      2  CA  TYR A   1      -9.130   9.415  67.310  1.00  0.00    -0.133 C  
ATOM      3  H1  TYR A   1      -7.369  10.237  68.172  1.00  0.00     0.000 HD 
ATOM      4  H2  TYR A   1      -8.712  10.250  69.179  1.00  0.00     0.000 HD 
ATOM      5  C   TYR A   1      -8.632   9.663  65.878  1.00  0.00    -0.134 C  
ATOM      6  OXT TYR A   1      -9.225   9.367  64.852  1.00  0.00    -0.231 OA 
ATOM      7  O   TYR A   1      -7.401  10.242  65.886  1.00  0.00    -0.118 OA 
ENDROOT
BRANCH   2   8
ATOM      8  CB  TYR A   1     -10.658   9.578  67.379  1.00  0.00    -0.337 C  
BRANCH   8   9
ATOM      9  CG  TYR A   1     -11.096  11.018  67.521  1.00  0.00    -0.366 A  
ATOM     10  CD1 TYR A   1     -11.564  11.505  68.750  1.00  0.00    -0.379 A  
ATOM     11  CE1 TYR A   1     -12.002  12.827  68.871  1.00  0.00    -0.286 A  
ATOM     12  CZ  TYR A   1     -11.962  13.664  67.762  1.00  0.00    -0.352 A  
ATOM     13  OH  TYR A   1     -12.388  14.958  67.832  1.00  0.00    -0.543 OA 
ATOM     14  CE2 TYR A   1     -11.489  13.204  66.540  1.00  0.00    -0.378 A  
ATOM     15  CD2 TYR A   1     -11.058  11.882  66.417  1.00  0.00    -0.359 A  
ATOM     16  HH  TYR A   1     -12.361  15.529  67.074  1.00  0.00     0.000 HD 
ENDBRANCH   8   9
ENDBRANCH   2   8
TORSDOF 2
ENDMDL
MODEL      154
REMARK 921   NORMALIZED FREE ENERGY PREDICTED BY IDOCK:   -3.20 KCAL/MOL
REMARK 922        TOTAL FREE ENERGY PREDICTED BY IDOCK:   -3.72 KCAL/MOL
REMARK 923 INTER-LIGAND FREE ENERGY PREDICTED BY IDOCK:   -3.56 KCAL/MOL
REMARK 924 INTRA-LIGAND FREE ENERGY PREDICTED BY IDOCK:   -0.17 KCAL/MOL
REMARK 927      BINDING AFFINITY PREDICTED BY RF-SCORE:    0.00 PKD
ROOT
ATOM      1  N   TYR A   1     -10.096  13.692  69.009  1.00  0.00    -0.434 NA 
ATOM      2  CA  TYR A   1      -9.430  13.642  67.667  1.00  0.00    -0.221 C  
ATOM      3  H1  TYR A   1     -10.776  12.945  69.158  1.00  0.00     0.000 HD 
ATOM      4  H2  TYR A   1     -10.525  14.605  69.164  1.00  0.00     0.000 HD 
ATOM      5  C   TYR A   1      -8.752  12.269  67.535  1.00  0.00    -0.177 C  
ATOM      6  OXT TYR A   1      -7.845  11.990  66.766  1.00  0.00    -0.131 OA 
ATOM      7  O   TYR A   1      -9.317  11.366  68.380  1.00  0.00    -0.183 OA 
ENDROOT
BRANCH   2   8
ATOM      8  CB  TYR A   1      -8.406  14.767  67.442  1.00  0.00    -0.218 C  
BRANCH   8   9
ATOM      9  CG  TYR A   1      -9.025  16.146  67.462  1.00  0.00    -0.197 A  
ATOM     10  CD1 TYR A   1      -9.851  16.574  66.412  1.00  0.00    -0.311 A  
ATOM     11  CE1 TYR A   1     -10.395  17.862  66.414  1.00  0.00    -0.365 A  
ATOM     12  CZ  TYR A   1     -10.117  18.718  67.473  1.00  0.00    -0.360 A  
ATOM     13  OH  TYR A   1     -10.618  19.986  67.511  1.00  0.00    -0.374 OA 
ATOM     14  CE2 TYR A   1      -9.312  18.308  68.528  1.00  0.00    -0.334 A  
ATOM     15  CD2 TYR A   1      -8.764  17.025  68.523  1.00  0.00    -0.253 A  
ATOM     16  HH  TYR A   1     -10.428  20.572  68.234  1.00  0.00     0.000 HD 
ENDBRANCH   8   9
ENDBRANCH   2   8
TORSDOF 2
ENDMDL
MODEL      155
REMARK 921   NORMALIZED FREE ENERGY PREDICTED BY IDOCK:   -3.18 KCAL/MOL
REMARK 922        TOTAL FREE ENERGY PREDICTED BY IDOCK:   -3.71 KCAL/MOL
REMARK 923 INTER-LIGAND FREE ENERGY PREDICTED BY IDOCK:   -3.65 KCAL/MOL
REMARK 924 INTRA-LIGAND FREE ENERGY PREDICTED BY IDOCK:   -0.05 KCAL/MOL
REMARK 927      BINDING AFFINITY PREDICTED BY RF-SCORE:    0.00 PKD
ROOT
ATOM      1  N   TYR A   1      -7.696  10.272  66.848  1.00  0.00    -0.103 NA 
ATOM      2  CA  TYR A   1      -8.347   9.192  66.039  1.00  0.00    -0.121 C  
ATOM      3  H1  TYR A   1      -6.681  10.312  66.740  1.00  0.00     0.000 HD 
ATOM      4  H2  TYR A   1      -7.950  10.187  67.832  1.00  0.00     0.000 HD 
ATOM      5  C   TYR A   1      -7.976   9.425  64.566  1.00  0.00    -0.126 C  
ATOM      6  OXT TYR A   1      -8.577   8.985  63.598  1.00  0.00    -0.192 OA 
ATOM      7  O   TYR A   1      -6.848  10.178  64.464  1.00  0.00    -0.129 OA 
ENDROOT
BRANCH   2   8
ATOM      8  CB  TYR A   1      -9.875   9.132  66.201  1.00  0.00    -0.363 C  
BRANCH   8   9
ATOM      9  CG  TYR A   1     -10.495  10.481  66.488  1.00  0.00    -0.276 A  
ATOM     10  CD1 TYR A   1     -10.896  10.822  67.788  1.00  0.00    -0.320 A  
ATOM     11  CE1 TYR A   1     -11.501  12.055  68.045  1.00  0.00    -0.392 A  
ATOM     12  CZ  TYR A   1     -11.696  12.952  67.001  1.00  0.00    -0.385 A  
ATOM     13  OH  TYR A   1     -12.290  14.162  67.204  1.00  0.00    -0.562 OA 
ATOM     14  CE2 TYR A   1     -11.293  12.638  65.709  1.00  0.00    -0.370 A  
ATOM     15  CD2 TYR A   1     -10.695  11.403  65.450  1.00  0.00    -0.313 A  
ATOM     16  HH  TYR A   1     -12.424  14.774  66.491  1.00  0.00     0.000 HD 
ENDBRANCH   8   9
ENDBRANCH   2   8
TORSDOF 2
ENDMDL
MODEL      156
REMARK 921   NORMALIZED FREE ENERGY PREDICTED BY IDOCK:   -3.17 KCAL/MOL
REMARK 922        TOTAL FREE ENERGY PREDICTED BY IDOCK:   -3.70 KCAL/MOL
REMARK 923 INTER-LIGAND FREE ENERGY PREDICTED BY IDOCK:   -3.48 KCAL/MOL
REMARK 924 INTRA-LIGAND FREE ENERGY PREDICTED BY IDOCK:   -0.21 KCAL/MOL
REMARK 927      BINDING AFFINITY PREDICTED BY RF-SCORE:    0.00 PKD
ROOT
ATOM      1  N   TYR A   1     -12.785   6.122  72.448  1.00  0.00    -0.471 NA 
ATOM      2  CA  TYR A   1     -11.445   6.065  71.780  1.00  0.00    -0.253 C  
ATOM      3  H1  TYR A   1     -13.165   5.205  72.687  1.00  0.00     0.000 HD 
ATOM      4  H2  TYR A   1     -13.449   6.648  71.879  1.00  0.00     0.000 HD 
ATOM      5  C   TYR A   1     -10.486   5.321  72.723  1.00  0.00    -0.217 C  
ATOM      6  OXT TYR A   1      -9.267   5.380  72.696  1.00  0.00    -0.138 OA 
ATOM      7  O   TYR A   1     -11.176   4.542  73.599  1.00  0.00    -0.302 OA 
ENDROOT
BRANCH   2   8
ATOM      8  CB  TYR A   1     -10.874   7.447  71.420  1.00  0.00    -0.250 C  
BRANCH   8   9
ATOM      9  CG  TYR A   1     -10.712   7.653  69.931  1.00  0.00    -0.253 A  
ATOM     10  CD1 TYR A   1     -10.506   6.560  69.077  1.00  0.00    -0.252 A  
ATOM     11  CE1 TYR A   1     -10.321   6.755  67.705  1.00  0.00    -0.255 A  
ATOM     12  CZ  TYR A   1     -10.352   8.045  67.188  1.00  0.00    -0.325 A  
ATOM     13  OH  TYR A   1     -10.167   8.282  65.858  1.00  0.00    -0.324 OA 
ATOM     14  CE2 TYR A   1     -10.569   9.139  68.016  1.00  0.00    -0.253 A  
ATOM     15  CD2 TYR A   1     -10.746   8.946  69.387  1.00  0.00    -0.192 A  
ATOM     16  HH  TYR A   1     -10.188   9.164  65.505  1.00  0.00     0.000 HD 
ENDBRANCH   8   9
ENDBRANCH   2   8
TORSDOF 2
ENDMDL
MODEL      157
REMARK 921   NORMALIZED FREE ENERGY PREDICTED BY IDOCK:   -3.15 KCAL/MOL
REMARK 922        TOTAL FREE ENERGY PREDICTED BY IDOCK:   -3.68 KCAL/MOL
REMARK 923 INTER-LIGAND FREE ENERGY PREDICTED BY IDOCK:   -3.45 KCAL/MOL
REMARK 924 INTRA-LIGAND FREE ENERGY PREDICTED BY IDOCK:   -0.22 KCAL/MOL
REMARK 927      BINDING AFFINITY PREDICTED BY RF-SCORE:    0.00 PKD
ROOT
ATOM      1  N   TYR A   1      -9.560  10.176  68.447  1.00  0.00    -0.141 NA 
ATOM      2  CA  TYR A   1     -10.023   8.818  68.881  1.00  0.00    -0.192 C  
ATOM      3  H1  TYR A   1      -8.778  10.154  67.790  1.00  0.00     0.000 HD 
ATOM      4  H2  TYR A   1      -9.334  10.755  69.256  1.00  0.00     0.000 HD 
ATOM      5  C   TYR A   1     -10.409   8.033  67.618  1.00  0.00    -0.246 C  
ATOM      6  OXT TYR A   1     -11.138   7.054  67.579  1.00  0.00    -0.241 OA 
ATOM      7  O   TYR A   1      -9.801   8.553  66.518  1.00  0.00    -0.237 OA 
ENDROOT
BRANCH   2   8
ATOM      8  CB  TYR A   1     -11.200   8.852  69.869  1.00  0.00    -0.076 C  
BRANCH   8   9
ATOM      9  CG  TYR A   1     -10.983   7.975  71.081  1.00  0.00    -0.271 A  
ATOM     10  CD1 TYR A   1     -11.564   6.701  71.155  1.00  0.00    -0.384 A  
ATOM     11  CE1 TYR A   1     -11.391   5.905  72.291  1.00  0.00    -0.351 A  
ATOM     12  CZ  TYR A   1     -10.630   6.384  73.351  1.00  0.00    -0.276 A  
ATOM     13  OH  TYR A   1     -10.444   5.646  74.483  1.00  0.00    -0.256 OA 
ATOM     14  CE2 TYR A   1     -10.036   7.638  73.292  1.00  0.00    -0.393 A  
ATOM     15  CD2 TYR A   1     -10.214   8.436  72.160  1.00  0.00    -0.390 A  
ATOM     16  HH  TYR A   1      -9.924   5.973  75.207  1.00  0.00     0.000 HD 
ENDBRANCH   8   9
ENDBRANCH   2   8
TORSDOF 2
ENDMDL
MODEL      158
REMARK 921   NORMALIZED FREE ENERGY PREDICTED BY IDOCK:   -3.15 KCAL/MOL
REMARK 922        TOTAL FREE ENERGY PREDICTED BY IDOCK:   -3.67 KCAL/MOL
REMARK 923 INTER-LIGAND FREE ENERGY PREDICTED BY IDOCK:   -3.50 KCAL/MOL
REMARK 924 INTRA-LIGAND FREE ENERGY PREDICTED BY IDOCK:   -0.17 KCAL/MOL
REMARK 927      BINDING AFFINITY PREDICTED BY RF-SCORE:    0.00 PKD
ROOT
ATOM      1  N   TYR A   1      -9.919  13.411  67.886  1.00  0.00    -0.229 NA 
ATOM      2  CA  TYR A   1     -10.624  12.596  66.845  1.00  0.00    -0.240 C  
ATOM      3  H1  TYR A   1      -9.528  14.284  67.530  1.00  0.00     0.000 HD 
ATOM      4  H2  TYR A   1      -9.199  12.857  68.351  1.00  0.00     0.000 HD 
ATOM      5  C   TYR A   1     -11.734  13.471  66.241  1.00  0.00    -0.367 C  
ATOM      6  OXT TYR A   1     -12.716  13.066  65.638  1.00  0.00    -0.506 OA 
ATOM      7  O   TYR A   1     -11.471  14.791  66.437  1.00  0.00    -0.350 OA 
ENDROOT
BRANCH   2   8
ATOM      8  CB  TYR A   1     -11.214  11.281  67.382  1.00  0.00    -0.370 C  
BRANCH   8   9
ATOM      9  CG  TYR A   1     -10.299  10.094  67.183  1.00  0.00    -0.295 A  
ATOM     10  CD1 TYR A   1      -9.847   9.748  65.901  1.00  0.00    -0.352 A  
ATOM     11  CE1 TYR A   1      -9.029   8.630  65.713  1.00  0.00    -0.244 A  
ATOM     12  CZ  TYR A   1      -8.658   7.863  66.811  1.00  0.00    -0.131 A  
ATOM     13  OH  TYR A   1      -7.870   6.758  66.672  1.00  0.00    -0.103 OA 
ATOM     14  CE2 TYR A   1      -9.085   8.197  68.090  1.00  0.00    -0.134 A  
ATOM     15  CD2 TYR A   1      -9.907   9.310  68.277  1.00  0.00    -0.179 A  
ATOM     16  HH  TYR A   1      -7.617   6.234  67.422  1.00  0.00     0.000 HD 
ENDBRANCH   8   9
ENDBRANCH   2   8
TORSDOF 2
ENDMDL
MODEL      159
REMARK 921   NORMALIZED FREE ENERGY PREDICTED BY IDOCK:   -3.10 KCAL/MOL
REMARK 922        TOTAL FREE ENERGY PREDICTED BY IDOCK:   -3.61 KCAL/MOL
REMARK 923 INTER-LIGAND FREE ENERGY PREDICTED BY IDOCK:   -3.63 KCAL/MOL
REMARK 924 INTRA-LIGAND FREE ENERGY PREDICTED BY IDOCK:    0.01 KCAL/MOL
REMARK 927      BINDING AFFINITY PREDICTED BY RF-SCORE:    0.00 PKD
ROOT
ATOM      1  N   TYR A   1     -11.026   8.475  67.914  1.00  0.00    -0.483 NA 
ATOM      2  CA  TYR A   1     -10.034   8.441  69.037  1.00  0.00    -0.190 C  
ATOM      3  H1  TYR A   1     -11.164   7.571  67.460  1.00  0.00     0.000 HD 
ATOM      4  H2  TYR A   1     -10.770   9.187  67.229  1.00  0.00     0.000 HD 
ATOM      5  C   TYR A   1     -10.522   7.400  70.057  1.00  0.00    -0.226 C  
ATOM      6  OXT TYR A   1     -10.189   7.337  71.231  1.00  0.00    -0.191 OA 
ATOM      7  O   TYR A   1     -11.370   6.510  69.474  1.00  0.00    -0.362 OA 
ENDROOT
BRANCH   2   8
ATOM      8  CB  TYR A   1      -9.827   9.802  69.722  1.00  0.00    -0.262 C  
BRANCH   8   9
ATOM      9  CG  TYR A   1     -10.242  10.971  68.857  1.00  0.00    -0.218 A  
ATOM     10  CD1 TYR A   1      -9.446  11.378  67.776  1.00  0.00    -0.167 A  
ATOM     11  CE1 TYR A   1      -9.813  12.480  66.999  1.00  0.00    -0.217 A  
ATOM     12  CZ  TYR A   1     -10.981  13.170  67.300  1.00  0.00    -0.268 A  
ATOM     13  OH  TYR A   1     -11.372  14.257  66.574  1.00  0.00    -0.326 OA 
ATOM     14  CE2 TYR A   1     -11.789  12.774  68.358  1.00  0.00    -0.353 A  
ATOM     15  CD2 TYR A   1     -11.420  11.677  69.139  1.00  0.00    -0.364 A  
ATOM     16  HH  TYR A   1     -12.170  14.728  66.780  1.00  0.00     0.000 HD 
ENDBRANCH   8   9
ENDBRANCH   2   8
TORSDOF 2
ENDMDL
MODEL      160
REMARK 921   NORMALIZED FREE ENERGY PREDICTED BY IDOCK:   -3.09 KCAL/MOL
REMARK 922        TOTAL FREE ENERGY PREDICTED BY IDOCK:   -3.61 KCAL/MOL
REMARK 923 INTER-LIGAND FREE ENERGY PREDICTED BY IDOCK:   -3.45 KCAL/MOL
REMARK 924 INTRA-LIGAND FREE ENERGY PREDICTED BY IDOCK:   -0.16 KCAL/MOL
REMARK 927      BINDING AFFINITY PREDICTED BY RF-SCORE:    0.00 PKD
ROOT
ATOM      1  N   TYR A   1     -11.449   6.784  67.359  1.00  0.00    -0.716 NA 
ATOM      2  CA  TYR A   1     -10.346   7.398  68.166  1.00  0.00    -0.192 C  
ATOM      3  H1  TYR A   1     -11.460   5.763  67.387  1.00  0.00     0.000 HD 
ATOM      4  H2  TYR A   1     -11.418   7.117  66.395  1.00  0.00     0.000 HD 
ATOM      5  C   TYR A   1     -10.499   6.906  69.614  1.00  0.00    -0.218 C  
ATOM      6  OXT TYR A   1     -10.026   7.441  70.605  1.00  0.00    -0.186 OA 
ATOM      7  O   TYR A   1     -11.220   5.754  69.661  1.00  0.00    -0.353 OA 
ENDROOT
BRANCH   2   8
ATOM      8  CB  TYR A   1     -10.330   8.935  68.123  1.00  0.00    -0.261 C  
BRANCH   8   9
ATOM      9  CG  TYR A   1      -9.711   9.488  66.860  1.00  0.00    -0.237 A  
ATOM     10  CD1 TYR A   1     -10.519   9.973  65.821  1.00  0.00    -0.084 A  
ATOM     11  CE1 TYR A   1      -9.946  10.451  64.639  1.00  0.00    -0.408 A  
ATOM     12  CZ  TYR A   1      -8.563  10.449  64.500  1.00  0.00    -0.180 A  
ATOM     13  OH  TYR A   1      -7.963  10.897  63.361  1.00  0.00    -0.360 OA 
ATOM     14  CE2 TYR A   1      -7.746   9.985  65.523  1.00  0.00    -0.135 A  
ATOM     15  CD2 TYR A   1      -8.317   9.502  66.701  1.00  0.00    -0.116 A  
ATOM     16  HH  TYR A   1      -7.018  10.896  63.266  1.00  0.00     0.000 HD 
ENDBRANCH   8   9
ENDBRANCH   2   8
TORSDOF 2
ENDMDL
MODEL      161
REMARK 921   NORMALIZED FREE ENERGY PREDICTED BY IDOCK:   -3.07 KCAL/MOL
REMARK 922        TOTAL FREE ENERGY PREDICTED BY IDOCK:   -3.59 KCAL/MOL
REMARK 923 INTER-LIGAND FREE ENERGY PREDICTED BY IDOCK:   -3.37 KCAL/MOL
REMARK 924 INTRA-LIGAND FREE ENERGY PREDICTED BY IDOCK:   -0.22 KCAL/MOL
REMARK 927      BINDING AFFINITY PREDICTED BY RF-SCORE:    0.00 PKD
ROOT
ATOM      1  N   TYR A   1     -12.127  12.130  66.846  1.00  0.00    -0.556 NA 
ATOM      2  CA  TYR A   1     -11.059  11.753  67.827  1.00  0.00    -0.243 C  
ATOM      3  H1  TYR A   1     -12.554  13.039  67.032  1.00  0.00     0.000 HD 
ATOM      4  H2  TYR A   1     -12.840  11.402  66.792  1.00  0.00     0.000 HD 
ATOM      5  C   TYR A   1      -9.992  12.858  67.801  1.00  0.00    -0.230 C  
ATOM      6  OXT TYR A   1      -8.837  12.747  68.183  1.00  0.00    -0.186 OA 
ATOM      7  O   TYR A   1     -10.508  14.020  67.317  1.00  0.00    -0.265 OA 
ENDROOT
BRANCH   2   8
ATOM      8  CB  TYR A   1     -10.416  10.384  67.547  1.00  0.00    -0.292 C  
BRANCH   8   9
ATOM      9  CG  TYR A   1     -10.471   9.448  68.733  1.00  0.00    -0.236 A  
ATOM     10  CD1 TYR A   1     -11.266   9.753  69.848  1.00  0.00    -0.271 A  
ATOM     11  CE1 TYR A   1     -11.289   8.905  70.958  1.00  0.00    -0.350 A  
ATOM     12  CZ  TYR A   1     -10.522   7.746  70.948  1.00  0.00    -0.206 A  
ATOM     13  OH  TYR A   1     -10.507   6.895  72.013  1.00  0.00    -0.203 OA 
ATOM     14  CE2 TYR A   1      -9.739   7.420  69.848  1.00  0.00    -0.171 A  
ATOM     15  CD2 TYR A   1      -9.711   8.270  68.742  1.00  0.00    -0.160 A  
ATOM     16  HH  TYR A   1      -9.982   6.103  72.007  1.00  0.00     0.000 HD 
ENDBRANCH   8   9
ENDBRANCH   2   8
TORSDOF 2
ENDMDL
MODEL      162
REMARK 921   NORMALIZED FREE ENERGY PREDICTED BY IDOCK:   -3.06 KCAL/MOL
REMARK 922        TOTAL FREE ENERGY PREDICTED BY IDOCK:   -3.58 KCAL/MOL
REMARK 923 INTER-LIGAND FREE ENERGY PREDICTED BY IDOCK:   -3.36 KCAL/MOL
REMARK 924 INTRA-LIGAND FREE ENERGY PREDICTED BY IDOCK:   -0.21 KCAL/MOL
REMARK 927      BINDING AFFINITY PREDICTED BY RF-SCORE:    0.00 PKD
ROOT
ATOM      1  N   TYR A   1     -13.806   7.800  72.351  1.00  0.00    -0.519 NA 
ATOM      2  CA  TYR A   1     -12.334   7.992  72.147  1.00  0.00    -0.315 C  
ATOM      3  H1  TYR A   1     -14.264   8.587  72.812  1.00  0.00     0.000 HD 
ATOM      4  H2  TYR A   1     -13.989   6.931  72.855  1.00  0.00     0.000 HD 
ATOM      5  C   TYR A   1     -12.142   9.277  71.325  1.00  0.00    -0.337 C  
ATOM      6  OXT TYR A   1     -11.150   9.569  70.676  1.00  0.00    -0.252 OA 
ATOM      7  O   TYR A   1     -13.229  10.088  71.433  1.00  0.00    -0.379 OA 
ENDROOT
BRANCH   2   8
ATOM      8  CB  TYR A   1     -11.645   6.806  71.451  1.00  0.00    -0.350 C  
BRANCH   8   9
ATOM      9  CG  TYR A   1     -10.583   6.152  72.305  1.00  0.00    -0.251 A  
ATOM     10  CD1 TYR A   1      -9.934   6.875  73.316  1.00  0.00    -0.243 A  
ATOM     11  CE1 TYR A   1      -8.927   6.281  74.082  1.00  0.00    -0.147 A  
ATOM     12  CZ  TYR A   1      -8.576   4.958  73.839  1.00  0.00    -0.103 A  
ATOM     13  OH  TYR A   1      -7.593   4.340  74.555  1.00  0.00    -0.078 OA 
ATOM     14  CE2 TYR A   1      -9.217   4.221  72.851  1.00  0.00    -0.129 A  
ATOM     15  CD2 TYR A   1     -10.217   4.817  72.082  1.00  0.00    -0.258 A  
ATOM     16  HH  TYR A   1      -7.353   3.437  74.390  1.00  0.00     0.000 HD 
ENDBRANCH   8   9
ENDBRANCH   2   8
TORSDOF 2
ENDMDL
MODEL      163
REMARK 921   NORMALIZED FREE ENERGY PREDICTED BY IDOCK:   -3.06 KCAL/MOL
REMARK 922        TOTAL FREE ENERGY PREDICTED BY IDOCK:   -3.57 KCAL/MOL
REMARK 923 INTER-LIGAND FREE ENERGY PREDICTED BY IDOCK:   -3.36 KCAL/MOL
REMARK 924 INTRA-LIGAND FREE ENERGY PREDICTED BY IDOCK:   -0.21 KCAL/MOL
REMARK 927      BINDING AFFINITY PREDICTED BY RF-SCORE:    0.00 PKD
ROOT
ATOM      1  N   TYR A   1     -12.141   5.421  73.031  1.00  0.00    -0.491 NA 
ATOM      2  CA  TYR A   1     -11.078   4.847  72.145  1.00  0.00     0.074 C  
ATOM      3  H1  TYR A   1     -12.666   4.717  73.553  1.00  0.00     0.000 HD 
ATOM      4  H2  TYR A   1     -12.773   6.016  72.495  1.00  0.00     0.000 HD 
ATOM      5  C   TYR A   1     -10.129   4.023  73.030  1.00  0.00    -0.152 C  
ATOM      6  OXT TYR A   1      -8.984   3.704  72.749  1.00  0.00    -0.095 OA 
ATOM      7  O   TYR A   1     -10.744   3.653  74.186  1.00  0.00    -0.197 OA 
ENDROOT
BRANCH   2   8
ATOM      8  CB  TYR A   1     -10.288   5.907  71.359  1.00  0.00    -0.271 C  
BRANCH   8   9
ATOM      9  CG  TYR A   1     -10.341   5.699  69.863  1.00  0.00    -0.347 A  
ATOM     10  CD1 TYR A   1      -9.762   4.563  69.278  1.00  0.00    -0.260 A  
ATOM     11  CE1 TYR A   1      -9.782   4.389  67.891  1.00  0.00    -0.186 A  
ATOM     12  CZ  TYR A   1     -10.389   5.350  67.091  1.00  0.00    -0.236 A  
ATOM     13  OH  TYR A   1     -10.423   5.226  65.733  1.00  0.00    -0.441 OA 
ATOM     14  CE2 TYR A   1     -10.980   6.474  67.652  1.00  0.00    -0.426 A  
ATOM     15  CD2 TYR A   1     -10.955   6.652  69.037  1.00  0.00    -0.332 A  
ATOM     16  HH  TYR A   1     -10.837   5.882  65.186  1.00  0.00     0.000 HD 
ENDBRANCH   8   9
ENDBRANCH   2   8
TORSDOF 2
ENDMDL
MODEL      164
REMARK 921   NORMALIZED FREE ENERGY PREDICTED BY IDOCK:   -3.05 KCAL/MOL
REMARK 922        TOTAL FREE ENERGY PREDICTED BY IDOCK:   -3.56 KCAL/MOL
REMARK 923 INTER-LIGAND FREE ENERGY PREDICTED BY IDOCK:   -3.37 KCAL/MOL
REMARK 924 INTRA-LIGAND FREE ENERGY PREDICTED BY IDOCK:   -0.20 KCAL/MOL
REMARK 927      BINDING AFFINITY PREDICTED BY RF-SCORE:    0.00 PKD
ROOT
ATOM      1  N   TYR A   1     -12.450   7.144  72.131  1.00  0.00    -0.500 NA 
ATOM      2  CA  TYR A   1     -11.323   7.242  71.149  1.00  0.00    -0.267 C  
ATOM      3  H1  TYR A   1     -12.279   7.643  73.005  1.00  0.00     0.000 HD 
ATOM      4  H2  TYR A   1     -12.685   6.168  72.313  1.00  0.00     0.000 HD 
ATOM      5  C   TYR A   1     -11.075   8.734  70.873  1.00  0.00    -0.268 C  
ATOM      6  OXT TYR A   1     -10.500   9.195  69.899  1.00  0.00    -0.206 OA 
ATOM      7  O   TYR A   1     -11.559   9.502  71.886  1.00  0.00    -0.371 OA 
ENDROOT
BRANCH   2   8
ATOM      8  CB  TYR A   1     -11.581   6.491  69.832  1.00  0.00    -0.433 C  
BRANCH   8   9
ATOM      9  CG  TYR A   1     -10.596   5.373  69.583  1.00  0.00    -0.328 A  
ATOM     10  CD1 TYR A   1     -10.011   4.683  70.656  1.00  0.00    -0.293 A  
ATOM     11  CE1 TYR A   1      -9.073   3.673  70.425  1.00  0.00    -0.198 A  
ATOM     12  CZ  TYR A   1      -8.727   3.348  69.119  1.00  0.00    -0.090 A  
ATOM     13  OH  TYR A   1      -7.809   2.376  68.848  1.00  0.00    -0.049 OA 
ATOM     14  CE2 TYR A   1      -9.305   4.010  68.043  1.00  0.00    -0.220 A  
ATOM     15  CD2 TYR A   1     -10.236   5.024  68.273  1.00  0.00    -0.143 A  
ATOM     16  HH  TYR A   1      -7.572   2.154  67.955  1.00  0.00     0.000 HD 
ENDBRANCH   8   9
ENDBRANCH   2   8
TORSDOF 2
ENDMDL
MODEL      165
REMARK 921   NORMALIZED FREE ENERGY PREDICTED BY IDOCK:   -3.03 KCAL/MOL
REMARK 922        TOTAL FREE ENERGY PREDICTED BY IDOCK:   -3.54 KCAL/MOL
REMARK 923 INTER-LIGAND FREE ENERGY PREDICTED BY IDOCK:   -3.63 KCAL/MOL
REMARK 924 INTRA-LIGAND FREE ENERGY PREDICTED BY IDOCK:    0.10 KCAL/MOL
REMARK 927      BINDING AFFINITY PREDICTED BY RF-SCORE:    0.00 PKD
ROOT
ATOM      1  N   TYR A   1     -10.305   7.323  68.486  1.00  0.00    -0.185 NA 
ATOM      2  CA  TYR A   1      -8.963   7.747  69.002  1.00  0.00    -0.145 C  
ATOM      3  H1  TYR A   1     -10.281   6.463  67.936  1.00  0.00     0.000 HD 
ATOM      4  H2  TYR A   1     -10.741   8.077  67.957  1.00  0.00     0.000 HD 
ATOM      5  C   TYR A   1      -8.400   6.591  69.844  1.00  0.00    -0.131 C  
ATOM      6  OXT TYR A   1      -7.525   6.682  70.690  1.00  0.00    -0.080 OA 
ATOM      7  O   TYR A   1      -8.990   5.413  69.504  1.00  0.00    -0.103 OA 
ENDROOT
BRANCH   2   8
ATOM      8  CB  TYR A   1      -8.999   9.042  69.831  1.00  0.00    -0.170 C  
BRANCH   8   9
ATOM      9  CG  TYR A   1     -10.340   9.292  70.482  1.00  0.00    -0.312 A  
ATOM     10  CD1 TYR A   1     -11.084  10.440  70.170  1.00  0.00    -0.383 A  
ATOM     11  CE1 TYR A   1     -12.307  10.688  70.798  1.00  0.00    -0.472 A  
ATOM     12  CZ  TYR A   1     -12.790   9.782  71.735  1.00  0.00    -0.434 A  
ATOM     13  OH  TYR A   1     -13.973   9.988  72.380  1.00  0.00    -0.471 OA 
ATOM     14  CE2 TYR A   1     -12.074   8.633  72.048  1.00  0.00    -0.442 A  
ATOM     15  CD2 TYR A   1     -10.849   8.388  71.426  1.00  0.00    -0.304 A  
ATOM     16  HH  TYR A   1     -14.303   9.369  73.020  1.00  0.00     0.000 HD 
ENDBRANCH   8   9
ENDBRANCH   2   8
TORSDOF 2
ENDMDL
MODEL      166
REMARK 921   NORMALIZED FREE ENERGY PREDICTED BY IDOCK:   -3.03 KCAL/MOL
REMARK 922        TOTAL FREE ENERGY PREDICTED BY IDOCK:   -3.53 KCAL/MOL
REMARK 923 INTER-LIGAND FREE ENERGY PREDICTED BY IDOCK:   -3.46 KCAL/MOL
REMARK 924 INTRA-LIGAND FREE ENERGY PREDICTED BY IDOCK:   -0.08 KCAL/MOL
REMARK 927      BINDING AFFINITY PREDICTED BY RF-SCORE:    0.00 PKD
ROOT
ATOM      1  N   TYR A   1      -9.791   6.246  70.020  1.00  0.00    -0.167 NA 
ATOM      2  CA  TYR A   1      -9.511   7.195  71.145  1.00  0.00    -0.157 C  
ATOM      3  H1  TYR A   1      -8.957   5.786  69.651  1.00  0.00     0.000 HD 
ATOM      4  H2  TYR A   1     -10.303   6.715  69.272  1.00  0.00     0.000 HD 
ATOM      5  C   TYR A   1      -8.804   6.403  72.256  1.00  0.00    -0.135 C  
ATOM      6  OXT TYR A   1      -8.733   6.726  73.432  1.00  0.00    -0.121 OA 
ATOM      7  O   TYR A   1      -8.222   5.279  71.756  1.00  0.00    -0.114 OA 
ENDROOT
BRANCH   2   8
ATOM      8  CB  TYR A   1     -10.768   7.886  71.700  1.00  0.00    -0.268 C  
BRANCH   8   9
ATOM      9  CG  TYR A   1     -11.081   9.193  71.007  1.00  0.00    -0.374 A  
ATOM     10  CD1 TYR A   1     -12.102  10.028  71.484  1.00  0.00    -0.475 A  
ATOM     11  CE1 TYR A   1     -12.414  11.219  70.822  1.00  0.00    -0.471 A  
ATOM     12  CZ  TYR A   1     -11.697  11.577  69.686  1.00  0.00    -0.351 A  
ATOM     13  OH  TYR A   1     -11.974  12.724  69.003  1.00  0.00    -0.292 OA 
ATOM     14  CE2 TYR A   1     -10.674  10.769  69.206  1.00  0.00    -0.268 A  
ATOM     15  CD2 TYR A   1     -10.367   9.577  69.863  1.00  0.00    -0.265 A  
ATOM     16  HH  TYR A   1     -11.485  12.968  68.226  1.00  0.00     0.000 HD 
ENDBRANCH   8   9
ENDBRANCH   2   8
TORSDOF 2
ENDMDL
MODEL      167
REMARK 921   NORMALIZED FREE ENERGY PREDICTED BY IDOCK:   -3.00 KCAL/MOL
REMARK 922        TOTAL FREE ENERGY PREDICTED BY IDOCK:   -3.51 KCAL/MOL
REMARK 923 INTER-LIGAND FREE ENERGY PREDICTED BY IDOCK:   -3.70 KCAL/MOL
REMARK 924 INTRA-LIGAND FREE ENERGY PREDICTED BY IDOCK:    0.19 KCAL/MOL
REMARK 927      BINDING AFFINITY PREDICTED BY RF-SCORE:    0.00 PKD
ROOT
ATOM      1  N   TYR A   1      -9.444   9.761  68.377  1.00  0.00    -0.139 NA 
ATOM      2  CA  TYR A   1      -9.012   8.327  68.405  1.00  0.00    -0.136 C  
ATOM      3  H1  TYR A   1      -9.432  10.177  67.445  1.00  0.00     0.000 HD 
ATOM      4  H2  TYR A   1      -8.887  10.318  69.027  1.00  0.00     0.000 HD 
ATOM      5  C   TYR A   1      -9.936   7.543  67.460  1.00  0.00    -0.174 C  
ATOM      6  OXT TYR A   1     -10.125   6.337  67.481  1.00  0.00    -0.130 OA 
ATOM      7  O   TYR A   1     -10.515   8.373  66.550  1.00  0.00    -0.249 OA 
ENDROOT
BRANCH   2   8
ATOM      8  CB  TYR A   1      -9.031   7.701  69.810  1.00  0.00    -0.140 C  
BRANCH   8   9
ATOM      9  CG  TYR A   1     -10.278   8.041  70.594  1.00  0.00    -0.205 A  
ATOM     10  CD1 TYR A   1     -10.446   9.316  71.153  1.00  0.00    -0.401 A  
ATOM     11  CE1 TYR A   1     -11.583   9.618  71.907  1.00  0.00    -0.167 A  
ATOM     12  CZ  TYR A   1     -12.557   8.644  72.095  1.00  0.00    -0.391 A  
ATOM     13  OH  TYR A   1     -13.678   8.892  72.831  1.00  0.00    -0.848 OA 
ATOM     14  CE2 TYR A   1     -12.415   7.380  71.537  1.00  0.00    -0.394 A  
ATOM     15  CD2 TYR A   1     -11.276   7.076  70.790  1.00  0.00    -0.323 A  
ATOM     16  HH  TYR A   1     -14.343   8.227  72.959  1.00  0.00     0.000 HD 
ENDBRANCH   8   9
ENDBRANCH   2   8
TORSDOF 2
ENDMDL
MODEL      168
REMARK 921   NORMALIZED FREE ENERGY PREDICTED BY IDOCK:   -3.00 KCAL/MOL
REMARK 922        TOTAL FREE ENERGY PREDICTED BY IDOCK:   -3.51 KCAL/MOL
REMARK 923 INTER-LIGAND FREE ENERGY PREDICTED BY IDOCK:   -3.31 KCAL/MOL
REMARK 924 INTRA-LIGAND FREE ENERGY PREDICTED BY IDOCK:   -0.19 KCAL/MOL
REMARK 927      BINDING AFFINITY PREDICTED BY RF-SCORE:    0.00 PKD
ROOT
ATOM      1  N   TYR A   1      -9.465  12.900  68.603  1.00  0.00    -0.407 NA 
ATOM      2  CA  TYR A   1     -10.236  11.626  68.437  1.00  0.00    -0.207 C  
ATOM      3  H1  TYR A   1      -9.917  13.712  68.180  1.00  0.00     0.000 HD 
ATOM      4  H2  TYR A   1      -8.514  12.794  68.250  1.00  0.00     0.000 HD 
ATOM      5  C   TYR A   1     -11.628  11.841  69.052  1.00  0.00    -0.311 C  
ATOM      6  OXT TYR A   1     -12.393  10.961  69.417  1.00  0.00    -0.349 OA 
ATOM      7  O   TYR A   1     -11.931  13.165  69.115  1.00  0.00    -0.305 OA 
ENDROOT
BRANCH   2   8
ATOM      8  CB  TYR A   1      -9.554  10.403  69.074  1.00  0.00    -0.212 C  
BRANCH   8   9
ATOM      9  CG  TYR A   1      -9.437   9.230  68.129  1.00  0.00    -0.150 A  
ATOM     10  CD1 TYR A   1      -8.188   8.848  67.615  1.00  0.00    -0.110 A  
ATOM     11  CE1 TYR A   1      -8.085   7.785  66.714  1.00  0.00    -0.115 A  
ATOM     12  CZ  TYR A   1      -9.232   7.099  66.332  1.00  0.00    -0.157 A  
ATOM     13  OH  TYR A   1      -9.179   6.062  65.448  1.00  0.00    -0.368 OA 
ATOM     14  CE2 TYR A   1     -10.475   7.453  66.840  1.00  0.00    -0.379 A  
ATOM     15  CD2 TYR A   1     -10.580   8.519  67.735  1.00  0.00    -0.242 A  
ATOM     16  HH  TYR A   1      -9.963   5.594  65.187  1.00  0.00     0.000 HD 
ENDBRANCH   8   9
ENDBRANCH   2   8
TORSDOF 2
ENDMDL
MODEL      169
REMARK 921   NORMALIZED FREE ENERGY PREDICTED BY IDOCK:   -2.99 KCAL/MOL
REMARK 922        TOTAL FREE ENERGY PREDICTED BY IDOCK:   -3.49 KCAL/MOL
REMARK 923 INTER-LIGAND FREE ENERGY PREDICTED BY IDOCK:   -3.27 KCAL/MOL
REMARK 924 INTRA-LIGAND FREE ENERGY PREDICTED BY IDOCK:   -0.22 KCAL/MOL
REMARK 927      BINDING AFFINITY PREDICTED BY RF-SCORE:    0.00 PKD
ROOT
ATOM      1  N   TYR A   1     -10.530   7.759  66.693  1.00  0.00    -0.491 NA 
ATOM      2  CA  TYR A   1     -10.278   8.169  68.112  1.00  0.00    -0.209 C  
ATOM      3  H1  TYR A   1     -11.184   8.367  66.199  1.00  0.00     0.000 HD 
ATOM      4  H2  TYR A   1     -10.837   6.787  66.648  1.00  0.00     0.000 HD 
ATOM      5  C   TYR A   1      -9.754   9.614  68.093  1.00  0.00    -0.146 C  
ATOM      6  OXT TYR A   1      -9.124  10.158  68.987  1.00  0.00    -0.153 OA 
ATOM      7  O   TYR A   1     -10.111  10.244  66.942  1.00  0.00    -0.202 OA 
ENDROOT
BRANCH   2   8
ATOM      8  CB  TYR A   1      -9.292   7.253  68.856  1.00  0.00    -0.144 C  
BRANCH   8   9
ATOM      9  CG  TYR A   1      -9.869   6.662  70.122  1.00  0.00    -0.180 A  
ATOM     10  CD1 TYR A   1      -9.453   5.403  70.578  1.00  0.00    -0.215 A  
ATOM     11  CE1 TYR A   1     -10.013   4.842  71.729  1.00  0.00    -0.252 A  
ATOM     12  CZ  TYR A   1     -10.986   5.547  72.428  1.00  0.00    -0.255 A  
ATOM     13  OH  TYR A   1     -11.567   5.035  73.550  1.00  0.00    -0.462 OA 
ATOM     14  CE2 TYR A   1     -11.402   6.801  72.000  1.00  0.00    -0.308 A  
ATOM     15  CD2 TYR A   1     -10.848   7.358  70.846  1.00  0.00    -0.255 A  
ATOM     16  HH  TYR A   1     -12.232   5.516  74.028  1.00  0.00     0.000 HD 
ENDBRANCH   8   9
ENDBRANCH   2   8
TORSDOF 2
ENDMDL
MODEL      170
REMARK 921   NORMALIZED FREE ENERGY PREDICTED BY IDOCK:   -2.95 KCAL/MOL
REMARK 922        TOTAL FREE ENERGY PREDICTED BY IDOCK:   -3.45 KCAL/MOL
REMARK 923 INTER-LIGAND FREE ENERGY PREDICTED BY IDOCK:   -3.22 KCAL/MOL
REMARK 924 INTRA-LIGAND FREE ENERGY PREDICTED BY IDOCK:   -0.22 KCAL/MOL
REMARK 927      BINDING AFFINITY PREDICTED BY RF-SCORE:    0.00 PKD
ROOT
ATOM      1  N   TYR A   1      -8.942   7.886  65.201  1.00  0.00    -0.376 NA 
ATOM      2  CA  TYR A   1      -9.149   7.061  66.436  1.00  0.00    -0.160 C  
ATOM      3  H1  TYR A   1      -7.964   7.970  64.922  1.00  0.00     0.000 HD 
ATOM      4  H2  TYR A   1      -9.366   8.808  65.310  1.00  0.00     0.000 HD 
ATOM      5  C   TYR A   1      -8.549   5.671  66.172  1.00  0.00    -0.132 C  
ATOM      6  OXT TYR A   1      -8.823   4.647  66.779  1.00  0.00    -0.111 OA 
ATOM      7  O   TYR A   1      -7.627   5.722  65.174  1.00  0.00    -0.079 OA 
ENDROOT
BRANCH   2   8
ATOM      8  CB  TYR A   1     -10.624   6.935  66.856  1.00  0.00    -0.372 C  
BRANCH   8   9
ATOM      9  CG  TYR A   1     -10.843   7.185  68.331  1.00  0.00    -0.148 A  
ATOM     10  CD1 TYR A   1     -11.160   6.126  69.195  1.00  0.00    -0.448 A  
ATOM     11  CE1 TYR A   1     -11.398   6.363  70.552  1.00  0.00    -0.438 A  
ATOM     12  CZ  TYR A   1     -11.310   7.660  71.045  1.00  0.00    -0.272 A  
ATOM     13  OH  TYR A   1     -11.544   7.939  72.359  1.00  0.00    -0.332 OA 
ATOM     14  CE2 TYR A   1     -10.985   8.719  70.207  1.00  0.00    -0.255 A  
ATOM     15  CD2 TYR A   1     -10.754   8.484  68.850  1.00  0.00    -0.100 A  
ATOM     16  HH  TYR A   1     -11.484   8.825  72.695  1.00  0.00     0.000 HD 
ENDBRANCH   8   9
ENDBRANCH   2   8
TORSDOF 2
ENDMDL
MODEL      171
REMARK 921   NORMALIZED FREE ENERGY PREDICTED BY IDOCK:   -2.95 KCAL/MOL
REMARK 922        TOTAL FREE ENERGY PREDICTED BY IDOCK:   -3.44 KCAL/MOL
REMARK 923 INTER-LIGAND FREE ENERGY PREDICTED BY IDOCK:   -3.40 KCAL/MOL
REMARK 924 INTRA-LIGAND FREE ENERGY PREDICTED BY IDOCK:   -0.04 KCAL/MOL
REMARK 927      BINDING AFFINITY PREDICTED BY RF-SCORE:    0.00 PKD
ROOT
ATOM      1  N   TYR A   1     -11.979   6.595  69.672  1.00  0.00    -0.590 NA 
ATOM      2  CA  TYR A   1     -10.754   5.828  69.274  1.00  0.00    -0.316 C  
ATOM      3  H1  TYR A   1     -12.593   6.087  70.310  1.00  0.00     0.000 HD 
ATOM      4  H2  TYR A   1     -12.494   6.903  68.846  1.00  0.00     0.000 HD 
ATOM      5  C   TYR A   1      -9.998   5.460  70.560  1.00  0.00    -0.221 C  
ATOM      6  OXT TYR A   1      -8.817   5.156  70.634  1.00  0.00    -0.123 OA 
ATOM      7  O   TYR A   1     -10.830   5.484  71.636  1.00  0.00    -0.245 OA 
ENDROOT
BRANCH   2   8
ATOM      8  CB  TYR A   1      -9.830   6.594  68.312  1.00  0.00    -0.137 C  
BRANCH   8   9
ATOM      9  CG  TYR A   1      -9.917   8.094  68.473  1.00  0.00    -0.204 A  
ATOM     10  CD1 TYR A   1     -10.566   8.881  67.510  1.00  0.00    -0.307 A  
ATOM     11  CE1 TYR A   1     -10.615  10.271  67.643  1.00  0.00    -0.312 A  
ATOM     12  CZ  TYR A   1     -10.019  10.873  68.745  1.00  0.00    -0.195 A  
ATOM     13  OH  TYR A   1     -10.034  12.227  68.910  1.00  0.00    -0.412 OA 
ATOM     14  CE2 TYR A   1      -9.383  10.110  69.716  1.00  0.00    -0.183 A  
ATOM     15  CD2 TYR A   1      -9.328   8.722  69.581  1.00  0.00    -0.158 A  
ATOM     16  HH  TYR A   1      -9.627  12.638  69.663  1.00  0.00     0.000 HD 
ENDBRANCH   8   9
ENDBRANCH   2   8
TORSDOF 2
ENDMDL
MODEL      172
REMARK 921   NORMALIZED FREE ENERGY PREDICTED BY IDOCK:   -2.89 KCAL/MOL
REMARK 922        TOTAL FREE ENERGY PREDICTED BY IDOCK:   -3.38 KCAL/MOL
REMARK 923 INTER-LIGAND FREE ENERGY PREDICTED BY IDOCK:   -3.78 KCAL/MOL
REMARK 924 INTRA-LIGAND FREE ENERGY PREDICTED BY IDOCK:    0.40 KCAL/MOL
REMARK 927      BINDING AFFINITY PREDICTED BY RF-SCORE:    0.00 PKD
ROOT
ATOM      1  N   TYR A   1     -11.395   6.525  67.397  1.00  0.00    -0.758 NA 
ATOM      2  CA  TYR A   1     -10.364   7.610  67.475  1.00  0.00    -0.257 C  
ATOM      3  H1  TYR A   1     -11.160   5.781  66.739  1.00  0.00     0.000 HD 
ATOM      4  H2  TYR A   1     -12.314   6.916  67.185  1.00  0.00     0.000 HD 
ATOM      5  C   TYR A   1      -9.029   6.955  67.864  1.00  0.00    -0.121 C  
ATOM      6  OXT TYR A   1      -8.068   7.528  68.354  1.00  0.00    -0.121 OA 
ATOM      7  O   TYR A   1      -9.032   5.629  67.561  1.00  0.00    -0.110 OA 
ENDROOT
BRANCH   2   8
ATOM      8  CB  TYR A   1     -10.719   8.731  68.466  1.00  0.00    -0.108 C  
BRANCH   8   9
ATOM      9  CG  TYR A   1     -10.751   8.263  69.903  1.00  0.00    -0.234 A  
ATOM     10  CD1 TYR A   1     -11.593   7.212  70.295  1.00  0.00    -0.260 A  
ATOM     11  CE1 TYR A   1     -11.648   6.805  71.631  1.00  0.00    -0.336 A  
ATOM     12  CZ  TYR A   1     -10.853   7.445  72.573  1.00  0.00    -0.283 A  
ATOM     13  OH  TYR A   1     -10.881   7.086  73.889  1.00  0.00    -0.501 OA 
ATOM     14  CE2 TYR A   1     -10.002   8.479  72.203  1.00  0.00    -0.387 A  
ATOM     15  CD2 TYR A   1      -9.952   8.891  70.870  1.00  0.00    -0.304 A  
ATOM     16  HH  TYR A   1     -10.338   7.524  74.533  1.00  0.00     0.000 HD 
ENDBRANCH   8   9
ENDBRANCH   2   8
TORSDOF 2
ENDMDL
MODEL      173
REMARK 921   NORMALIZED FREE ENERGY PREDICTED BY IDOCK:   -2.87 KCAL/MOL
REMARK 922        TOTAL FREE ENERGY PREDICTED BY IDOCK:   -3.35 KCAL/MOL
REMARK 923 INTER-LIGAND FREE ENERGY PREDICTED BY IDOCK:   -3.32 KCAL/MOL
REMARK 924 INTRA-LIGAND FREE ENERGY PREDICTED BY IDOCK:   -0.04 KCAL/MOL
REMARK 927      BINDING AFFINITY PREDICTED BY RF-SCORE:    0.00 PKD
ROOT
ATOM      1  N   TYR A   1      -9.429   6.693  72.146  1.00  0.00    -0.145 NA 
ATOM      2  CA  TYR A   1     -10.384   5.717  71.528  1.00  0.00    -0.220 C  
ATOM      3  H1  TYR A   1      -8.670   6.251  72.668  1.00  0.00     0.000 HD 
ATOM      4  H2  TYR A   1      -9.928   7.361  72.734  1.00  0.00     0.000 HD 
ATOM      5  C   TYR A   1      -9.573   4.792  70.608  1.00  0.00    -0.185 C  
ATOM      6  OXT TYR A   1     -10.022   4.121  69.691  1.00  0.00    -0.195 OA 
ATOM      7  O   TYR A   1      -8.260   4.783  70.964  1.00  0.00    -0.091 OA 
ENDROOT
BRANCH   2   8
ATOM      8  CB  TYR A   1     -11.527   6.383  70.742  1.00  0.00    -0.415 C  
BRANCH   8   9
ATOM      9  CG  TYR A   1     -11.193   7.783  70.281  1.00  0.00    -0.215 A  
ATOM     10  CD1 TYR A   1     -10.427   7.990  69.124  1.00  0.00    -0.217 A  
ATOM     11  CE1 TYR A   1     -10.089   9.284  68.717  1.00  0.00    -0.210 A  
ATOM     12  CZ  TYR A   1     -10.525  10.371  69.466  1.00  0.00    -0.247 A  
ATOM     13  OH  TYR A   1     -10.211  11.650  69.112  1.00  0.00    -0.396 OA 
ATOM     14  CE2 TYR A   1     -11.296  10.186  70.607  1.00  0.00    -0.433 A  
ATOM     15  CD2 TYR A   1     -11.628   8.894  71.017  1.00  0.00    -0.347 A  
ATOM     16  HH  TYR A   1     -10.509  12.393  69.623  1.00  0.00     0.000 HD 
ENDBRANCH   8   9
ENDBRANCH   2   8
TORSDOF 2
ENDMDL
MODEL      174
REMARK 921   NORMALIZED FREE ENERGY PREDICTED BY IDOCK:   -2.83 KCAL/MOL
REMARK 922        TOTAL FREE ENERGY PREDICTED BY IDOCK:   -3.32 KCAL/MOL
REMARK 923 INTER-LIGAND FREE ENERGY PREDICTED BY IDOCK:   -3.14 KCAL/MOL
REMARK 924 INTRA-LIGAND FREE ENERGY PREDICTED BY IDOCK:   -0.17 KCAL/MOL
REMARK 927      BINDING AFFINITY PREDICTED BY RF-SCORE:    0.00 PKD
ROOT
ATOM      1  N   TYR A   1     -11.455   9.933  69.629  1.00  0.00    -0.422 NA 
ATOM      2  CA  TYR A   1     -11.632   8.894  70.695  1.00  0.00    -0.215 C  
ATOM      3  H1  TYR A   1     -12.331  10.237  69.202  1.00  0.00     0.000 HD 
ATOM      4  H2  TYR A   1     -10.800   9.609  68.917  1.00  0.00     0.000 HD 
ATOM      5  C   TYR A   1     -12.572   9.477  71.762  1.00  0.00    -0.405 C  
ATOM      6  OXT TYR A   1     -12.672   9.089  72.916  1.00  0.00    -0.276 OA 
ATOM      7  O   TYR A   1     -13.323  10.487  71.246  1.00  0.00    -0.328 OA 
ENDROOT
BRANCH   2   8
ATOM      8  CB  TYR A   1     -10.312   8.436  71.338  1.00  0.00    -0.285 C  
BRANCH   8   9
ATOM      9  CG  TYR A   1      -9.726   7.208  70.680  1.00  0.00    -0.175 A  
ATOM     10  CD1 TYR A   1      -8.371   7.169  70.319  1.00  0.00    -0.136 A  
ATOM     11  CE1 TYR A   1      -7.838   6.046  69.679  1.00  0.00    -0.102 A  
ATOM     12  CZ  TYR A   1      -8.661   4.959  69.408  1.00  0.00    -0.087 A  
ATOM     13  OH  TYR A   1      -8.186   3.848  68.776  1.00  0.00    -0.073 OA 
ATOM     14  CE2 TYR A   1     -10.002   4.974  69.770  1.00  0.00    -0.319 A  
ATOM     15  CD2 TYR A   1     -10.536   6.097  70.403  1.00  0.00    -0.317 A  
ATOM     16  HH  TYR A   1      -8.748   3.106  68.591  1.00  0.00     0.000 HD 
ENDBRANCH   8   9
ENDBRANCH   2   8
TORSDOF 2
ENDMDL
MODEL      175
REMARK 921   NORMALIZED FREE ENERGY PREDICTED BY IDOCK:   -2.77 KCAL/MOL
REMARK 922        TOTAL FREE ENERGY PREDICTED BY IDOCK:   -3.24 KCAL/MOL
REMARK 923 INTER-LIGAND FREE ENERGY PREDICTED BY IDOCK:   -3.16 KCAL/MOL
REMARK 924 INTRA-LIGAND FREE ENERGY PREDICTED BY IDOCK:   -0.08 KCAL/MOL
REMARK 927      BINDING AFFINITY PREDICTED BY RF-SCORE:    0.00 PKD
ROOT
ATOM      1  N   TYR A   1     -10.930  13.076  69.136  1.00  0.00    -0.409 NA 
ATOM      2  CA  TYR A   1     -10.048  13.609  68.047  1.00  0.00    -0.250 C  
ATOM      3  H1  TYR A   1     -11.096  13.740  69.893  1.00  0.00     0.000 HD 
ATOM      4  H2  TYR A   1     -10.559  12.199  69.501  1.00  0.00     0.000 HD 
ATOM      5  C   TYR A   1     -10.704  14.887  67.501  1.00  0.00    -0.276 C  
ATOM      6  OXT TYR A   1     -10.484  15.396  66.413  1.00  0.00    -0.287 OA 
ATOM      7  O   TYR A   1     -11.563  15.419  68.413  1.00  0.00    -0.341 OA 
ENDROOT
BRANCH   2   8
ATOM      8  CB  TYR A   1      -9.799  12.608  66.906  1.00  0.00    -0.234 C  
BRANCH   8   9
ATOM      9  CG  TYR A   1      -9.655  11.183  67.388  1.00  0.00    -0.183 A  
ATOM     10  CD1 TYR A   1     -10.638  10.226  67.096  1.00  0.00    -0.320 A  
ATOM     11  CE1 TYR A   1     -10.521   8.917  67.572  1.00  0.00    -0.337 A  
ATOM     12  CZ  TYR A   1      -9.413   8.565  68.335  1.00  0.00    -0.135 A  
ATOM     13  OH  TYR A   1      -9.263   7.302  68.828  1.00  0.00    -0.138 OA 
ATOM     14  CE2 TYR A   1      -8.423   9.494  68.624  1.00  0.00    -0.119 A  
ATOM     15  CD2 TYR A   1      -8.543  10.803  68.154  1.00  0.00    -0.129 A  
ATOM     16  HH  TYR A   1      -8.507   7.061  69.349  1.00  0.00     0.000 HD 
ENDBRANCH   8   9
ENDBRANCH   2   8
TORSDOF 2
ENDMDL
MODEL      176
REMARK 921   NORMALIZED FREE ENERGY PREDICTED BY IDOCK:   -2.73 KCAL/MOL
REMARK 922        TOTAL FREE ENERGY PREDICTED BY IDOCK:   -3.20 KCAL/MOL
REMARK 923 INTER-LIGAND FREE ENERGY PREDICTED BY IDOCK:   -3.16 KCAL/MOL
REMARK 924 INTRA-LIGAND FREE ENERGY PREDICTED BY IDOCK:   -0.04 KCAL/MOL
REMARK 927      BINDING AFFINITY PREDICTED BY RF-SCORE:    0.00 PKD
ROOT
ATOM      1  N   TYR A   1     -12.379  10.799  68.986  1.00  0.00    -0.768 NA 
ATOM      2  CA  TYR A   1     -11.146  11.111  68.193  1.00  0.00    -0.264 C  
ATOM      3  H1  TYR A   1     -12.541  11.440  69.764  1.00  0.00     0.000 HD 
ATOM      4  H2  TYR A   1     -12.361   9.833  69.313  1.00  0.00     0.000 HD 
ATOM      5  C   TYR A   1     -11.278  12.553  67.678  1.00  0.00    -0.282 C  
ATOM      6  OXT TYR A   1     -10.667  13.035  66.736  1.00  0.00    -0.260 OA 
ATOM      7  O   TYR A   1     -12.159  13.261  68.435  1.00  0.00    -0.333 OA 
ENDROOT
BRANCH   2   8
ATOM      8  CB  TYR A   1     -10.903  10.146  67.020  1.00  0.00    -0.221 C  
BRANCH   8   9
ATOM      9  CG  TYR A   1      -9.480  10.177  66.512  1.00  0.00    -0.214 A  
ATOM     10  CD1 TYR A   1      -9.211  10.139  65.136  1.00  0.00    -0.262 A  
ATOM     11  CE1 TYR A   1      -7.894  10.132  64.668  1.00  0.00    -0.144 A  
ATOM     12  CZ  TYR A   1      -6.846  10.171  65.579  1.00  0.00    -0.130 A  
ATOM     13  OH  TYR A   1      -5.545  10.156  65.168  1.00  0.00    -0.077 OA 
ATOM     14  CE2 TYR A   1      -7.091  10.223  66.945  1.00  0.00    -0.092 A  
ATOM     15  CD2 TYR A   1      -8.406  10.223  67.413  1.00  0.00    -0.118 A  
ATOM     16  HH  TYR A   1      -4.829  10.183  65.791  1.00  0.00     0.000 HD 
ENDBRANCH   8   9
ENDBRANCH   2   8
TORSDOF 2
ENDMDL
MODEL      177
REMARK 921   NORMALIZED FREE ENERGY PREDICTED BY IDOCK:   -2.72 KCAL/MOL
REMARK 922        TOTAL FREE ENERGY PREDICTED BY IDOCK:   -3.19 KCAL/MOL
REMARK 923 INTER-LIGAND FREE ENERGY PREDICTED BY IDOCK:   -2.99 KCAL/MOL
REMARK 924 INTRA-LIGAND FREE ENERGY PREDICTED BY IDOCK:   -0.20 KCAL/MOL
REMARK 927      BINDING AFFINITY PREDICTED BY RF-SCORE:    0.00 PKD
ROOT
ATOM      1  N   TYR A   1      -9.880  20.030  68.072  1.00  0.00    -0.392 NA 
ATOM      2  CA  TYR A   1      -8.876  18.944  67.829  1.00  0.00    -0.292 C  
ATOM      3  H1  TYR A   1      -9.473  20.892  68.438  1.00  0.00     0.000 HD 
ATOM      4  H2  TYR A   1     -10.628  19.698  68.681  1.00  0.00     0.000 HD 
ATOM      5  C   TYR A   1      -7.824  19.494  66.853  1.00  0.00    -0.266 C  
ATOM      6  OXT TYR A   1      -7.071  18.825  66.161  1.00  0.00    -0.231 OA 
ATOM      7  O   TYR A   1      -7.808  20.854  66.872  1.00  0.00    -0.201 OA 
ENDROOT
BRANCH   2   8
ATOM      8  CB  TYR A   1      -9.489  17.646  67.277  1.00  0.00    -0.257 C  
BRANCH   8   9
ATOM      9  CG  TYR A   1      -8.812  16.400  67.801  1.00  0.00    -0.189 A  
ATOM     10  CD1 TYR A   1      -8.349  15.413  66.918  1.00  0.00    -0.290 A  
ATOM     11  CE1 TYR A   1      -7.755  14.246  67.405  1.00  0.00    -0.194 A  
ATOM     12  CZ  TYR A   1      -7.617  14.070  68.777  1.00  0.00    -0.113 A  
ATOM     13  OH  TYR A   1      -7.053  12.943  69.296  1.00  0.00    -0.280 OA 
ATOM     14  CE2 TYR A   1      -8.057  15.042  69.667  1.00  0.00    -0.049 A  
ATOM     15  CD2 TYR A   1      -8.657  16.205  69.181  1.00  0.00    -0.235 A  
ATOM     16  HH  TYR A   1      -6.959  12.823  70.233  1.00  0.00     0.000 HD 
ENDBRANCH   8   9
ENDBRANCH   2   8
TORSDOF 2
ENDMDL
MODEL      178
REMARK 921   NORMALIZED FREE ENERGY PREDICTED BY IDOCK:   -2.68 KCAL/MOL
REMARK 922        TOTAL FREE ENERGY PREDICTED BY IDOCK:   -3.15 KCAL/MOL
REMARK 923 INTER-LIGAND FREE ENERGY PREDICTED BY IDOCK:   -3.13 KCAL/MOL
REMARK 924 INTRA-LIGAND FREE ENERGY PREDICTED BY IDOCK:   -0.03 KCAL/MOL
REMARK 927      BINDING AFFINITY PREDICTED BY RF-SCORE:    0.00 PKD
ROOT
ATOM      1  N   TYR A   1      -8.718   8.542  70.619  1.00  0.00    -0.143 NA 
ATOM      2  CA  TYR A   1     -10.021   9.231  70.890  1.00  0.00    -0.297 C  
ATOM      3  H1  TYR A   1      -8.118   8.457  71.441  1.00  0.00     0.000 HD 
ATOM      4  H2  TYR A   1      -8.220   9.001  69.857  1.00  0.00     0.000 HD 
ATOM      5  C   TYR A   1     -10.741   8.444  71.997  1.00  0.00    -0.317 C  
ATOM      6  OXT TYR A   1     -11.939   8.481  72.237  1.00  0.00    -0.359 OA 
ATOM      7  O   TYR A   1      -9.858   7.703  72.719  1.00  0.00    -0.185 OA 
ENDROOT
BRANCH   2   8
ATOM      8  CB  TYR A   1     -10.923   9.358  69.651  1.00  0.00    -0.216 C  
BRANCH   8   9
ATOM      9  CG  TYR A   1     -10.576   8.371  68.560  1.00  0.00    -0.149 A  
ATOM     10  CD1 TYR A   1      -9.919   8.796  67.395  1.00  0.00    -0.267 A  
ATOM     11  CE1 TYR A   1      -9.629   7.890  66.372  1.00  0.00    -0.251 A  
ATOM     12  CZ  TYR A   1      -9.990   6.555  66.518  1.00  0.00    -0.092 A  
ATOM     13  OH  TYR A   1      -9.736   5.639  65.541  1.00  0.00    -0.368 OA 
ATOM     14  CE2 TYR A   1     -10.629   6.113  67.669  1.00  0.00    -0.340 A  
ATOM     15  CD2 TYR A   1     -10.925   7.019  68.689  1.00  0.00    -0.144 A  
ATOM     16  HH  TYR A   1      -9.983   4.728  65.640  1.00  0.00     0.000 HD 
ENDBRANCH   8   9
ENDBRANCH   2   8
TORSDOF 2
ENDMDL
MODEL      179
REMARK 921   NORMALIZED FREE ENERGY PREDICTED BY IDOCK:   -2.65 KCAL/MOL
REMARK 922        TOTAL FREE ENERGY PREDICTED BY IDOCK:   -3.11 KCAL/MOL
REMARK 923 INTER-LIGAND FREE ENERGY PREDICTED BY IDOCK:   -2.90 KCAL/MOL
REMARK 924 INTRA-LIGAND FREE ENERGY PREDICTED BY IDOCK:   -0.21 KCAL/MOL
REMARK 927      BINDING AFFINITY PREDICTED BY RF-SCORE:    0.00 PKD
ROOT
ATOM      1  N   TYR A   1      -7.577   4.461  67.126  1.00  0.00    -0.084 NA 
ATOM      2  CA  TYR A   1      -8.611   5.485  67.482  1.00  0.00    -0.108 C  
ATOM      3  H1  TYR A   1      -7.779   3.956  66.262  1.00  0.00     0.000 HD 
ATOM      4  H2  TYR A   1      -7.434   3.809  67.898  1.00  0.00     0.000 HD 
ATOM      5  C   TYR A   1      -8.719   6.466  66.304  1.00  0.00    -0.143 C  
ATOM      6  OXT TYR A   1      -9.176   7.598  66.355  1.00  0.00    -0.170 OA 
ATOM      7  O   TYR A   1      -8.260   5.898  65.156  1.00  0.00    -0.131 OA 
ENDROOT
BRANCH   2   8
ATOM      8  CB  TYR A   1      -8.306   6.246  68.784  1.00  0.00    -0.120 C  
BRANCH   8   9
ATOM      9  CG  TYR A   1      -9.436   6.186  69.785  1.00  0.00    -0.168 A  
ATOM     10  CD1 TYR A   1     -10.740   6.546  69.413  1.00  0.00    -0.328 A  
ATOM     11  CE1 TYR A   1     -11.778   6.524  70.349  1.00  0.00    -0.439 A  
ATOM     12  CZ  TYR A   1     -11.511   6.134  71.656  1.00  0.00    -0.272 A  
ATOM     13  OH  TYR A   1     -12.491   6.107  72.604  1.00  0.00    -0.529 OA 
ATOM     14  CE2 TYR A   1     -10.229   5.762  72.040  1.00  0.00    -0.245 A  
ATOM     15  CD2 TYR A   1      -9.191   5.790  71.108  1.00  0.00    -0.168 A  
ATOM     16  HH  TYR A   1     -12.309   5.841  73.497  1.00  0.00     0.000 HD 
ENDBRANCH   8   9
ENDBRANCH   2   8
TORSDOF 2
ENDMDL
MODEL      180
REMARK 921   NORMALIZED FREE ENERGY PREDICTED BY IDOCK:   -2.63 KCAL/MOL
REMARK 922        TOTAL FREE ENERGY PREDICTED BY IDOCK:   -3.09 KCAL/MOL
REMARK 923 INTER-LIGAND FREE ENERGY PREDICTED BY IDOCK:   -2.87 KCAL/MOL
REMARK 924 INTRA-LIGAND FREE ENERGY PREDICTED BY IDOCK:   -0.23 KCAL/MOL
REMARK 927      BINDING AFFINITY PREDICTED BY RF-SCORE:    0.00 PKD
ROOT
ATOM      1  N   TYR A   1      -7.245   9.202  72.194  1.00  0.00    -0.310 NA 
ATOM      2  CA  TYR A   1      -8.389   8.354  71.725  1.00  0.00    -0.160 C  
ATOM      3  H1  TYR A   1      -6.588   9.451  71.454  1.00  0.00     0.000 HD 
ATOM      4  H2  TYR A   1      -6.760   8.754  72.971  1.00  0.00     0.000 HD 
ATOM      5  C   TYR A   1      -9.110   9.122  70.606  1.00  0.00    -0.257 C  
ATOM      6  OXT TYR A   1     -10.256   8.929  70.229  1.00  0.00    -0.186 OA 
ATOM      7  O   TYR A   1      -8.288  10.050  70.047  1.00  0.00    -0.188 OA 
ENDROOT
BRANCH   2   8
ATOM      8  CB  TYR A   1      -9.380   7.979  72.840  1.00  0.00    -0.338 C  
BRANCH   8   9
ATOM      9  CG  TYR A   1      -9.718   6.506  72.863  1.00  0.00    -0.164 A  
ATOM     10  CD1 TYR A   1      -9.026   5.601  72.045  1.00  0.00    -0.142 A  
ATOM     11  CE1 TYR A   1      -9.363   4.244  72.042  1.00  0.00    -0.180 A  
ATOM     12  CZ  TYR A   1     -10.389   3.793  72.864  1.00  0.00    -0.165 A  
ATOM     13  OH  TYR A   1     -10.758   2.481  72.886  1.00  0.00    -0.156 OA 
ATOM     14  CE2 TYR A   1     -11.077   4.672  73.691  1.00  0.00    -0.379 A  
ATOM     15  CD2 TYR A   1     -10.745   6.028  73.690  1.00  0.00    -0.240 A  
ATOM     16  HH  TYR A   1     -11.459   2.173  73.448  1.00  0.00     0.000 HD 
ENDBRANCH   8   9
ENDBRANCH   2   8
TORSDOF 2
ENDMDL
MODEL      181
REMARK 921   NORMALIZED FREE ENERGY PREDICTED BY IDOCK:   -2.60 KCAL/MOL
REMARK 922        TOTAL FREE ENERGY PREDICTED BY IDOCK:   -3.05 KCAL/MOL
REMARK 923 INTER-LIGAND FREE ENERGY PREDICTED BY IDOCK:   -2.83 KCAL/MOL
REMARK 924 INTRA-LIGAND FREE ENERGY PREDICTED BY IDOCK:   -0.22 KCAL/MOL
REMARK 927      BINDING AFFINITY PREDICTED BY RF-SCORE:    0.00 PKD
ROOT
ATOM      1  N   TYR A   1      -8.648  11.775  65.918  1.00  0.00    -0.393 NA 
ATOM      2  CA  TYR A   1      -8.687  10.352  66.387  1.00  0.00    -0.141 C  
ATOM      3  H1  TYR A   1      -7.705  12.123  65.741  1.00  0.00     0.000 HD 
ATOM      4  H2  TYR A   1      -9.139  12.383  66.573  1.00  0.00     0.000 HD 
ATOM      5  C   TYR A   1      -7.992   9.491  65.320  1.00  0.00    -0.112 C  
ATOM      6  OXT TYR A   1      -8.129   8.287  65.172  1.00  0.00    -0.126 OA 
ATOM      7  O   TYR A   1      -7.157  10.246  64.557  1.00  0.00    -0.134 OA 
ENDROOT
BRANCH   2   8
ATOM      8  CB  TYR A   1     -10.108   9.827  66.653  1.00  0.00    -0.303 C  
BRANCH   8   9
ATOM      9  CG  TYR A   1     -10.229   9.077  67.960  1.00  0.00    -0.260 A  
ATOM     10  CD1 TYR A   1     -10.528   7.707  67.973  1.00  0.00    -0.247 A  
ATOM     11  CE1 TYR A   1     -10.674   7.022  69.183  1.00  0.00    -0.240 A  
ATOM     12  CZ  TYR A   1     -10.513   7.710  70.380  1.00  0.00    -0.220 A  
ATOM     13  OH  TYR A   1     -10.656   7.085  71.584  1.00  0.00    -0.205 OA 
ATOM     14  CE2 TYR A   1     -10.204   9.064  70.388  1.00  0.00    -0.250 A  
ATOM     15  CD2 TYR A   1     -10.064   9.749  69.180  1.00  0.00    -0.200 A  
ATOM     16  HH  TYR A   1     -10.546   7.554  72.402  1.00  0.00     0.000 HD 
ENDBRANCH   8   9
ENDBRANCH   2   8
TORSDOF 2
ENDMDL
MODEL      182
REMARK 921   NORMALIZED FREE ENERGY PREDICTED BY IDOCK:   -2.58 KCAL/MOL
REMARK 922        TOTAL FREE ENERGY PREDICTED BY IDOCK:   -3.04 KCAL/MOL
REMARK 923 INTER-LIGAND FREE ENERGY PREDICTED BY IDOCK:   -2.83 KCAL/MOL
REMARK 924 INTRA-LIGAND FREE ENERGY PREDICTED BY IDOCK:   -0.21 KCAL/MOL
REMARK 927      BINDING AFFINITY PREDICTED BY RF-SCORE:    0.00 PKD
ROOT
ATOM      1  N   TYR A   1     -11.098   8.565  69.033  1.00  0.00    -0.417 NA 
ATOM      2  CA  TYR A   1     -11.103   7.835  70.342  1.00  0.00    -0.251 C  
ATOM      3  H1  TYR A   1     -12.029   8.816  68.699  1.00  0.00     0.000 HD 
ATOM      4  H2  TYR A   1     -10.593   8.030  68.326  1.00  0.00     0.000 HD 
ATOM      5  C   TYR A   1     -11.816   8.728  71.370  1.00  0.00    -0.308 C  
ATOM      6  OXT TYR A   1     -11.713   8.644  72.584  1.00  0.00    -0.325 OA 
ATOM      7  O   TYR A   1     -12.623   9.631  70.751  1.00  0.00    -0.247 OA 
ENDROOT
BRANCH   2   8
ATOM      8  CB  TYR A   1      -9.700   7.457  70.846  1.00  0.00    -0.169 C  
BRANCH   8   9
ATOM      9  CG  TYR A   1      -9.569   5.992  71.195  1.00  0.00    -0.195 A  
ATOM     10  CD1 TYR A   1      -9.924   5.002  70.267  1.00  0.00    -0.325 A  
ATOM     11  CE1 TYR A   1      -9.836   3.648  70.604  1.00  0.00    -0.128 A  
ATOM     12  CZ  TYR A   1      -9.385   3.286  71.868  1.00  0.00    -0.128 A  
ATOM     13  OH  TYR A   1      -9.293   1.978  72.242  1.00  0.00    -0.078 OA 
ATOM     14  CE2 TYR A   1      -9.017   4.252  72.796  1.00  0.00    -0.118 A  
ATOM     15  CD2 TYR A   1      -9.111   5.604  72.463  1.00  0.00    -0.138 A  
ATOM     16  HH  TYR A   1      -8.986   1.731  73.106  1.00  0.00     0.000 HD 
ENDBRANCH   8   9
ENDBRANCH   2   8
TORSDOF 2
ENDMDL
MODEL      183
REMARK 921   NORMALIZED FREE ENERGY PREDICTED BY IDOCK:   -2.55 KCAL/MOL
REMARK 922        TOTAL FREE ENERGY PREDICTED BY IDOCK:   -3.00 KCAL/MOL
REMARK 923 INTER-LIGAND FREE ENERGY PREDICTED BY IDOCK:   -3.01 KCAL/MOL
REMARK 924 INTRA-LIGAND FREE ENERGY PREDICTED BY IDOCK:    0.01 KCAL/MOL
REMARK 927      BINDING AFFINITY PREDICTED BY RF-SCORE:    0.00 PKD
ROOT
ATOM      1  N   TYR A   1      -8.433  11.450  66.154  1.00  0.00    -0.308 NA 
ATOM      2  CA  TYR A   1      -8.972  10.908  64.865  1.00  0.00    -0.152 C  
ATOM      3  H1  TYR A   1      -8.212  12.446  66.121  1.00  0.00     0.000 HD 
ATOM      4  H2  TYR A   1      -7.623  10.911  66.460  1.00  0.00     0.000 HD 
ATOM      5  C   TYR A   1     -10.225  11.721  64.506  1.00  0.00    -0.284 C  
ATOM      6  OXT TYR A   1     -11.114  11.368  63.746  1.00  0.00    -0.392 OA 
ATOM      7  O   TYR A   1     -10.214  12.930  65.130  1.00  0.00    -0.288 OA 
ENDROOT
BRANCH   2   8
ATOM      8  CB  TYR A   1      -9.306   9.407  64.916  1.00  0.00    -0.218 C  
BRANCH   8   9
ATOM      9  CG  TYR A   1      -9.342   8.855  66.322  1.00  0.00    -0.279 A  
ATOM     10  CD1 TYR A   1     -10.512   8.936  67.092  1.00  0.00    -0.344 A  
ATOM     11  CE1 TYR A   1     -10.534   8.456  68.405  1.00  0.00    -0.208 A  
ATOM     12  CZ  TYR A   1      -9.386   7.887  68.943  1.00  0.00    -0.150 A  
ATOM     13  OH  TYR A   1      -9.359   7.415  70.223  1.00  0.00    -0.161 OA 
ATOM     14  CE2 TYR A   1      -8.222   7.785  68.192  1.00  0.00    -0.124 A  
ATOM     15  CD2 TYR A   1      -8.197   8.271  66.884  1.00  0.00    -0.103 A  
ATOM     16  HH  TYR A   1      -8.575   7.027  70.591  1.00  0.00     0.000 HD 
ENDBRANCH   8   9
ENDBRANCH   2   8
TORSDOF 2
ENDMDL
MODEL      184
REMARK 921   NORMALIZED FREE ENERGY PREDICTED BY IDOCK:   -2.54 KCAL/MOL
REMARK 922        TOTAL FREE ENERGY PREDICTED BY IDOCK:   -2.99 KCAL/MOL
REMARK 923 INTER-LIGAND FREE ENERGY PREDICTED BY IDOCK:   -2.98 KCAL/MOL
REMARK 924 INTRA-LIGAND FREE ENERGY PREDICTED BY IDOCK:   -0.01 KCAL/MOL
REMARK 927      BINDING AFFINITY PREDICTED BY RF-SCORE:    0.00 PKD
ROOT
ATOM      1  N   TYR A   1     -10.242   8.203  68.457  1.00  0.00    -0.204 NA 
ATOM      2  CA  TYR A   1      -9.845   8.052  67.020  1.00  0.00    -0.227 C  
ATOM      3  H1  TYR A   1     -10.065   7.371  69.022  1.00  0.00     0.000 HD 
ATOM      4  H2  TYR A   1     -11.219   8.487  68.532  1.00  0.00     0.000 HD 
ATOM      5  C   TYR A   1      -8.351   7.693  66.985  1.00  0.00    -0.124 C  
ATOM      6  OXT TYR A   1      -7.604   7.831  66.029  1.00  0.00    -0.083 OA 
ATOM      7  O   TYR A   1      -7.954   7.157  68.171  1.00  0.00    -0.116 OA 
ENDROOT
BRANCH   2   8
ATOM      8  CB  TYR A   1     -10.112   9.305  66.169  1.00  0.00    -0.304 C  
BRANCH   8   9
ATOM      9  CG  TYR A   1     -10.132  10.580  66.980  1.00  0.00    -0.259 A  
ATOM     10  CD1 TYR A   1     -11.330  11.056  67.536  1.00  0.00    -0.332 A  
ATOM     11  CE1 TYR A   1     -11.353  12.253  68.256  1.00  0.00    -0.339 A  
ATOM     12  CZ  TYR A   1     -10.175  12.971  68.427  1.00  0.00    -0.245 A  
ATOM     13  OH  TYR A   1     -10.154  14.149  69.114  1.00  0.00    -0.402 OA 
ATOM     14  CE2 TYR A   1      -8.978  12.510  67.896  1.00  0.00    -0.188 A  
ATOM     15  CD2 TYR A   1      -8.955  11.317  67.171  1.00  0.00    -0.155 A  
ATOM     16  HH  TYR A   1      -9.349  14.639  69.230  1.00  0.00     0.000 HD 
ENDBRANCH   8   9
ENDBRANCH   2   8
TORSDOF 2
ENDMDL
MODEL      185
REMARK 921   NORMALIZED FREE ENERGY PREDICTED BY IDOCK:   -2.54 KCAL/MOL
REMARK 922        TOTAL FREE ENERGY PREDICTED BY IDOCK:   -2.99 KCAL/MOL
REMARK 923 INTER-LIGAND FREE ENERGY PREDICTED BY IDOCK:   -2.94 KCAL/MOL
REMARK 924 INTRA-LIGAND FREE ENERGY PREDICTED BY IDOCK:   -0.04 KCAL/MOL
REMARK 927      BINDING AFFINITY PREDICTED BY RF-SCORE:    0.00 PKD
ROOT
ATOM      1  N   TYR A   1      -8.014   5.200  72.421  1.00  0.00    -0.101 NA 
ATOM      2  CA  TYR A   1      -8.893   4.004  72.630  1.00  0.00    -0.103 C  
ATOM      3  H1  TYR A   1      -7.024   4.971  72.325  1.00  0.00     0.000 HD 
ATOM      4  H2  TYR A   1      -8.155   5.884  73.165  1.00  0.00     0.000 HD 
ATOM      5  C   TYR A   1      -8.678   3.055  71.440  1.00  0.00    -0.073 C  
ATOM      6  OXT TYR A   1      -9.444   2.175  71.079  1.00  0.00    -0.124 OA 
ATOM      7  O   TYR A   1      -7.483   3.298  70.836  1.00  0.00    -0.037 OA 
ENDROOT
BRANCH   2   8
ATOM      8  CB  TYR A   1     -10.385   4.348  72.775  1.00  0.00    -0.246 C  
BRANCH   8   9
ATOM      9  CG  TYR A   1     -10.763   5.644  72.094  1.00  0.00    -0.287 A  
ATOM     10  CD1 TYR A   1     -10.787   6.848  72.813  1.00  0.00    -0.305 A  
ATOM     11  CE1 TYR A   1     -11.171   8.040  72.191  1.00  0.00    -0.380 A  
ATOM     12  CZ  TYR A   1     -11.524   8.026  70.847  1.00  0.00    -0.276 A  
ATOM     13  OH  TYR A   1     -11.915   9.163  70.202  1.00  0.00    -0.464 OA 
ATOM     14  CE2 TYR A   1     -11.494   6.845  70.115  1.00  0.00    -0.354 A  
ATOM     15  CD2 TYR A   1     -11.117   5.654  70.737  1.00  0.00    -0.196 A  
ATOM     16  HH  TYR A   1     -12.156   9.153  69.284  1.00  0.00     0.000 HD 
ENDBRANCH   8   9
ENDBRANCH   2   8
TORSDOF 2
ENDMDL
MODEL      186
REMARK 921   NORMALIZED FREE ENERGY PREDICTED BY IDOCK:   -2.52 KCAL/MOL
REMARK 922        TOTAL FREE ENERGY PREDICTED BY IDOCK:   -2.97 KCAL/MOL
REMARK 923 INTER-LIGAND FREE ENERGY PREDICTED BY IDOCK:   -2.98 KCAL/MOL
REMARK 924 INTRA-LIGAND FREE ENERGY PREDICTED BY IDOCK:    0.01 KCAL/MOL
REMARK 927      BINDING AFFINITY PREDICTED BY RF-SCORE:    0.00 PKD
ROOT
ATOM      1  N   TYR A   1      -7.331   9.883  67.746  1.00  0.00    -0.088 NA 
ATOM      2  CA  TYR A   1      -7.983   9.013  66.714  1.00  0.00    -0.107 C  
ATOM      3  H1  TYR A   1      -6.431  10.263  67.454  1.00  0.00     0.000 HD 
ATOM      4  H2  TYR A   1      -7.241   9.384  68.631  1.00  0.00     0.000 HD 
ATOM      5  C   TYR A   1      -8.148   9.851  65.436  1.00  0.00    -0.137 C  
ATOM      6  OXT TYR A   1      -8.927   9.620  64.524  1.00  0.00    -0.214 OA 
ATOM      7  O   TYR A   1      -7.277  10.896  65.426  1.00  0.00     0.006 OA 
ENDROOT
BRANCH   2   8
ATOM      8  CB  TYR A   1      -9.341   8.440  67.155  1.00  0.00    -0.192 C  
BRANCH   8   9
ATOM      9  CG  TYR A   1     -10.086   9.345  68.109  1.00  0.00    -0.215 A  
ATOM     10  CD1 TYR A   1     -10.955  10.334  67.626  1.00  0.00    -0.356 A  
ATOM     11  CE1 TYR A   1     -11.616  11.193  68.508  1.00  0.00    -0.385 A  
ATOM     12  CZ  TYR A   1     -11.411  11.057  69.876  1.00  0.00    -0.320 A  
ATOM     13  OH  TYR A   1     -12.028  11.880  70.772  1.00  0.00    -0.442 OA 
ATOM     14  CE2 TYR A   1     -10.564  10.076  70.375  1.00  0.00    -0.343 A  
ATOM     15  CD2 TYR A   1      -9.899   9.222  69.494  1.00  0.00    -0.188 A  
ATOM     16  HH  TYR A   1     -11.888  11.787  71.706  1.00  0.00     0.000 HD 
ENDBRANCH   8   9
ENDBRANCH   2   8
TORSDOF 2
ENDMDL
MODEL      187
REMARK 921   NORMALIZED FREE ENERGY PREDICTED BY IDOCK:   -2.52 KCAL/MOL
REMARK 922        TOTAL FREE ENERGY PREDICTED BY IDOCK:   -2.97 KCAL/MOL
REMARK 923 INTER-LIGAND FREE ENERGY PREDICTED BY IDOCK:   -2.76 KCAL/MOL
REMARK 924 INTRA-LIGAND FREE ENERGY PREDICTED BY IDOCK:   -0.20 KCAL/MOL
REMARK 927      BINDING AFFINITY PREDICTED BY RF-SCORE:    0.00 PKD
ROOT
ATOM      1  N   TYR A   1     -11.274   5.084  65.528  1.00  0.00    -0.832 NA 
ATOM      2  CA  TYR A   1     -10.368   5.295  66.703  1.00  0.00    -0.283 C  
ATOM      3  H1  TYR A   1     -10.782   4.831  64.670  1.00  0.00     0.000 HD 
ATOM      4  H2  TYR A   1     -11.863   5.903  65.376  1.00  0.00     0.000 HD 
ATOM      5  C   TYR A   1      -9.566   4.000  66.911  1.00  0.00    -0.207 C  
ATOM      6  OXT TYR A   1      -9.004   3.664  67.942  1.00  0.00    -0.108 OA 
ATOM      7  O   TYR A   1      -9.529   3.264  65.768  1.00  0.00    -0.155 OA 
ENDROOT
BRANCH   2   8
ATOM      8  CB  TYR A   1     -11.109   5.677  67.996  1.00  0.00     0.202 C  
BRANCH   8   9
ATOM      9  CG  TYR A   1     -10.345   6.662  68.849  1.00  0.00    -0.216 A  
ATOM     10  CD1 TYR A   1      -9.821   7.837  68.290  1.00  0.00    -0.185 A  
ATOM     11  CE1 TYR A   1      -9.085   8.731  69.073  1.00  0.00    -0.141 A  
ATOM     12  CZ  TYR A   1      -8.879   8.451  70.418  1.00  0.00    -0.146 A  
ATOM     13  OH  TYR A   1      -8.158   9.289  71.217  1.00  0.00    -0.320 OA 
ATOM     14  CE2 TYR A   1      -9.400   7.299  70.994  1.00  0.00    -0.158 A  
ATOM     15  CD2 TYR A   1     -10.130   6.403  70.211  1.00  0.00    -0.216 A  
ATOM     16  HH  TYR A   1      -8.017   9.098  72.136  1.00  0.00     0.000 HD 
ENDBRANCH   8   9
ENDBRANCH   2   8
TORSDOF 2
ENDMDL
MODEL      188
REMARK 921   NORMALIZED FREE ENERGY PREDICTED BY IDOCK:   -2.43 KCAL/MOL
REMARK 922        TOTAL FREE ENERGY PREDICTED BY IDOCK:   -2.87 KCAL/MOL
REMARK 923 INTER-LIGAND FREE ENERGY PREDICTED BY IDOCK:   -2.93 KCAL/MOL
REMARK 924 INTRA-LIGAND FREE ENERGY PREDICTED BY IDOCK:    0.06 KCAL/MOL
REMARK 927      BINDING AFFINITY PREDICTED BY RF-SCORE:    0.00 PKD
ROOT
ATOM      1  N   TYR A   1      -7.977   6.103  71.259  1.00  0.00    -0.111 NA 
ATOM      2  CA  TYR A   1      -8.689   4.940  70.638  1.00  0.00    -0.116 C  
ATOM      3  H1  TYR A   1      -6.960   6.017  71.245  1.00  0.00     0.000 HD 
ATOM      4  H2  TYR A   1      -8.311   6.263  72.210  1.00  0.00     0.000 HD 
ATOM      5  C   TYR A   1      -8.186   4.804  69.192  1.00  0.00    -0.081 C  
ATOM      6  OXT TYR A   1      -8.762   4.223  68.285  1.00  0.00    -0.093 OA 
ATOM      7  O   TYR A   1      -6.972   5.400  69.043  1.00  0.00    -0.053 OA 
ENDROOT
BRANCH   2   8
ATOM      8  CB  TYR A   1     -10.222   5.070  70.659  1.00  0.00    -0.306 C  
BRANCH   8   9
ATOM      9  CG  TYR A   1     -10.695   6.489  70.879  1.00  0.00    -0.289 A  
ATOM     10  CD1 TYR A   1     -10.484   7.471  69.900  1.00  0.00    -0.232 A  
ATOM     11  CE1 TYR A   1     -10.890   8.791  70.119  1.00  0.00    -0.241 A  
ATOM     12  CZ  TYR A   1     -11.514   9.124  71.316  1.00  0.00    -0.335 A  
ATOM     13  OH  TYR A   1     -11.918  10.401  71.575  1.00  0.00    -0.333 OA 
ATOM     14  CE2 TYR A   1     -11.743   8.162  72.291  1.00  0.00    -0.439 A  
ATOM     15  CD2 TYR A   1     -11.332   6.846  72.076  1.00  0.00    -0.301 A  
ATOM     16  HH  TYR A   1     -12.344  10.628  72.393  1.00  0.00     0.000 HD 
ENDBRANCH   8   9
ENDBRANCH   2   8
TORSDOF 2
ENDMDL
MODEL      189
REMARK 921   NORMALIZED FREE ENERGY PREDICTED BY IDOCK:   -2.43 KCAL/MOL
REMARK 922        TOTAL FREE ENERGY PREDICTED BY IDOCK:   -2.87 KCAL/MOL
REMARK 923 INTER-LIGAND FREE ENERGY PREDICTED BY IDOCK:   -2.65 KCAL/MOL
REMARK 924 INTRA-LIGAND FREE ENERGY PREDICTED BY IDOCK:   -0.22 KCAL/MOL
REMARK 927      BINDING AFFINITY PREDICTED BY RF-SCORE:    0.00 PKD
ROOT
ATOM      1  N   TYR A   1     -11.401   4.562  65.168  1.00  0.00    -1.113 NA 
ATOM      2  CA  TYR A   1     -10.035   4.806  65.734  1.00  0.00    -0.207 C  
ATOM      3  H1  TYR A   1     -11.422   4.524  64.148  1.00  0.00     0.000 HD 
ATOM      4  H2  TYR A   1     -12.063   5.255  65.516  1.00  0.00     0.000 HD 
ATOM      5  C   TYR A   1      -9.112   3.688  65.222  1.00  0.00    -0.145 C  
ATOM      6  OXT TYR A   1      -8.052   3.349  65.725  1.00  0.00    -0.092 OA 
ATOM      7  O   TYR A   1      -9.615   3.124  64.091  1.00  0.00    -0.131 OA 
ENDROOT
BRANCH   2   8
ATOM      8  CB  TYR A   1     -10.003   4.862  67.271  1.00  0.00    -0.220 C  
BRANCH   8   9
ATOM      9  CG  TYR A   1      -9.127   5.972  67.806  1.00  0.00    -0.109 A  
ATOM     10  CD1 TYR A   1      -8.610   5.910  69.109  1.00  0.00    -0.115 A  
ATOM     11  CE1 TYR A   1      -7.830   6.953  69.614  1.00  0.00    -0.119 A  
ATOM     12  CZ  TYR A   1      -7.561   8.056  68.812  1.00  0.00    -0.103 A  
ATOM     13  OH  TYR A   1      -6.813   9.101  69.268  1.00  0.00    -0.048 OA 
ATOM     14  CE2 TYR A   1      -8.053   8.130  67.516  1.00  0.00    -0.123 A  
ATOM     15  CD2 TYR A   1      -8.838   7.091  67.012  1.00  0.00    -0.124 A  
ATOM     16  HH  TYR A   1      -6.630   9.855  68.721  1.00  0.00     0.000 HD 
ENDBRANCH   8   9
ENDBRANCH   2   8
TORSDOF 2
ENDMDL
MODEL      190
REMARK 921   NORMALIZED FREE ENERGY PREDICTED BY IDOCK:   -2.35 KCAL/MOL
REMARK 922        TOTAL FREE ENERGY PREDICTED BY IDOCK:   -2.78 KCAL/MOL
REMARK 923 INTER-LIGAND FREE ENERGY PREDICTED BY IDOCK:   -2.60 KCAL/MOL
REMARK 924 INTRA-LIGAND FREE ENERGY PREDICTED BY IDOCK:   -0.18 KCAL/MOL
REMARK 927      BINDING AFFINITY PREDICTED BY RF-SCORE:    0.00 PKD
ROOT
ATOM      1  N   TYR A   1     -11.330   7.622  70.891  1.00  0.00    -0.273 NA 
ATOM      2  CA  TYR A   1     -10.138   6.744  70.654  1.00  0.00    -0.187 C  
ATOM      3  H1  TYR A   1     -12.148   7.119  71.237  1.00  0.00     0.000 HD 
ATOM      4  H2  TYR A   1     -11.561   8.149  70.049  1.00  0.00     0.000 HD 
ATOM      5  C   TYR A   1      -9.809   6.038  71.979  1.00  0.00    -0.156 C  
ATOM      6  OXT TYR A   1      -8.736   5.535  72.275  1.00  0.00    -0.128 OA 
ATOM      7  O   TYR A   1     -10.895   6.013  72.797  1.00  0.00    -0.223 OA 
ENDROOT
BRANCH   2   8
ATOM      8  CB  TYR A   1      -8.905   7.501  70.132  1.00  0.00    -0.147 C  
BRANCH   8   9
ATOM      9  CG  TYR A   1      -9.092   8.047  68.735  1.00  0.00    -0.144 A  
ATOM     10  CD1 TYR A   1      -9.137   9.431  68.508  1.00  0.00    -0.131 A  
ATOM     11  CE1 TYR A   1      -9.345   9.934  67.221  1.00  0.00    -0.167 A  
ATOM     12  CZ  TYR A   1      -9.499   9.051  66.159  1.00  0.00    -0.253 A  
ATOM     13  OH  TYR A   1      -9.713   9.497  64.888  1.00  0.00    -0.444 OA 
ATOM     14  CE2 TYR A   1      -9.444   7.677  66.361  1.00  0.00    -0.224 A  
ATOM     15  CD2 TYR A   1      -9.243   7.174  67.648  1.00  0.00    -0.127 A  
ATOM     16  HH  TYR A   1      -9.819   8.894  64.163  1.00  0.00     0.000 HD 
ENDBRANCH   8   9
ENDBRANCH   2   8
TORSDOF 2
ENDMDL
MODEL      191
REMARK 921   NORMALIZED FREE ENERGY PREDICTED BY IDOCK:   -2.26 KCAL/MOL
REMARK 922        TOTAL FREE ENERGY PREDICTED BY IDOCK:   -2.68 KCAL/MOL
REMARK 923 INTER-LIGAND FREE ENERGY PREDICTED BY IDOCK:   -2.48 KCAL/MOL
REMARK 924 INTRA-LIGAND FREE ENERGY PREDICTED BY IDOCK:   -0.20 KCAL/MOL
REMARK 927      BINDING AFFINITY PREDICTED BY RF-SCORE:    0.00 PKD
ROOT
ATOM      1  N   TYR A   1     -11.676   7.771  70.907  1.00  0.00    -0.335 NA 
ATOM      2  CA  TYR A   1     -10.914   6.556  70.470  1.00  0.00    -0.294 C  
ATOM      3  H1  TYR A   1     -12.628   7.570  71.216  1.00  0.00     0.000 HD 
ATOM      4  H2  TYR A   1     -11.677   8.478  70.173  1.00  0.00     0.000 HD 
ATOM      5  C   TYR A   1     -10.896   5.569  71.647  1.00  0.00    -0.204 C  
ATOM      6  OXT TYR A   1     -10.104   4.652  71.800  1.00  0.00    -0.185 OA 
ATOM      7  O   TYR A   1     -11.915   5.825  72.511  1.00  0.00    -0.275 OA 
ENDROOT
BRANCH   2   8
ATOM      8  CB  TYR A   1      -9.479   6.859  70.005  1.00  0.00    -0.158 C  
BRANCH   8   9
ATOM      9  CG  TYR A   1      -9.265   6.599  68.532  1.00  0.00    -0.127 A  
ATOM     10  CD1 TYR A   1      -7.969   6.508  68.003  1.00  0.00    -0.109 A  
ATOM     11  CE1 TYR A   1      -7.772   6.303  66.635  1.00  0.00    -0.100 A  
ATOM     12  CZ  TYR A   1      -8.874   6.180  65.797  1.00  0.00    -0.124 A  
ATOM     13  OH  TYR A   1      -8.728   5.989  64.455  1.00  0.00    -0.350 OA 
ATOM     14  CE2 TYR A   1     -10.165   6.254  66.304  1.00  0.00     0.021 A  
ATOM     15  CD2 TYR A   1     -10.362   6.466  67.669  1.00  0.00    -0.243 A  
ATOM     16  HH  TYR A   1      -9.481   5.905  63.882  1.00  0.00     0.000 HD 
ENDBRANCH   8   9
ENDBRANCH   2   8
TORSDOF 2
ENDMDL
MODEL      192
REMARK 921   NORMALIZED FREE ENERGY PREDICTED BY IDOCK:   -2.24 KCAL/MOL
REMARK 922        TOTAL FREE ENERGY PREDICTED BY IDOCK:   -2.66 KCAL/MOL
REMARK 923 INTER-LIGAND FREE ENERGY PREDICTED BY IDOCK:   -2.62 KCAL/MOL
REMARK 924 INTRA-LIGAND FREE ENERGY PREDICTED BY IDOCK:   -0.04 KCAL/MOL
REMARK 927      BINDING AFFINITY PREDICTED BY RF-SCORE:    0.00 PKD
ROOT
ATOM      1  N   TYR A   1     -11.509   7.267  70.666  1.00  0.00    -0.290 NA 
ATOM      2  CA  TYR A   1     -10.912   5.937  70.317  1.00  0.00    -0.320 C  
ATOM      3  H1  TYR A   1     -12.383   7.201  71.190  1.00  0.00     0.000 HD 
ATOM      4  H2  TYR A   1     -11.634   7.835  69.828  1.00  0.00     0.000 HD 
ATOM      5  C   TYR A   1     -10.690   5.168  71.629  1.00  0.00    -0.111 C  
ATOM      6  OXT TYR A   1      -9.925   4.229  71.788  1.00  0.00    -0.178 OA 
ATOM      7  O   TYR A   1     -11.492   5.652  72.616  1.00  0.00    -0.296 OA 
ENDROOT
BRANCH   2   8
ATOM      8  CB  TYR A   1      -9.596   6.037  69.528  1.00  0.00    -0.171 C  
BRANCH   8   9
ATOM      9  CG  TYR A   1      -8.895   7.363  69.708  1.00  0.00    -0.141 A  
ATOM     10  CD1 TYR A   1      -8.118   7.612  70.849  1.00  0.00    -0.103 A  
ATOM     11  CE1 TYR A   1      -7.498   8.851  71.032  1.00  0.00    -0.124 A  
ATOM     12  CZ  TYR A   1      -7.651   9.840  70.067  1.00  0.00    -0.163 A  
ATOM     13  OH  TYR A   1      -7.073  11.067  70.209  1.00  0.00    -0.468 OA 
ATOM     14  CE2 TYR A   1      -8.406   9.609  68.924  1.00  0.00    -0.116 A  
ATOM     15  CD2 TYR A   1      -9.030   8.373  68.745  1.00  0.00    -0.140 A  
ATOM     16  HH  TYR A   1      -7.178  11.743  69.550  1.00  0.00     0.000 HD 
ENDBRANCH   8   9
ENDBRANCH   2   8
TORSDOF 2
ENDMDL
MODEL      193
REMARK 921   NORMALIZED FREE ENERGY PREDICTED BY IDOCK:   -2.21 KCAL/MOL
REMARK 922        TOTAL FREE ENERGY PREDICTED BY IDOCK:   -2.62 KCAL/MOL
REMARK 923 INTER-LIGAND FREE ENERGY PREDICTED BY IDOCK:   -2.71 KCAL/MOL
REMARK 924 INTRA-LIGAND FREE ENERGY PREDICTED BY IDOCK:    0.08 KCAL/MOL
REMARK 927      BINDING AFFINITY PREDICTED BY RF-SCORE:    0.00 PKD
ROOT
ATOM      1  N   TYR A   1      -7.714   9.673  68.766  1.00  0.00    -0.079 NA 
ATOM      2  CA  TYR A   1      -9.100  10.212  68.960  1.00  0.00    -0.173 C  
ATOM      3  H1  TYR A   1      -7.070   9.915  69.520  1.00  0.00     0.000 HD 
ATOM      4  H2  TYR A   1      -7.338   9.964  67.863  1.00  0.00     0.000 HD 
ATOM      5  C   TYR A   1      -9.624   9.677  70.302  1.00  0.00    -0.254 C  
ATOM      6  OXT TYR A   1     -10.797   9.604  70.634  1.00  0.00    -0.270 OA 
ATOM      7  O   TYR A   1      -8.595   9.310  71.112  1.00  0.00    -0.281 OA 
ENDROOT
BRANCH   2   8
ATOM      8  CB  TYR A   1     -10.070   9.846  67.824  1.00  0.00    -0.221 C  
BRANCH   8   9
ATOM      9  CG  TYR A   1      -9.843   8.458  67.272  1.00  0.00    -0.264 A  
ATOM     10  CD1 TYR A   1     -10.579   7.366  67.757  1.00  0.00    -0.278 A  
ATOM     11  CE1 TYR A   1     -10.343   6.077  67.271  1.00  0.00    -0.275 A  
ATOM     12  CZ  TYR A   1      -9.375   5.883  66.293  1.00  0.00    -0.152 A  
ATOM     13  OH  TYR A   1      -9.104   4.641  65.797  1.00  0.00    -0.128 OA 
ATOM     14  CE2 TYR A   1      -8.645   6.953  65.791  1.00  0.00    -0.139 A  
ATOM     15  CD2 TYR A   1      -8.875   8.239  66.281  1.00  0.00    -0.192 A  
ATOM     16  HH  TYR A   1      -8.443   4.508  65.129  1.00  0.00     0.000 HD 
ENDBRANCH   8   9
ENDBRANCH   2   8
TORSDOF 2
ENDMDL
MODEL      194
REMARK 921   NORMALIZED FREE ENERGY PREDICTED BY IDOCK:   -2.21 KCAL/MOL
REMARK 922        TOTAL FREE ENERGY PREDICTED BY IDOCK:   -2.62 KCAL/MOL
REMARK 923 INTER-LIGAND FREE ENERGY PREDICTED BY IDOCK:   -3.78 KCAL/MOL
REMARK 924 INTRA-LIGAND FREE ENERGY PREDICTED BY IDOCK:    1.16 KCAL/MOL
REMARK 927      BINDING AFFINITY PREDICTED BY RF-SCORE:    0.00 PKD
ROOT
ATOM      1  N   TYR A   1     -11.367  15.228  66.394  1.00  0.00    -0.231 NA 
ATOM      2  CA  TYR A   1     -10.250  15.444  67.370  1.00  0.00    -0.249 C  
ATOM      3  H1  TYR A   1     -11.096  14.688  65.572  1.00  0.00     0.000 HD 
ATOM      4  H2  TYR A   1     -11.782  16.119  66.120  1.00  0.00     0.000 HD 
ATOM      5  C   TYR A   1      -9.724  14.062  67.788  1.00  0.00    -0.228 C  
ATOM      6  OXT TYR A   1      -9.080  13.817  68.797  1.00  0.00    -0.108 OA 
ATOM      7  O   TYR A   1     -10.044  13.120  66.860  1.00  0.00    -0.238 OA 
ENDROOT
BRANCH   2   8
ATOM      8  CB  TYR A   1     -10.658  16.258  68.609  1.00  0.00    -0.297 C  
BRANCH   8   9
ATOM      9  CG  TYR A   1     -11.380  15.432  69.650  1.00  0.00    -0.315 A  
ATOM     10  CD1 TYR A   1     -12.210  14.368  69.268  1.00  0.00    -0.274 A  
ATOM     11  CE1 TYR A   1     -12.904  13.627  70.229  1.00  0.00    -0.053 A  
ATOM     12  CZ  TYR A   1     -12.759  13.948  71.574  1.00  0.00    -0.357 A  
ATOM     13  OH  TYR A   1     -13.425  13.258  72.545  1.00  0.00    -0.573 OA 
ATOM     14  CE2 TYR A   1     -11.931  14.989  71.973  1.00  0.00    -0.464 A  
ATOM     15  CD2 TYR A   1     -11.243  15.733  71.013  1.00  0.00    -0.396 A  
ATOM     16  HH  TYR A   1     -13.326  13.477  73.463  1.00  0.00     0.000 HD 
ENDBRANCH   8   9
ENDBRANCH   2   8
TORSDOF 2
ENDMDL
MODEL      195
REMARK 921   NORMALIZED FREE ENERGY PREDICTED BY IDOCK:   -2.19 KCAL/MOL
REMARK 922        TOTAL FREE ENERGY PREDICTED BY IDOCK:   -2.60 KCAL/MOL
REMARK 923 INTER-LIGAND FREE ENERGY PREDICTED BY IDOCK:   -2.49 KCAL/MOL
REMARK 924 INTRA-LIGAND FREE ENERGY PREDICTED BY IDOCK:   -0.11 KCAL/MOL
REMARK 927      BINDING AFFINITY PREDICTED BY RF-SCORE:    0.00 PKD
ROOT
ATOM      1  N   TYR A   1      -7.205  14.108  69.667  1.00  0.00    -0.352 NA 
ATOM      2  CA  TYR A   1      -7.434  14.084  68.186  1.00  0.00    -0.131 C  
ATOM      3  H1  TYR A   1      -6.247  14.342  69.931  1.00  0.00     0.000 HD 
ATOM      4  H2  TYR A   1      -7.490  13.225  70.089  1.00  0.00     0.000 HD 
ATOM      5  C   TYR A   1      -7.050  15.465  67.633  1.00  0.00    -0.180 C  
ATOM      6  OXT TYR A   1      -7.417  15.937  66.567  1.00  0.00    -0.146 OA 
ATOM      7  O   TYR A   1      -6.203  16.109  68.481  1.00  0.00    -0.112 OA 
ENDROOT
BRANCH   2   8
ATOM      8  CB  TYR A   1      -8.878  13.732  67.788  1.00  0.00    -0.188 C  
BRANCH   8   9
ATOM      9  CG  TYR A   1      -9.055  12.276  67.425  1.00  0.00    -0.184 A  
ATOM     10  CD1 TYR A   1      -9.631  11.910  66.199  1.00  0.00    -0.250 A  
ATOM     11  CE1 TYR A   1      -9.827  10.564  65.879  1.00  0.00    -0.291 A  
ATOM     12  CZ  TYR A   1      -9.439   9.583  66.784  1.00  0.00    -0.167 A  
ATOM     13  OH  TYR A   1      -9.620   8.258  66.518  1.00  0.00    -0.209 OA 
ATOM     14  CE2 TYR A   1      -8.855   9.925  67.997  1.00  0.00    -0.125 A  
ATOM     15  CD2 TYR A   1      -8.665  11.270  68.320  1.00  0.00    -0.158 A  
ATOM     16  HH  TYR A   1      -9.355   7.588  67.136  1.00  0.00     0.000 HD 
ENDBRANCH   8   9
ENDBRANCH   2   8
TORSDOF 2
ENDMDL
MODEL      196
REMARK 921   NORMALIZED FREE ENERGY PREDICTED BY IDOCK:   -2.16 KCAL/MOL
REMARK 922        TOTAL FREE ENERGY PREDICTED BY IDOCK:   -2.56 KCAL/MOL
REMARK 923 INTER-LIGAND FREE ENERGY PREDICTED BY IDOCK:   -2.36 KCAL/MOL
REMARK 924 INTRA-LIGAND FREE ENERGY PREDICTED BY IDOCK:   -0.20 KCAL/MOL
REMARK 927      BINDING AFFINITY PREDICTED BY RF-SCORE:    0.00 PKD
ROOT
ATOM      1  N   TYR A   1     -10.190   7.695  66.311  1.00  0.00    -0.445 NA 
ATOM      2  CA  TYR A   1      -9.451   7.382  67.577  1.00  0.00    -0.138 C  
ATOM      3  H1  TYR A   1     -10.646   8.608  66.317  1.00  0.00     0.000 HD 
ATOM      4  H2  TYR A   1     -10.861   6.959  66.095  1.00  0.00     0.000 HD 
ATOM      5  C   TYR A   1      -8.414   8.495  67.799  1.00  0.00    -0.130 C  
ATOM      6  OXT TYR A   1      -7.418   8.415  68.501  1.00  0.00    -0.091 OA 
ATOM      7  O   TYR A   1      -8.763   9.623  67.124  1.00  0.00    -0.131 OA 
ENDROOT
BRANCH   2   8
ATOM      8  CB  TYR A   1      -8.763   6.006  67.568  1.00  0.00    -0.107 C  
BRANCH   8   9
ATOM      9  CG  TYR A   1      -9.101   5.165  68.777  1.00  0.00    -0.140 A  
ATOM     10  CD1 TYR A   1      -9.413   5.770  70.004  1.00  0.00    -0.193 A  
ATOM     11  CE1 TYR A   1      -9.692   4.991  71.130  1.00  0.00    -0.241 A  
ATOM     12  CZ  TYR A   1      -9.665   3.605  71.026  1.00  0.00    -0.173 A  
ATOM     13  OH  TYR A   1      -9.921   2.806  72.101  1.00  0.00    -0.160 OA 
ATOM     14  CE2 TYR A   1      -9.372   2.988  69.817  1.00  0.00    -0.215 A  
ATOM     15  CD2 TYR A   1      -9.087   3.765  68.693  1.00  0.00    -0.198 A  
ATOM     16  HH  TYR A   1      -9.903   1.860  72.030  1.00  0.00     0.000 HD 
ENDBRANCH   8   9
ENDBRANCH   2   8
TORSDOF 2
ENDMDL
MODEL      197
REMARK 921   NORMALIZED FREE ENERGY PREDICTED BY IDOCK:   -2.14 KCAL/MOL
REMARK 922        TOTAL FREE ENERGY PREDICTED BY IDOCK:   -2.54 KCAL/MOL
REMARK 923 INTER-LIGAND FREE ENERGY PREDICTED BY IDOCK:   -2.42 KCAL/MOL
REMARK 924 INTRA-LIGAND FREE ENERGY PREDICTED BY IDOCK:   -0.13 KCAL/MOL
REMARK 927      BINDING AFFINITY PREDICTED BY RF-SCORE:    0.00 PKD
ROOT
ATOM      1  N   TYR A   1      -8.279   9.483  68.156  1.00  0.00    -0.113 NA 
ATOM      2  CA  TYR A   1      -9.678   9.809  68.584  1.00  0.00    -0.155 C  
ATOM      3  H1  TYR A   1      -8.202   9.212  67.174  1.00  0.00     0.000 HD 
ATOM      4  H2  TYR A   1      -7.875   8.767  68.759  1.00  0.00     0.000 HD 
ATOM      5  C   TYR A   1     -10.191  10.938  67.677  1.00  0.00    -0.183 C  
ATOM      6  OXT TYR A   1     -11.118  11.693  67.929  1.00  0.00    -0.214 OA 
ATOM      7  O   TYR A   1      -9.490  10.981  66.512  1.00  0.00    -0.180 OA 
ENDROOT
BRANCH   2   8
ATOM      8  CB  TYR A   1      -9.793  10.217  70.062  1.00  0.00    -0.082 C  
BRANCH   8   9
ATOM      9  CG  TYR A   1      -9.617   9.056  71.014  1.00  0.00    -0.348 A  
ATOM     10  CD1 TYR A   1     -10.698   8.222  71.333  1.00  0.00    -0.282 A  
ATOM     11  CE1 TYR A   1     -10.542   7.170  72.240  1.00  0.00    -0.244 A  
ATOM     12  CZ  TYR A   1      -9.300   6.949  72.823  1.00  0.00    -0.135 A  
ATOM     13  OH  TYR A   1      -9.105   5.941  73.720  1.00  0.00    -0.127 OA 
ATOM     14  CE2 TYR A   1      -8.213   7.756  72.510  1.00  0.00    -0.165 A  
ATOM     15  CD2 TYR A   1      -8.370   8.811  71.609  1.00  0.00    -0.190 A  
ATOM     16  HH  TYR A   1      -8.256   5.791  74.118  1.00  0.00     0.000 HD 
ENDBRANCH   8   9
ENDBRANCH   2   8
TORSDOF 2
ENDMDL
MODEL      198
REMARK 921   NORMALIZED FREE ENERGY PREDICTED BY IDOCK:   -1.99 KCAL/MOL
REMARK 922        TOTAL FREE ENERGY PREDICTED BY IDOCK:   -2.38 KCAL/MOL
REMARK 923 INTER-LIGAND FREE ENERGY PREDICTED BY IDOCK:   -2.46 KCAL/MOL
REMARK 924 INTRA-LIGAND FREE ENERGY PREDICTED BY IDOCK:    0.08 KCAL/MOL
REMARK 927      BINDING AFFINITY PREDICTED BY RF-SCORE:    0.00 PKD
ROOT
ATOM      1  N   TYR A   1      -8.054   9.089  67.614  1.00  0.00    -0.108 NA 
ATOM      2  CA  TYR A   1      -8.403   8.859  66.175  1.00  0.00    -0.122 C  
ATOM      3  H1  TYR A   1      -7.526   9.948  67.777  1.00  0.00     0.000 HD 
ATOM      4  H2  TYR A   1      -7.559   8.284  67.998  1.00  0.00     0.000 HD 
ATOM      5  C   TYR A   1      -9.204  10.078  65.690  1.00  0.00    -0.186 C  
ATOM      6  OXT TYR A   1      -9.943  10.108  64.718  1.00  0.00    -0.331 OA 
ATOM      7  O   TYR A   1      -8.962  11.161  66.476  1.00  0.00    -0.167 OA 
ENDROOT
BRANCH   2   8
ATOM      8  CB  TYR A   1      -9.199   7.566  65.930  1.00  0.00    -0.034 C  
BRANCH   8   9
ATOM      9  CG  TYR A   1      -9.430   6.763  67.190  1.00  0.00    -0.167 A  
ATOM     10  CD1 TYR A   1      -8.425   5.927  67.698  1.00  0.00    -0.103 A  
ATOM     11  CE1 TYR A   1      -8.652   5.158  68.843  1.00  0.00    -0.092 A  
ATOM     12  CZ  TYR A   1      -9.883   5.234  69.484  1.00  0.00    -0.200 A  
ATOM     13  OH  TYR A   1     -10.152   4.494  70.598  1.00  0.00    -0.216 OA 
ATOM     14  CE2 TYR A   1     -10.886   6.066  69.003  1.00  0.00    -0.412 A  
ATOM     15  CD2 TYR A   1     -10.662   6.829  67.856  1.00  0.00    -0.320 A  
ATOM     16  HH  TYR A   1     -10.993   4.546  71.035  1.00  0.00     0.000 HD 
ENDBRANCH   8   9
ENDBRANCH   2   8
TORSDOF 2
ENDMDL
MODEL      199
REMARK 921   NORMALIZED FREE ENERGY PREDICTED BY IDOCK:   -1.98 KCAL/MOL
REMARK 922        TOTAL FREE ENERGY PREDICTED BY IDOCK:   -2.37 KCAL/MOL
REMARK 923 INTER-LIGAND FREE ENERGY PREDICTED BY IDOCK:   -2.44 KCAL/MOL
REMARK 924 INTRA-LIGAND FREE ENERGY PREDICTED BY IDOCK:    0.07 KCAL/MOL
REMARK 927      BINDING AFFINITY PREDICTED BY RF-SCORE:    0.00 PKD
ROOT
ATOM      1  N   TYR A   1     -12.087   5.715  73.017  1.00  0.00    -0.479 NA 
ATOM      2  CA  TYR A   1     -11.770   7.179  72.988  1.00  0.00     0.150 C  
ATOM      3  H1  TYR A   1     -13.087   5.510  73.012  1.00  0.00     0.000 HD 
ATOM      4  H2  TYR A   1     -11.631   5.263  73.810  1.00  0.00     0.000 HD 
ATOM      5  C   TYR A   1     -12.430   7.774  71.734  1.00  0.00    -0.320 C  
ATOM      6  OXT TYR A   1     -12.119   8.823  71.191  1.00  0.00    -0.291 OA 
ATOM      7  O   TYR A   1     -13.453   6.986  71.305  1.00  0.00    -0.333 OA 
ENDROOT
BRANCH   2   8
ATOM      8  CB  TYR A   1     -10.263   7.487  72.995  1.00  0.00    -0.360 C  
BRANCH   8   9
ATOM      9  CG  TYR A   1      -9.457   6.524  72.153  1.00  0.00    -0.148 A  
ATOM     10  CD1 TYR A   1      -8.544   5.643  72.751  1.00  0.00    -0.119 A  
ATOM     11  CE1 TYR A   1      -7.774   4.777  71.969  1.00  0.00    -0.095 A  
ATOM     12  CZ  TYR A   1      -7.924   4.789  70.588  1.00  0.00    -0.073 A  
ATOM     13  OH  TYR A   1      -7.187   3.969  69.785  1.00  0.00    -0.042 OA 
ATOM     14  CE2 TYR A   1      -8.833   5.644  69.978  1.00  0.00    -0.136 A  
ATOM     15  CD2 TYR A   1      -9.597   6.513  70.758  1.00  0.00    -0.190 A  
ATOM     16  HH  TYR A   1      -7.290   3.976  68.842  1.00  0.00     0.000 HD 
ENDBRANCH   8   9
ENDBRANCH   2   8
TORSDOF 2
ENDMDL
MODEL      200
REMARK 921   NORMALIZED FREE ENERGY PREDICTED BY IDOCK:   -1.95 KCAL/MOL
REMARK 922        TOTAL FREE ENERGY PREDICTED BY IDOCK:   -2.33 KCAL/MOL
REMARK 923 INTER-LIGAND FREE ENERGY PREDICTED BY IDOCK:   -2.11 KCAL/MOL
REMARK 924 INTRA-LIGAND FREE ENERGY PREDICTED BY IDOCK:   -0.22 KCAL/MOL
REMARK 927      BINDING AFFINITY PREDICTED BY RF-SCORE:    0.00 PKD
ROOT
ATOM      1  N   TYR A   1      -7.338   9.874  67.708  1.00  0.00    -0.088 NA 
ATOM      2  CA  TYR A   1      -7.965   9.209  66.520  1.00  0.00    -0.100 C  
ATOM      3  H1  TYR A   1      -6.445  10.326  67.503  1.00  0.00     0.000 HD 
ATOM      4  H2  TYR A   1      -7.238   9.214  68.479  1.00  0.00     0.000 HD 
ATOM      5  C   TYR A   1      -8.146  10.278  65.431  1.00  0.00    -0.147 C  
ATOM      6  OXT TYR A   1      -8.915  10.212  64.485  1.00  0.00    -0.183 OA 
ATOM      7  O   TYR A   1      -7.300  11.325  65.633  1.00  0.00     0.159 OA 
ENDROOT
BRANCH   2   8
ATOM      8  CB  TYR A   1      -9.309   8.529  66.829  1.00  0.00    -0.232 C  
BRANCH   8   9
ATOM      9  CG  TYR A   1      -9.342   7.072  66.431  1.00  0.00    -0.182 A  
ATOM     10  CD1 TYR A   1      -8.425   6.564  65.499  1.00  0.00    -0.139 A  
ATOM     11  CE1 TYR A   1      -8.479   5.224  65.105  1.00  0.00    -0.149 A  
ATOM     12  CZ  TYR A   1      -9.447   4.390  65.651  1.00  0.00    -0.175 A  
ATOM     13  OH  TYR A   1      -9.543   3.079  65.288  1.00  0.00    -0.291 OA 
ATOM     14  CE2 TYR A   1     -10.356   4.871  66.585  1.00  0.00    -0.285 A  
ATOM     15  CD2 TYR A   1     -10.307   6.211  66.974  1.00  0.00    -0.295 A  
ATOM     16  HH  TYR A   1     -10.205   2.510  65.660  1.00  0.00     0.000 HD 
ENDBRANCH   8   9
ENDBRANCH   2   8
TORSDOF 2
ENDMDL
MODEL      201
REMARK 921   NORMALIZED FREE ENERGY PREDICTED BY IDOCK:   -1.56 KCAL/MOL
REMARK 922        TOTAL FREE ENERGY PREDICTED BY IDOCK:   -1.89 KCAL/MOL
REMARK 923 INTER-LIGAND FREE ENERGY PREDICTED BY IDOCK:   -1.74 KCAL/MOL
REMARK 924 INTRA-LIGAND FREE ENERGY PREDICTED BY IDOCK:   -0.15 KCAL/MOL
REMARK 927      BINDING AFFINITY PREDICTED BY RF-SCORE:    0.00 PKD
ROOT
ATOM      1  N   TYR A   1      -7.503   9.207  67.880  1.00  0.00    -0.084 NA 
ATOM      2  CA  TYR A   1      -8.752   8.478  68.276  1.00  0.00    -0.143 C  
ATOM      3  H1  TYR A   1      -7.099   8.882  67.000  1.00  0.00     0.000 HD 
ATOM      4  H2  TYR A   1      -6.812   9.169  68.629  1.00  0.00     0.000 HD 
ATOM      5  C   TYR A   1      -9.766   8.636  67.132  1.00  0.00    -0.190 C  
ATOM      6  OXT TYR A   1     -10.976   8.494  67.223  1.00  0.00    -0.117 OA 
ATOM      7  O   TYR A   1      -9.137   8.934  65.964  1.00  0.00    -0.184 OA 
ENDROOT
BRANCH   2   8
ATOM      8  CB  TYR A   1      -9.360   8.967  69.601  1.00  0.00    -0.163 C  
BRANCH   8   9
ATOM      9  CG  TYR A   1      -8.777   8.277  70.813  1.00  0.00    -0.151 A  
ATOM     10  CD1 TYR A   1      -7.679   8.829  71.490  1.00  0.00    -0.139 A  
ATOM     11  CE1 TYR A   1      -7.118   8.173  72.589  1.00  0.00    -0.116 A  
ATOM     12  CZ  TYR A   1      -7.661   6.967  73.014  1.00  0.00    -0.088 A  
ATOM     13  OH  TYR A   1      -7.140   6.287  74.076  1.00  0.00    -0.086 OA 
ATOM     14  CE2 TYR A   1      -8.757   6.411  72.365  1.00  0.00    -0.120 A  
ATOM     15  CD2 TYR A   1      -9.313   7.062  71.263  1.00  0.00    -0.160 A  
ATOM     16  HH  TYR A   1      -7.511   5.463  74.366  1.00  0.00     0.000 HD 
ENDBRANCH   8   9
ENDBRANCH   2   8
TORSDOF 2
ENDMDL
MODEL      202
REMARK 921   NORMALIZED FREE ENERGY PREDICTED BY IDOCK:   -1.43 KCAL/MOL
REMARK 922        TOTAL FREE ENERGY PREDICTED BY IDOCK:   -1.75 KCAL/MOL
REMARK 923 INTER-LIGAND FREE ENERGY PREDICTED BY IDOCK:   -1.81 KCAL/MOL
REMARK 924 INTRA-LIGAND FREE ENERGY PREDICTED BY IDOCK:    0.06 KCAL/MOL
REMARK 927      BINDING AFFINITY PREDICTED BY RF-SCORE:    0.00 PKD
ROOT
ATOM      1  N   TYR A   1      -7.413   9.380  67.634  1.00  0.00    -0.087 NA 
ATOM      2  CA  TYR A   1      -8.311   8.753  66.610  1.00  0.00    -0.108 C  
ATOM      3  H1  TYR A   1      -6.802  10.104  67.255  1.00  0.00     0.000 HD 
ATOM      4  H2  TYR A   1      -6.869   8.667  68.119  1.00  0.00     0.000 HD 
ATOM      5  C   TYR A   1      -9.145   9.876  65.973  1.00  0.00    -0.158 C  
ATOM      6  OXT TYR A   1     -10.200   9.732  65.375  1.00  0.00    -0.246 OA 
ATOM      7  O   TYR A   1      -8.537  11.082  66.133  1.00  0.00    -0.169 OA 
ENDROOT
BRANCH   2   8
ATOM      8  CB  TYR A   1      -9.233   7.662  67.181  1.00  0.00    -0.158 C  
BRANCH   8   9
ATOM      9  CG  TYR A   1      -8.944   7.338  68.629  1.00  0.00    -0.128 A  
ATOM     10  CD1 TYR A   1      -9.634   7.993  69.659  1.00  0.00    -0.168 A  
ATOM     11  CE1 TYR A   1      -9.341   7.718  70.998  1.00  0.00    -0.160 A  
ATOM     12  CZ  TYR A   1      -8.361   6.781  71.304  1.00  0.00    -0.120 A  
ATOM     13  OH  TYR A   1      -8.036   6.489  72.596  1.00  0.00    -0.104 OA 
ATOM     14  CE2 TYR A   1      -7.677   6.112  70.298  1.00  0.00    -0.097 A  
ATOM     15  CD2 TYR A   1      -7.964   6.391  68.961  1.00  0.00    -0.111 A  
ATOM     16  HH  TYR A   1      -7.367   5.848  72.805  1.00  0.00     0.000 HD 
ENDBRANCH   8   9
ENDBRANCH   2   8
TORSDOF 2
ENDMDL
MODEL      203
REMARK 921   NORMALIZED FREE ENERGY PREDICTED BY IDOCK:   -1.32 KCAL/MOL
REMARK 922        TOTAL FREE ENERGY PREDICTED BY IDOCK:   -1.63 KCAL/MOL
REMARK 923 INTER-LIGAND FREE ENERGY PREDICTED BY IDOCK:   -1.71 KCAL/MOL
REMARK 924 INTRA-LIGAND FREE ENERGY PREDICTED BY IDOCK:    0.09 KCAL/MOL
REMARK 927      BINDING AFFINITY PREDICTED BY RF-SCORE:    0.00 PKD
ROOT
ATOM      1  N   TYR A   1     -12.442  14.108  67.057  1.00  0.00    -0.548 NA 
ATOM      2  CA  TYR A   1     -11.154  13.350  66.949  1.00  0.00    -0.292 C  
ATOM      3  H1  TYR A   1     -13.145  13.824  66.373  1.00  0.00     0.000 HD 
ATOM      4  H2  TYR A   1     -12.273  15.113  67.003  1.00  0.00     0.000 HD 
ATOM      5  C   TYR A   1     -11.479  11.856  67.108  1.00  0.00    -0.319 C  
ATOM      6  OXT TYR A   1     -10.687  10.981  67.423  1.00  0.00    -0.224 OA 
ATOM      7  O   TYR A   1     -12.785  11.610  66.819  1.00  0.00     1.498 OA 
ENDROOT
BRANCH   2   8
ATOM      8  CB  TYR A   1     -10.095  13.778  67.980  1.00  0.00    -0.245 C  
BRANCH   8   9
ATOM      9  CG  TYR A   1      -9.301  14.989  67.547  1.00  0.00    -0.195 A  
ATOM     10  CD1 TYR A   1      -9.923  16.044  66.863  1.00  0.00    -0.255 A  
ATOM     11  CE1 TYR A   1      -9.181  17.148  66.432  1.00  0.00    -0.285 A  
ATOM     12  CZ  TYR A   1      -7.817  17.198  66.693  1.00  0.00    -0.262 A  
ATOM     13  OH  TYR A   1      -7.053  18.250  66.283  1.00  0.00    -0.220 OA 
ATOM     14  CE2 TYR A   1      -7.186  16.169  67.381  1.00  0.00    -0.213 A  
ATOM     15  CD2 TYR A   1      -7.925  15.064  67.805  1.00  0.00    -0.155 A  
ATOM     16  HH  TYR A   1      -6.121  18.284  66.461  1.00  0.00     0.000 HD 
ENDBRANCH   8   9
ENDBRANCH   2   8
TORSDOF 2
ENDMDL
MODEL      204
REMARK 921   NORMALIZED FREE ENERGY PREDICTED BY IDOCK:   -1.20 KCAL/MOL
REMARK 922        TOTAL FREE ENERGY PREDICTED BY IDOCK:   -1.50 KCAL/MOL
REMARK 923 INTER-LIGAND FREE ENERGY PREDICTED BY IDOCK:   -2.19 KCAL/MOL
REMARK 924 INTRA-LIGAND FREE ENERGY PREDICTED BY IDOCK:    0.69 KCAL/MOL
REMARK 927      BINDING AFFINITY PREDICTED BY RF-SCORE:    0.00 PKD
ROOT
ATOM      1  N   TYR A   1      -9.888   8.611  66.007  1.00  0.00    -0.459 NA 
ATOM      2  CA  TYR A   1     -10.627   9.641  66.806  1.00  0.00    -0.139 C  
ATOM      3  H1  TYR A   1     -10.283   8.450  65.079  1.00  0.00     0.000 HD 
ATOM      4  H2  TYR A   1      -9.818   7.736  66.525  1.00  0.00     0.000 HD 
ATOM      5  C   TYR A   1     -10.632  10.946  65.994  1.00  0.00    -0.189 C  
ATOM      6  OXT TYR A   1     -10.819  12.067  66.442  1.00  0.00    -0.256 OA 
ATOM      7  O   TYR A   1     -10.428  10.695  64.673  1.00  0.00    -0.336 OA 
ENDROOT
BRANCH   2   8
ATOM      8  CB  TYR A   1     -10.032   9.885  68.203  1.00  0.00    -0.175 C  
BRANCH   8   9
ATOM      9  CG  TYR A   1      -8.742  10.671  68.170  1.00  0.00    -0.130 A  
ATOM     10  CD1 TYR A   1      -8.718  12.022  68.546  1.00  0.00    -0.095 A  
ATOM     11  CE1 TYR A   1      -7.532  12.758  68.481  1.00  0.00    -0.120 A  
ATOM     12  CZ  TYR A   1      -6.366  12.138  68.047  1.00  0.00    -0.068 A  
ATOM     13  OH  TYR A   1      -5.189  12.819  67.958  1.00  0.00    -0.074 OA 
ATOM     14  CE2 TYR A   1      -6.367  10.797  67.683  1.00  0.00    -0.056 A  
ATOM     15  CD2 TYR A   1      -7.553  10.064  67.741  1.00  0.00    -0.090 A  
ATOM     16  HH  TYR A   1      -4.393  12.396  67.661  1.00  0.00     0.000 HD 
ENDBRANCH   8   9
ENDBRANCH   2   8
TORSDOF 2
ENDMDL
MODEL      205
REMARK 921   NORMALIZED FREE ENERGY PREDICTED BY IDOCK:   -1.11 KCAL/MOL
REMARK 922        TOTAL FREE ENERGY PREDICTED BY IDOCK:   -1.40 KCAL/MOL
REMARK 923 INTER-LIGAND FREE ENERGY PREDICTED BY IDOCK:   -1.36 KCAL/MOL
REMARK 924 INTRA-LIGAND FREE ENERGY PREDICTED BY IDOCK:   -0.04 KCAL/MOL
REMARK 927      BINDING AFFINITY PREDICTED BY RF-SCORE:    0.00 PKD
ROOT
ATOM      1  N   TYR A   1      -6.862   9.417  66.338  1.00  0.00    -0.082 NA 
ATOM      2  CA  TYR A   1      -7.289   9.687  64.927  1.00  0.00    -0.118 C  
ATOM      3  H1  TYR A   1      -6.966  10.219  66.960  1.00  0.00     0.000 HD 
ATOM      4  H2  TYR A   1      -5.905   9.064  66.363  1.00  0.00     0.000 HD 
ATOM      5  C   TYR A   1      -8.756  10.147  64.965  1.00  0.00    -0.173 C  
ATOM      6  OXT TYR A   1      -9.538  10.121  64.027  1.00  0.00    -0.291 OA 
ATOM      7  O   TYR A   1      -9.081  10.628  66.195  1.00  0.00    -0.160 OA 
ENDROOT
BRANCH   2   8
ATOM      8  CB  TYR A   1      -7.133   8.478  63.990  1.00  0.00    -0.090 C  
BRANCH   8   9
ATOM      9  CG  TYR A   1      -7.236   7.152  64.709  1.00  0.00    -0.072 A  
ATOM     10  CD1 TYR A   1      -8.489   6.609  65.030  1.00  0.00    -0.007 A  
ATOM     11  CE1 TYR A   1      -8.583   5.400  65.726  1.00  0.00    -0.139 A  
ATOM     12  CZ  TYR A   1      -7.421   4.732  66.095  1.00  0.00    -0.086 A  
ATOM     13  OH  TYR A   1      -7.465   3.556  66.783  1.00  0.00    -0.074 OA 
ATOM     14  CE2 TYR A   1      -6.171   5.248  65.775  1.00  0.00    -0.034 A  
ATOM     15  CD2 TYR A   1      -6.077   6.458  65.085  1.00  0.00    -0.030 A  
ATOM     16  HH  TYR A   1      -6.671   3.100  67.035  1.00  0.00     0.000 HD 
ENDBRANCH   8   9
ENDBRANCH   2   8
TORSDOF 2
ENDMDL
MODEL      206
REMARK 921   NORMALIZED FREE ENERGY PREDICTED BY IDOCK:    2.17 KCAL/MOL
REMARK 922        TOTAL FREE ENERGY PREDICTED BY IDOCK:    2.27 KCAL/MOL
REMARK 923 INTER-LIGAND FREE ENERGY PREDICTED BY IDOCK:    1.36 KCAL/MOL
REMARK 924 INTRA-LIGAND FREE ENERGY PREDICTED BY IDOCK:    0.92 KCAL/MOL
REMARK 927      BINDING AFFINITY PREDICTED BY RF-SCORE:    0.00 PKD
ROOT
ATOM      1  N   TYR A   1      -9.823   8.916  68.597  1.00  0.00    -0.163 NA 
ATOM      2  CA  TYR A   1     -10.888   9.136  69.628  1.00  0.00    -0.197 C  
ATOM      3  H1  TYR A   1     -10.103   9.184  67.653  1.00  0.00     0.000 HD 
ATOM      4  H2  TYR A   1      -9.499   7.948  68.615  1.00  0.00     0.000 HD 
ATOM      5  C   TYR A   1     -11.274  10.623  69.588  1.00  0.00    -0.289 C  
ATOM      6  OXT TYR A   1     -11.829  11.242  70.483  1.00  0.00    -0.338 OA 
ATOM      7  O   TYR A   1     -10.941  11.178  68.392  1.00  0.00    -0.194 OA 
ENDROOT
BRANCH   2   8
ATOM      8  CB  TYR A   1     -10.465   8.732  71.051  1.00  0.00    -0.293 C  
BRANCH   8   9
ATOM      9  CG  TYR A   1      -9.079   9.212  71.417  1.00  0.00    -0.179 A  
ATOM     10  CD1 TYR A   1      -8.420  10.163  70.625  1.00  0.00     0.848 A  
ATOM     11  CE1 TYR A   1      -7.125  10.580  70.945  1.00  0.00     0.985 A  
ATOM     12  CZ  TYR A   1      -6.493  10.050  72.063  1.00  0.00     1.003 A  
ATOM     13  OH  TYR A   1      -5.227  10.421  72.407  1.00  0.00    -0.291 OA 
ATOM     14  CE2 TYR A   1      -7.135   9.117  72.868  1.00  0.00     0.564 A  
ATOM     15  CD2 TYR A   1      -8.426   8.695  72.545  1.00  0.00    -0.097 A  
ATOM     16  HH  TYR A   1      -4.795  10.059  73.171  1.00  0.00     0.000 HD 
ENDBRANCH   8   9
ENDBRANCH   2   8
TORSDOF 2
ENDMDL
MODEL      207
REMARK 921   NORMALIZED FREE ENERGY PREDICTED BY IDOCK:    3.50 KCAL/MOL
REMARK 922        TOTAL FREE ENERGY PREDICTED BY IDOCK:    3.76 KCAL/MOL
REMARK 923 INTER-LIGAND FREE ENERGY PREDICTED BY IDOCK:    1.81 KCAL/MOL
REMARK 924 INTRA-LIGAND FREE ENERGY PREDICTED BY IDOCK:    1.95 KCAL/MOL
REMARK 927      BINDING AFFINITY PREDICTED BY RF-SCORE:    0.00 PKD
ROOT
ATOM      1  N   TYR A   1     -12.107  17.735  67.579  1.00  0.00     2.380 NA 
ATOM      2  CA  TYR A   1     -11.430  17.260  68.829  1.00  0.00     0.744 C  
ATOM      3  H1  TYR A   1     -12.169  18.751  67.506  1.00  0.00     0.000 HD 
ATOM      4  H2  TYR A   1     -13.029  17.309  67.486  1.00  0.00     0.000 HD 
ATOM      5  C   TYR A   1     -10.026  17.885  68.865  1.00  0.00    -0.334 C  
ATOM      6  OXT TYR A   1      -9.077  17.476  69.515  1.00  0.00     0.274 OA 
ATOM      7  O   TYR A   1      -9.972  18.999  68.086  1.00  0.00    -0.341 OA 
ENDROOT
BRANCH   2   8
ATOM      8  CB  TYR A   1     -11.335  15.728  68.939  1.00  0.00    -0.356 C  
BRANCH   8   9
ATOM      9  CG  TYR A   1      -9.969  15.191  68.577  1.00  0.00    -0.223 A  
ATOM     10  CD1 TYR A   1      -9.325  15.607  67.403  1.00  0.00    -0.214 A  
ATOM     11  CE1 TYR A   1      -8.078  15.083  67.052  1.00  0.00    -0.225 A  
ATOM     12  CZ  TYR A   1      -7.472  14.147  67.882  1.00  0.00    -0.152 A  
ATOM     13  OH  TYR A   1      -6.261  13.602  67.574  1.00  0.00    -0.273 OA 
ATOM     14  CE2 TYR A   1      -8.088  13.733  69.056  1.00  0.00     0.168 A  
ATOM     15  CD2 TYR A   1      -9.337  14.251  69.403  1.00  0.00     0.363 A  
ATOM     16  HH  TYR A   1      -5.847  12.963  68.141  1.00  0.00     0.000 HD 
ENDBRANCH   8   9
ENDBRANCH   2   8
TORSDOF 2
ENDMDL
MODEL      208
REMARK 921   NORMALIZED FREE ENERGY PREDICTED BY IDOCK:   11.97 KCAL/MOL
REMARK 922        TOTAL FREE ENERGY PREDICTED BY IDOCK:   13.21 KCAL/MOL
REMARK 923 INTER-LIGAND FREE ENERGY PREDICTED BY IDOCK:   13.17 KCAL/MOL
REMARK 924 INTRA-LIGAND FREE ENERGY PREDICTED BY IDOCK:    0.04 KCAL/MOL
REMARK 927      BINDING AFFINITY PREDICTED BY RF-SCORE:    0.00 PKD
ROOT
ATOM      1  N   TYR A   1      -7.232  12.960  73.023  1.00  0.00     7.085 NA 
ATOM      2  CA  TYR A   1      -6.365  13.516  71.934  1.00  0.00     1.623 C  
ATOM      3  H1  TYR A   1      -6.738  12.805  73.903  1.00  0.00     0.000 HD 
ATOM      4  H2  TYR A   1      -7.692  12.104  72.713  1.00  0.00     0.000 HD 
ATOM      5  C   TYR A   1      -5.763  14.834  72.447  1.00  0.00     0.299 C  
ATOM      6  OXT TYR A   1      -5.305  15.729  71.753  1.00  0.00     0.024 OA 
ATOM      7  O   TYR A   1      -5.773  14.875  73.807  1.00  0.00     0.100 OA 
ENDROOT
BRANCH   2   8
ATOM      8  CB  TYR A   1      -7.109  13.749  70.608  1.00  0.00     1.317 C  
BRANCH   8   9
ATOM      9  CG  TYR A   1      -7.637  12.474  69.992  1.00  0.00     1.879 A  
ATOM     10  CD1 TYR A   1      -7.058  11.236  70.305  1.00  0.00     0.752 A  
ATOM     11  CE1 TYR A   1      -7.524  10.061  69.708  1.00  0.00    -0.152 A  
ATOM     12  CZ  TYR A   1      -8.576  10.127  68.802  1.00  0.00    -0.133 A  
ATOM     13  OH  TYR A   1      -9.057   9.008  68.188  1.00  0.00    -0.133 OA 
ATOM     14  CE2 TYR A   1      -9.172  11.343  68.489  1.00  0.00    -0.174 A  
ATOM     15  CD2 TYR A   1      -8.702  12.516  69.081  1.00  0.00     0.685 A  
ATOM     16  HH  TYR A   1      -9.776   9.053  67.569  1.00  0.00     0.000 HD 
ENDBRANCH   8   9
ENDBRANCH   2   8
TORSDOF 2
ENDMDL
MODEL      209
REMARK 921   NORMALIZED FREE ENERGY PREDICTED BY IDOCK:   13.29 KCAL/MOL
REMARK 922        TOTAL FREE ENERGY PREDICTED BY IDOCK:   14.69 KCAL/MOL
REMARK 923 INTER-LIGAND FREE ENERGY PREDICTED BY IDOCK:    6.67 KCAL/MOL
REMARK 924 INTRA-LIGAND FREE ENERGY PREDICTED BY IDOCK:    8.03 KCAL/MOL
REMARK 927      BINDING AFFINITY PREDICTED BY RF-SCORE:    0.00 PKD
ROOT
ATOM      1  N   TYR A   1      -7.371  14.234  72.786  1.00  0.00     2.922 NA 
ATOM      2  CA  TYR A   1      -6.384  14.729  71.773  1.00  0.00     0.765 C  
ATOM      3  H1  TYR A   1      -6.960  14.038  73.700  1.00  0.00     0.000 HD 
ATOM      4  H2  TYR A   1      -7.869  13.416  72.433  1.00  0.00     0.000 HD 
ATOM      5  C   TYR A   1      -5.727  15.996  72.345  1.00  0.00     1.302 C  
ATOM      6  OXT TYR A   1      -5.151  16.857  71.698  1.00  0.00    -0.376 OA 
ATOM      7  O   TYR A   1      -5.838  16.031  73.700  1.00  0.00     1.729 OA 
ENDROOT
BRANCH   2   8
ATOM      8  CB  TYR A   1      -7.004  15.024  70.397  1.00  0.00     0.206 C  
BRANCH   8   9
ATOM      9  CG  TYR A   1      -6.693  16.414  69.891  1.00  0.00     0.067 A  
ATOM     10  CD1 TYR A   1      -6.236  17.409  70.769  1.00  0.00     1.036 A  
ATOM     11  CE1 TYR A   1      -5.983  18.703  70.307  1.00  0.00    -0.117 A  
ATOM     12  CZ  TYR A   1      -6.179  18.999  68.963  1.00  0.00    -0.253 A  
ATOM     13  OH  TYR A   1      -5.953  20.251  68.471  1.00  0.00    -0.252 OA 
ATOM     14  CE2 TYR A   1      -6.617  18.025  68.076  1.00  0.00    -0.196 A  
ATOM     15  CD2 TYR A   1      -6.877  16.734  68.538  1.00  0.00    -0.164 A  
ATOM     16  HH  TYR A   1      -6.088  20.454  67.553  1.00  0.00     0.000 HD 
ENDBRANCH   8   9
ENDBRANCH   2   8
TORSDOF 2
ENDMDL
