MODEL        1
REMARK 921   NORMALIZED FREE ENERGY PREDICTED BY IDOCK:   -4.47 KCAL/MOL
REMARK 922        TOTAL FREE ENERGY PREDICTED BY IDOCK:  -14.91 KCAL/MOL
REMARK 923 INTER-LIGAND FREE ENERGY PREDICTED BY IDOCK:  -12.57 KCAL/MOL
REMARK 924 INTRA-LIGAND FREE ENERGY PREDICTED BY IDOCK:   -2.34 KCAL/MOL
REMARK 927      BINDING AFFINITY PREDICTED BY RF-SCORE:    0.00 PKD
ROOT
HETATM    1  C   UNL     1     -10.154   8.077  66.413  1.00  0.00    -0.104 C  
HETATM    2  O   UNL     1     -10.754   7.105  67.255  1.00  0.00    -0.286 OA 
ENDROOT
BRANCH   2   3
HETATM    3  C   UNL     1     -10.026   5.961  67.502  1.00  0.00    -0.143 A  
HETATM    4  C   UNL     1     -10.153   4.751  66.816  1.00  0.00    -0.229 A  
HETATM    5  C   UNL     1      -9.354   3.679  67.235  1.00  0.00    -0.202 A  
HETATM    6  H   UNL     1      -8.458   7.356  69.936  1.00  0.00     0.000 HD 
HETATM    7  O   UNL     1      -9.361   2.502  66.516  1.00  0.00    -0.338 OA 
HETATM    8  C   UNL     1      -9.134   6.056  68.594  1.00  0.00    -0.116 A  
HETATM    9  C   UNL     1      -8.463   3.738  68.345  1.00  0.00    -0.108 A  
HETATM   10  O   UNL     1      -9.057   7.293  69.202  1.00  0.00    -0.138 OA 
HETATM   11  H   UNL     1      -8.820   1.775  66.800  1.00  0.00     0.000 HD 
HETATM   12  C   UNL     1      -8.340   4.967  69.041  1.00  0.00    -0.082 A  
HETATM   13  C   UNL     1      -7.409   5.236  70.196  1.00  0.00    -0.067 C  
BRANCH   4  14
HETATM   14  O   UNL     1     -10.970   4.683  65.719  1.00  0.00    -0.237 OA 
HETATM   15  C   UNL     1     -10.574   3.852  64.633  1.00  0.00    -0.154 C  
ENDBRANCH   4  14
BRANCH   9  16
HETATM   16  C   UNL     1      -7.768   2.408  68.594  1.00  0.00    -0.051 C  
BRANCH  16  17
HETATM   17  C   UNL     1      -7.252   2.086  69.942  1.00  0.00    -0.033 C  
HETATM   18  C   UNL     1      -7.951   1.826  71.063  1.00  0.00    -0.049 C  
HETATM   19  C   UNL     1      -9.448   1.744  71.181  1.00  0.00    -0.203 C  
BRANCH  18  20
HETATM   20  C   UNL     1      -7.173   1.520  72.317  1.00  0.00    -0.030 C  
BRANCH  20  21
HETATM   21  C   UNL     1      -8.072   1.779  73.515  1.00  0.00    -0.046 C  
BRANCH  21  22
HETATM   22  C   UNL     1      -8.035   3.195  73.988  1.00  0.00    -0.069 C  
HETATM   23  C   UNL     1      -6.973   3.994  73.782  1.00  0.00    -0.059 C  
HETATM   24  C   UNL     1      -5.736   3.527  73.044  1.00  0.00    -0.004 C  
BRANCH  23  25
HETATM   25  C   UNL     1      -6.988   5.419  74.293  1.00  0.00    -0.078 C  
BRANCH  25  26
HETATM   26  C   UNL     1      -8.414   5.909  74.523  1.00  0.00    -0.115 C  
BRANCH  26  27
HETATM   27  C   UNL     1      -9.166   6.251  73.282  1.00  0.00    -0.135 C  
HETATM   28  C   UNL     1     -10.270   5.577  72.910  1.00  0.00    -0.214 C  
HETATM   29  C   UNL     1     -10.861   4.436  73.707  1.00  0.00    -0.362 C  
BRANCH  28  30
HETATM   30  C   UNL     1     -10.974   5.924  71.623  1.00  0.00    -0.327 C  
BRANCH  30  31
HETATM   31  C   UNL     1     -12.481   5.928  71.844  1.00  0.00     0.348 C  
BRANCH  31  32
HETATM   32  C   UNL     1     -13.151   7.143  71.298  1.00  0.00    -0.361 C  
HETATM   33  C   UNL     1     -12.928   8.375  71.781  1.00  0.00    -0.368 C  
HETATM   34  C   UNL     1     -11.989   8.669  72.925  1.00  0.00     0.174 C  
BRANCH  33  35
HETATM   35  C   UNL     1     -13.671   9.552  71.223  1.00  0.00    -0.235 C  
BRANCH  35  36
HETATM   36  C   UNL     1     -13.154  10.832  71.870  1.00  0.00    -0.557 C  
BRANCH  36  37
HETATM   37  C   UNL     1     -12.686  11.803  70.844  1.00  0.00    -0.328 C  
HETATM   38  C   UNL     1     -11.828  11.556  69.838  1.00  0.00    -0.430 C  
HETATM   39  C   UNL     1     -11.125  10.245  69.621  1.00  0.00    -0.323 C  
BRANCH  38  40
HETATM   40  C   UNL     1     -11.470  12.633  68.840  1.00  0.00    -0.354 C  
BRANCH  40  41
HETATM   41  C   UNL     1      -9.958  12.813  68.696  1.00  0.00    -0.099 C  
BRANCH  41  42
HETATM   42  C   UNL     1      -9.361  11.958  67.651  1.00  0.00    -0.183 C  
HETATM   43  C   UNL     1      -8.036  11.809  67.457  1.00  0.00    -0.148 C  
HETATM   44  C   UNL     1      -6.987  12.507  68.278  1.00  0.00    -0.089 C  
BRANCH  43  45
HETATM   45  C   UNL     1      -7.503  10.905  66.374  1.00  0.00    -0.145 C  
BRANCH  45  46
HETATM   46  C   UNL     1      -8.310  11.048  65.077  1.00  0.00     0.130 C  
BRANCH  46  47
HETATM   47  C   UNL     1      -9.702  11.464  65.300  1.00  0.00    -0.276 C  
HETATM   48  C   UNL     1     -10.611  11.611  64.317  1.00  0.00    -0.394 C  
HETATM   49  C   UNL     1     -10.313  11.364  62.862  1.00  0.00    -0.159 C  
BRANCH  48  50
HETATM   50  C   UNL     1     -12.021  12.042  64.623  1.00  0.00    -0.326 C  
BRANCH  50  51
HETATM   51  C   UNL     1     -12.122  13.565  64.747  1.00  0.00    -0.442 C  
BRANCH  51  52
HETATM   52  C   UNL     1     -10.818  14.241  64.841  1.00  0.00    -0.429 C  
HETATM   53  C   UNL     1     -10.485  15.097  65.827  1.00  0.00    -0.355 C  
HETATM   54  C   UNL     1     -11.414  15.466  66.956  1.00  0.00    -0.103 C  
BRANCH  53  55
HETATM   55  C   UNL     1      -9.128  15.758  65.865  1.00  0.00    -0.300 C  
BRANCH  55  56
HETATM   56  C   UNL     1      -9.050  16.832  66.954  1.00  0.00    -0.248 C  
BRANCH  56  57
HETATM   57  C   UNL     1      -8.190  17.992  66.624  1.00  0.00    -0.285 C  
HETATM   58  C   UNL     1      -8.676  19.208  66.299  1.00  0.00    -0.304 C  
HETATM   59  C   UNL     1     -10.154  19.514  66.238  1.00  0.00    -0.560 C  
BRANCH  58  60
HETATM   60  C   UNL     1      -7.768  20.379  65.965  1.00  0.00    -0.117 C  
BRANCH  60  61
HETATM   61  C   UNL     1      -6.488  20.405  66.810  1.00  0.00    -0.262 C  
BRANCH  61  62
HETATM   62  C   UNL     1      -6.652  20.683  68.263  1.00  0.00    -0.289 C  
HETATM   63  C   UNL     1      -6.102  19.900  69.214  1.00  0.00    -0.334 C  
HETATM   64  C   UNL     1      -5.271  18.676  68.922  1.00  0.00    -0.189 C  
HETATM   65  C   UNL     1      -6.293  20.204  70.671  1.00  0.00    -0.246 C  
ENDBRANCH  61  62
ENDBRANCH  60  61
ENDBRANCH  58  60
ENDBRANCH  56  57
ENDBRANCH  55  56
ENDBRANCH  53  55
ENDBRANCH  51  52
ENDBRANCH  50  51
ENDBRANCH  48  50
ENDBRANCH  46  47
ENDBRANCH  45  46
ENDBRANCH  43  45
ENDBRANCH  41  42
ENDBRANCH  40  41
ENDBRANCH  38  40
ENDBRANCH  36  37
ENDBRANCH  35  36
ENDBRANCH  33  35
ENDBRANCH  31  32
ENDBRANCH  30  31
ENDBRANCH  28  30
ENDBRANCH  26  27
ENDBRANCH  25  26
ENDBRANCH  23  25
ENDBRANCH  21  22
ENDBRANCH  20  21
ENDBRANCH  18  20
ENDBRANCH  16  17
ENDBRANCH   9  16
ENDBRANCH   2   3
TORSDOF 31
ENDMDL
MODEL        2
REMARK 921   NORMALIZED FREE ENERGY PREDICTED BY IDOCK:   -2.84 KCAL/MOL
REMARK 922        TOTAL FREE ENERGY PREDICTED BY IDOCK:  -10.33 KCAL/MOL
REMARK 923 INTER-LIGAND FREE ENERGY PREDICTED BY IDOCK:  -10.56 KCAL/MOL
REMARK 924 INTRA-LIGAND FREE ENERGY PREDICTED BY IDOCK:    0.23 KCAL/MOL
REMARK 927      BINDING AFFINITY PREDICTED BY RF-SCORE:    0.00 PKD
ROOT
HETATM    1  C   UNL     1     -10.349   8.556  66.119  1.00  0.00     0.369 C  
HETATM    2  O   UNL     1     -10.557   7.312  66.769  1.00  0.00    -0.298 OA 
ENDROOT
BRANCH   2   3
HETATM    3  C   UNL     1      -9.452   6.508  66.941  1.00  0.00    -0.152 A  
HETATM    4  C   UNL     1      -9.134   5.384  66.174  1.00  0.00    -0.151 A  
HETATM    5  C   UNL     1      -7.986   4.662  66.523  1.00  0.00    -0.103 A  
HETATM    6  H   UNL     1      -8.465   8.224  69.473  1.00  0.00     0.000 HD 
HETATM    7  O   UNL     1      -7.569   3.617  65.725  1.00  0.00    -0.076 OA 
HETATM    8  C   UNL     1      -8.636   6.856  68.042  1.00  0.00    -0.123 A  
HETATM    9  C   UNL     1      -7.158   4.976  67.639  1.00  0.00    -0.066 A  
HETATM   10  O   UNL     1      -9.012   7.990  68.733  1.00  0.00    -0.141 OA 
HETATM   11  H   UNL     1      -6.791   3.126  65.962  1.00  0.00     0.000 HD 
HETATM   12  C   UNL     1      -7.486   6.114  68.418  1.00  0.00    -0.087 A  
HETATM   13  C   UNL     1      -6.698   6.634  69.593  1.00  0.00    -0.050 C  
BRANCH   4  14
HETATM   14  O   UNL     1      -9.889   5.089  65.071  1.00  0.00     0.032 OA 
HETATM   15  C   UNL     1     -10.904   4.097  65.192  1.00  0.00     0.017 C  
ENDBRANCH   4  14
BRANCH   9  16
HETATM   16  C   UNL     1      -6.013   3.987  67.801  1.00  0.00    -0.027 C  
BRANCH  16  17
HETATM   17  C   UNL     1      -5.939   3.133  69.005  1.00  0.00    -0.024 C  
HETATM   18  C   UNL     1      -6.953   2.599  69.713  1.00  0.00    -0.033 C  
HETATM   19  C   UNL     1      -8.418   2.706  69.392  1.00  0.00    -0.100 C  
BRANCH  18  20
HETATM   20  C   UNL     1      -6.601   1.754  70.910  1.00  0.00    -0.024 C  
BRANCH  20  21
HETATM   21  C   UNL     1      -7.857   1.557  71.745  1.00  0.00    -0.041 C  
BRANCH  21  22
HETATM   22  C   UNL     1      -7.922   2.455  72.936  1.00  0.00    -0.054 C  
HETATM   23  C   UNL     1      -6.896   3.247  73.296  1.00  0.00    -0.039 C  
HETATM   24  C   UNL     1      -5.599   3.301  72.517  1.00  0.00    -0.007 C  
BRANCH  23  25
HETATM   25  C   UNL     1      -7.017   4.131  74.519  1.00  0.00    -0.065 C  
BRANCH  25  26
HETATM   26  C   UNL     1      -8.366   4.840  74.559  1.00  0.00    -0.100 C  
BRANCH  26  27
HETATM   27  C   UNL     1      -8.821   5.394  73.251  1.00  0.00    -0.118 C  
HETATM   28  C   UNL     1     -10.042   5.130  72.752  1.00  0.00    -0.209 C  
HETATM   29  C   UNL     1     -11.069   4.275  73.463  1.00  0.00    -0.377 C  
BRANCH  28  30
HETATM   30  C   UNL     1     -10.445   5.670  71.404  1.00  0.00    -0.300 C  
BRANCH  30  31
HETATM   31  C   UNL     1     -11.831   6.297  71.493  1.00  0.00    -0.291 C  
BRANCH  31  32
HETATM   32  C   UNL     1     -12.059   7.364  70.477  1.00  0.00    -0.089 C  
HETATM   33  C   UNL     1     -11.705   8.644  70.675  1.00  0.00    -0.178 C  
HETATM   34  C   UNL     1     -11.049   9.146  71.938  1.00  0.00    -0.385 C  
BRANCH  33  35
HETATM   35  C   UNL     1     -12.006   9.682  69.634  1.00  0.00     0.324 C  
BRANCH  35  36
HETATM   36  C   UNL     1     -12.055  11.057  70.289  1.00  0.00    -0.448 C  
BRANCH  36  37
HETATM   37  C   UNL     1     -11.042  11.972  69.697  1.00  0.00    -0.074 C  
HETATM   38  C   UNL     1     -10.348  11.774  68.561  1.00  0.00    -0.228 C  
HETATM   39  C   UNL     1     -10.432  10.532  67.718  1.00  0.00    -0.263 C  
BRANCH  38  40
HETATM   40  C   UNL     1      -9.373  12.812  68.055  1.00  0.00    -0.213 C  
BRANCH  40  41
HETATM   41  C   UNL     1      -8.306  12.210  67.140  1.00  0.00    -0.183 C  
BRANCH  41  42
HETATM   42  C   UNL     1      -8.820  11.825  65.811  1.00  0.00     0.059 C  
HETATM   43  C   UNL     1      -8.298  10.843  65.051  1.00  0.00     0.034 C  
HETATM   44  C   UNL     1      -7.111  10.013  65.456  1.00  0.00    -0.132 C  
BRANCH  43  45
HETATM   45  C   UNL     1      -8.889  10.500  63.706  1.00  0.00    -0.208 C  
BRANCH  45  46
HETATM   46  C   UNL     1      -9.895  11.563  63.249  1.00  0.00    -0.431 C  
BRANCH  46  47
HETATM   47  C   UNL     1     -10.572  12.243  64.364  1.00  0.00    -0.360 C  
HETATM   48  C   UNL     1     -11.909  12.334  64.491  1.00  0.00    -0.441 C  
HETATM   49  C   UNL     1     -12.883  11.746  63.504  1.00  0.00    -0.347 C  
BRANCH  48  50
HETATM   50  C   UNL     1     -12.531  13.048  65.662  1.00  0.00    -0.452 C  
BRANCH  50  51
HETATM   51  C   UNL     1     -12.612  14.557  65.413  1.00  0.00    -0.239 C  
BRANCH  51  52
HETATM   52  C   UNL     1     -11.313  15.181  65.115  1.00  0.00    -0.357 C  
HETATM   53  C   UNL     1     -10.444  15.593  66.059  1.00  0.00    -0.343 C  
HETATM   54  C   UNL     1     -10.702  15.463  67.539  1.00  0.00    -0.295 C  
BRANCH  53  55
HETATM   55  C   UNL     1      -9.126  16.227  65.686  1.00  0.00     0.075 C  
BRANCH  55  56
HETATM   56  C   UNL     1      -7.971  15.671  66.524  1.00  0.00    -0.097 C  
BRANCH  56  57
HETATM   57  C   UNL     1      -7.237  16.680  67.321  1.00  0.00    -0.199 C  
HETATM   58  C   UNL     1      -7.035  16.573  68.650  1.00  0.00    -0.167 C  
HETATM   59  C   UNL     1      -7.538  15.406  69.468  1.00  0.00    -0.212 C  
BRANCH  58  60
HETATM   60  C   UNL     1      -6.278  17.625  69.442  1.00  0.00    -0.249 C  
BRANCH  60  61
HETATM   61  C   UNL     1      -7.000  18.978  69.481  1.00  0.00    -0.167 C  
BRANCH  61  62
HETATM   62  C   UNL     1      -7.589  19.459  68.201  1.00  0.00    -0.332 C  
HETATM   63  C   UNL     1      -8.917  19.437  67.965  1.00  0.00    -0.371 C  
HETATM   64  C   UNL     1      -9.941  18.935  68.952  1.00  0.00    -0.437 C  
HETATM   65  C   UNL     1      -9.478  19.921  66.660  1.00  0.00    -0.513 C  
ENDBRANCH  61  62
ENDBRANCH  60  61
ENDBRANCH  58  60
ENDBRANCH  56  57
ENDBRANCH  55  56
ENDBRANCH  53  55
ENDBRANCH  51  52
ENDBRANCH  50  51
ENDBRANCH  48  50
ENDBRANCH  46  47
ENDBRANCH  45  46
ENDBRANCH  43  45
ENDBRANCH  41  42
ENDBRANCH  40  41
ENDBRANCH  38  40
ENDBRANCH  36  37
ENDBRANCH  35  36
ENDBRANCH  33  35
ENDBRANCH  31  32
ENDBRANCH  30  31
ENDBRANCH  28  30
ENDBRANCH  26  27
ENDBRANCH  25  26
ENDBRANCH  23  25
ENDBRANCH  21  22
ENDBRANCH  20  21
ENDBRANCH  18  20
ENDBRANCH  16  17
ENDBRANCH   9  16
ENDBRANCH   2   3
TORSDOF 31
ENDMDL
MODEL        3
REMARK 921   NORMALIZED FREE ENERGY PREDICTED BY IDOCK:    3.97 KCAL/MOL
REMARK 922        TOTAL FREE ENERGY PREDICTED BY IDOCK:    8.83 KCAL/MOL
REMARK 923 INTER-LIGAND FREE ENERGY PREDICTED BY IDOCK:    3.12 KCAL/MOL
REMARK 924 INTRA-LIGAND FREE ENERGY PREDICTED BY IDOCK:    5.72 KCAL/MOL
REMARK 927      BINDING AFFINITY PREDICTED BY RF-SCORE:    0.00 PKD
ROOT
HETATM    1  C   UNL     1     -10.726   8.868  65.893  1.00  0.00     1.503 C  
HETATM    2  O   UNL     1     -10.984   7.755  66.734  1.00  0.00    -0.145 OA 
ENDROOT
BRANCH   2   3
HETATM    3  C   UNL     1      -9.968   6.836  66.878  1.00  0.00    -0.191 A  
HETATM    4  C   UNL     1     -10.008   5.504  66.458  1.00  0.00    -0.185 A  
HETATM    5  C   UNL     1      -8.891   4.703  66.727  1.00  0.00    -0.111 A  
HETATM    6  H   UNL     1      -8.109   8.970  68.402  1.00  0.00     0.000 HD 
HETATM    7  O   UNL     1      -8.838   3.418  66.230  1.00  0.00    -0.120 OA 
HETATM    8  C   UNL     1      -8.834   7.315  67.573  1.00  0.00    -0.119 A  
HETATM    9  C   UNL     1      -7.745   5.152  67.444  1.00  0.00    -0.092 A  
HETATM   10  O   UNL     1      -8.870   8.647  67.935  1.00  0.00    -0.136 OA 
HETATM   11  H   UNL     1      -8.081   2.874  66.413  1.00  0.00     0.000 HD 
HETATM   12  C   UNL     1      -7.709   6.503  67.873  1.00  0.00    -0.104 A  
HETATM   13  C   UNL     1      -6.562   7.170  68.588  1.00  0.00    -0.041 C  
BRANCH   4  14
HETATM   14  O   UNL     1     -11.079   5.062  65.729  1.00  0.00    -0.129 OA 
HETATM   15  C   UNL     1     -10.919   4.901  64.323  1.00  0.00     1.176 C  
ENDBRANCH   4  14
BRANCH   9  16
HETATM   16  C   UNL     1      -6.713   4.049  67.628  1.00  0.00    -0.047 C  
BRANCH  16  17
HETATM   17  C   UNL     1      -6.808   3.135  68.786  1.00  0.00    -0.044 C  
HETATM   18  C   UNL     1      -7.895   2.822  69.516  1.00  0.00    -0.049 C  
HETATM   19  C   UNL     1      -9.301   3.298  69.271  1.00  0.00    -0.233 C  
BRANCH  18  20
HETATM   20  C   UNL     1      -7.717   1.850  70.654  1.00  0.00    -0.039 C  
BRANCH  20  21
HETATM   21  C   UNL     1      -8.990   1.847  71.487  1.00  0.00    -0.126 C  
BRANCH  21  22
HETATM   22  C   UNL     1      -8.873   2.637  72.748  1.00  0.00    -0.088 C  
HETATM   23  C   UNL     1      -7.713   3.191  73.144  1.00  0.00    -0.060 C  
HETATM   24  C   UNL     1      -6.437   3.069  72.339  1.00  0.00    -0.014 C  
BRANCH  23  25
HETATM   25  C   UNL     1      -7.653   3.974  74.439  1.00  0.00    -0.075 C  
BRANCH  25  26
HETATM   26  C   UNL     1      -8.795   4.981  74.530  1.00  0.00    -0.111 C  
BRANCH  26  27
HETATM   27  C   UNL     1      -8.970   5.840  73.324  1.00  0.00    -0.127 C  
HETATM   28  C   UNL     1     -10.047   5.733  72.524  1.00  0.00    -0.207 C  
HETATM   29  C   UNL     1     -11.179   4.762  72.772  1.00  0.00    -0.216 C  
BRANCH  28  30
HETATM   30  C   UNL     1     -10.163   6.588  71.289  1.00  0.00    -0.223 C  
BRANCH  30  31
HETATM   31  C   UNL     1     -11.564   7.179  71.199  1.00  0.00    -0.336 C  
BRANCH  31  32
HETATM   32  C   UNL     1     -11.763   8.038  69.997  1.00  0.00     0.278 C  
HETATM   33  C   UNL     1     -11.637   9.374  70.029  1.00  0.00    -0.046 C  
HETATM   34  C   UNL     1     -11.289  10.153  71.274  1.00  0.00    -0.241 C  
BRANCH  33  35
HETATM   35  C   UNL     1     -11.899  10.188  68.797  1.00  0.00     0.225 C  
BRANCH  35  36
HETATM   36  C   UNL     1     -12.424  11.562  69.198  1.00  0.00     0.142 C  
BRANCH  36  37
HETATM   37  C   UNL     1     -11.313  12.541  69.344  1.00  0.00    -0.275 C  
HETATM   38  C   UNL     1     -10.060  12.410  68.871  1.00  0.00     0.020 C  
HETATM   39  C   UNL     1      -9.541  11.189  68.163  1.00  0.00    -0.181 C  
BRANCH  38  40
HETATM   40  C   UNL     1      -9.039  13.507  69.060  1.00  0.00     0.356 C  
BRANCH  40  41
HETATM   41  C   UNL     1      -7.828  13.043  69.870  1.00  0.00     1.831 C  
BRANCH  41  42
HETATM   42  C   UNL     1      -7.113  11.905  69.258  1.00  0.00    -0.004 C  
HETATM   43  C   UNL     1      -7.038  10.675  69.802  1.00  0.00    -0.140 C  
HETATM   44  C   UNL     1      -7.668  10.302  71.115  1.00  0.00     1.847 C  
BRANCH  43  45
HETATM   45  C   UNL     1      -6.297   9.559  69.108  1.00  0.00    -0.041 C  
BRANCH  45  46
HETATM   46  C   UNL     1      -5.140  10.099  68.258  1.00  0.00    -0.035 C  
BRANCH  46  47
HETATM   47  C   UNL     1      -5.301  11.511  67.883  1.00  0.00    -0.046 C  
HETATM   48  C   UNL     1      -6.045  11.935  66.844  1.00  0.00    -0.120 C  
HETATM   49  C   UNL     1      -6.810  11.010  65.934  1.00  0.00     0.036 C  
BRANCH  48  50
HETATM   50  C   UNL     1      -6.163  13.401  66.519  1.00  0.00     2.706 C  
BRANCH  50  51
HETATM   51  C   UNL     1      -5.200  14.236  67.369  1.00  0.00     0.402 C  
BRANCH  51  52
HETATM   52  C   UNL     1      -5.873  15.147  68.308  1.00  0.00    -0.123 C  
HETATM   53  C   UNL     1      -6.065  16.461  68.073  1.00  0.00    -0.128 C  
HETATM   54  C   UNL     1      -5.610  17.154  66.814  1.00  0.00    -0.216 C  
BRANCH  53  55
HETATM   55  C   UNL     1      -6.764  17.342  69.080  1.00  0.00    -0.243 C  
BRANCH  55  56
HETATM   56  C   UNL     1      -8.101  16.742  69.528  1.00  0.00     0.362 C  
BRANCH  56  57
HETATM   57  C   UNL     1      -9.277  17.192  68.749  1.00  0.00    -0.249 C  
HETATM   58  C   UNL     1      -9.324  18.364  68.085  1.00  0.00    -0.331 C  
HETATM   59  C   UNL     1      -8.176  19.347  68.067  1.00  0.00    -0.353 C  
BRANCH  58  60
HETATM   60  C   UNL     1     -10.546  18.798  67.293  1.00  0.00    -0.504 C  
BRANCH  60  61
HETATM   61  C   UNL     1     -10.886  17.841  66.144  1.00  0.00     0.058 C  
BRANCH  61  62
HETATM   62  C   UNL     1     -10.501  16.414  66.326  1.00  0.00    -0.298 C  
HETATM   63  C   UNL     1     -10.898  15.445  65.476  1.00  0.00    -0.384 C  
HETATM   64  C   UNL     1     -11.759  15.690  64.262  1.00  0.00    -0.171 C  
HETATM   65  C   UNL     1     -10.500  14.015  65.694  1.00  0.00    -0.328 C  
ENDBRANCH  61  62
ENDBRANCH  60  61
ENDBRANCH  58  60
ENDBRANCH  56  57
ENDBRANCH  55  56
ENDBRANCH  53  55
ENDBRANCH  51  52
ENDBRANCH  50  51
ENDBRANCH  48  50
ENDBRANCH  46  47
ENDBRANCH  45  46
ENDBRANCH  43  45
ENDBRANCH  41  42
ENDBRANCH  40  41
ENDBRANCH  38  40
ENDBRANCH  36  37
ENDBRANCH  35  36
ENDBRANCH  33  35
ENDBRANCH  31  32
ENDBRANCH  30  31
ENDBRANCH  28  30
ENDBRANCH  26  27
ENDBRANCH  25  26
ENDBRANCH  23  25
ENDBRANCH  21  22
ENDBRANCH  20  21
ENDBRANCH  18  20
ENDBRANCH  16  17
ENDBRANCH   9  16
ENDBRANCH   2   3
TORSDOF 31
ENDMDL
MODEL        4
REMARK 921   NORMALIZED FREE ENERGY PREDICTED BY IDOCK:    6.16 KCAL/MOL
REMARK 922        TOTAL FREE ENERGY PREDICTED BY IDOCK:   14.99 KCAL/MOL
REMARK 923 INTER-LIGAND FREE ENERGY PREDICTED BY IDOCK:    7.82 KCAL/MOL
REMARK 924 INTRA-LIGAND FREE ENERGY PREDICTED BY IDOCK:    7.17 KCAL/MOL
REMARK 927      BINDING AFFINITY PREDICTED BY RF-SCORE:    0.00 PKD
ROOT
HETATM    1  C   UNL     1     -10.704   9.015  66.039  1.00  0.00     1.041 C  
HETATM    2  O   UNL     1     -11.014   7.833  66.761  1.00  0.00    -0.145 OA 
ENDROOT
BRANCH   2   3
HETATM    3  C   UNL     1     -10.029   6.873  66.836  1.00  0.00    -0.200 A  
HETATM    4  C   UNL     1     -10.105   5.584  66.302  1.00  0.00    -0.145 A  
HETATM    5  C   UNL     1      -9.017   4.727  66.513  1.00  0.00    -0.112 A  
HETATM    6  H   UNL     1      -8.126   8.806  68.559  1.00  0.00     0.000 HD 
HETATM    7  O   UNL     1      -8.997   3.489  65.907  1.00  0.00    -0.129 OA 
HETATM    8  C   UNL     1      -8.891   7.254  67.583  1.00  0.00    -0.123 A  
HETATM    9  C   UNL     1      -7.868   5.076  67.278  1.00  0.00    -0.096 A  
HETATM   10  O   UNL     1      -8.891   8.550  68.058  1.00  0.00    -0.140 OA 
HETATM   11  H   UNL     1      -8.260   2.908  66.050  1.00  0.00     0.000 HD 
HETATM   12  C   UNL     1      -7.796   6.383  67.823  1.00  0.00    -0.104 A  
HETATM   13  C   UNL     1      -6.639   6.949  68.606  1.00  0.00    -0.054 C  
BRANCH   4  14
HETATM   14  O   UNL     1     -11.179   5.241  65.525  1.00  0.00     0.258 OA 
HETATM   15  C   UNL     1     -10.932   4.690  64.236  1.00  0.00     0.607 C  
ENDBRANCH   4  14
BRANCH   9  16
HETATM   16  C   UNL     1      -6.874   3.929  67.378  1.00  0.00    -0.054 C  
BRANCH  16  17
HETATM   17  C   UNL     1      -6.987   2.946  68.476  1.00  0.00    -0.048 C  
HETATM   18  C   UNL     1      -8.086   2.589  69.167  1.00  0.00    -0.067 C  
HETATM   19  C   UNL     1      -9.488   3.079  68.927  1.00  0.00    -0.176 C  
BRANCH  18  20
HETATM   20  C   UNL     1      -7.927   1.550  70.247  1.00  0.00    -0.050 C  
BRANCH  20  21
HETATM   21  C   UNL     1      -9.213   1.497  71.056  1.00  0.00    -0.154 C  
BRANCH  21  22
HETATM   22  C   UNL     1      -9.103   2.166  72.386  1.00  0.00    -0.113 C  
HETATM   23  C   UNL     1      -7.930   2.608  72.873  1.00  0.00    -0.058 C  
HETATM   24  C   UNL     1      -6.630   2.475  72.107  1.00  0.00    -0.015 C  
BRANCH  23  25
HETATM   25  C   UNL     1      -7.877   3.271  74.233  1.00  0.00    -0.065 C  
BRANCH  25  26
HETATM   26  C   UNL     1      -8.942   4.356  74.361  1.00  0.00    -0.106 C  
BRANCH  26  27
HETATM   27  C   UNL     1      -9.011   5.304  73.212  1.00  0.00    -0.120 C  
HETATM   28  C   UNL     1     -10.064   5.333  72.375  1.00  0.00    -0.227 C  
HETATM   29  C   UNL     1     -11.273   4.436  72.522  1.00  0.00     0.123 C  
BRANCH  28  30
HETATM   30  C   UNL     1     -10.073   6.274  71.198  1.00  0.00    -0.218 C  
BRANCH  30  31
HETATM   31  C   UNL     1     -11.453   6.902  71.051  1.00  0.00    -0.358 C  
BRANCH  31  32
HETATM   32  C   UNL     1     -11.548   7.846  69.901  1.00  0.00     0.237 C  
HETATM   33  C   UNL     1     -11.423   9.176  70.039  1.00  0.00    -0.034 C  
HETATM   34  C   UNL     1     -11.180   9.861  71.362  1.00  0.00    -0.279 C  
BRANCH  33  35
HETATM   35  C   UNL     1     -11.578  10.078  68.851  1.00  0.00     0.029 C  
BRANCH  35  36
HETATM   36  C   UNL     1     -12.146  11.418  69.303  1.00  0.00    -0.356 C  
BRANCH  36  37
HETATM   37  C   UNL     1     -11.064  12.419  69.510  1.00  0.00    -0.083 C  
HETATM   38  C   UNL     1      -9.795  12.331  69.071  1.00  0.00     0.218 C  
HETATM   39  C   UNL     1      -9.226  11.145  68.343  1.00  0.00    -0.175 C  
BRANCH  38  40
HETATM   40  C   UNL     1      -8.807  13.447  69.322  1.00  0.00     0.798 C  
BRANCH  40  41
HETATM   41  C   UNL     1      -7.626  12.996  70.183  1.00  0.00     2.130 C  
BRANCH  41  42
HETATM   42  C   UNL     1      -6.957  11.782  69.674  1.00  0.00     0.094 C  
HETATM   43  C   UNL     1      -6.851  10.628  70.361  1.00  0.00     0.065 C  
HETATM   44  C   UNL     1      -7.396  10.429  71.749  1.00  0.00     3.224 C  
BRANCH  43  45
HETATM   45  C   UNL     1      -6.163   9.426  69.766  1.00  0.00    -0.039 C  
BRANCH  45  46
HETATM   46  C   UNL     1      -5.137   9.838  68.703  1.00  0.00    -0.033 C  
BRANCH  46  47
HETATM   47  C   UNL     1      -5.365  11.186  68.163  1.00  0.00    -0.042 C  
HETATM   48  C   UNL     1      -5.728  11.437  66.891  1.00  0.00    -0.120 C  
HETATM   49  C   UNL     1      -5.949  10.362  65.859  1.00  0.00    -0.105 C  
BRANCH  48  50
HETATM   50  C   UNL     1      -5.944  12.847  66.409  1.00  0.00     2.370 C  
BRANCH  50  51
HETATM   51  C   UNL     1      -5.222  13.857  67.306  1.00  0.00     0.556 C  
BRANCH  51  52
HETATM   52  C   UNL     1      -6.122  14.626  68.180  1.00  0.00    -0.146 C  
HETATM   53  C   UNL     1      -6.738  15.765  67.809  1.00  0.00    -0.178 C  
HETATM   54  C   UNL     1      -6.576  16.390  66.446  1.00  0.00     0.440 C  
BRANCH  53  55
HETATM   55  C   UNL     1      -7.650  16.507  68.756  1.00  0.00    -0.219 C  
BRANCH  55  56
HETATM   56  C   UNL     1      -8.685  17.349  68.004  1.00  0.00    -0.241 C  
BRANCH  56  57
HETATM   57  C   UNL     1      -8.357  18.789  67.898  1.00  0.00    -0.300 C  
HETATM   58  C   UNL     1      -7.633  19.314  66.888  1.00  0.00    -0.253 C  
HETATM   59  C   UNL     1      -7.079  18.483  65.754  1.00  0.00    -0.255 C  
BRANCH  58  60
HETATM   60  C   UNL     1      -7.313  20.796  66.806  1.00  0.00    -0.263 C  
BRANCH  60  61
HETATM   61  C   UNL     1      -6.420  21.280  67.957  1.00  0.00    -0.142 C  
BRANCH  61  62
HETATM   62  C   UNL     1      -5.803  20.229  68.811  1.00  0.00    -0.330 C  
HETATM   63  C   UNL     1      -6.083  20.111  70.126  1.00  0.00    -0.387 C  
HETATM   64  C   UNL     1      -7.038  21.012  70.868  1.00  0.00     2.917 C  
HETATM   65  C   UNL     1      -5.436  19.046  70.961  1.00  0.00    -0.230 C  
ENDBRANCH  61  62
ENDBRANCH  60  61
ENDBRANCH  58  60
ENDBRANCH  56  57
ENDBRANCH  55  56
ENDBRANCH  53  55
ENDBRANCH  51  52
ENDBRANCH  50  51
ENDBRANCH  48  50
ENDBRANCH  46  47
ENDBRANCH  45  46
ENDBRANCH  43  45
ENDBRANCH  41  42
ENDBRANCH  40  41
ENDBRANCH  38  40
ENDBRANCH  36  37
ENDBRANCH  35  36
ENDBRANCH  33  35
ENDBRANCH  31  32
ENDBRANCH  30  31
ENDBRANCH  28  30
ENDBRANCH  26  27
ENDBRANCH  25  26
ENDBRANCH  23  25
ENDBRANCH  21  22
ENDBRANCH  20  21
ENDBRANCH  18  20
ENDBRANCH  16  17
ENDBRANCH   9  16
ENDBRANCH   2   3
TORSDOF 31
ENDMDL
MODEL        5
REMARK 921   NORMALIZED FREE ENERGY PREDICTED BY IDOCK:   29.19 KCAL/MOL
REMARK 922        TOTAL FREE ENERGY PREDICTED BY IDOCK:   79.75 KCAL/MOL
REMARK 923 INTER-LIGAND FREE ENERGY PREDICTED BY IDOCK:   17.31 KCAL/MOL
REMARK 924 INTRA-LIGAND FREE ENERGY PREDICTED BY IDOCK:   62.44 KCAL/MOL
REMARK 927      BINDING AFFINITY PREDICTED BY RF-SCORE:    0.00 PKD
ROOT
HETATM    1  C   UNL     1     -10.930   9.403  65.950  1.00  0.00     1.505 C  
HETATM    2  O   UNL     1     -11.168   8.478  67.000  1.00  0.00     0.298 OA 
ENDROOT
BRANCH   2   3
HETATM    3  C   UNL     1     -10.238   7.476  67.169  1.00  0.00    -0.280 A  
HETATM    4  C   UNL     1     -10.387   6.148  66.762  1.00  0.00    -0.231 A  
HETATM    5  C   UNL     1      -9.347   5.256  67.056  1.00  0.00    -0.122 A  
HETATM    6  H   UNL     1      -8.224   9.459  68.699  1.00  0.00     0.000 HD 
HETATM    7  O   UNL     1      -9.399   3.966  66.574  1.00  0.00    -0.161 OA 
HETATM    8  C   UNL     1      -9.077   7.864  67.877  1.00  0.00    -0.131 A  
HETATM    9  C   UNL     1      -8.178   5.613  67.786  1.00  0.00    -0.101 A  
HETATM   10  O   UNL     1      -9.003   9.198  68.224  1.00  0.00    -0.129 OA 
HETATM   11  H   UNL     1      -8.694   3.361  66.774  1.00  0.00     0.000 HD 
HETATM   12  C   UNL     1      -8.031   6.961  68.202  1.00  0.00    -0.115 A  
HETATM   13  C   UNL     1      -6.841   7.535  68.928  1.00  0.00    -0.068 C  
BRANCH   4  14
HETATM   14  O   UNL     1     -11.481   5.791  66.021  1.00  0.00     0.545 OA 
HETATM   15  C   UNL     1     -11.281   4.982  64.866  1.00  0.00     1.024 C  
ENDBRANCH   4  14
BRANCH   9  16
HETATM   16  C   UNL     1      -7.248   4.427  67.998  1.00  0.00    -0.064 C  
BRANCH  16  17
HETATM   17  C   UNL     1      -7.744   3.211  68.677  1.00  0.00    -0.054 C  
HETATM   18  C   UNL     1      -9.019   2.855  68.923  1.00  0.00    -0.186 C  
HETATM   19  C   UNL     1     -10.252   3.603  68.499  1.00  0.00     0.799 C  
BRANCH  18  20
HETATM   20  C   UNL     1      -9.254   1.548  69.637  1.00  0.00    -0.163 C  
BRANCH  20  21
HETATM   21  C   UNL     1      -9.935   1.840  70.964  1.00  0.00    -0.019 C  
BRANCH  21  22
HETATM   22  C   UNL     1      -8.992   2.312  72.021  1.00  0.00    -0.122 C  
HETATM   23  C   UNL     1      -7.675   2.463  71.794  1.00  0.00    -0.044 C  
HETATM   24  C   UNL     1      -7.045   2.180  70.446  1.00  0.00    -0.033 C  
BRANCH  23  25
HETATM   25  C   UNL     1      -6.765   2.936  72.908  1.00  0.00    -0.026 C  
BRANCH  25  26
HETATM   26  C   UNL     1      -7.324   4.181  73.588  1.00  0.00    -0.075 C  
BRANCH  26  27
HETATM   27  C   UNL     1      -7.586   5.329  72.674  1.00  0.00    -0.097 C  
HETATM   28  C   UNL     1      -8.533   5.278  71.720  1.00  0.00    -0.126 C  
HETATM   29  C   UNL     1      -9.427   4.079  71.493  1.00  0.00    -0.222 C  
BRANCH  28  30
HETATM   30  C   UNL     1      -8.734   6.443  70.786  1.00  0.00    -0.140 C  
BRANCH  30  31
HETATM   31  C   UNL     1     -10.171   6.941  70.883  1.00  0.00    -0.214 C  
BRANCH  31  32
HETATM   32  C   UNL     1     -10.452   8.099  69.987  1.00  0.00    -0.231 C  
HETATM   33  C   UNL     1     -10.029   9.345  70.254  1.00  0.00    -0.284 C  
HETATM   34  C   UNL     1      -9.234   9.714  71.483  1.00  0.00     0.894 C  
BRANCH  33  35
HETATM   35  C   UNL     1     -10.387  10.478  69.340  1.00  0.00    -0.258 C  
BRANCH  35  36
HETATM   36  C   UNL     1     -10.512  11.764  70.149  1.00  0.00     1.418 C  
BRANCH  36  37
HETATM   37  C   UNL     1      -9.187  12.212  70.655  1.00  0.00     7.188 C  
HETATM   38  C   UNL     1      -7.989  11.684  70.346  1.00  0.00     3.367 C  
HETATM   39  C   UNL     1      -7.791  10.475  69.474  1.00  0.00    -0.134 C  
BRANCH  38  40
HETATM   40  C   UNL     1      -6.713  12.269  70.906  1.00  0.00     2.209 C  
BRANCH  40  41
HETATM   41  C   UNL     1      -5.522  11.322  70.752  1.00  0.00    -0.124 C  
BRANCH  41  42
HETATM   42  C   UNL     1      -5.516  10.587  69.472  1.00  0.00    -0.038 C  
HETATM   43  C   UNL     1      -6.336   9.558  69.183  1.00  0.00    -0.041 C  
HETATM   44  C   UNL     1      -7.363   9.015  70.138  1.00  0.00    -0.065 C  
BRANCH  43  45
HETATM   45  C   UNL     1      -6.278   8.866  67.844  1.00  0.00    -0.052 C  
BRANCH  45  46
HETATM   46  C   UNL     1      -5.272   9.545  66.907  1.00  0.00    -0.034 C  
BRANCH  46  47
HETATM   47  C   UNL     1      -5.126  10.987  67.154  1.00  0.00    -0.047 C  
HETATM   48  C   UNL     1      -5.528  11.943  66.296  1.00  0.00     0.432 C  
HETATM   49  C   UNL     1      -6.184  11.654  64.971  1.00  0.00     2.258 C  
BRANCH  48  50
HETATM   50  C   UNL     1      -5.345  13.403  66.618  1.00  0.00     2.065 C  
BRANCH  50  51
HETATM   51  C   UNL     1      -5.384  13.646  68.130  1.00  0.00    -0.109 C  
BRANCH  51  52
HETATM   52  C   UNL     1      -6.744  13.788  68.674  1.00  0.00    -0.099 C  
HETATM   53  C   UNL     1      -7.373  14.971  68.824  1.00  0.00    -0.125 C  
HETATM   54  C   UNL     1      -6.755  16.294  68.450  1.00  0.00    -0.136 C  
BRANCH  53  55
HETATM   55  C   UNL     1      -8.770  15.047  69.391  1.00  0.00    -0.113 C  
BRANCH  55  56
HETATM   56  C   UNL     1      -9.816  14.545  68.391  1.00  0.00    -0.227 C  
BRANCH  56  57
HETATM   57  C   UNL     1      -9.920  15.339  67.146  1.00  0.00    -0.233 C  
HETATM   58  C   UNL     1     -11.035  15.393  66.389  1.00  0.00    -0.277 C  
HETATM   59  C   UNL     1     -12.301  14.644  66.735  1.00  0.00     0.009 C  
BRANCH  58  60
HETATM   60  C   UNL     1     -11.111  16.218  65.116  1.00  0.00    -0.219 C  
BRANCH  60  61
HETATM   61  C   UNL     1     -11.139  17.728  65.382  1.00  0.00     0.512 C  
BRANCH  61  62
HETATM   62  C   UNL     1     -10.801  18.171  66.762  1.00  0.00    -0.078 C  
HETATM   63  C   UNL     1     -10.327  19.406  67.029  1.00  0.00    -0.547 C  
HETATM   64  C   UNL     1     -10.093  20.463  65.980  1.00  0.00    -0.263 C  
HETATM   65  C   UNL     1      -9.987  19.816  68.431  1.00  0.00    -0.549 C  
ENDBRANCH  61  62
ENDBRANCH  60  61
ENDBRANCH  58  60
ENDBRANCH  56  57
ENDBRANCH  55  56
ENDBRANCH  53  55
ENDBRANCH  51  52
ENDBRANCH  50  51
ENDBRANCH  48  50
ENDBRANCH  46  47
ENDBRANCH  45  46
ENDBRANCH  43  45
ENDBRANCH  41  42
ENDBRANCH  40  41
ENDBRANCH  38  40
ENDBRANCH  36  37
ENDBRANCH  35  36
ENDBRANCH  33  35
ENDBRANCH  31  32
ENDBRANCH  30  31
ENDBRANCH  28  30
ENDBRANCH  26  27
ENDBRANCH  25  26
ENDBRANCH  23  25
ENDBRANCH  21  22
ENDBRANCH  20  21
ENDBRANCH  18  20
ENDBRANCH  16  17
ENDBRANCH   9  16
ENDBRANCH   2   3
TORSDOF 31
ENDMDL
