MODEL        1
REMARK 921   NORMALIZED FREE ENERGY PREDICTED BY IDOCK:   -8.88 KCAL/MOL
REMARK 922        TOTAL FREE ENERGY PREDICTED BY IDOCK:  -12.55 KCAL/MOL
REMARK 923 INTER-LIGAND FREE ENERGY PREDICTED BY IDOCK:  -10.95 KCAL/MOL
REMARK 924 INTRA-LIGAND FREE ENERGY PREDICTED BY IDOCK:   -1.59 KCAL/MOL
REMARK 927      BINDING AFFINITY PREDICTED BY RF-SCORE:    0.00 PKD
ROOT
HETATM    1  C   UNL     1      -7.954   4.583  71.557  1.00  0.00    -0.095 C  
HETATM    2  C   UNL     1      -8.856   5.677  72.147  1.00  0.00    -0.137 C  
HETATM    3  C   UNL     1     -10.194   5.791  71.362  1.00  0.00    -0.269 C  
HETATM    4  C   UNL     1     -11.115   6.776  72.110  1.00  0.00    -0.284 C  
HETATM    5  O   UNL     1      -8.526   8.899  73.636  1.00  0.00    -0.214 OA 
HETATM    6  N   UNL     1      -8.259   7.007  72.369  1.00  0.00    -0.105 N  
HETATM    7  C   UNL     1     -10.471   8.133  72.397  1.00  0.00    -0.319 C  
HETATM    8  C   UNL     1      -9.042   8.007  72.963  1.00  0.00    -0.265 C  
ENDROOT
BRANCH   3   9
HETATM    9  C   UNL     1     -10.076   6.073  69.865  1.00  0.00    -0.240 A  
HETATM   10  C   UNL     1     -11.158   6.550  67.734  1.00  0.00    -0.366 A  
HETATM   11  C   UNL     1     -11.229   6.352  69.118  1.00  0.00    -0.421 A  
HETATM   12  C   UNL     1      -8.858   6.029  69.171  1.00  0.00    -0.119 A  
HETATM   13  C   UNL     1      -8.782   6.213  67.791  1.00  0.00    -0.112 A  
HETATM   14  C   UNL     1      -9.934   6.476  67.070  1.00  0.00    -0.216 A  
ENDBRANCH   3   9
BRANCH   7  15
HETATM   15  N   UNL     1     -10.329   8.980  71.210  1.00  0.00    -0.284 N  
HETATM   16  H   UNL     1      -9.446   8.947  70.701  1.00  0.00     0.000 HD 
HETATM   17  C   UNL     1     -11.312   9.818  70.739  1.00  0.00    -0.342 C  
HETATM   18  O   UNL     1     -12.394   9.965  71.295  1.00  0.00    -0.326 OA 
BRANCH  17  19
HETATM   19  C   UNL     1     -11.004  10.557  69.482  1.00  0.00    -0.312 A  
HETATM   20  N   UNL     1      -9.324  11.139  67.809  1.00  0.00    -0.161 NA 
HETATM   21  C   UNL     1      -9.725  10.477  68.935  1.00  0.00    -0.199 A  
HETATM   22  C   UNL     1     -10.239  11.954  67.260  1.00  0.00    -0.200 A  
HETATM   23  C   UNL     1     -10.015  12.747  66.002  1.00  0.00    -0.277 C  
HETATM   24  C   UNL     1     -11.248  13.677  65.954  1.00  0.00    -0.311 C  
HETATM   25  C   UNL     1     -12.250  13.229  67.048  1.00  0.00    -0.310 C  
HETATM   26  C   UNL     1     -11.953  13.596  64.576  1.00  0.00    -0.418 C  
HETATM   27  O   UNL     1     -12.431  12.601  64.063  1.00  0.00    -0.547 OA 
HETATM   28  C   UNL     1     -11.507  12.148  67.765  1.00  0.00    -0.398 A  
HETATM   29  N   UNL     1     -11.972  14.867  64.039  1.00  0.00    -0.867 N  
HETATM   30  C   UNL     1     -11.332  15.774  64.853  1.00  0.00    -0.280 A  
HETATM   31  C   UNL     1     -11.927  11.403  68.855  1.00  0.00    -0.371 A  
HETATM   32  H   UNL     1     -12.408  15.105  63.149  1.00  0.00     0.000 HD 
HETATM   33  N   UNL     1     -11.154  17.060  64.548  1.00  0.00    -1.062 NA 
HETATM   34  C   UNL     1     -10.449  17.761  65.466  1.00  0.00    -0.017 A  
HETATM   35  C   UNL     1      -9.944  17.222  66.652  1.00  0.00    -0.296 A  
HETATM   36  C   UNL     1     -10.166  15.873  66.936  1.00  0.00    -0.277 A  
HETATM   37  C   UNL     1     -10.880  15.141  66.005  1.00  0.00    -0.335 A  
ENDBRANCH  17  19
ENDBRANCH   7  15
BRANCH   6  38
HETATM   38  C   UNL     1      -6.805   7.279  72.310  1.00  0.00    -0.059 C  
HETATM   39  F   UNL     1      -5.588   7.309  70.259  1.00  0.00    -0.022 F  
HETATM   40  F   UNL     1      -5.643   9.178  71.381  1.00  0.00    -0.035 F  
HETATM   41  C   UNL     1      -6.361   8.085  71.063  1.00  0.00    -0.037 C  
HETATM   42  F   UNL     1      -7.408   8.483  70.289  1.00  0.00    -0.047 F  
ENDBRANCH   6  38
TORSDOF 4
ENDMDL
MODEL        2
REMARK 921   NORMALIZED FREE ENERGY PREDICTED BY IDOCK:   -8.84 KCAL/MOL
REMARK 922        TOTAL FREE ENERGY PREDICTED BY IDOCK:  -12.50 KCAL/MOL
REMARK 923 INTER-LIGAND FREE ENERGY PREDICTED BY IDOCK:  -10.95 KCAL/MOL
REMARK 924 INTRA-LIGAND FREE ENERGY PREDICTED BY IDOCK:   -1.54 KCAL/MOL
REMARK 927      BINDING AFFINITY PREDICTED BY RF-SCORE:    0.00 PKD
ROOT
HETATM    1  C   UNL     1      -9.253   8.151  73.315  1.00  0.00    -0.316 C  
HETATM    2  C   UNL     1      -9.881   7.247  72.244  1.00  0.00    -0.154 C  
HETATM    3  C   UNL     1      -8.855   6.897  71.127  1.00  0.00    -0.142 C  
HETATM    4  C   UNL     1      -9.494   5.853  70.189  1.00  0.00    -0.190 C  
HETATM    5  O   UNL     1     -13.019   6.822  70.607  1.00  0.00    -0.070 OA 
HETATM    6  N   UNL     1     -11.169   7.670  71.664  1.00  0.00    -0.243 N  
HETATM    7  C   UNL     1     -10.861   6.265  69.640  1.00  0.00    -0.339 C  
HETATM    8  C   UNL     1     -11.794   6.833  70.729  1.00  0.00    -0.392 C  
ENDROOT
BRANCH   3   9
HETATM    9  C   UNL     1      -8.225   8.080  70.395  1.00  0.00    -0.118 A  
HETATM   10  C   UNL     1      -6.365   9.000  69.117  1.00  0.00    -0.043 A  
HETATM   11  C   UNL     1      -6.996   7.917  69.741  1.00  0.00    -0.050 A  
HETATM   12  C   UNL     1      -8.798   9.360  70.372  1.00  0.00    -0.290 A  
HETATM   13  C   UNL     1      -8.168  10.445  69.765  1.00  0.00    -0.037 A  
HETATM   14  C   UNL     1      -6.949  10.265  69.133  1.00  0.00    -0.066 A  
ENDBRANCH   3   9
BRANCH   7  15
HETATM   15  N   UNL     1     -10.793   7.316  68.621  1.00  0.00    -0.409 N  
HETATM   16  H   UNL     1     -11.440   8.101  68.700  1.00  0.00     0.000 HD 
HETATM   17  C   UNL     1      -9.913   7.310  67.566  1.00  0.00    -0.169 C  
HETATM   18  O   UNL     1      -9.122   6.399  67.355  1.00  0.00    -0.113 OA 
BRANCH  17  19
HETATM   19  C   UNL     1      -9.953   8.497  66.664  1.00  0.00    -0.363 A  
HETATM   20  N   UNL     1      -8.903   9.702  64.819  1.00  0.00    -0.194 NA 
HETATM   21  C   UNL     1      -8.981   8.640  65.675  1.00  0.00    -0.182 A  
HETATM   22  C   UNL     1      -9.805  10.675  65.019  1.00  0.00    -0.293 A  
HETATM   23  C   UNL     1      -9.914  11.911  64.170  1.00  0.00    -0.288 C  
HETATM   24  C   UNL     1     -10.913  12.787  64.959  1.00  0.00    -0.319 C  
HETATM   25  C   UNL     1     -11.523  11.937  66.102  1.00  0.00    -0.352 C  
HETATM   26  C   UNL     1     -12.063  13.280  64.044  1.00  0.00    -0.447 C  
HETATM   27  O   UNL     1     -12.849  12.585  63.427  1.00  0.00    -0.711 OA 
HETATM   28  C   UNL     1     -10.763  10.653  66.011  1.00  0.00    -0.127 A  
HETATM   29  N   UNL     1     -12.063  14.660  64.076  1.00  0.00    -0.858 N  
HETATM   30  C   UNL     1     -11.036  15.151  64.849  1.00  0.00    -0.414 A  
HETATM   31  C   UNL     1     -10.885   9.530  66.813  1.00  0.00    -0.031 A  
HETATM   32  H   UNL     1     -12.740  15.243  63.586  1.00  0.00     0.000 HD 
HETATM   33  N   UNL     1     -10.769  16.448  65.005  1.00  0.00    -0.681 NA 
HETATM   34  C   UNL     1      -9.681  16.709  65.765  1.00  0.00    -0.160 A  
HETATM   35  C   UNL     1      -8.885  15.730  66.364  1.00  0.00    -0.371 A  
HETATM   36  C   UNL     1      -9.209  14.384  66.184  1.00  0.00    -0.152 A  
HETATM   37  C   UNL     1     -10.317  14.100  65.406  1.00  0.00    -0.384 A  
ENDBRANCH  17  19
ENDBRANCH   7  15
BRANCH   6  38
HETATM   38  C   UNL     1     -12.012   8.750  72.225  1.00  0.00    -0.345 C  
HETATM   39  F   UNL     1     -11.680  11.048  71.682  1.00  0.00    -0.109 F  
HETATM   40  F   UNL     1     -13.598  10.185  71.109  1.00  0.00    -0.405 F  
HETATM   41  C   UNL     1     -12.286   9.915  71.240  1.00  0.00    -0.381 C  
HETATM   42  F   UNL     1     -11.779   9.690  69.998  1.00  0.00    -0.249 F  
ENDBRANCH   6  38
TORSDOF 4
ENDMDL
MODEL        3
REMARK 921   NORMALIZED FREE ENERGY PREDICTED BY IDOCK:   -8.36 KCAL/MOL
REMARK 922        TOTAL FREE ENERGY PREDICTED BY IDOCK:  -11.90 KCAL/MOL
REMARK 923 INTER-LIGAND FREE ENERGY PREDICTED BY IDOCK:   -9.49 KCAL/MOL
REMARK 924 INTRA-LIGAND FREE ENERGY PREDICTED BY IDOCK:   -2.41 KCAL/MOL
REMARK 927      BINDING AFFINITY PREDICTED BY RF-SCORE:    0.00 PKD
ROOT
HETATM    1  C   UNL     1      -7.331   4.766  70.589  1.00  0.00    -0.056 C  
HETATM    2  C   UNL     1      -8.533   5.138  71.468  1.00  0.00    -0.124 C  
HETATM    3  C   UNL     1      -9.819   5.336  70.614  1.00  0.00    -0.264 C  
HETATM    4  C   UNL     1     -11.013   5.532  71.570  1.00  0.00    -0.220 C  
HETATM    5  O   UNL     1      -9.214   7.061  74.392  1.00  0.00    -0.214 OA 
HETATM    6  N   UNL     1      -8.361   6.247  72.426  1.00  0.00    -0.111 N  
HETATM    7  C   UNL     1     -10.806   6.638  72.606  1.00  0.00    -0.248 C  
HETATM    8  C   UNL     1      -9.422   6.568  73.283  1.00  0.00    -0.143 C  
ENDROOT
BRANCH   3   9
HETATM    9  C   UNL     1      -9.738   6.384  69.506  1.00  0.00    -0.167 A  
HETATM   10  C   UNL     1     -10.744   7.457  67.562  1.00  0.00    -0.310 A  
HETATM   11  C   UNL     1     -10.817   6.550  68.626  1.00  0.00    -0.357 A  
HETATM   12  C   UNL     1      -8.605   7.181  69.287  1.00  0.00    -0.137 A  
HETATM   13  C   UNL     1      -8.522   8.077  68.222  1.00  0.00    -0.123 A  
HETATM   14  C   UNL     1      -9.595   8.217  67.357  1.00  0.00    -0.205 A  
ENDBRANCH   3   9
BRANCH   7  15
HETATM   15  N   UNL     1     -10.879   7.990  72.045  1.00  0.00    -0.253 N  
HETATM   16  H   UNL     1     -10.003   8.479  71.859  1.00  0.00     0.000 HD 
HETATM   17  C   UNL     1     -12.053   8.641  71.753  1.00  0.00    -0.340 C  
HETATM   18  O   UNL     1     -13.159   8.163  71.973  1.00  0.00    -0.321 OA 
BRANCH  17  19
HETATM   19  C   UNL     1     -11.925   9.990  71.132  1.00  0.00    -0.484 A  
HETATM   20  N   UNL     1     -12.802  12.263  70.975  1.00  0.00    -0.228 NA 
HETATM   21  C   UNL     1     -12.807  11.003  71.504  1.00  0.00    -0.450 A  
HETATM   22  C   UNL     1     -11.911  12.476  69.994  1.00  0.00    -0.299 A  
HETATM   23  C   UNL     1     -11.719  13.797  69.302  1.00  0.00    -0.376 C  
HETATM   24  C   UNL     1     -10.783  13.439  68.126  1.00  0.00    -0.267 C  
HETATM   25  C   UNL     1     -10.281  11.986  68.316  1.00  0.00    -0.207 C  
HETATM   26  C   UNL     1      -9.554  14.383  68.086  1.00  0.00    -0.218 C  
HETATM   27  O   UNL     1      -8.725  14.534  68.965  1.00  0.00    -0.138 OA 
HETATM   28  C   UNL     1     -11.043  11.519  69.515  1.00  0.00    -0.256 A  
HETATM   29  N   UNL     1      -9.545  15.008  66.856  1.00  0.00    -0.230 N  
HETATM   30  C   UNL     1     -10.630  14.644  66.091  1.00  0.00    -0.312 A  
HETATM   31  C   UNL     1     -11.000  10.274  70.121  1.00  0.00    -0.377 A  
HETATM   32  H   UNL     1      -8.823  15.661  66.551  1.00  0.00     0.000 HD 
HETATM   33  N   UNL     1     -10.897  15.143  64.883  1.00  0.00    -0.422 NA 
HETATM   34  C   UNL     1     -12.044  14.686  64.330  1.00  0.00    -0.462 A  
HETATM   35  C   UNL     1     -12.898  13.761  64.936  1.00  0.00    -0.242 A  
HETATM   36  C   UNL     1     -12.571  13.256  66.196  1.00  0.00    -0.208 A  
HETATM   37  C   UNL     1     -11.404  13.716  66.778  1.00  0.00    -0.346 A  
ENDBRANCH  17  19
ENDBRANCH   7  15
BRANCH   6  38
HETATM   38  C   UNL     1      -7.049   6.837  72.777  1.00  0.00    -0.075 C  
HETATM   39  F   UNL     1      -5.923   8.392  71.362  1.00  0.00    -0.033 F  
HETATM   40  F   UNL     1      -6.502   9.120  73.334  1.00  0.00    -0.028 F  
HETATM   41  C   UNL     1      -6.877   8.310  72.326  1.00  0.00    -0.088 C  
HETATM   42  F   UNL     1      -8.005   8.829  71.770  1.00  0.00    -0.153 F  
ENDBRANCH   6  38
TORSDOF 4
ENDMDL
MODEL        4
REMARK 921   NORMALIZED FREE ENERGY PREDICTED BY IDOCK:   -8.05 KCAL/MOL
REMARK 922        TOTAL FREE ENERGY PREDICTED BY IDOCK:  -11.53 KCAL/MOL
REMARK 923 INTER-LIGAND FREE ENERGY PREDICTED BY IDOCK:  -10.98 KCAL/MOL
REMARK 924 INTRA-LIGAND FREE ENERGY PREDICTED BY IDOCK:   -0.55 KCAL/MOL
REMARK 927      BINDING AFFINITY PREDICTED BY RF-SCORE:    0.00 PKD
ROOT
HETATM    1  C   UNL     1      -8.125   4.217  71.205  1.00  0.00    -0.077 C  
HETATM    2  C   UNL     1      -9.130   5.242  71.748  1.00  0.00    -0.138 C  
HETATM    3  C   UNL     1     -10.391   5.335  70.841  1.00  0.00    -0.303 C  
HETATM    4  C   UNL     1     -11.425   6.243  71.535  1.00  0.00    -0.351 C  
HETATM    5  O   UNL     1      -9.099   8.404  73.395  1.00  0.00    -0.216 OA 
HETATM    6  N   UNL     1      -8.621   6.586  72.083  1.00  0.00    -0.124 N  
HETATM    7  C   UNL     1     -10.877   7.612  71.941  1.00  0.00    -0.233 C  
HETATM    8  C   UNL     1      -9.505   7.522  72.638  1.00  0.00    -0.163 C  
ENDROOT
BRANCH   3   9
HETATM    9  C   UNL     1     -10.143   5.690  69.376  1.00  0.00    -0.290 A  
HETATM   10  C   UNL     1      -8.612   5.815  67.484  1.00  0.00    -0.105 A  
HETATM   11  C   UNL     1      -8.887   5.441  68.805  1.00  0.00    -0.107 A  
HETATM   12  C   UNL     1     -11.107   6.301  68.562  1.00  0.00    -0.397 A  
HETATM   13  C   UNL     1     -10.835   6.688  67.250  1.00  0.00    -0.456 A  
HETATM   14  C   UNL     1      -9.584   6.443  66.708  1.00  0.00    -0.189 A  
ENDBRANCH   3   9
BRANCH   7  15
HETATM   15  N   UNL     1     -10.663   8.518  70.809  1.00  0.00    -0.211 N  
HETATM   16  H   UNL     1     -10.017   8.224  70.076  1.00  0.00     0.000 HD 
HETATM   17  C   UNL     1     -11.276   9.740  70.673  1.00  0.00    -0.334 C  
HETATM   18  O   UNL     1     -12.038  10.208  71.511  1.00  0.00    -0.377 OA 
BRANCH  17  19
HETATM   19  C   UNL     1     -10.978  10.495  69.423  1.00  0.00    -0.297 A  
HETATM   20  N   UNL     1      -9.311  11.093  67.742  1.00  0.00    -0.161 NA 
HETATM   21  C   UNL     1      -9.703  10.418  68.863  1.00  0.00    -0.198 A  
HETATM   22  C   UNL     1     -10.228  11.918  67.213  1.00  0.00    -0.200 A  
HETATM   23  C   UNL     1     -10.013  12.727  65.963  1.00  0.00    -0.277 C  
HETATM   24  C   UNL     1     -11.242  13.662  65.939  1.00  0.00    -0.311 C  
HETATM   25  C   UNL     1     -12.236  13.203  67.035  1.00  0.00    -0.271 C  
HETATM   26  C   UNL     1     -11.960  13.601  64.566  1.00  0.00    -0.418 C  
HETATM   27  O   UNL     1     -12.447  12.615  64.044  1.00  0.00    -0.547 OA 
HETATM   28  C   UNL     1     -11.490  12.110  67.731  1.00  0.00    -0.398 A  
HETATM   29  N   UNL     1     -11.980  14.879  64.046  1.00  0.00    -0.867 N  
HETATM   30  C   UNL     1     -11.328  15.773  64.866  1.00  0.00    -0.280 A  
HETATM   31  C   UNL     1     -11.903  11.352  68.816  1.00  0.00    -0.388 A  
HETATM   32  H   UNL     1     -12.423  15.131  63.163  1.00  0.00     0.000 HD 
HETATM   33  N   UNL     1     -11.149  17.063  64.576  1.00  0.00    -1.062 NA 
HETATM   34  C   UNL     1     -10.434  17.749  65.497  1.00  0.00    -0.017 A  
HETATM   35  C   UNL     1      -9.920  17.193  66.671  1.00  0.00    -0.298 A  
HETATM   36  C   UNL     1     -10.143  15.841  66.939  1.00  0.00    -0.267 A  
HETATM   37  C   UNL     1     -10.869  15.123  66.005  1.00  0.00    -0.335 A  
ENDBRANCH  17  19
ENDBRANCH   7  15
BRANCH   6  38
HETATM   38  C   UNL     1      -7.183   6.923  72.178  1.00  0.00    -0.082 C  
HETATM   39  F   UNL     1      -6.089   7.294  74.265  1.00  0.00    -0.073 F  
HETATM   40  F   UNL     1      -5.365   5.615  73.076  1.00  0.00    -0.019 F  
HETATM   41  C   UNL     1      -6.469   6.308  73.410  1.00  0.00    -0.065 C  
HETATM   42  F   UNL     1      -7.276   5.487  74.135  1.00  0.00    -0.079 F  
ENDBRANCH   6  38
TORSDOF 4
ENDMDL
MODEL        5
REMARK 921   NORMALIZED FREE ENERGY PREDICTED BY IDOCK:   -8.04 KCAL/MOL
REMARK 922        TOTAL FREE ENERGY PREDICTED BY IDOCK:  -11.51 KCAL/MOL
REMARK 923 INTER-LIGAND FREE ENERGY PREDICTED BY IDOCK:   -9.07 KCAL/MOL
REMARK 924 INTRA-LIGAND FREE ENERGY PREDICTED BY IDOCK:   -2.44 KCAL/MOL
REMARK 927      BINDING AFFINITY PREDICTED BY RF-SCORE:    0.00 PKD
ROOT
HETATM    1  C   UNL     1      -7.102   7.202  69.772  1.00  0.00    -0.073 C  
HETATM    2  C   UNL     1      -7.821   7.191  68.416  1.00  0.00    -0.122 C  
HETATM    3  C   UNL     1      -7.045   8.028  67.357  1.00  0.00    -0.083 C  
HETATM    4  C   UNL     1      -7.722   7.830  65.987  1.00  0.00    -0.093 C  
HETATM    5  O   UNL     1     -11.156   7.207  67.156  1.00  0.00    -0.326 OA 
HETATM    6  N   UNL     1      -9.257   7.525  68.402  1.00  0.00    -0.140 N  
HETATM    7  C   UNL     1      -9.226   8.112  65.990  1.00  0.00    -0.147 C  
HETATM    8  C   UNL     1      -9.952   7.463  67.186  1.00  0.00    -0.215 C  
ENDROOT
BRANCH   3   9
HETATM    9  C   UNL     1      -6.787   9.492  67.712  1.00  0.00    -0.078 A  
HETATM   10  C   UNL     1      -5.973  11.692  67.053  1.00  0.00    -0.138 A  
HETATM   11  C   UNL     1      -6.279  10.363  66.739  1.00  0.00    -0.069 A  
HETATM   12  C   UNL     1      -6.998  10.017  68.995  1.00  0.00    -0.056 A  
HETATM   13  C   UNL     1      -6.682  11.336  69.318  1.00  0.00    -0.110 A  
HETATM   14  C   UNL     1      -6.171  12.178  68.345  1.00  0.00    -0.052 A  
ENDBRANCH   3   9
BRANCH   7  15
HETATM   15  N   UNL     1      -9.556   9.537  66.082  1.00  0.00    -0.218 N  
HETATM   16  H   UNL     1      -9.757   9.924  67.004  1.00  0.00     0.000 HD 
HETATM   17  C   UNL     1      -9.612  10.386  65.002  1.00  0.00    -0.280 C  
HETATM   18  O   UNL     1      -9.428  10.019  63.848  1.00  0.00    -0.276 OA 
BRANCH  17  19
HETATM   19  C   UNL     1      -9.907  11.817  65.300  1.00  0.00    -0.267 A  
HETATM   20  N   UNL     1     -10.769  13.945  64.471  1.00  0.00    -0.405 NA 
HETATM   21  C   UNL     1     -10.488  12.616  64.318  1.00  0.00    -0.392 A  
HETATM   22  C   UNL     1     -10.388  14.486  65.638  1.00  0.00    -0.349 A  
HETATM   23  C   UNL     1     -10.632  15.920  66.022  1.00  0.00    -0.331 C  
HETATM   24  C   UNL     1      -9.799  16.079  67.313  1.00  0.00    -0.236 C  
HETATM   25  C   UNL     1      -9.300  14.682  67.758  1.00  0.00    -0.197 C  
HETATM   26  C   UNL     1     -10.656  16.682  68.456  1.00  0.00    -0.338 C  
HETATM   27  O   UNL     1     -11.672  16.209  68.930  1.00  0.00    -0.357 OA 
HETATM   28  C   UNL     1      -9.750  13.792  66.644  1.00  0.00    -0.293 A  
HETATM   29  N   UNL     1     -10.042  17.847  68.871  1.00  0.00    -0.372 N  
HETATM   30  C   UNL     1      -8.920  18.125  68.124  1.00  0.00    -0.290 A  
HETATM   31  C   UNL     1      -9.552  12.427  66.509  1.00  0.00    -0.242 A  
HETATM   32  H   UNL     1     -10.379  18.430  69.636  1.00  0.00     0.000 HD 
HETATM   33  N   UNL     1      -8.171  19.219  68.274  1.00  0.00    -0.324 NA 
HETATM   34  C   UNL     1      -7.145  19.319  67.399  1.00  0.00    -0.204 A  
HETATM   35  C   UNL     1      -6.853  18.372  66.414  1.00  0.00    -0.252 A  
HETATM   36  C   UNL     1      -7.656  17.237  66.302  1.00  0.00    -0.360 A  
HETATM   37  C   UNL     1      -8.713  17.121  67.186  1.00  0.00    -0.227 A  
ENDBRANCH  17  19
ENDBRANCH   7  15
BRANCH   6  38
HETATM   38  C   UNL     1     -10.096   7.607  69.619  1.00  0.00    -0.194 C  
HETATM   39  F   UNL     1      -9.829   9.330  71.246  1.00  0.00    -0.315 F  
HETATM   40  F   UNL     1     -11.753   9.254  70.222  1.00  0.00    -0.266 F  
HETATM   41  C   UNL     1     -10.432   9.055  70.059  1.00  0.00    -0.214 C  
HETATM   42  F   UNL     1      -9.971   9.994  69.189  1.00  0.00    -0.167 F  
ENDBRANCH   6  38
TORSDOF 4
ENDMDL
MODEL        6
REMARK 921   NORMALIZED FREE ENERGY PREDICTED BY IDOCK:   -7.72 KCAL/MOL
REMARK 922        TOTAL FREE ENERGY PREDICTED BY IDOCK:  -11.12 KCAL/MOL
REMARK 923 INTER-LIGAND FREE ENERGY PREDICTED BY IDOCK:   -9.45 KCAL/MOL
REMARK 924 INTRA-LIGAND FREE ENERGY PREDICTED BY IDOCK:   -1.67 KCAL/MOL
REMARK 927      BINDING AFFINITY PREDICTED BY RF-SCORE:    0.00 PKD
ROOT
HETATM    1  C   UNL     1      -7.775   8.000  72.438  1.00  0.00    -0.146 C  
HETATM    2  C   UNL     1      -8.317   7.091  71.325  1.00  0.00    -0.114 C  
HETATM    3  C   UNL     1      -7.349   7.049  70.107  1.00  0.00    -0.081 C  
HETATM    4  C   UNL     1      -7.865   5.990  69.112  1.00  0.00    -0.099 C  
HETATM    5  O   UNL     1     -11.456   6.216  69.880  1.00  0.00    -0.421 OA 
HETATM    6  N   UNL     1      -9.709   7.307  70.886  1.00  0.00    -0.171 N  
HETATM    7  C   UNL     1      -9.329   6.177  68.708  1.00  0.00    -0.123 C  
HETATM    8  C   UNL     1     -10.249   6.453  69.914  1.00  0.00    -0.183 C  
ENDROOT
BRANCH   3   9
HETATM    9  C   UNL     1      -7.019   8.394  69.461  1.00  0.00    -0.045 A  
HETATM   10  C   UNL     1      -7.487  10.774  69.229  1.00  0.00    -0.135 A  
HETATM   11  C   UNL     1      -7.724   9.542  69.849  1.00  0.00    -0.129 A  
HETATM   12  C   UNL     1      -6.058   8.543  68.451  1.00  0.00    -0.050 A  
HETATM   13  C   UNL     1      -5.827   9.765  67.820  1.00  0.00    -0.040 A  
HETATM   14  C   UNL     1      -6.542  10.885  68.211  1.00  0.00    -0.058 A  
ENDBRANCH   3   9
BRANCH   7  15
HETATM   15  N   UNL     1      -9.549   7.309  67.804  1.00  0.00    -0.137 N  
HETATM   16  H   UNL     1     -10.164   8.060  68.118  1.00  0.00     0.000 HD 
HETATM   17  C   UNL     1      -8.981   7.422  66.558  1.00  0.00    -0.159 C  
HETATM   18  O   UNL     1      -8.261   6.562  66.067  1.00  0.00    -0.115 OA 
BRANCH  17  19
HETATM   19  C   UNL     1      -9.277   8.675  65.807  1.00  0.00    -0.245 A  
HETATM   20  N   UNL     1      -8.647  10.161  63.974  1.00  0.00    -0.178 NA 
HETATM   21  C   UNL     1      -8.487   9.021  64.712  1.00  0.00    -0.180 A  
HETATM   22  C   UNL     1      -9.601  11.001  64.407  1.00  0.00    -0.259 A  
HETATM   23  C   UNL     1      -9.961  12.291  63.723  1.00  0.00    -0.302 C  
HETATM   24  C   UNL     1     -10.909  12.968  64.737  1.00  0.00    -0.357 C  
HETATM   25  C   UNL     1     -11.249  11.950  65.855  1.00  0.00    -0.373 C  
HETATM   26  C   UNL     1     -12.230  13.409  64.055  1.00  0.00    -0.405 C  
HETATM   27  O   UNL     1     -13.028  12.689  63.483  1.00  0.00    -0.683 OA 
HETATM   28  C   UNL     1     -10.388  10.776  65.516  1.00  0.00    -0.308 A  
HETATM   29  N   UNL     1     -12.362  14.771  64.237  1.00  0.00    -0.781 N  
HETATM   30  C   UNL     1     -11.282  15.302  64.906  1.00  0.00    -0.415 A  
HETATM   31  C   UNL     1     -10.273   9.576  66.199  1.00  0.00    -0.272 A  
HETATM   32  H   UNL     1     -13.161  15.316  63.915  1.00  0.00     0.000 HD 
HETATM   33  N   UNL     1     -11.125  16.601  65.163  1.00  0.00    -0.357 NA 
HETATM   34  C   UNL     1      -9.964  16.913  65.785  1.00  0.00    -0.184 A  
HETATM   35  C   UNL     1      -8.992  15.979  66.153  1.00  0.00    -0.381 A  
HETATM   36  C   UNL     1      -9.205  14.628  65.875  1.00  0.00    -0.035 A  
HETATM   37  C   UNL     1     -10.385  14.293  65.235  1.00  0.00    -0.417 A  
ENDBRANCH  17  19
ENDBRANCH   7  15
BRANCH   6  38
HETATM   38  C   UNL     1     -10.683   8.148  71.617  1.00  0.00    -0.241 C  
HETATM   39  F   UNL     1     -10.902  10.491  71.228  1.00  0.00    -0.068 F  
HETATM   40  F   UNL     1     -12.654   9.269  70.792  1.00  0.00    -0.286 F  
HETATM   41  C   UNL     1     -11.309   9.280  70.763  1.00  0.00    -0.287 C  
HETATM   42  F   UNL     1     -10.918   9.239  69.460  1.00  0.00    -0.236 F  
ENDBRANCH   6  38
TORSDOF 4
ENDMDL
MODEL        7
REMARK 921   NORMALIZED FREE ENERGY PREDICTED BY IDOCK:   -7.68 KCAL/MOL
REMARK 922        TOTAL FREE ENERGY PREDICTED BY IDOCK:  -11.07 KCAL/MOL
REMARK 923 INTER-LIGAND FREE ENERGY PREDICTED BY IDOCK:   -9.33 KCAL/MOL
REMARK 924 INTRA-LIGAND FREE ENERGY PREDICTED BY IDOCK:   -1.75 KCAL/MOL
REMARK 927      BINDING AFFINITY PREDICTED BY RF-SCORE:    0.00 PKD
ROOT
HETATM    1  C   UNL     1     -10.972  15.375  69.302  1.00  0.00    -0.261 C  
HETATM    2  C   UNL     1     -11.465  15.259  67.852  1.00  0.00    -0.316 C  
HETATM    3  C   UNL     1     -12.147  13.884  67.595  1.00  0.00    -0.342 C  
HETATM    4  C   UNL     1     -12.769  13.905  66.184  1.00  0.00    -0.336 C  
HETATM    5  O   UNL     1     -10.436  16.262  64.590  1.00  0.00    -0.538 OA 
HETATM    6  N   UNL     1     -10.507  15.582  66.778  1.00  0.00    -0.290 N  
HETATM    7  C   UNL     1     -11.790  14.305  65.079  1.00  0.00    -0.396 C  
HETATM    8  C   UNL     1     -10.948  15.543  65.448  1.00  0.00    -0.357 C  
ENDROOT
BRANCH   3   9
HETATM    9  C   UNL     1     -11.296  12.646  67.875  1.00  0.00    -0.337 A  
HETATM   10  C   UNL     1     -11.164  10.249  68.292  1.00  0.00    -0.295 A  
HETATM   11  C   UNL     1     -11.910  11.390  67.972  1.00  0.00    -0.273 A  
HETATM   12  C   UNL     1      -9.911  12.701  68.086  1.00  0.00    -0.225 A  
HETATM   13  C   UNL     1      -9.165  11.571  68.418  1.00  0.00    -0.190 A  
HETATM   14  C   UNL     1      -9.792  10.340  68.520  1.00  0.00    -0.174 A  
ENDBRANCH   3   9
BRANCH   7  15
HETATM   15  N   UNL     1     -10.807  13.266  64.761  1.00  0.00    -0.339 N  
HETATM   16  H   UNL     1      -9.861  13.375  65.126  1.00  0.00     0.000 HD 
HETATM   17  C   UNL     1     -11.079  12.155  64.000  1.00  0.00    -0.386 C  
HETATM   18  O   UNL     1     -12.169  11.946  63.480  1.00  0.00    -0.524 OA 
BRANCH  17  19
HETATM   19  C   UNL     1      -9.965  11.178  63.834  1.00  0.00    -0.381 A  
HETATM   20  N   UNL     1      -8.233  10.279  62.366  1.00  0.00    -0.150 NA 
HETATM   21  C   UNL     1      -9.248  11.153  62.639  1.00  0.00    -0.323 A  
HETATM   22  C   UNL     1      -7.986   9.365  63.317  1.00  0.00    -0.142 A  
HETATM   23  C   UNL     1      -6.893   8.335  63.232  1.00  0.00    -0.085 C  
HETATM   24  C   UNL     1      -7.198   7.407  64.429  1.00  0.00    -0.078 C  
HETATM   25  C   UNL     1      -8.303   8.061  65.296  1.00  0.00    -0.151 C  
HETATM   26  C   UNL     1      -5.938   7.203  65.309  1.00  0.00    -0.037 C  
HETATM   27  O   UNL     1      -5.305   8.070  65.883  1.00  0.00    -0.028 OA 
HETATM   28  C   UNL     1      -8.684   9.270  64.502  1.00  0.00    -0.218 A  
HETATM   29  N   UNL     1      -5.674   5.849  65.357  1.00  0.00    -0.023 N  
HETATM   30  C   UNL     1      -6.559   5.130  64.586  1.00  0.00    -0.043 A  
HETATM   31  C   UNL     1      -9.649  10.217  64.801  1.00  0.00    -0.369 A  
HETATM   32  H   UNL     1      -4.915   5.433  65.896  1.00  0.00     0.000 HD 
HETATM   33  N   UNL     1      -6.496   3.810  64.407  1.00  0.00    -0.036 NA 
HETATM   34  C   UNL     1      -7.434   3.314  63.567  1.00  0.00    -0.059 A  
HETATM   35  C   UNL     1      -8.410   4.085  62.931  1.00  0.00    -0.084 A  
HETATM   36  C   UNL     1      -8.445   5.462  63.157  1.00  0.00    -0.070 A  
HETATM   37  C   UNL     1      -7.490   5.986  64.010  1.00  0.00    -0.080 A  
ENDBRANCH  17  19
ENDBRANCH   7  15
BRANCH   6  38
HETATM   38  C   UNL     1      -9.208  16.255  67.006  1.00  0.00    -0.214 C  
HETATM   39  F   UNL     1      -8.701  18.403  66.104  1.00  0.00    -0.289 F  
HETATM   40  F   UNL     1      -8.723  18.246  68.278  1.00  0.00    -0.257 F  
HETATM   41  C   UNL     1      -9.310  17.794  67.155  1.00  0.00    -0.264 C  
HETATM   42  F   UNL     1     -10.594  18.244  67.143  1.00  0.00    -0.370 F  
ENDBRANCH   6  38
TORSDOF 4
ENDMDL
MODEL        8
REMARK 921   NORMALIZED FREE ENERGY PREDICTED BY IDOCK:   -7.64 KCAL/MOL
REMARK 922        TOTAL FREE ENERGY PREDICTED BY IDOCK:  -11.02 KCAL/MOL
REMARK 923 INTER-LIGAND FREE ENERGY PREDICTED BY IDOCK:   -9.90 KCAL/MOL
REMARK 924 INTRA-LIGAND FREE ENERGY PREDICTED BY IDOCK:   -1.12 KCAL/MOL
REMARK 927      BINDING AFFINITY PREDICTED BY RF-SCORE:    0.00 PKD
ROOT
HETATM    1  C   UNL     1      -9.967  19.153  68.952  1.00  0.00    -0.481 C  
HETATM    2  C   UNL     1      -9.552  18.328  67.725  1.00  0.00    -0.283 C  
HETATM    3  C   UNL     1     -10.648  17.291  67.343  1.00  0.00    -0.303 C  
HETATM    4  C   UNL     1     -10.248  16.627  66.010  1.00  0.00    -0.366 C  
HETATM    5  O   UNL     1      -6.593  16.910  66.331  1.00  0.00    -0.214 OA 
HETATM    6  N   UNL     1      -8.217  17.702  67.743  1.00  0.00    -0.221 N  
HETATM    7  C   UNL     1      -8.837  16.036  66.010  1.00  0.00    -0.279 C  
HETATM    8  C   UNL     1      -7.789  16.994  66.611  1.00  0.00    -0.264 C  
ENDROOT
BRANCH   3   9
HETATM    9  C   UNL     1     -11.044  16.296  68.433  1.00  0.00    -0.362 A  
HETATM   10  C   UNL     1     -12.283  14.306  69.099  1.00  0.00    -0.272 A  
HETATM   11  C   UNL     1     -11.852  15.197  68.109  1.00  0.00    -0.252 A  
HETATM   12  C   UNL     1     -10.672  16.445  69.777  1.00  0.00    -0.324 A  
HETATM   13  C   UNL     1     -11.109  15.569  70.769  1.00  0.00    -0.383 A  
HETATM   14  C   UNL     1     -11.915  14.495  70.431  1.00  0.00    -0.386 A  
ENDBRANCH   3   9
BRANCH   7  15
HETATM   15  N   UNL     1      -8.714  14.806  66.797  1.00  0.00    -0.335 N  
HETATM   16  H   UNL     1      -8.146  14.835  67.644  1.00  0.00     0.000 HD 
HETATM   17  C   UNL     1      -9.317  13.616  66.467  1.00  0.00    -0.228 C  
HETATM   18  O   UNL     1      -9.988  13.460  65.454  1.00  0.00    -0.269 OA 
BRANCH  17  19
HETATM   19  C   UNL     1      -9.124  12.489  67.424  1.00  0.00    -0.185 A  
HETATM   20  N   UNL     1      -7.552  11.189  68.765  1.00  0.00    -0.122 NA 
HETATM   21  C   UNL     1      -7.848  12.215  67.913  1.00  0.00    -0.147 A  
HETATM   22  C   UNL     1      -8.578  10.382  69.078  1.00  0.00    -0.157 A  
HETATM   23  C   UNL     1      -8.477   9.216  70.022  1.00  0.00    -0.164 C  
HETATM   24  C   UNL     1      -9.833   8.501  69.838  1.00  0.00    -0.186 C  
HETATM   25  C   UNL     1     -10.756   9.401  68.979  1.00  0.00    -0.209 C  
HETATM   26  C   UNL     1     -10.521   8.252  71.204  1.00  0.00    -0.209 C  
HETATM   27  O   UNL     1     -10.849   9.097  72.017  1.00  0.00    -0.352 OA 
HETATM   28  C   UNL     1      -9.860  10.535  68.594  1.00  0.00    -0.183 A  
HETATM   29  N   UNL     1     -10.730   6.893  71.328  1.00  0.00    -0.221 N  
HETATM   30  C   UNL     1     -10.228   6.201  70.249  1.00  0.00    -0.199 A  
HETATM   31  C   UNL     1     -10.163  11.631  67.803  1.00  0.00    -0.202 A  
HETATM   32  H   UNL     1     -11.197   6.456  72.121  1.00  0.00     0.000 HD 
HETATM   33  N   UNL     1     -10.243   4.872  70.139  1.00  0.00    -0.262 NA 
HETATM   34  C   UNL     1      -9.648   4.396  69.020  1.00  0.00    -0.174 A  
HETATM   35  C   UNL     1      -9.067   5.198  68.034  1.00  0.00    -0.123 A  
HETATM   36  C   UNL     1      -9.086   6.585  68.186  1.00  0.00    -0.114 A  
HETATM   37  C   UNL     1      -9.686   7.088  69.327  1.00  0.00    -0.158 A  
ENDBRANCH  17  19
ENDBRANCH   7  15
BRANCH   6  38
HETATM   38  C   UNL     1      -7.166  18.029  68.733  1.00  0.00    -0.278 C  
HETATM   39  F   UNL     1      -5.201  19.253  68.159  1.00  0.00    -0.174 F  
HETATM   40  F   UNL     1      -6.525  20.177  69.624  1.00  0.00    -0.343 F  
HETATM   41  C   UNL     1      -6.502  19.413  68.517  1.00  0.00    -0.254 C  
HETATM   42  F   UNL     1      -7.074  20.124  67.507  1.00  0.00    -0.264 F  
ENDBRANCH   6  38
TORSDOF 4
ENDMDL
MODEL        9
REMARK 921   NORMALIZED FREE ENERGY PREDICTED BY IDOCK:   -7.64 KCAL/MOL
REMARK 922        TOTAL FREE ENERGY PREDICTED BY IDOCK:  -11.02 KCAL/MOL
REMARK 923 INTER-LIGAND FREE ENERGY PREDICTED BY IDOCK:   -8.72 KCAL/MOL
REMARK 924 INTRA-LIGAND FREE ENERGY PREDICTED BY IDOCK:   -2.30 KCAL/MOL
REMARK 927      BINDING AFFINITY PREDICTED BY RF-SCORE:    0.00 PKD
ROOT
HETATM    1  C   UNL     1      -7.198   5.680  69.949  1.00  0.00    -0.069 C  
HETATM    2  C   UNL     1      -7.650   5.724  68.482  1.00  0.00    -0.089 C  
HETATM    3  C   UNL     1      -6.900   6.836  67.692  1.00  0.00    -0.080 C  
HETATM    4  C   UNL     1      -7.269   6.707  66.201  1.00  0.00    -0.071 C  
HETATM    5  O   UNL     1     -10.638   5.279  66.590  1.00  0.00    -0.284 OA 
HETATM    6  N   UNL     1      -9.100   5.775  68.216  1.00  0.00    -0.117 N  
HETATM    7  C   UNL     1      -8.776   6.693  65.933  1.00  0.00    -0.137 C  
HETATM    8  C   UNL     1      -9.542   5.754  66.886  1.00  0.00    -0.141 C  
ENDROOT
BRANCH   3   9
HETATM    9  C   UNL     1      -7.029   8.256  68.240  1.00  0.00    -0.076 A  
HETATM   10  C   UNL     1      -6.439  10.616  68.094  1.00  0.00    -0.062 A  
HETATM   11  C   UNL     1      -6.391   9.315  67.579  1.00  0.00    -0.062 A  
HETATM   12  C   UNL     1      -7.733   8.564  69.413  1.00  0.00    -0.092 A  
HETATM   13  C   UNL     1      -7.773   9.854  69.938  1.00  0.00    -0.177 A  
HETATM   14  C   UNL     1      -7.126  10.885  69.277  1.00  0.00    -0.124 A  
ENDBRANCH   3   9
BRANCH   7  15
HETATM   15  N   UNL     1      -9.415   8.001  66.102  1.00  0.00    -0.384 N  
HETATM   16  H   UNL     1      -9.991   8.148  66.931  1.00  0.00     0.000 HD 
HETATM   17  C   UNL     1      -9.287   9.042  65.214  1.00  0.00    -0.088 C  
HETATM   18  O   UNL     1      -8.653   8.961  64.169  1.00  0.00    -0.179 OA 
BRANCH  17  19
HETATM   19  C   UNL     1      -9.965  10.316  65.587  1.00  0.00    -0.347 A  
HETATM   20  N   UNL     1     -11.539  12.065  64.934  1.00  0.00    -0.304 NA 
HETATM   21  C   UNL     1     -10.887  10.885  64.710  1.00  0.00    -0.083 A  
HETATM   22  C   UNL     1     -11.194  12.712  66.058  1.00  0.00    -0.306 A  
HETATM   23  C   UNL     1     -11.813  14.006  66.510  1.00  0.00    -0.439 C  
HETATM   24  C   UNL     1     -10.909  14.431  67.688  1.00  0.00    -0.276 C  
HETATM   25  C   UNL     1      -9.951  13.261  68.026  1.00  0.00    -0.233 C  
HETATM   26  C   UNL     1     -11.752  14.756  68.947  1.00  0.00    -0.309 C  
HETATM   27  O   UNL     1     -12.504  13.999  69.534  1.00  0.00    -0.299 OA 
HETATM   28  C   UNL     1     -10.248  12.261  66.954  1.00  0.00    -0.229 A  
HETATM   29  N   UNL     1     -11.477  16.058  69.312  1.00  0.00    -0.355 N  
HETATM   30  C   UNL     1     -10.601  16.658  68.437  1.00  0.00    -0.343 A  
HETATM   31  C   UNL     1      -9.661  11.022  66.757  1.00  0.00    -0.216 A  
HETATM   32  H   UNL     1     -11.874  16.519  70.131  1.00  0.00     0.000 HD 
HETATM   33  N   UNL     1     -10.211  17.931  68.520  1.00  0.00    -0.383 NA 
HETATM   34  C   UNL     1      -9.388  18.331  67.524  1.00  0.00    -0.261 A  
HETATM   35  C   UNL     1      -8.950  17.507  66.483  1.00  0.00    -0.284 A  
HETATM   36  C   UNL     1      -9.375  16.178  66.443  1.00  0.00    -0.329 A  
HETATM   37  C   UNL     1     -10.220  15.754  67.452  1.00  0.00    -0.270 A  
ENDBRANCH  17  19
ENDBRANCH   7  15
BRANCH   6  38
HETATM   38  C   UNL     1     -10.136   5.522  69.242  1.00  0.00    -0.223 C  
HETATM   39  F   UNL     1     -10.620   7.076  70.986  1.00  0.00    -0.221 F  
HETATM   40  F   UNL     1     -12.242   6.644  69.595  1.00  0.00    -0.284 F  
HETATM   41  C   UNL     1     -10.908   6.790  69.689  1.00  0.00    -0.271 C  
HETATM   42  F   UNL     1     -10.557   7.899  68.984  1.00  0.00    -0.217 F  
ENDBRANCH   6  38
TORSDOF 4
ENDMDL
MODEL       10
REMARK 921   NORMALIZED FREE ENERGY PREDICTED BY IDOCK:   -7.46 KCAL/MOL
REMARK 922        TOTAL FREE ENERGY PREDICTED BY IDOCK:  -10.79 KCAL/MOL
REMARK 923 INTER-LIGAND FREE ENERGY PREDICTED BY IDOCK:   -8.41 KCAL/MOL
REMARK 924 INTRA-LIGAND FREE ENERGY PREDICTED BY IDOCK:   -2.38 KCAL/MOL
REMARK 927      BINDING AFFINITY PREDICTED BY RF-SCORE:    0.00 PKD
ROOT
HETATM    1  C   UNL     1     -10.907   3.413  73.061  1.00  0.00    -0.192 C  
HETATM    2  C   UNL     1      -9.598   4.151  73.373  1.00  0.00    -0.113 C  
HETATM    3  C   UNL     1      -9.864   5.629  73.780  1.00  0.00    -0.175 C  
HETATM    4  C   UNL     1      -8.534   6.253  74.246  1.00  0.00    -0.126 C  
HETATM    5  O   UNL     1      -6.234   4.242  72.194  1.00  0.00    -0.019 OA 
HETATM    6  N   UNL     1      -8.513   4.065  72.377  1.00  0.00    -0.098 N  
HETATM    7  C   UNL     1      -7.391   6.105  73.239  1.00  0.00    -0.088 C  
HETATM    8  C   UNL     1      -7.285   4.679  72.663  1.00  0.00    -0.082 C  
ENDROOT
BRANCH   3   9
HETATM    9  C   UNL     1     -10.624   6.482  72.765  1.00  0.00    -0.257 A  
HETATM   10  C   UNL     1     -11.661   8.607  72.178  1.00  0.00    -0.442 A  
HETATM   11  C   UNL     1     -10.911   7.821  73.061  1.00  0.00    -0.442 A  
HETATM   12  C   UNL     1     -11.096   5.980  71.544  1.00  0.00    -0.336 A  
HETATM   13  C   UNL     1     -11.855   6.753  70.667  1.00  0.00    -0.442 A  
HETATM   14  C   UNL     1     -12.137   8.071  70.983  1.00  0.00    -0.232 A  
ENDBRANCH   3   9
BRANCH   7  15
HETATM   15  N   UNL     1      -7.526   6.973  72.066  1.00  0.00    -0.089 N  
HETATM   16  H   UNL     1      -7.694   6.532  71.161  1.00  0.00     0.000 HD 
HETATM   17  C   UNL     1      -7.440   8.344  72.107  1.00  0.00    -0.112 C  
HETATM   18  O   UNL     1      -7.203   8.972  73.131  1.00  0.00    -0.331 OA 
BRANCH  17  19
HETATM   19  C   UNL     1      -7.663   9.060  70.818  1.00  0.00    -0.144 A  
HETATM   20  N   UNL     1      -6.885  10.782  69.273  1.00  0.00    -0.080 NA 
HETATM   21  C   UNL     1      -6.761  10.042  70.414  1.00  0.00    -0.138 A  
HETATM   22  C   UNL     1      -7.997  10.555  68.555  1.00  0.00    -0.118 A  
HETATM   23  C   UNL     1      -8.312  11.237  67.252  1.00  0.00    -0.145 C  
HETATM   24  C   UNL     1      -9.774  10.817  66.986  1.00  0.00    -0.205 C  
HETATM   25  C   UNL     1     -10.172   9.726  68.012  1.00  0.00    -0.229 C  
HETATM   26  C   UNL     1      -9.934  10.232  65.559  1.00  0.00    -0.296 C  
HETATM   27  O   UNL     1      -9.360   9.260  65.103  1.00  0.00    -0.240 OA 
HETATM   28  C   UNL     1      -8.977   9.652  68.906  1.00  0.00    -0.144 A  
HETATM   29  N   UNL     1     -10.875  10.994  64.896  1.00  0.00    -0.203 N  
HETATM   30  C   UNL     1     -11.326  12.037  65.674  1.00  0.00    -0.329 A  
HETATM   31  C   UNL     1      -8.792   8.847  70.019  1.00  0.00    -0.165 A  
HETATM   32  H   UNL     1     -11.197  10.808  63.946  1.00  0.00     0.000 HD 
HETATM   33  N   UNL     1     -12.194  12.961  65.259  1.00  0.00    -0.452 NA 
HETATM   34  C   UNL     1     -12.459  13.928  66.167  1.00  0.00    -0.436 A  
HETATM   35  C   UNL     1     -11.900  13.982  67.447  1.00  0.00    -0.445 A  
HETATM   36  C   UNL     1     -11.006  12.986  67.842  1.00  0.00    -0.264 A  
HETATM   37  C   UNL     1     -10.720  11.992  66.923  1.00  0.00    -0.282 A  
ENDBRANCH  17  19
ENDBRANCH   7  15
BRANCH   6  38
HETATM   38  C   UNL     1      -8.508   3.115  71.242  1.00  0.00    -0.064 C  
HETATM   39  F   UNL     1      -9.887   3.406  69.319  1.00  0.00    -0.237 F  
HETATM   40  F   UNL     1      -7.734   3.440  68.981  1.00  0.00    -0.051 F  
HETATM   41  C   UNL     1      -8.697   3.782  69.856  1.00  0.00    -0.076 C  
HETATM   42  F   UNL     1      -8.739   5.140  69.923  1.00  0.00    -0.097 F  
ENDBRANCH   6  38
TORSDOF 4
ENDMDL
MODEL       11
REMARK 921   NORMALIZED FREE ENERGY PREDICTED BY IDOCK:   -7.38 KCAL/MOL
REMARK 922        TOTAL FREE ENERGY PREDICTED BY IDOCK:  -10.70 KCAL/MOL
REMARK 923 INTER-LIGAND FREE ENERGY PREDICTED BY IDOCK:   -9.09 KCAL/MOL
REMARK 924 INTRA-LIGAND FREE ENERGY PREDICTED BY IDOCK:   -1.61 KCAL/MOL
REMARK 927      BINDING AFFINITY PREDICTED BY RF-SCORE:    0.00 PKD
ROOT
HETATM    1  C   UNL     1     -10.740  15.499  69.385  1.00  0.00    -0.251 C  
HETATM    2  C   UNL     1     -11.281  15.299  67.962  1.00  0.00    -0.326 C  
HETATM    3  C   UNL     1     -12.031  13.942  67.827  1.00  0.00    -0.390 C  
HETATM    4  C   UNL     1     -12.693  13.888  66.436  1.00  0.00    -0.170 C  
HETATM    5  O   UNL     1     -10.307  16.010  64.608  1.00  0.00    -0.414 OA 
HETATM    6  N   UNL     1     -10.342  15.497  66.842  1.00  0.00    -0.284 N  
HETATM    7  C   UNL     1     -11.731  14.159  65.278  1.00  0.00    -0.353 C  
HETATM    8  C   UNL     1     -10.824  15.381  65.531  1.00  0.00    -0.374 C  
ENDROOT
BRANCH   3   9
HETATM    9  C   UNL     1     -11.227  12.690  68.177  1.00  0.00    -0.311 A  
HETATM   10  C   UNL     1      -9.065  11.597  68.438  1.00  0.00    -0.180 A  
HETATM   11  C   UNL     1      -9.827  12.744  68.184  1.00  0.00    -0.226 A  
HETATM   12  C   UNL     1     -11.823  11.452  68.459  1.00  0.00    -0.364 A  
HETATM   13  C   UNL     1     -11.070  10.304  68.699  1.00  0.00    -0.290 A  
HETATM   14  C   UNL     1      -9.687  10.375  68.691  1.00  0.00    -0.178 A  
ENDBRANCH   3   9
BRANCH   7  15
HETATM   15  N   UNL     1     -10.805  13.055  65.013  1.00  0.00    -0.296 N  
HETATM   16  H   UNL     1      -9.914  13.047  65.510  1.00  0.00     0.000 HD 
HETATM   17  C   UNL     1     -11.061  12.029  64.135  1.00  0.00    -0.368 C  
HETATM   18  O   UNL     1     -12.080  11.961  63.458  1.00  0.00    -0.504 OA 
BRANCH  17  19
HETATM   19  C   UNL     1     -10.022  10.964  64.042  1.00  0.00    -0.403 A  
HETATM   20  N   UNL     1      -8.476   9.732  62.609  1.00  0.00    -0.155 NA 
HETATM   21  C   UNL     1      -9.412  10.705  62.815  1.00  0.00    -0.328 A  
HETATM   22  C   UNL     1      -8.200   8.960  63.672  1.00  0.00    -0.172 A  
HETATM   23  C   UNL     1      -7.178   7.856  63.669  1.00  0.00    -0.090 C  
HETATM   24  C   UNL     1      -7.430   7.147  65.018  1.00  0.00    -0.093 C  
HETATM   25  C   UNL     1      -8.418   8.002  65.851  1.00  0.00    -0.154 C  
HETATM   26  C   UNL     1      -6.113   6.995  65.821  1.00  0.00    -0.036 C  
HETATM   27  O   UNL     1      -5.385   7.894  66.200  1.00  0.00    -0.025 OA 
HETATM   28  C   UNL     1      -8.797   9.097  64.906  1.00  0.00    -0.215 A  
HETATM   29  N   UNL     1      -5.922   5.650  66.063  1.00  0.00    -0.024 N  
HETATM   30  C   UNL     1      -6.909   4.883  65.487  1.00  0.00    -0.061 A  
HETATM   31  C   UNL     1      -9.679  10.144  65.123  1.00  0.00    -0.370 A  
HETATM   32  H   UNL     1      -5.144   5.270  66.603  1.00  0.00     0.000 HD 
HETATM   33  N   UNL     1      -6.937   3.550  65.516  1.00  0.00    -0.056 NA 
HETATM   34  C   UNL     1      -7.969   2.996  64.839  1.00  0.00    -0.082 A  
HETATM   35  C   UNL     1      -8.952   3.726  64.165  1.00  0.00    -0.123 A  
HETATM   36  C   UNL     1      -8.889   5.120  64.171  1.00  0.00    -0.002 A  
HETATM   37  C   UNL     1      -7.837   5.702  64.855  1.00  0.00    -0.110 A  
ENDBRANCH  17  19
ENDBRANCH   7  15
BRANCH   6  38
HETATM   38  C   UNL     1      -9.009  16.123  66.984  1.00  0.00    -0.211 C  
HETATM   39  F   UNL     1      -8.501  18.276  66.091  1.00  0.00    -0.282 F  
HETATM   40  F   UNL     1      -8.363  18.068  68.257  1.00  0.00    -0.253 F  
HETATM   41  C   UNL     1      -9.049  17.662  67.173  1.00  0.00    -0.244 C  
HETATM   42  F   UNL     1     -10.315  18.151  67.270  1.00  0.00    -0.322 F  
ENDBRANCH   6  38
TORSDOF 4
ENDMDL
MODEL       12
REMARK 921   NORMALIZED FREE ENERGY PREDICTED BY IDOCK:   -7.38 KCAL/MOL
REMARK 922        TOTAL FREE ENERGY PREDICTED BY IDOCK:  -10.70 KCAL/MOL
REMARK 923 INTER-LIGAND FREE ENERGY PREDICTED BY IDOCK:   -8.93 KCAL/MOL
REMARK 924 INTRA-LIGAND FREE ENERGY PREDICTED BY IDOCK:   -1.77 KCAL/MOL
REMARK 927      BINDING AFFINITY PREDICTED BY RF-SCORE:    0.00 PKD
ROOT
HETATM    1  C   UNL     1     -10.983   6.619  69.230  1.00  0.00    -0.346 C  
HETATM    2  C   UNL     1      -9.736   7.234  69.882  1.00  0.00    -0.174 C  
HETATM    3  C   UNL     1     -10.100   8.486  70.731  1.00  0.00    -0.237 C  
HETATM    4  C   UNL     1      -8.838   8.942  71.492  1.00  0.00    -0.253 C  
HETATM    5  O   UNL     1      -6.300   7.772  69.098  1.00  0.00    -0.034 OA 
HETATM    6  N   UNL     1      -8.575   7.505  69.013  1.00  0.00    -0.135 N  
HETATM    7  C   UNL     1      -7.617   9.159  70.597  1.00  0.00    -0.133 C  
HETATM    8  C   UNL     1      -7.403   8.009  69.592  1.00  0.00    -0.085 C  
ENDROOT
BRANCH   3   9
HETATM    9  C   UNL     1     -10.818   9.615  69.994  1.00  0.00    -0.302 A  
HETATM   10  C   UNL     1     -11.378  10.719  67.895  1.00  0.00    -0.372 A  
HETATM   11  C   UNL     1     -10.784   9.661  68.594  1.00  0.00    -0.233 A  
HETATM   12  C   UNL     1     -11.490  10.654  70.654  1.00  0.00    -0.374 A  
HETATM   13  C   UNL     1     -12.072  11.717  69.965  1.00  0.00    -0.387 A  
HETATM   14  C   UNL     1     -12.018  11.750  68.581  1.00  0.00    -0.299 A  
ENDBRANCH   3   9
BRANCH   7  15
HETATM   15  N   UNL     1      -7.701  10.366  69.770  1.00  0.00    -0.281 N  
HETATM   16  H   UNL     1      -8.535  10.496  69.197  1.00  0.00     0.000 HD 
HETATM   17  C   UNL     1      -6.727  11.334  69.719  1.00  0.00    -0.099 C  
HETATM   18  O   UNL     1      -5.672  11.260  70.336  1.00  0.00    -0.117 OA 
BRANCH  17  19
HETATM   19  C   UNL     1      -7.019  12.520  68.865  1.00  0.00    -0.088 A  
HETATM   20  N   UNL     1      -6.113  14.372  67.556  1.00  0.00    -0.344 NA 
HETATM   21  C   UNL     1      -5.963  13.251  68.323  1.00  0.00    -0.090 A  
HETATM   22  C   UNL     1      -7.377  14.794  67.390  1.00  0.00    -0.185 A  
HETATM   23  C   UNL     1      -7.765  15.985  66.557  1.00  0.00    -0.167 C  
HETATM   24  C   UNL     1      -9.260  16.173  66.897  1.00  0.00    -0.246 C  
HETATM   25  C   UNL     1      -9.738  14.953  67.724  1.00  0.00    -0.212 C  
HETATM   26  C   UNL     1     -10.117  16.262  65.609  1.00  0.00    -0.312 C  
HETATM   27  O   UNL     1     -10.214  15.413  64.741  1.00  0.00    -0.301 OA 
HETATM   28  C   UNL     1      -8.479  14.176  67.939  1.00  0.00    -0.167 A  
HETATM   29  N   UNL     1     -10.784  17.470  65.630  1.00  0.00    -0.218 N  
HETATM   30  C   UNL     1     -10.447  18.218  66.736  1.00  0.00    -0.365 A  
HETATM   31  C   UNL     1      -8.317  12.991  68.639  1.00  0.00     0.027 A  
HETATM   32  H   UNL     1     -11.444  17.772  64.915  1.00  0.00     0.000 HD 
HETATM   33  N   UNL     1     -10.901  19.449  66.974  1.00  0.00    -0.473 NA 
HETATM   34  C   UNL     1     -10.400  20.024  68.092  1.00  0.00    -0.362 A  
HETATM   35  C   UNL     1      -9.492  19.407  68.956  1.00  0.00    -0.399 A  
HETATM   36  C   UNL     1      -9.054  18.112  68.673  1.00  0.00    -0.290 A  
HETATM   37  C   UNL     1      -9.553  17.512  67.531  1.00  0.00    -0.265 A  
ENDBRANCH  17  19
ENDBRANCH   7  15
BRANCH   6  38
HETATM   38  C   UNL     1      -8.441   6.988  67.632  1.00  0.00    -0.123 C  
HETATM   39  F   UNL     1      -9.430   8.074  65.754  1.00  0.00    -0.198 F  
HETATM   40  F   UNL     1      -7.255   7.934  65.757  1.00  0.00    -0.065 F  
HETATM   41  C   UNL     1      -8.329   8.093  66.550  1.00  0.00    -0.113 C  
HETATM   42  F   UNL     1      -8.280   9.347  67.077  1.00  0.00    -0.111 F  
ENDBRANCH   6  38
TORSDOF 4
ENDMDL
MODEL       13
REMARK 921   NORMALIZED FREE ENERGY PREDICTED BY IDOCK:   -7.33 KCAL/MOL
REMARK 922        TOTAL FREE ENERGY PREDICTED BY IDOCK:  -10.64 KCAL/MOL
REMARK 923 INTER-LIGAND FREE ENERGY PREDICTED BY IDOCK:   -8.94 KCAL/MOL
REMARK 924 INTRA-LIGAND FREE ENERGY PREDICTED BY IDOCK:   -1.71 KCAL/MOL
REMARK 927      BINDING AFFINITY PREDICTED BY RF-SCORE:    0.00 PKD
ROOT
HETATM    1  C   UNL     1      -5.682  18.913  68.224  1.00  0.00    -0.201 C  
HETATM    2  C   UNL     1      -7.213  18.934  68.106  1.00  0.00    -0.253 C  
HETATM    3  C   UNL     1      -7.866  17.857  69.019  1.00  0.00    -0.095 C  
HETATM    4  C   UNL     1      -9.395  18.051  68.984  1.00  0.00    -0.083 C  
HETATM    5  O   UNL     1      -9.693  19.469  65.601  1.00  0.00    -0.356 OA 
HETATM    6  N   UNL     1      -7.792  18.899  66.750  1.00  0.00    -0.243 N  
HETATM    7  C   UNL     1      -9.986  18.080  67.574  1.00  0.00    -0.327 C  
HETATM    8  C   UNL     1      -9.185  18.978  66.610  1.00  0.00    -0.329 C  
ENDROOT
BRANCH   3   9
HETATM    9  C   UNL     1      -7.422  16.414  68.783  1.00  0.00    -0.207 A  
HETATM   10  C   UNL     1      -7.407  14.086  69.503  1.00  0.00     0.154 A  
HETATM   11  C   UNL     1      -7.849  15.405  69.657  1.00  0.00    -0.149 A  
HETATM   12  C   UNL     1      -6.561  16.038  67.743  1.00  0.00    -0.175 A  
HETATM   13  C   UNL     1      -6.106  14.729  67.592  1.00  0.00    -0.087 A  
HETATM   14  C   UNL     1      -6.531  13.749  68.473  1.00  0.00    -0.093 A  
ENDBRANCH   3   9
BRANCH   7  15
HETATM   15  N   UNL     1     -10.018  16.768  66.923  1.00  0.00    -0.264 N  
HETATM   16  H   UNL     1      -9.393  16.611  66.132  1.00  0.00     0.000 HD 
HETATM   17  C   UNL     1     -10.838  15.735  67.310  1.00  0.00    -0.298 C  
HETATM   18  O   UNL     1     -11.653  15.828  68.219  1.00  0.00    -0.361 OA 
BRANCH  17  19
HETATM   19  C   UNL     1     -10.685  14.454  66.563  1.00  0.00    -0.306 A  
HETATM   20  N   UNL     1     -11.696  12.848  65.027  1.00  0.00    -0.327 NA 
HETATM   21  C   UNL     1     -11.715  14.019  65.730  1.00  0.00    -0.363 A  
HETATM   22  C   UNL     1     -10.622  12.069  65.229  1.00  0.00    -0.287 A  
HETATM   23  C   UNL     1     -10.388  10.758  64.530  1.00  0.00    -0.401 C  
HETATM   24  C   UNL     1      -9.175  10.173  65.287  1.00  0.00    -0.257 C  
HETATM   25  C   UNL     1      -8.607  11.263  66.231  1.00  0.00    -0.172 C  
HETATM   26  C   UNL     1      -8.058   9.745  64.301  1.00  0.00    -0.152 C  
HETATM   27  O   UNL     1      -7.474  10.461  63.509  1.00  0.00    -0.126 OA 
HETATM   28  C   UNL     1      -9.585  12.384  66.080  1.00  0.00    -0.238 A  
HETATM   29  N   UNL     1      -7.814   8.401  64.501  1.00  0.00    -0.128 N  
HETATM   30  C   UNL     1      -8.653   7.867  65.453  1.00  0.00    -0.095 A  
HETATM   31  C   UNL     1      -9.577  13.614  66.717  1.00  0.00    -0.277 A  
HETATM   32  H   UNL     1      -7.101   7.869  64.004  1.00  0.00     0.000 HD 
HETATM   33  N   UNL     1      -8.672   6.579  65.798  1.00  0.00    -0.145 NA 
HETATM   34  C   UNL     1      -9.613   6.260  66.717  1.00  0.00    -0.153 A  
HETATM   35  C   UNL     1     -10.501   7.175  67.288  1.00  0.00    -0.372 A  
HETATM   36  C   UNL     1     -10.436   8.516  66.905  1.00  0.00    -0.345 A  
HETATM   37  C   UNL     1      -9.483   8.859  65.963  1.00  0.00    -0.320 A  
ENDBRANCH  17  19
ENDBRANCH   7  15
BRANCH   6  38
HETATM   38  C   UNL     1      -7.008  19.109  65.512  1.00  0.00    -0.212 C  
HETATM   39  F   UNL     1      -7.125  21.128  64.247  1.00  0.00    -0.161 F  
HETATM   40  F   UNL     1      -5.181  20.630  65.102  1.00  0.00    -0.188 F  
HETATM   41  C   UNL     1      -6.508  20.563  65.319  1.00  0.00    -0.266 C  
HETATM   42  F   UNL     1      -6.800  21.369  66.375  1.00  0.00    -0.276 F  
ENDBRANCH   6  38
TORSDOF 4
ENDMDL
MODEL       14
REMARK 921   NORMALIZED FREE ENERGY PREDICTED BY IDOCK:   -7.26 KCAL/MOL
REMARK 922        TOTAL FREE ENERGY PREDICTED BY IDOCK:  -10.55 KCAL/MOL
REMARK 923 INTER-LIGAND FREE ENERGY PREDICTED BY IDOCK:   -8.90 KCAL/MOL
REMARK 924 INTRA-LIGAND FREE ENERGY PREDICTED BY IDOCK:   -1.65 KCAL/MOL
REMARK 927      BINDING AFFINITY PREDICTED BY RF-SCORE:    0.00 PKD
ROOT
HETATM    1  C   UNL     1      -9.400   3.193  70.620  1.00  0.00    -0.225 C  
HETATM    2  C   UNL     1      -8.275   4.237  70.629  1.00  0.00    -0.070 C  
HETATM    3  C   UNL     1      -8.519   5.324  71.716  1.00  0.00    -0.126 C  
HETATM    4  C   UNL     1      -7.274   6.230  71.787  1.00  0.00    -0.087 C  
HETATM    5  O   UNL     1      -6.157   5.905  68.296  1.00  0.00    -0.019 OA 
HETATM    6  N   UNL     1      -7.906   4.854  69.340  1.00  0.00    -0.070 N  
HETATM    7  C   UNL     1      -6.854   6.816  70.437  1.00  0.00    -0.062 C  
HETATM    8  C   UNL     1      -6.842   5.765  69.309  1.00  0.00    -0.062 C  
ENDROOT
BRANCH   3   9
HETATM    9  C   UNL     1      -9.836   6.091  71.619  1.00  0.00    -0.196 A  
HETATM   10  C   UNL     1     -11.410   7.677  72.591  1.00  0.00    -0.423 A  
HETATM   11  C   UNL     1     -10.181   7.008  72.621  1.00  0.00    -0.218 A  
HETATM   12  C   UNL     1     -10.760   5.899  70.581  1.00  0.00    -0.353 A  
HETATM   13  C   UNL     1     -11.991   6.552  70.552  1.00  0.00    -0.322 A  
HETATM   14  C   UNL     1     -12.317   7.445  71.559  1.00  0.00    -0.385 A  
ENDBRANCH   3   9
BRANCH   7  15
HETATM   15  N   UNL     1      -7.744   7.874  69.953  1.00  0.00    -0.096 N  
HETATM   16  H   UNL     1      -8.455   7.623  69.266  1.00  0.00     0.000 HD 
HETATM   17  C   UNL     1      -7.683   9.183  70.367  1.00  0.00    -0.127 C  
HETATM   18  O   UNL     1      -6.845   9.599  71.158  1.00  0.00    -0.287 OA 
BRANCH  17  19
HETATM   19  C   UNL     1      -8.712  10.103  69.806  1.00  0.00    -0.148 A  
HETATM   20  N   UNL     1     -11.082  10.669  69.644  1.00  0.00    -0.264 NA 
HETATM   21  C   UNL     1     -10.055   9.909  70.128  1.00  0.00    -0.255 A  
HETATM   22  C   UNL     1     -10.735  11.615  68.758  1.00  0.00    -0.219 A  
HETATM   23  C   UNL     1     -11.703  12.580  68.131  1.00  0.00    -0.400 C  
HETATM   24  C   UNL     1     -10.854  13.262  67.037  1.00  0.00    -0.278 C  
HETATM   25  C   UNL     1      -9.374  12.843  67.223  1.00  0.00    -0.212 C  
HETATM   26  C   UNL     1     -10.946  14.806  67.143  1.00  0.00    -0.320 C  
HETATM   27  O   UNL     1     -10.628  15.488  68.099  1.00  0.00    -0.253 OA 
HETATM   28  C   UNL     1      -9.444  11.840  68.330  1.00  0.00    -0.193 A  
HETATM   29  N   UNL     1     -11.428  15.282  65.940  1.00  0.00    -0.175 N  
HETATM   30  C   UNL     1     -11.715  14.258  65.066  1.00  0.00    -0.383 A  
HETATM   31  C   UNL     1      -8.404  11.121  68.896  1.00  0.00    -0.101 A  
HETATM   32  H   UNL     1     -11.556  16.270  65.726  1.00  0.00     0.000 HD 
HETATM   33  N   UNL     1     -12.249  14.433  63.856  1.00  0.00    -0.657 NA 
HETATM   34  C   UNL     1     -12.499  13.286  63.184  1.00  0.00     0.031 A  
HETATM   35  C   UNL     1     -12.226  12.007  63.676  1.00  0.00    -0.642 A  
HETATM   36  C   UNL     1     -11.657  11.873  64.943  1.00  0.00    -0.290 A  
HETATM   37  C   UNL     1     -11.398  13.036  65.646  1.00  0.00    -0.330 A  
ENDBRANCH  17  19
ENDBRANCH   7  15
BRANCH   6  38
HETATM   38  C   UNL     1      -8.359   4.348  68.025  1.00  0.00    -0.094 C  
HETATM   39  F   UNL     1     -10.564   4.723  67.197  1.00  0.00    -0.212 F  
HETATM   40  F   UNL     1      -8.932   5.579  66.031  1.00  0.00    -0.133 F  
HETATM   41  C   UNL     1      -9.335   5.297  67.284  1.00  0.00    -0.119 C  
HETATM   42  F   UNL     1      -9.527   6.475  67.937  1.00  0.00    -0.124 F  
ENDBRANCH   6  38
TORSDOF 4
ENDMDL
MODEL       15
REMARK 921   NORMALIZED FREE ENERGY PREDICTED BY IDOCK:   -7.15 KCAL/MOL
REMARK 922        TOTAL FREE ENERGY PREDICTED BY IDOCK:  -10.42 KCAL/MOL
REMARK 923 INTER-LIGAND FREE ENERGY PREDICTED BY IDOCK:   -8.42 KCAL/MOL
REMARK 924 INTRA-LIGAND FREE ENERGY PREDICTED BY IDOCK:   -2.00 KCAL/MOL
REMARK 927      BINDING AFFINITY PREDICTED BY RF-SCORE:    0.00 PKD
ROOT
HETATM    1  C   UNL     1     -10.451   8.241  66.744  1.00  0.00    -0.313 C  
HETATM    2  C   UNL     1      -9.555   8.439  67.974  1.00  0.00    -0.149 C  
HETATM    3  C   UNL     1     -10.191   9.440  68.982  1.00  0.00    -0.216 C  
HETATM    4  C   UNL     1      -9.330   9.454  70.262  1.00  0.00    -0.294 C  
HETATM    5  O   UNL     1      -6.080   8.626  68.749  1.00  0.00    -0.043 OA 
HETATM    6  N   UNL     1      -8.134   8.758  67.739  1.00  0.00    -0.106 N  
HETATM    7  C   UNL     1      -7.845   9.720  70.009  1.00  0.00    -0.178 C  
HETATM    8  C   UNL     1      -7.280   8.884  68.843  1.00  0.00    -0.074 C  
ENDROOT
BRANCH   3   9
HETATM    9  C   UNL     1     -10.513  10.831  68.439  1.00  0.00    -0.207 A  
HETATM   10  C   UNL     1     -11.431  13.058  68.805  1.00  0.00    -0.340 A  
HETATM   11  C   UNL     1     -11.066  11.797  69.291  1.00  0.00    -0.278 A  
HETATM   12  C   UNL     1     -10.320  11.193  67.099  1.00  0.00    -0.249 A  
HETATM   13  C   UNL     1     -10.694  12.442  66.606  1.00  0.00    -0.263 A  
HETATM   14  C   UNL     1     -11.249  13.379  67.461  1.00  0.00    -0.309 A  
ENDBRANCH   3   9
BRANCH   7  15
HETATM   15  N   UNL     1      -7.550  11.110  69.650  1.00  0.00    -0.365 N  
HETATM   16  H   UNL     1      -8.155  11.566  68.967  1.00  0.00     0.000 HD 
HETATM   17  C   UNL     1      -6.508  11.837  70.174  1.00  0.00     0.065 C  
HETATM   18  O   UNL     1      -5.699  11.375  70.970  1.00  0.00    -0.329 OA 
BRANCH  17  19
HETATM   19  C   UNL     1      -6.403  13.256  69.731  1.00  0.00    -0.073 A  
HETATM   20  N   UNL     1      -5.812  15.549  70.329  1.00  0.00    -0.149 NA 
HETATM   21  C   UNL     1      -5.918  14.217  70.617  1.00  0.00    -0.196 A  
HETATM   22  C   UNL     1      -6.272  15.918  69.123  1.00  0.00    -0.140 A  
HETATM   23  C   UNL     1      -6.218  17.325  68.595  1.00  0.00    -0.169 C  
HETATM   24  C   UNL     1      -7.078  17.248  67.314  1.00  0.00    -0.192 C  
HETATM   25  C   UNL     1      -7.398  15.761  67.020  1.00  0.00    -0.226 C  
HETATM   26  C   UNL     1      -6.318  17.838  66.098  1.00  0.00    -0.243 C  
HETATM   27  O   UNL     1      -5.254  17.452  65.650  1.00  0.00    -0.269 OA 
HETATM   28  C   UNL     1      -6.826  15.052  68.205  1.00  0.00    -0.120 A  
HETATM   29  N   UNL     1      -7.081  18.868  65.586  1.00  0.00    -0.238 N  
HETATM   30  C   UNL     1      -8.221  19.075  66.328  1.00  0.00    -0.282 A  
HETATM   31  C   UNL     1      -6.845  13.693  68.477  1.00  0.00    -0.098 A  
HETATM   32  H   UNL     1      -6.829  19.410  64.760  1.00  0.00     0.000 HD 
HETATM   33  N   UNL     1      -9.106  20.045  66.089  1.00  0.00    -0.334 NA 
HETATM   34  C   UNL     1     -10.128  20.101  66.974  1.00  0.00    -0.459 A  
HETATM   35  C   UNL     1     -10.285  19.228  68.053  1.00  0.00    -0.507 A  
HETATM   36  C   UNL     1      -9.341  18.220  68.257  1.00  0.00    -0.320 A  
HETATM   37  C   UNL     1      -8.287  18.151  67.364  1.00  0.00    -0.239 A  
ENDBRANCH  17  19
ENDBRANCH   7  15
BRANCH   6  38
HETATM   38  C   UNL     1      -7.470   8.640  66.422  1.00  0.00    -0.087 C  
HETATM   39  F   UNL     1      -7.850  10.191  64.650  1.00  0.00    -0.132 F  
HETATM   40  F   UNL     1      -5.811  10.073  65.414  1.00  0.00    -0.059 F  
HETATM   41  C   UNL     1      -7.106   9.999  65.771  1.00  0.00    -0.117 C  
HETATM   42  F   UNL     1      -7.380  11.062  66.576  1.00  0.00    -0.123 F  
ENDBRANCH   6  38
TORSDOF 4
ENDMDL
MODEL       16
REMARK 921   NORMALIZED FREE ENERGY PREDICTED BY IDOCK:   -7.11 KCAL/MOL
REMARK 922        TOTAL FREE ENERGY PREDICTED BY IDOCK:  -10.37 KCAL/MOL
REMARK 923 INTER-LIGAND FREE ENERGY PREDICTED BY IDOCK:   -8.56 KCAL/MOL
REMARK 924 INTRA-LIGAND FREE ENERGY PREDICTED BY IDOCK:   -1.81 KCAL/MOL
REMARK 927      BINDING AFFINITY PREDICTED BY RF-SCORE:    0.00 PKD
ROOT
HETATM    1  C   UNL     1      -6.731   7.837  71.364  1.00  0.00    -0.045 C  
HETATM    2  C   UNL     1      -7.864   7.488  70.388  1.00  0.00    -0.097 C  
HETATM    3  C   UNL     1      -7.481   7.852  68.924  1.00  0.00    -0.094 C  
HETATM    4  C   UNL     1      -8.582   7.317  67.986  1.00  0.00    -0.125 C  
HETATM    5  O   UNL     1     -11.428   7.510  70.311  1.00  0.00    -0.248 OA 
HETATM    6  N   UNL     1      -9.219   7.971  70.715  1.00  0.00    -0.155 N  
HETATM    7  C   UNL     1      -9.994   7.765  68.366  1.00  0.00    -0.178 C  
HETATM    8  C   UNL     1     -10.282   7.616  69.873  1.00  0.00    -0.215 C  
ENDROOT
BRANCH   3   9
HETATM    9  C   UNL     1      -7.107   9.311  68.667  1.00  0.00    -0.070 A  
HETATM   10  C   UNL     1      -6.151  10.996  67.189  1.00  0.00    -0.074 A  
HETATM   11  C   UNL     1      -6.563   9.680  67.429  1.00  0.00    -0.070 A  
HETATM   12  C   UNL     1      -7.243  10.318  69.633  1.00  0.00    -0.140 A  
HETATM   13  C   UNL     1      -6.823  11.627  69.405  1.00  0.00    -0.086 A  
HETATM   14  C   UNL     1      -6.277  11.969  68.179  1.00  0.00    -0.053 A  
ENDBRANCH   3   9
BRANCH   7  15
HETATM   15  N   UNL     1     -10.262   9.175  68.072  1.00  0.00    -0.200 N  
HETATM   16  H   UNL     1     -10.531   9.783  68.846  1.00  0.00     0.000 HD 
HETATM   17  C   UNL     1     -10.174   9.732  66.818  1.00  0.00    -0.233 C  
HETATM   18  O   UNL     1      -9.898   9.087  65.814  1.00  0.00    -0.262 OA 
BRANCH  17  19
HETATM   19  C   UNL     1     -10.426  11.198  66.726  1.00  0.00    -0.297 A  
HETATM   20  N   UNL     1     -11.238  13.054  65.363  1.00  0.00    -0.286 NA 
HETATM   21  C   UNL     1     -10.996  11.725  65.568  1.00  0.00    -0.290 A  
HETATM   22  C   UNL     1     -10.831  13.874  66.344  1.00  0.00    -0.291 A  
HETATM   23  C   UNL     1     -11.031  15.365  66.334  1.00  0.00    -0.277 C  
HETATM   24  C   UNL     1     -10.182  15.837  67.534  1.00  0.00    -0.265 C  
HETATM   25  C   UNL     1      -9.716  14.594  68.332  1.00  0.00    -0.217 C  
HETATM   26  C   UNL     1     -11.010  16.747  68.477  1.00  0.00    -0.312 C  
HETATM   27  O   UNL     1     -12.034  16.446  69.062  1.00  0.00    -0.136 OA 
HETATM   28  C   UNL     1     -10.202  13.454  67.496  1.00  0.00    -0.226 A  
HETATM   29  N   UNL     1     -10.360  17.962  68.566  1.00  0.00    -0.375 N  
HETATM   30  C   UNL     1      -9.238  17.999  67.770  1.00  0.00    -0.262 A  
HETATM   31  C   UNL     1     -10.043  12.097  67.728  1.00  0.00    -0.203 A  
HETATM   32  H   UNL     1     -10.674  18.737  69.150  1.00  0.00     0.000 HD 
HETATM   33  N   UNL     1      -8.459  19.071  67.622  1.00  0.00    -0.284 NA 
HETATM   34  C   UNL     1      -7.439  18.905  66.749  1.00  0.00    -0.223 A  
HETATM   35  C   UNL     1      -7.183  17.723  66.050  1.00  0.00    -0.322 A  
HETATM   36  C   UNL     1      -8.018  16.622  66.246  1.00  0.00    -0.340 A  
HETATM   37  C   UNL     1      -9.069  16.776  67.132  1.00  0.00    -0.224 A  
ENDBRANCH  17  19
ENDBRANCH   7  15
BRANCH   6  38
HETATM   38  C   UNL     1      -9.599   8.531  72.031  1.00  0.00    -0.301 C  
HETATM   39  F   UNL     1     -11.179   7.470  73.469  1.00  0.00    -0.395 F  
HETATM   40  F   UNL     1      -9.151   7.676  74.242  1.00  0.00    -0.278 F  
HETATM   41  C   UNL     1      -9.865   7.462  73.122  1.00  0.00    -0.254 C  
HETATM   42  F   UNL     1      -9.606   6.196  72.696  1.00  0.00    -0.155 F  
ENDBRANCH   6  38
TORSDOF 4
ENDMDL
MODEL       17
REMARK 921   NORMALIZED FREE ENERGY PREDICTED BY IDOCK:   -7.10 KCAL/MOL
REMARK 922        TOTAL FREE ENERGY PREDICTED BY IDOCK:  -10.35 KCAL/MOL
REMARK 923 INTER-LIGAND FREE ENERGY PREDICTED BY IDOCK:   -8.33 KCAL/MOL
REMARK 924 INTRA-LIGAND FREE ENERGY PREDICTED BY IDOCK:   -2.02 KCAL/MOL
REMARK 927      BINDING AFFINITY PREDICTED BY RF-SCORE:    0.00 PKD
ROOT
HETATM    1  C   UNL     1      -8.705  15.760  65.859  1.00  0.00     0.009 C  
HETATM    2  C   UNL     1      -9.434  15.864  67.207  1.00  0.00    -0.212 C  
HETATM    3  C   UNL     1      -8.585  15.248  68.357  1.00  0.00    -0.160 C  
HETATM    4  C   UNL     1      -9.292  15.543  69.695  1.00  0.00    -0.224 C  
HETATM    5  O   UNL     1     -12.761  15.658  68.471  1.00  0.00     0.594 OA 
HETATM    6  N   UNL     1     -10.828  15.387  67.267  1.00  0.00    -0.312 N  
HETATM    7  C   UNL     1     -10.758  15.107  69.732  1.00  0.00    -0.274 C  
HETATM    8  C   UNL     1     -11.536  15.526  68.469  1.00  0.00    -0.368 C  
ENDROOT
BRANCH   3   9
HETATM    9  C   UNL     1      -8.175  13.786  68.185  1.00  0.00    -0.160 A  
HETATM   10  C   UNL     1      -6.765  11.916  68.857  1.00  0.00    -0.095 A  
HETATM   11  C   UNL     1      -7.206  13.233  69.033  1.00  0.00    -0.007 A  
HETATM   12  C   UNL     1      -8.694  12.959  67.179  1.00  0.00    -0.205 A  
HETATM   13  C   UNL     1      -8.249  11.651  66.990  1.00  0.00    -0.170 A  
HETATM   14  C   UNL     1      -7.283  11.126  67.832  1.00  0.00    -0.090 A  
ENDBRANCH   3   9
BRANCH   7  15
HETATM   15  N   UNL     1     -10.939  13.656  69.819  1.00  0.00    -0.451 N  
HETATM   16  H   UNL     1     -10.291  13.062  69.302  1.00  0.00     0.000 HD 
HETATM   17  C   UNL     1     -11.926  13.044  70.553  1.00  0.00    -0.212 C  
HETATM   18  O   UNL     1     -12.779  13.662  71.179  1.00  0.00    -0.341 OA 
BRANCH  17  19
HETATM   19  C   UNL     1     -11.914  11.554  70.567  1.00  0.00    -0.439 A  
HETATM   20  N   UNL     1     -12.903   9.506  71.456  1.00  0.00    -0.352 NA 
HETATM   21  C   UNL     1     -12.846  10.867  71.342  1.00  0.00    -0.449 A  
HETATM   22  C   UNL     1     -11.942   8.831  70.807  1.00  0.00    -0.133 A  
HETATM   23  C   UNL     1     -11.842   7.331  70.773  1.00  0.00    -0.324 C  
HETATM   24  C   UNL     1     -10.461   7.090  70.125  1.00  0.00    -0.232 C  
HETATM   25  C   UNL     1      -9.919   8.441  69.595  1.00  0.00    -0.193 C  
HETATM   26  C   UNL     1     -10.569   6.101  68.936  1.00  0.00    -0.276 C  
HETATM   27  O   UNL     1     -11.240   6.245  67.931  1.00  0.00    -0.323 OA 
HETATM   28  C   UNL     1     -10.940   9.424  70.069  1.00  0.00    -0.267 A  
HETATM   29  N   UNL     1      -9.739   5.031  69.202  1.00  0.00    -0.158 N  
HETATM   30  C   UNL     1      -9.131   5.152  70.431  1.00  0.00    -0.134 A  
HETATM   31  C   UNL     1     -10.948  10.798  69.891  1.00  0.00    -0.304 A  
HETATM   32  H   UNL     1      -9.594   4.247  68.566  1.00  0.00     0.000 HD 
HETATM   33  N   UNL     1      -8.324   4.232  70.962  1.00  0.00    -0.082 NA 
HETATM   34  C   UNL     1      -7.877   4.528  72.204  1.00  0.00    -0.095 A  
HETATM   35  C   UNL     1      -8.201   5.695  72.901  1.00  0.00    -0.119 A  
HETATM   36  C   UNL     1      -9.039   6.636  72.301  1.00  0.00    -0.138 A  
HETATM   37  C   UNL     1      -9.509   6.346  71.032  1.00  0.00    -0.181 A  
ENDBRANCH  17  19
ENDBRANCH   7  15
BRANCH   6  38
HETATM   38  C   UNL     1     -11.643  15.069  66.073  1.00  0.00    -0.158 C  
HETATM   39  F   UNL     1     -11.414  13.021  64.873  1.00  0.00    -0.316 F  
HETATM   40  F   UNL     1     -13.355  13.392  65.795  1.00  0.00    -0.257 F  
HETATM   41  C   UNL     1     -12.031  13.573  65.951  1.00  0.00    -0.406 C  
HETATM   42  F   UNL     1     -11.629  12.833  67.020  1.00  0.00    -0.318 F  
ENDBRANCH   6  38
TORSDOF 4
ENDMDL
MODEL       18
REMARK 921   NORMALIZED FREE ENERGY PREDICTED BY IDOCK:   -7.05 KCAL/MOL
REMARK 922        TOTAL FREE ENERGY PREDICTED BY IDOCK:  -10.29 KCAL/MOL
REMARK 923 INTER-LIGAND FREE ENERGY PREDICTED BY IDOCK:   -8.52 KCAL/MOL
REMARK 924 INTRA-LIGAND FREE ENERGY PREDICTED BY IDOCK:   -1.78 KCAL/MOL
REMARK 927      BINDING AFFINITY PREDICTED BY RF-SCORE:    0.00 PKD
ROOT
HETATM    1  C   UNL     1      -6.266   7.228  68.737  1.00  0.00    -0.031 C  
HETATM    2  C   UNL     1      -7.225   7.330  67.542  1.00  0.00    -0.090 C  
HETATM    3  C   UNL     1      -6.828   8.499  66.595  1.00  0.00    -0.072 C  
HETATM    4  C   UNL     1      -7.719   8.432  65.339  1.00  0.00    -0.099 C  
HETATM    5  O   UNL     1     -10.697   6.892  66.857  1.00  0.00    -0.318 OA 
HETATM    6  N   UNL     1      -8.672   7.352  67.830  1.00  0.00    -0.124 N  
HETATM    7  C   UNL     1      -9.218   8.389  65.641  1.00  0.00    -0.052 C  
HETATM    8  C   UNL     1      -9.572   7.383  66.756  1.00  0.00    -0.192 C  
ENDROOT
BRANCH   3   9
HETATM    9  C   UNL     1      -6.760   9.888  67.230  1.00  0.00    -0.074 A  
HETATM   10  C   UNL     1      -5.935  12.180  67.163  1.00  0.00    -0.143 A  
HETATM   11  C   UNL     1      -6.069  10.916  66.575  1.00  0.00    -0.122 A  
HETATM   12  C   UNL     1      -7.327  10.189  68.476  1.00  0.00    -0.081 A  
HETATM   13  C   UNL     1      -7.185  11.441  69.073  1.00  0.00    -0.118 A  
HETATM   14  C   UNL     1      -6.489  12.440  68.414  1.00  0.00    -0.058 A  
ENDBRANCH   3   9
BRANCH   7  15
HETATM   15  N   UNL     1      -9.762   9.668  66.105  1.00  0.00    -0.232 N  
HETATM   16  H   UNL     1     -10.048   9.740  67.082  1.00  0.00     0.000 HD 
HETATM   17  C   UNL     1      -9.911  10.777  65.307  1.00  0.00    -0.272 C  
HETATM   18  O   UNL     1      -9.636  10.788  64.114  1.00  0.00    -0.234 OA 
BRANCH  17  19
HETATM   19  C   UNL     1     -10.427  12.006  65.974  1.00  0.00    -0.284 A  
HETATM   20  N   UNL     1     -12.333  13.487  66.345  1.00  0.00    -0.391 NA 
HETATM   21  C   UNL     1     -11.764  12.365  65.810  1.00  0.00    -0.414 A  
HETATM   22  C   UNL     1     -11.498  14.296  67.015  1.00  0.00    -0.361 A  
HETATM   23  C   UNL     1     -11.925  15.560  67.708  1.00  0.00     0.184 C  
HETATM   24  C   UNL     1     -10.580  16.216  68.092  1.00  0.00    -0.290 C  
HETATM   25  C   UNL     1      -9.439  15.204  67.822  1.00  0.00    -0.194 C  
HETATM   26  C   UNL     1     -10.556  16.596  69.595  1.00  0.00    -0.274 C  
HETATM   27  O   UNL     1     -10.686  15.838  70.538  1.00  0.00    -0.312 OA 
HETATM   28  C   UNL     1     -10.150  14.058  67.175  1.00  0.00    -0.259 A  
HETATM   29  N   UNL     1     -10.327  17.955  69.681  1.00  0.00    -0.148 N  
HETATM   30  C   UNL     1     -10.244  18.537  68.437  1.00  0.00    -0.372 A  
HETATM   31  C   UNL     1      -9.606  12.875  66.703  1.00  0.00    -0.257 A  
HETATM   32  H   UNL     1     -10.231  18.464  70.559  1.00  0.00     0.000 HD 
HETATM   33  N   UNL     1     -10.086  19.845  68.230  1.00  0.00    -0.442 NA 
HETATM   34  C   UNL     1     -10.085  20.210  66.927  1.00  0.00    -0.455 A  
HETATM   35  C   UNL     1     -10.223  19.320  65.859  1.00  0.00    -0.436 A  
HETATM   36  C   UNL     1     -10.374  17.958  66.122  1.00  0.00    -0.352 A  
HETATM   37  C   UNL     1     -10.382  17.568  67.450  1.00  0.00    -0.351 A  
ENDBRANCH  17  19
ENDBRANCH   7  15
BRANCH   6  38
HETATM   38  C   UNL     1      -9.256   7.021  69.149  1.00  0.00    -0.138 C  
HETATM   39  F   UNL     1     -10.640   5.109  69.496  1.00  0.00    -0.328 F  
HETATM   40  F   UNL     1      -8.768   5.165  70.612  1.00  0.00    -0.116 F  
HETATM   41  C   UNL     1      -9.339   5.500  69.441  1.00  0.00    -0.118 C  
HETATM   42  F   UNL     1      -8.771   4.742  68.465  1.00  0.00    -0.095 F  
ENDBRANCH   6  38
TORSDOF 4
ENDMDL
MODEL       19
REMARK 921   NORMALIZED FREE ENERGY PREDICTED BY IDOCK:   -6.99 KCAL/MOL
REMARK 922        TOTAL FREE ENERGY PREDICTED BY IDOCK:  -10.22 KCAL/MOL
REMARK 923 INTER-LIGAND FREE ENERGY PREDICTED BY IDOCK:   -8.67 KCAL/MOL
REMARK 924 INTRA-LIGAND FREE ENERGY PREDICTED BY IDOCK:   -1.55 KCAL/MOL
REMARK 927      BINDING AFFINITY PREDICTED BY RF-SCORE:    0.00 PKD
ROOT
HETATM    1  C   UNL     1      -7.740   5.360  69.966  1.00  0.00    -0.077 C  
HETATM    2  C   UNL     1      -8.858   6.182  70.623  1.00  0.00    -0.143 C  
HETATM    3  C   UNL     1      -9.989   6.512  69.607  1.00  0.00    -0.186 C  
HETATM    4  C   UNL     1     -11.150   7.180  70.371  1.00  0.00    -0.309 C  
HETATM    5  O   UNL     1      -9.202   8.758  73.064  1.00  0.00    -0.238 OA 
HETATM    6  N   UNL     1      -8.464   7.384  71.383  1.00  0.00    -0.113 N  
HETATM    7  C   UNL     1     -10.729   8.386  71.212  1.00  0.00    -0.230 C  
HETATM    8  C   UNL     1      -9.459   8.118  72.044  1.00  0.00    -0.215 C  
ENDROOT
BRANCH   3   9
HETATM    9  C   UNL     1      -9.566   7.266  68.347  1.00  0.00    -0.139 A  
HETATM   10  C   UNL     1      -7.785   8.125  66.923  1.00  0.00    -0.096 A  
HETATM   11  C   UNL     1      -8.205   7.385  68.035  1.00  0.00    -0.124 A  
HETATM   12  C   UNL     1     -10.479   7.892  67.487  1.00  0.00    -0.332 A  
HETATM   13  C   UNL     1     -10.067   8.641  66.385  1.00  0.00    -0.294 A  
HETATM   14  C   UNL     1      -8.716   8.756  66.100  1.00  0.00    -0.184 A  
ENDBRANCH   3   9
BRANCH   7  15
HETATM   15  N   UNL     1     -10.411   9.575  70.416  1.00  0.00    -0.256 N  
HETATM   16  H   UNL     1      -9.429   9.773  70.225  1.00  0.00     0.000 HD 
HETATM   17  C   UNL     1     -11.352  10.439  69.912  1.00  0.00    -0.302 C  
HETATM   18  O   UNL     1     -12.554  10.317  70.114  1.00  0.00    -0.206 OA 
BRANCH  17  19
HETATM   19  C   UNL     1     -10.839  11.561  69.075  1.00  0.00    -0.258 A  
HETATM   20  N   UNL     1      -8.892  12.647  68.078  1.00  0.00    -0.188 NA 
HETATM   21  C   UNL     1      -9.474  11.645  68.802  1.00  0.00    -0.058 A  
HETATM   22  C   UNL     1      -9.719  13.623  67.672  1.00  0.00    -0.228 A  
HETATM   23  C   UNL     1      -9.290  14.798  66.836  1.00  0.00    -0.256 C  
HETATM   24  C   UNL     1     -10.532  15.716  66.866  1.00  0.00    -0.307 C  
HETATM   25  C   UNL     1     -11.707  14.941  67.513  1.00  0.00    -0.328 C  
HETATM   26  C   UNL     1     -10.948  16.135  65.433  1.00  0.00    -0.227 C  
HETATM   27  O   UNL     1     -11.269  15.393  64.523  1.00  0.00    -0.373 OA 
HETATM   28  C   UNL     1     -11.069  13.660  67.947  1.00  0.00    -0.283 A  
HETATM   29  N   UNL     1     -10.922  17.514  65.374  1.00  0.00    -0.032 N  
HETATM   30  C   UNL     1     -10.497  18.066  66.561  1.00  0.00    -0.334 A  
HETATM   31  C   UNL     1     -11.659  12.594  68.606  1.00  0.00    -0.356 A  
HETATM   32  H   UNL     1     -11.185  18.057  64.552  1.00  0.00     0.000 HD 
HETATM   33  N   UNL     1     -10.323  19.374  66.760  1.00  0.00    -0.408 NA 
HETATM   34  C   UNL     1      -9.847  19.695  67.985  1.00  0.00    -0.415 A  
HETATM   35  C   UNL     1      -9.560  18.766  68.989  1.00  0.00    -0.294 A  
HETATM   36  C   UNL     1      -9.769  17.408  68.740  1.00  0.00    -0.282 A  
HETATM   37  C   UNL     1     -10.251  17.062  67.490  1.00  0.00    -0.323 A  
ENDBRANCH  17  19
ENDBRANCH   7  15
BRANCH   6  38
HETATM   38  C   UNL     1      -7.070   7.695  71.771  1.00  0.00    -0.063 C  
HETATM   39  F   UNL     1      -5.415   8.352  70.184  1.00  0.00    -0.023 F  
HETATM   40  F   UNL     1      -5.909   9.809  71.729  1.00  0.00    -0.077 F  
HETATM   41  C   UNL     1      -6.426   8.841  70.950  1.00  0.00    -0.052 C  
HETATM   42  F   UNL     1      -7.295   9.423  70.079  1.00  0.00    -0.060 F  
ENDBRANCH   6  38
TORSDOF 4
ENDMDL
MODEL       20
REMARK 921   NORMALIZED FREE ENERGY PREDICTED BY IDOCK:   -6.98 KCAL/MOL
REMARK 922        TOTAL FREE ENERGY PREDICTED BY IDOCK:  -10.21 KCAL/MOL
REMARK 923 INTER-LIGAND FREE ENERGY PREDICTED BY IDOCK:   -8.34 KCAL/MOL
REMARK 924 INTRA-LIGAND FREE ENERGY PREDICTED BY IDOCK:   -1.87 KCAL/MOL
REMARK 927      BINDING AFFINITY PREDICTED BY RF-SCORE:    0.00 PKD
ROOT
HETATM    1  C   UNL     1      -6.666   6.401  69.111  1.00  0.00    -0.053 C  
HETATM    2  C   UNL     1      -8.048   6.712  68.520  1.00  0.00    -0.119 C  
HETATM    3  C   UNL     1      -7.934   7.617  67.258  1.00  0.00    -0.118 C  
HETATM    4  C   UNL     1      -9.331   7.741  66.620  1.00  0.00    -0.238 C  
HETATM    5  O   UNL     1     -11.363   7.355  69.664  1.00  0.00    -0.109 OA 
HETATM    6  N   UNL     1      -9.085   7.217  69.439  1.00  0.00    -0.143 N  
HETATM    7  C   UNL     1     -10.420   8.202  67.591  1.00  0.00    -0.231 C  
HETATM    8  C   UNL     1     -10.373   7.452  68.938  1.00  0.00    -0.206 C  
ENDROOT
BRANCH   3   9
HETATM    9  C   UNL     1      -7.222   8.955  67.450  1.00  0.00    -0.080 A  
HETATM   10  C   UNL     1      -6.189  10.934  66.473  1.00  0.00    -0.122 A  
HETATM   11  C   UNL     1      -6.898   9.735  66.332  1.00  0.00    -0.088 A  
HETATM   12  C   UNL     1      -6.829   9.440  68.706  1.00  0.00    -0.053 A  
HETATM   13  C   UNL     1      -6.111  10.626  68.852  1.00  0.00    -0.040 A  
HETATM   14  C   UNL     1      -5.791  11.377  67.734  1.00  0.00    -0.046 A  
ENDBRANCH   3   9
BRANCH   7  15
HETATM   15  N   UNL     1     -10.325   9.620  67.950  1.00  0.00    -0.209 N  
HETATM   16  H   UNL     1     -10.217   9.857  68.936  1.00  0.00     0.000 HD 
HETATM   17  C   UNL     1     -10.375  10.650  67.042  1.00  0.00    -0.231 C  
HETATM   18  O   UNL     1     -10.542  10.479  65.840  1.00  0.00    -0.181 OA 
BRANCH  17  19
HETATM   19  C   UNL     1     -10.202  12.025  67.591  1.00  0.00    -0.210 A  
HETATM   20  N   UNL     1     -11.086  13.772  69.050  1.00  0.00    -0.256 NA 
HETATM   21  C   UNL     1     -11.128  12.517  68.510  1.00  0.00    -0.262 A  
HETATM   22  C   UNL     1     -10.107  14.567  68.591  1.00  0.00    -0.244 A  
HETATM   23  C   UNL     1      -9.864  15.970  69.076  1.00  0.00    -0.239 C  
HETATM   24  C   UNL     1      -8.815  16.505  68.077  1.00  0.00    -0.197 C  
HETATM   25  C   UNL     1      -8.317  15.328  67.201  1.00  0.00    -0.244 C  
HETATM   26  C   UNL     1      -7.599  17.115  68.820  1.00  0.00    -0.259 C  
HETATM   27  O   UNL     1      -6.860  16.539  69.598  1.00  0.00    -0.215 OA 
HETATM   28  C   UNL     1      -9.186  14.192  67.638  1.00  0.00    -0.193 A  
HETATM   29  N   UNL     1      -7.478  18.430  68.419  1.00  0.00    -0.276 N  
HETATM   30  C   UNL     1      -8.479  18.791  67.547  1.00  0.00    -0.270 A  
HETATM   31  C   UNL     1      -9.187  12.889  67.166  1.00  0.00    -0.225 A  
HETATM   32  H   UNL     1      -6.737  19.057  68.732  1.00  0.00     0.000 HD 
HETATM   33  N   UNL     1      -8.634  20.019  67.050  1.00  0.00    -0.322 NA 
HETATM   34  C   UNL     1      -9.717  20.167  66.253  1.00  0.00    -0.397 A  
HETATM   35  C   UNL     1     -10.615  19.142  65.943  1.00  0.00    -0.495 A  
HETATM   36  C   UNL     1     -10.406  17.870  66.476  1.00  0.00    -0.362 A  
HETATM   37  C   UNL     1      -9.305  17.701  67.297  1.00  0.00    -0.249 A  
ENDBRANCH  17  19
ENDBRANCH   7  15
BRANCH   6  38
HETATM   38  C   UNL     1      -8.964   7.193  70.914  1.00  0.00    -0.151 C  
HETATM   39  F   UNL     1      -7.692   8.808  72.123  1.00  0.00    -0.153 F  
HETATM   40  F   UNL     1      -9.831   8.745  72.544  1.00  0.00    -0.353 F  
HETATM   41  C   UNL     1      -8.915   8.597  71.569  1.00  0.00    -0.234 C  
HETATM   42  F   UNL     1      -9.090   9.606  70.673  1.00  0.00    -0.270 F  
ENDBRANCH   6  38
TORSDOF 4
ENDMDL
MODEL       21
REMARK 921   NORMALIZED FREE ENERGY PREDICTED BY IDOCK:   -6.98 KCAL/MOL
REMARK 922        TOTAL FREE ENERGY PREDICTED BY IDOCK:  -10.20 KCAL/MOL
REMARK 923 INTER-LIGAND FREE ENERGY PREDICTED BY IDOCK:   -8.56 KCAL/MOL
REMARK 924 INTRA-LIGAND FREE ENERGY PREDICTED BY IDOCK:   -1.65 KCAL/MOL
REMARK 927      BINDING AFFINITY PREDICTED BY RF-SCORE:    0.00 PKD
ROOT
HETATM    1  C   UNL     1      -7.975   7.016  66.912  1.00  0.00    -0.115 C  
HETATM    2  C   UNL     1      -8.831   7.782  67.931  1.00  0.00    -0.123 C  
HETATM    3  C   UNL     1     -10.064   8.444  67.250  1.00  0.00    -0.321 C  
HETATM    4  C   UNL     1     -10.966   9.040  68.349  1.00  0.00     0.036 C  
HETATM    5  O   UNL     1      -8.370   9.772  70.853  1.00  0.00    -0.210 OA 
HETATM    6  N   UNL     1      -8.143   8.737  68.819  1.00  0.00    -0.113 N  
HETATM    7  C   UNL     1     -10.235   9.980  69.310  1.00  0.00    -0.214 C  
HETATM    8  C   UNL     1      -8.891   9.405  69.799  1.00  0.00    -0.183 C  
ENDROOT
BRANCH   3   9
HETATM    9  C   UNL     1      -9.764   9.410  66.105  1.00  0.00    -0.334 A  
HETATM   10  C   UNL     1     -10.551  11.092  64.527  1.00  0.00    -0.383 A  
HETATM   11  C   UNL     1     -10.780  10.243  65.617  1.00  0.00     0.082 A  
HETATM   12  C   UNL     1      -8.514   9.486  65.475  1.00  0.00    -0.150 A  
HETATM   13  C   UNL     1      -8.284  10.319  64.381  1.00  0.00    -0.159 A  
HETATM   14  C   UNL     1      -9.304  11.126  63.906  1.00  0.00    -0.197 A  
ENDBRANCH   3   9
BRANCH   7  15
HETATM   15  N   UNL     1      -9.894  11.276  68.718  1.00  0.00    -0.275 N  
HETATM   16  H   UNL     1      -8.996  11.364  68.243  1.00  0.00     0.000 HD 
HETATM   17  C   UNL     1     -10.708  12.383  68.763  1.00  0.00    -0.209 C  
HETATM   18  O   UNL     1     -11.789  12.399  69.341  1.00  0.00    -0.301 OA 
BRANCH  17  19
HETATM   19  C   UNL     1     -10.215  13.597  68.052  1.00  0.00    -0.248 A  
HETATM   20  N   UNL     1      -8.726  14.504  66.344  1.00  0.00    -0.047 NA 
HETATM   21  C   UNL     1      -9.271  13.460  67.036  1.00  0.00    -0.242 A  
HETATM   22  C   UNL     1      -9.110  15.727  66.743  1.00  0.00    -0.249 A  
HETATM   23  C   UNL     1      -8.657  17.006  66.095  1.00  0.00    -0.252 C  
HETATM   24  C   UNL     1      -9.176  18.089  67.067  1.00  0.00    -0.265 C  
HETATM   25  C   UNL     1     -10.107  17.418  68.107  1.00  0.00    -0.328 C  
HETATM   26  C   UNL     1      -9.985  19.174  66.310  1.00  0.00    -0.401 C  
HETATM   27  O   UNL     1     -10.991  19.000  65.647  1.00  0.00    -0.316 OA 
HETATM   28  C   UNL     1      -9.988  15.964  67.779  1.00  0.00    -0.229 A  
HETATM   29  N   UNL     1      -9.378  20.391  66.546  1.00  0.00    -0.612 N  
HETATM   30  C   UNL     1      -8.246  20.255  67.317  1.00  0.00    -0.343 A  
HETATM   31  C   UNL     1     -10.599  14.894  68.412  1.00  0.00    -0.244 A  
HETATM   32  H   UNL     1      -9.725  21.282  66.191  1.00  0.00     0.000 HD 
HETATM   33  N   UNL     1      -7.437  21.263  67.646  1.00  0.00    -0.296 NA 
HETATM   34  C   UNL     1      -6.351  20.897  68.366  1.00  0.00    -0.235 A  
HETATM   35  C   UNL     1      -6.072  19.587  68.762  1.00  0.00    -0.279 A  
HETATM   36  C   UNL     1      -6.954  18.565  68.405  1.00  0.00    -0.278 A  
HETATM   37  C   UNL     1      -8.067  18.921  67.664  1.00  0.00    -0.278 A  
ENDBRANCH  17  19
ENDBRANCH   7  15
BRANCH   6  38
HETATM   38  C   UNL     1      -6.672   8.810  68.971  1.00  0.00    -0.052 C  
HETATM   39  F   UNL     1      -5.234   9.523  67.207  1.00  0.00    -0.035 F  
HETATM   40  F   UNL     1      -5.235  10.747  69.012  1.00  0.00    -0.042 F  
HETATM   41  C   UNL     1      -6.015   9.993  68.216  1.00  0.00    -0.042 C  
HETATM   42  F   UNL     1      -6.924  10.813  67.622  1.00  0.00    -0.076 F  
ENDBRANCH   6  38
TORSDOF 4
ENDMDL
MODEL       22
REMARK 921   NORMALIZED FREE ENERGY PREDICTED BY IDOCK:   -6.98 KCAL/MOL
REMARK 922        TOTAL FREE ENERGY PREDICTED BY IDOCK:  -10.20 KCAL/MOL
REMARK 923 INTER-LIGAND FREE ENERGY PREDICTED BY IDOCK:   -8.62 KCAL/MOL
REMARK 924 INTRA-LIGAND FREE ENERGY PREDICTED BY IDOCK:   -1.58 KCAL/MOL
REMARK 927      BINDING AFFINITY PREDICTED BY RF-SCORE:    0.00 PKD
ROOT
HETATM    1  C   UNL     1     -10.965   6.458  69.329  1.00  0.00    -0.418 C  
HETATM    2  C   UNL     1      -9.655   7.035  69.886  1.00  0.00    -0.159 C  
HETATM    3  C   UNL     1      -9.919   8.295  70.761  1.00  0.00    -0.217 C  
HETATM    4  C   UNL     1      -8.592   8.713  71.425  1.00  0.00    -0.247 C  
HETATM    5  O   UNL     1      -6.274   7.478  68.848  1.00  0.00    -0.033 OA 
HETATM    6  N   UNL     1      -8.556   7.276  68.932  1.00  0.00    -0.129 N  
HETATM    7  C   UNL     1      -7.436   8.898  70.440  1.00  0.00    -0.081 C  
HETATM    8  C   UNL     1      -7.329   7.745  69.423  1.00  0.00    -0.086 C  
ENDROOT
BRANCH   3   9
HETATM    9  C   UNL     1     -10.658   9.446  70.080  1.00  0.00    -0.267 A  
HETATM   10  C   UNL     1     -12.252  11.284  70.222  1.00  0.00    -0.428 A  
HETATM   11  C   UNL     1     -11.513  10.263  70.832  1.00  0.00    -0.425 A  
HETATM   12  C   UNL     1     -10.559   9.714  68.707  1.00  0.00    -0.242 A  
HETATM   13  C   UNL     1     -11.302  10.720  68.092  1.00  0.00    -0.377 A  
HETATM   14  C   UNL     1     -12.150  11.509  68.850  1.00  0.00    -0.270 A  
ENDBRANCH   3   9
BRANCH   7  15
HETATM   15  N   UNL     1      -7.547  10.109  69.623  1.00  0.00    -0.140 N  
HETATM   16  H   UNL     1      -8.282  10.144  68.917  1.00  0.00     0.000 HD 
HETATM   17  C   UNL     1      -6.723  11.202  69.748  1.00  0.00    -0.121 C  
HETATM   18  O   UNL     1      -5.786  11.251  70.535  1.00  0.00    -0.126 OA 
BRANCH  17  19
HETATM   19  C   UNL     1      -7.029  12.365  68.867  1.00  0.00    -0.091 A  
HETATM   20  N   UNL     1      -6.147  14.156  67.461  1.00  0.00    -0.346 NA 
HETATM   21  C   UNL     1      -5.984  13.058  68.258  1.00  0.00    -0.086 A  
HETATM   22  C   UNL     1      -7.409  14.596  67.333  1.00  0.00    -0.168 A  
HETATM   23  C   UNL     1      -7.811  15.766  66.478  1.00  0.00    -0.098 C  
HETATM   24  C   UNL     1      -9.286  15.994  66.874  1.00  0.00    -0.246 C  
HETATM   25  C   UNL     1      -9.751  14.811  67.760  1.00  0.00    -0.213 C  
HETATM   26  C   UNL     1     -10.195  16.056  65.620  1.00  0.00    -0.386 C  
HETATM   27  O   UNL     1     -10.344  15.182  64.786  1.00  0.00    -0.331 OA 
HETATM   28  C   UNL     1      -8.498  14.017  67.948  1.00  0.00    -0.170 A  
HETATM   29  N   UNL     1     -10.840  17.277  65.629  1.00  0.00    -0.155 N  
HETATM   30  C   UNL     1     -10.444  18.054  66.694  1.00  0.00    -0.325 A  
HETATM   31  C   UNL     1      -8.328  12.853  68.680  1.00  0.00     0.032 A  
HETATM   32  H   UNL     1     -11.524  17.568  64.931  1.00  0.00     0.000 HD 
HETATM   33  N   UNL     1     -10.865  19.301  66.909  1.00  0.00    -0.434 NA 
HETATM   34  C   UNL     1     -10.307  19.902  67.986  1.00  0.00    -0.408 A  
HETATM   35  C   UNL     1      -9.374  19.297  68.832  1.00  0.00    -0.408 A  
HETATM   36  C   UNL     1      -8.971  17.985  68.574  1.00  0.00    -0.297 A  
HETATM   37  C   UNL     1      -9.529  17.358  67.474  1.00  0.00    -0.250 A  
ENDBRANCH  17  19
ENDBRANCH   7  15
BRANCH   6  38
HETATM   38  C   UNL     1      -8.539   6.758  67.546  1.00  0.00    -0.120 C  
HETATM   39  F   UNL     1      -6.983   5.107  66.811  1.00  0.00    -0.058 F  
HETATM   40  F   UNL     1      -9.090   4.555  66.731  1.00  0.00    -0.114 F  
HETATM   41  C   UNL     1      -8.181   5.254  67.435  1.00  0.00    -0.103 C  
HETATM   42  F   UNL     1      -8.038   4.653  68.647  1.00  0.00    -0.080 F  
ENDBRANCH   6  38
TORSDOF 4
ENDMDL
MODEL       23
REMARK 921   NORMALIZED FREE ENERGY PREDICTED BY IDOCK:   -6.95 KCAL/MOL
REMARK 922        TOTAL FREE ENERGY PREDICTED BY IDOCK:  -10.17 KCAL/MOL
REMARK 923 INTER-LIGAND FREE ENERGY PREDICTED BY IDOCK:   -8.61 KCAL/MOL
REMARK 924 INTRA-LIGAND FREE ENERGY PREDICTED BY IDOCK:   -1.56 KCAL/MOL
REMARK 927      BINDING AFFINITY PREDICTED BY RF-SCORE:    0.00 PKD
ROOT
HETATM    1  C   UNL     1      -9.085  15.986  65.588  1.00  0.00     0.010 C  
HETATM    2  C   UNL     1     -10.289  15.535  66.426  1.00  0.00    -0.296 C  
HETATM    3  C   UNL     1      -9.849  15.060  67.842  1.00  0.00    -0.217 C  
HETATM    4  C   UNL     1     -11.114  14.792  68.681  1.00  0.00    -0.274 C  
HETATM    5  O   UNL     1     -13.395  13.850  65.952  1.00  0.00    -0.396 OA 
HETATM    6  N   UNL     1     -11.223  14.571  65.814  1.00  0.00    -0.328 N  
HETATM    7  C   UNL     1     -12.112  13.844  68.015  1.00  0.00    -0.283 C  
HETATM    8  C   UNL     1     -12.364  14.188  66.533  1.00  0.00    -0.372 C  
ENDROOT
BRANCH   3   9
HETATM    9  C   UNL     1      -8.827  13.925  67.885  1.00  0.00    -0.184 A  
HETATM   10  C   UNL     1      -6.820  12.953  68.868  1.00  0.00    -0.095 A  
HETATM   11  C   UNL     1      -7.807  13.946  68.846  1.00  0.00    -0.022 A  
HETATM   12  C   UNL     1      -8.827  12.860  66.973  1.00  0.00    -0.208 A  
HETATM   13  C   UNL     1      -7.840  11.876  66.981  1.00  0.00    -0.152 A  
HETATM   14  C   UNL     1      -6.834  11.920  67.932  1.00  0.00    -0.083 A  
ENDBRANCH   3   9
BRANCH   7  15
HETATM   15  N   UNL     1     -11.677  12.445  68.004  1.00  0.00    -0.348 N  
HETATM   16  H   UNL     1     -11.443  12.023  67.105  1.00  0.00     0.000 HD 
HETATM   17  C   UNL     1     -11.563  11.664  69.130  1.00  0.00    -0.314 C  
HETATM   18  O   UNL     1     -11.855  12.057  70.253  1.00  0.00    -0.333 OA 
BRANCH  17  19
HETATM   19  C   UNL     1     -11.047  10.280  68.926  1.00  0.00    -0.278 A  
HETATM   20  N   UNL     1     -10.273   8.211  69.965  1.00  0.00    -0.198 NA 
HETATM   21  C   UNL     1     -10.780   9.478  70.034  1.00  0.00    -0.243 A  
HETATM   22  C   UNL     1      -9.973   7.774  68.731  1.00  0.00    -0.176 A  
HETATM   23  C   UNL     1      -9.438   6.401  68.430  1.00  0.00    -0.119 C  
HETATM   24  C   UNL     1      -9.040   6.503  66.941  1.00  0.00    -0.144 C  
HETATM   25  C   UNL     1      -9.574   7.843  66.375  1.00  0.00    -0.251 C  
HETATM   26  C   UNL     1      -9.657   5.341  66.120  1.00  0.00    -0.161 C  
HETATM   27  O   UNL     1     -10.841   5.089  65.995  1.00  0.00    -0.283 OA 
HETATM   28  C   UNL     1     -10.142   8.517  67.583  1.00  0.00    -0.271 A  
HETATM   29  N   UNL     1      -8.621   4.653  65.523  1.00  0.00    -0.123 N  
HETATM   30  C   UNL     1      -7.395   5.171  65.875  1.00  0.00    -0.081 A  
HETATM   31  C   UNL     1     -10.738   9.765  67.662  1.00  0.00    -0.334 A  
HETATM   32  H   UNL     1      -8.748   3.858  64.897  1.00  0.00     0.000 HD 
HETATM   33  N   UNL     1      -6.226   4.661  65.487  1.00  0.00    -0.033 NA 
HETATM   34  C   UNL     1      -5.143   5.294  65.994  1.00  0.00    -0.005 A  
HETATM   35  C   UNL     1      -5.202   6.400  66.846  1.00  0.00    -0.008 A  
HETATM   36  C   UNL     1      -6.449   6.907  67.216  1.00  0.00    -0.049 A  
HETATM   37  C   UNL     1      -7.567   6.269  66.710  1.00  0.00    -0.099 A  
ENDBRANCH  17  19
ENDBRANCH   7  15
BRANCH   6  38
HETATM   38  C   UNL     1     -11.222  14.221  64.376  1.00  0.00    -0.249 C  
HETATM   39  F   UNL     1      -9.880  12.461  63.485  1.00  0.00    -0.386 F  
HETATM   40  F   UNL     1     -12.039  12.228  63.288  1.00  0.00    -0.522 F  
HETATM   41  C   UNL     1     -11.071  12.704  64.093  1.00  0.00    -0.382 C  
HETATM   42  F   UNL     1     -11.062  11.952  65.227  1.00  0.00    -0.326 F  
ENDBRANCH   6  38
TORSDOF 4
ENDMDL
MODEL       24
REMARK 921   NORMALIZED FREE ENERGY PREDICTED BY IDOCK:   -6.94 KCAL/MOL
REMARK 922        TOTAL FREE ENERGY PREDICTED BY IDOCK:  -10.15 KCAL/MOL
REMARK 923 INTER-LIGAND FREE ENERGY PREDICTED BY IDOCK:   -9.24 KCAL/MOL
REMARK 924 INTRA-LIGAND FREE ENERGY PREDICTED BY IDOCK:   -0.91 KCAL/MOL
REMARK 927      BINDING AFFINITY PREDICTED BY RF-SCORE:    0.00 PKD
ROOT
HETATM    1  C   UNL     1     -10.191  18.026  68.898  1.00  0.00    -0.320 C  
HETATM    2  C   UNL     1      -9.685  16.992  67.881  1.00  0.00    -0.263 C  
HETATM    3  C   UNL     1     -10.762  15.905  67.596  1.00  0.00    -0.312 C  
HETATM    4  C   UNL     1     -10.259  15.011  66.446  1.00  0.00    -0.286 C  
HETATM    5  O   UNL     1      -6.641  15.341  67.035  1.00  0.00    -0.253 OA 
HETATM    6  N   UNL     1      -8.368  16.377  68.131  1.00  0.00    -0.181 N  
HETATM    7  C   UNL     1      -8.864  14.427  66.678  1.00  0.00    -0.159 C  
HETATM    8  C   UNL     1      -7.856  15.476  67.188  1.00  0.00    -0.221 C  
ENDROOT
BRANCH   3   9
HETATM    9  C   UNL     1     -11.270  15.125  68.808  1.00  0.00    -0.293 A  
HETATM   10  C   UNL     1     -12.364  13.144  69.712  1.00  0.00    -0.164 A  
HETATM   11  C   UNL     1     -11.832  13.854  68.629  1.00  0.00    -0.407 A  
HETATM   12  C   UNL     1     -11.241  15.635  70.114  1.00  0.00    -0.346 A  
HETATM   13  C   UNL     1     -11.781  14.939  71.195  1.00  0.00    -0.377 A  
HETATM   14  C   UNL     1     -12.342  13.689  70.995  1.00  0.00    -0.436 A  
ENDBRANCH   3   9
BRANCH   7  15
HETATM   15  N   UNL     1      -8.833  13.360  67.681  1.00  0.00    -0.187 N  
HETATM   16  H   UNL     1      -8.819  13.629  68.665  1.00  0.00     0.000 HD 
HETATM   17  C   UNL     1      -8.820  12.019  67.380  1.00  0.00    -0.178 C  
HETATM   18  O   UNL     1      -8.795  11.587  66.234  1.00  0.00    -0.194 OA 
BRANCH  17  19
HETATM   19  C   UNL     1      -8.848  11.081  68.539  1.00  0.00    -0.159 A  
HETATM   20  N   UNL     1      -7.625  10.107  70.414  1.00  0.00    -0.240 NA 
HETATM   21  C   UNL     1      -7.721  10.958  69.349  1.00  0.00    -0.066 A  
HETATM   22  C   UNL     1      -8.688   9.313  70.618  1.00  0.00    -0.234 A  
HETATM   23  C   UNL     1      -8.801   8.330  71.750  1.00  0.00    -0.230 C  
HETATM   24  C   UNL     1     -10.068   7.525  71.386  1.00  0.00    -0.201 C  
HETATM   25  C   UNL     1     -10.771   8.220  70.192  1.00  0.00    -0.239 C  
HETATM   26  C   UNL     1     -11.058   7.476  72.578  1.00  0.00    -0.321 C  
HETATM   27  O   UNL     1     -11.576   8.427  73.132  1.00  0.00    -0.108 OA 
HETATM   28  C   UNL     1      -9.821   9.316  69.832  1.00  0.00    -0.219 A  
HETATM   29  N   UNL     1     -11.276   6.148  72.887  1.00  0.00    -0.389 N  
HETATM   30  C   UNL     1     -10.527   5.310  72.093  1.00  0.00    -0.220 A  
HETATM   31  C   UNL     1      -9.938  10.246  68.812  1.00  0.00    -0.187 A  
HETATM   32  H   UNL     1     -11.914   5.828  73.616  1.00  0.00     0.000 HD 
HETATM   33  N   UNL     1     -10.502   3.983  72.218  1.00  0.00    -0.108 NA 
HETATM   34  C   UNL     1      -9.655   3.356  71.369  1.00  0.00    -0.166 A  
HETATM   35  C   UNL     1      -8.865   4.009  70.419  1.00  0.00    -0.137 A  
HETATM   36  C   UNL     1      -8.933   5.399  70.316  1.00  0.00    -0.158 A  
HETATM   37  C   UNL     1      -9.791   6.056  71.180  1.00  0.00    -0.214 A  
ENDBRANCH  17  19
ENDBRANCH   7  15
BRANCH   6  38
HETATM   38  C   UNL     1      -7.402  16.876  69.135  1.00  0.00    -0.197 C  
HETATM   39  F   UNL     1      -5.240  17.690  68.541  1.00  0.00    -0.137 F  
HETATM   40  F   UNL     1      -6.587  19.120  69.487  1.00  0.00    -0.305 F  
HETATM   41  C   UNL     1      -6.541  18.069  68.647  1.00  0.00    -0.228 C  
HETATM   42  F   UNL     1      -6.896  18.507  67.408  1.00  0.00    -0.195 F  
ENDBRANCH   6  38
TORSDOF 4
ENDMDL
MODEL       25
REMARK 921   NORMALIZED FREE ENERGY PREDICTED BY IDOCK:   -6.94 KCAL/MOL
REMARK 922        TOTAL FREE ENERGY PREDICTED BY IDOCK:  -10.15 KCAL/MOL
REMARK 923 INTER-LIGAND FREE ENERGY PREDICTED BY IDOCK:   -8.35 KCAL/MOL
REMARK 924 INTRA-LIGAND FREE ENERGY PREDICTED BY IDOCK:   -1.80 KCAL/MOL
REMARK 927      BINDING AFFINITY PREDICTED BY RF-SCORE:    0.00 PKD
ROOT
HETATM    1  C   UNL     1      -7.765   6.086  72.111  1.00  0.00    -0.101 C  
HETATM    2  C   UNL     1      -7.619   5.569  70.672  1.00  0.00    -0.089 C  
HETATM    3  C   UNL     1      -6.533   6.365  69.891  1.00  0.00    -0.047 C  
HETATM    4  C   UNL     1      -6.318   5.685  68.525  1.00  0.00    -0.041 C  
HETATM    5  O   UNL     1      -9.691   4.286  68.070  1.00  0.00    -0.157 OA 
HETATM    6  N   UNL     1      -8.850   5.430  69.870  1.00  0.00    -0.123 N  
HETATM    7  C   UNL     1      -7.605   5.481  67.723  1.00  0.00    -0.088 C  
HETATM    8  C   UNL     1      -8.753   4.903  68.574  1.00  0.00    -0.097 C  
ENDROOT
BRANCH   3   9
HETATM    9  C   UNL     1      -6.739   7.877  69.802  1.00  0.00    -0.038 A  
HETATM   10  C   UNL     1      -8.114   9.832  70.276  1.00  0.00    -0.181 A  
HETATM   11  C   UNL     1      -7.867   8.460  70.397  1.00  0.00    -0.090 A  
HETATM   12  C   UNL     1      -5.867   8.729  69.111  1.00  0.00    -0.039 A  
HETATM   13  C   UNL     1      -6.114  10.094  68.975  1.00  0.00    -0.040 A  
HETATM   14  C   UNL     1      -7.240  10.649  69.561  1.00  0.00    -0.140 A  
ENDBRANCH   3   9
BRANCH   7  15
HETATM   15  N   UNL     1      -8.146   6.719  67.156  1.00  0.00    -0.116 N  
HETATM   16  H   UNL     1      -8.356   7.486  67.794  1.00  0.00     0.000 HD 
HETATM   17  C   UNL     1      -8.389   6.912  65.817  1.00  0.00    -0.142 C  
HETATM   18  O   UNL     1      -8.211   6.046  64.969  1.00  0.00    -0.132 OA 
BRANCH  17  19
HETATM   19  C   UNL     1      -8.886   8.261  65.422  1.00  0.00    -0.116 A  
HETATM   20  N   UNL     1      -8.774  10.093  63.812  1.00  0.00    -0.193 NA 
HETATM   21  C   UNL     1      -8.414   8.849  64.250  1.00  0.00    -0.149 A  
HETATM   22  C   UNL     1      -9.591  10.779  64.626  1.00  0.00    -0.268 A  
HETATM   23  C   UNL     1     -10.133  12.148  64.318  1.00  0.00    -0.317 C  
HETATM   24  C   UNL     1     -10.791  12.568  65.651  1.00  0.00    -0.311 C  
HETATM   25  C   UNL     1     -10.815  11.344  66.600  1.00  0.00    -0.339 C  
HETATM   26  C   UNL     1     -12.249  13.045  65.425  1.00  0.00    -0.471 C  
HETATM   27  O   UNL     1     -13.160  12.394  64.947  1.00  0.00    -0.765 OA 
HETATM   28  C   UNL     1     -10.059  10.307  65.834  1.00  0.00    -0.319 A  
HETATM   29  N   UNL     1     -12.345  14.339  65.894  1.00  0.00    -0.425 N  
HETATM   30  C   UNL     1     -11.135  14.804  66.356  1.00  0.00    -0.340 A  
HETATM   31  C   UNL     1      -9.756   9.012  66.221  1.00  0.00    -0.345 A  
HETATM   32  H   UNL     1     -13.207  14.884  65.898  1.00  0.00     0.000 HD 
HETATM   33  N   UNL     1     -10.931  16.042  66.811  1.00  0.00    -0.188 NA 
HETATM   34  C   UNL     1      -9.652  16.305  67.165  1.00  0.00    -0.233 A  
HETATM   35  C   UNL     1      -8.606  15.381  67.087  1.00  0.00    -0.235 A  
HETATM   36  C   UNL     1      -8.869  14.094  66.617  1.00  0.00    -0.141 A  
HETATM   37  C   UNL     1     -10.171  13.809  66.246  1.00  0.00    -0.298 A  
ENDBRANCH  17  19
ENDBRANCH   7  15
BRANCH   6  38
HETATM   38  C   UNL     1     -10.215   5.500  70.436  1.00  0.00    -0.251 C  
HETATM   39  F   UNL     1     -11.227   7.558  71.093  1.00  0.00    -0.246 F  
HETATM   40  F   UNL     1     -12.214   6.462  69.487  1.00  0.00    -0.258 F  
HETATM   41  C   UNL     1     -11.012   6.761  70.013  1.00  0.00    -0.295 C  
HETATM   42  F   UNL     1     -10.343   7.535  69.116  1.00  0.00    -0.191 F  
ENDBRANCH   6  38
TORSDOF 4
ENDMDL
MODEL       26
REMARK 921   NORMALIZED FREE ENERGY PREDICTED BY IDOCK:   -6.90 KCAL/MOL
REMARK 922        TOTAL FREE ENERGY PREDICTED BY IDOCK:  -10.11 KCAL/MOL
REMARK 923 INTER-LIGAND FREE ENERGY PREDICTED BY IDOCK:   -7.95 KCAL/MOL
REMARK 924 INTRA-LIGAND FREE ENERGY PREDICTED BY IDOCK:   -2.15 KCAL/MOL
REMARK 927      BINDING AFFINITY PREDICTED BY RF-SCORE:    0.00 PKD
ROOT
HETATM    1  C   UNL     1      -6.493   4.674  67.505  1.00  0.00    -0.045 C  
HETATM    2  C   UNL     1      -6.569   5.244  66.081  1.00  0.00    -0.048 C  
HETATM    3  C   UNL     1      -5.892   6.643  65.994  1.00  0.00    -0.026 C  
HETATM    4  C   UNL     1      -5.849   7.072  64.514  1.00  0.00    -0.036 C  
HETATM    5  O   UNL     1      -8.844   5.287  63.336  1.00  0.00    -0.053 OA 
HETATM    6  N   UNL     1      -7.888   5.254  65.420  1.00  0.00    -0.091 N  
HETATM    7  C   UNL     1      -7.207   7.019  63.812  1.00  0.00    -0.067 C  
HETATM    8  C   UNL     1      -7.975   5.713  64.098  1.00  0.00    -0.121 C  
ENDROOT
BRANCH   3   9
HETATM    9  C   UNL     1      -6.441   7.716  66.933  1.00  0.00    -0.054 A  
HETATM   10  C   UNL     1      -6.295   9.973  67.842  1.00  0.00    -0.058 A  
HETATM   11  C   UNL     1      -5.855   8.990  66.947  1.00  0.00    -0.049 A  
HETATM   12  C   UNL     1      -7.493   7.485  67.829  1.00  0.00    -0.101 A  
HETATM   13  C   UNL     1      -7.927   8.454  68.732  1.00  0.00    -0.120 A  
HETATM   14  C   UNL     1      -7.328   9.703  68.738  1.00  0.00    -0.074 A  
ENDBRANCH   3   9
BRANCH   7  15
HETATM   15  N   UNL     1      -8.122   8.088  64.220  1.00  0.00    -0.246 N  
HETATM   16  H   UNL     1      -8.768   7.898  64.986  1.00  0.00     0.000 HD 
HETATM   17  C   UNL     1      -8.166   9.330  63.635  1.00  0.00    -0.166 C  
HETATM   18  O   UNL     1      -7.464   9.651  62.684  1.00  0.00    -0.106 OA 
BRANCH  17  19
HETATM   19  C   UNL     1      -9.124  10.307  64.227  1.00  0.00    -0.278 A  
HETATM   20  N   UNL     1     -11.145  11.640  63.910  1.00  0.00    -0.383 NA 
HETATM   21  C   UNL     1     -10.225  10.725  63.481  1.00  0.00    -0.250 A  
HETATM   22  C   UNL     1     -10.900  12.188  65.111  1.00  0.00    -0.300 A  
HETATM   23  C   UNL     1     -11.801  13.188  65.781  1.00  0.00    -0.442 C  
HETATM   24  C   UNL     1     -10.956  13.668  66.981  1.00  0.00    -0.298 C  
HETATM   25  C   UNL     1      -9.703  12.764  67.098  1.00  0.00    -0.216 C  
HETATM   26  C   UNL     1     -11.760  13.568  68.303  1.00  0.00    -0.359 C  
HETATM   27  O   UNL     1     -12.241  12.560  68.787  1.00  0.00    -0.179 OA 
HETATM   28  C   UNL     1      -9.805  11.886  65.892  1.00  0.00    -0.261 A  
HETATM   29  N   UNL     1     -11.809  14.830  68.860  1.00  0.00    -0.395 N  
HETATM   30  C   UNL     1     -11.188  15.764  68.062  1.00  0.00    -0.338 A  
HETATM   31  C   UNL     1      -8.930  10.893  65.483  1.00  0.00    -0.213 A  
HETATM   32  H   UNL     1     -12.251  15.044  69.753  1.00  0.00     0.000 HD 
HETATM   33  N   UNL     1     -11.141  17.069  68.333  1.00  0.00    -0.260 NA 
HETATM   34  C   UNL     1     -10.527  17.816  67.386  1.00  0.00    -0.364 A  
HETATM   35  C   UNL     1      -9.967  17.299  66.215  1.00  0.00    -0.311 A  
HETATM   36  C   UNL     1     -10.030  15.925  65.979  1.00  0.00    -0.360 A  
HETATM   37  C   UNL     1     -10.658  15.147  66.935  1.00  0.00    -0.297 A  
ENDBRANCH  17  19
ENDBRANCH   7  15
BRANCH   6  38
HETATM   38  C   UNL     1      -9.070   4.521  65.926  1.00  0.00    -0.133 C  
HETATM   39  F   UNL     1     -10.327   5.263  67.812  1.00  0.00    -0.204 F  
HETATM   40  F   UNL     1     -11.392   5.174  65.912  1.00  0.00    -0.210 F  
HETATM   41  C   UNL     1     -10.197   5.436  66.471  1.00  0.00    -0.245 C  
HETATM   42  F   UNL     1      -9.935   6.760  66.297  1.00  0.00    -0.200 F  
ENDBRANCH   6  38
TORSDOF 4
ENDMDL
MODEL       27
REMARK 921   NORMALIZED FREE ENERGY PREDICTED BY IDOCK:   -6.87 KCAL/MOL
REMARK 922        TOTAL FREE ENERGY PREDICTED BY IDOCK:  -10.07 KCAL/MOL
REMARK 923 INTER-LIGAND FREE ENERGY PREDICTED BY IDOCK:   -8.22 KCAL/MOL
REMARK 924 INTRA-LIGAND FREE ENERGY PREDICTED BY IDOCK:   -1.86 KCAL/MOL
REMARK 927      BINDING AFFINITY PREDICTED BY RF-SCORE:    0.00 PKD
ROOT
HETATM    1  C   UNL     1      -9.472  18.895  69.398  1.00  0.00     0.060 C  
HETATM    2  C   UNL     1      -9.335  18.382  67.958  1.00  0.00    -0.291 C  
HETATM    3  C   UNL     1     -10.623  17.642  67.495  1.00  0.00    -0.345 C  
HETATM    4  C   UNL     1     -10.484  17.312  65.996  1.00  0.00    -0.285 C  
HETATM    5  O   UNL     1      -6.820  17.005  65.839  1.00  0.00    -0.037 OA 
HETATM    6  N   UNL     1      -8.129  17.600  67.625  1.00  0.00    -0.214 N  
HETATM    7  C   UNL     1      -9.200  16.558  65.642  1.00  0.00     0.144 C  
HETATM    8  C   UNL     1      -7.949  17.170  66.302  1.00  0.00    -0.304 C  
ENDROOT
BRANCH   3   9
HETATM    9  C   UNL     1     -11.063  16.454  68.350  1.00  0.00    -0.351 A  
HETATM   10  C   UNL     1     -10.923  15.221  70.447  1.00  0.00    -0.317 A  
HETATM   11  C   UNL     1     -10.588  16.331  69.663  1.00  0.00    -0.320 A  
HETATM   12  C   UNL     1     -11.901  15.436  67.874  1.00  0.00    -0.090 A  
HETATM   13  C   UNL     1     -12.227  14.321  68.644  1.00  0.00    -0.205 A  
HETATM   14  C   UNL     1     -11.739  14.213  69.936  1.00  0.00    -0.372 A  
ENDBRANCH   3   9
BRANCH   7  15
HETATM   15  N   UNL     1      -9.203  15.158  66.073  1.00  0.00    -0.442 N  
HETATM   16  H   UNL     1      -8.592  14.894  66.846  1.00  0.00     0.000 HD 
HETATM   17  C   UNL     1      -9.976  14.177  65.500  1.00  0.00    -0.295 C  
HETATM   18  O   UNL     1     -10.714  14.375  64.543  1.00  0.00    -0.371 OA 
BRANCH  17  19
HETATM   19  C   UNL     1      -9.887  12.821  66.115  1.00  0.00    -0.269 A  
HETATM   20  N   UNL     1     -10.591  10.485  66.029  1.00  0.00    -0.147 NA 
HETATM   21  C   UNL     1     -10.575  11.758  65.533  1.00  0.00    -0.276 A  
HETATM   22  C   UNL     1      -9.937  10.308  67.188  1.00  0.00    -0.197 A  
HETATM   23  C   UNL     1      -9.803   8.983  67.887  1.00  0.00    -0.207 C  
HETATM   24  C   UNL     1      -9.197   9.370  69.253  1.00  0.00    -0.159 C  
HETATM   25  C   UNL     1      -8.784  10.863  69.207  1.00  0.00     0.013 C  
HETATM   26  C   UNL     1      -7.938   8.520  69.564  1.00  0.00    -0.106 C  
HETATM   27  O   UNL     1      -6.919   8.461  68.901  1.00  0.00    -0.060 OA 
HETATM   28  C   UNL     1      -9.282  11.310  67.871  1.00  0.00    -0.157 A  
HETATM   29  N   UNL     1      -8.163   7.857  70.754  1.00  0.00    -0.108 N  
HETATM   30  C   UNL     1      -9.421   8.114  71.250  1.00  0.00    -0.159 A  
HETATM   31  C   UNL     1      -9.200  12.574  67.309  1.00  0.00    -0.190 A  
HETATM   32  H   UNL     1      -7.481   7.251  71.209  1.00  0.00     0.000 HD 
HETATM   33  N   UNL     1      -9.920   7.557  72.355  1.00  0.00    -0.175 NA 
HETATM   34  C   UNL     1     -11.196   7.908  72.632  1.00  0.00    -0.398 A  
HETATM   35  C   UNL     1     -11.958   8.787  71.858  1.00  0.00    -0.435 A  
HETATM   36  C   UNL     1     -11.391   9.356  70.716  1.00  0.00    -0.363 A  
HETATM   37  C   UNL     1     -10.088   9.003  70.416  1.00  0.00    -0.248 A  
ENDBRANCH  17  19
ENDBRANCH   7  15
BRANCH   6  38
HETATM   38  C   UNL     1      -6.939  17.506  68.500  1.00  0.00    -0.214 C  
HETATM   39  F   UNL     1      -6.878  16.115  70.437  1.00  0.00     0.072 F  
HETATM   40  F   UNL     1      -5.451  15.641  68.858  1.00  0.00    -0.099 F  
HETATM   41  C   UNL     1      -6.697  16.093  69.090  1.00  0.00    -0.190 C  
HETATM   42  F   UNL     1      -7.573  15.164  68.619  1.00  0.00    -0.108 F  
ENDBRANCH   6  38
TORSDOF 4
ENDMDL
MODEL       28
REMARK 921   NORMALIZED FREE ENERGY PREDICTED BY IDOCK:   -6.85 KCAL/MOL
REMARK 922        TOTAL FREE ENERGY PREDICTED BY IDOCK:  -10.05 KCAL/MOL
REMARK 923 INTER-LIGAND FREE ENERGY PREDICTED BY IDOCK:   -8.08 KCAL/MOL
REMARK 924 INTRA-LIGAND FREE ENERGY PREDICTED BY IDOCK:   -1.97 KCAL/MOL
REMARK 927      BINDING AFFINITY PREDICTED BY RF-SCORE:    0.00 PKD
ROOT
HETATM    1  C   UNL     1     -10.972  15.371  69.507  1.00  0.00    -0.276 C  
HETATM    2  C   UNL     1     -11.425  15.296  68.042  1.00  0.00    -0.341 C  
HETATM    3  C   UNL     1     -12.111  13.934  67.731  1.00  0.00    -0.328 C  
HETATM    4  C   UNL     1     -12.693  13.997  66.304  1.00  0.00    -0.226 C  
HETATM    5  O   UNL     1     -10.295  16.372  64.836  1.00  0.00    -0.590 OA 
HETATM    6  N   UNL     1     -10.434  15.637  67.004  1.00  0.00    -0.297 N  
HETATM    7  C   UNL     1     -11.680  14.416  65.238  1.00  0.00    -0.364 C  
HETATM    8  C   UNL     1     -10.838  15.636  65.661  1.00  0.00    -0.327 C  
ENDROOT
BRANCH   3   9
HETATM    9  C   UNL     1     -11.280  12.682  68.003  1.00  0.00    -0.308 A  
HETATM   10  C   UNL     1     -11.188  10.289  68.452  1.00  0.00    -0.284 A  
HETATM   11  C   UNL     1     -11.918  11.441  68.138  1.00  0.00    -0.201 A  
HETATM   12  C   UNL     1      -9.888  12.708  68.170  1.00  0.00    -0.226 A  
HETATM   13  C   UNL     1      -9.157  11.567  68.495  1.00  0.00    -0.157 A  
HETATM   14  C   UNL     1      -9.808  10.352  68.635  1.00  0.00    -0.183 A  
ENDBRANCH   3   9
BRANCH   7  15
HETATM   15  N   UNL     1     -10.697  13.376  64.920  1.00  0.00    -0.347 N  
HETATM   16  H   UNL     1      -9.826  13.364  65.450  1.00  0.00     0.000 HD 
HETATM   17  C   UNL     1     -10.876  12.416  63.953  1.00  0.00    -0.420 C  
HETATM   18  O   UNL     1     -11.866  12.362  63.234  1.00  0.00    -0.466 OA 
BRANCH  17  19
HETATM   19  C   UNL     1      -9.789  11.405  63.816  1.00  0.00    -0.353 A  
HETATM   20  N   UNL     1      -8.088  10.412  62.373  1.00  0.00    -0.155 NA 
HETATM   21  C   UNL     1      -9.078  11.321  62.620  1.00  0.00    -0.283 A  
HETATM   22  C   UNL     1      -7.860   9.524  63.354  1.00  0.00    -0.132 A  
HETATM   23  C   UNL     1      -6.796   8.463  63.300  1.00  0.00    -0.089 C  
HETATM   24  C   UNL     1      -7.119   7.584  64.528  1.00  0.00    -0.065 C  
HETATM   25  C   UNL     1      -8.203   8.296  65.376  1.00  0.00    -0.146 C  
HETATM   26  C   UNL     1      -5.861   7.377  65.410  1.00  0.00    -0.037 C  
HETATM   27  O   UNL     1      -5.202   8.245  65.952  1.00  0.00    -0.027 OA 
HETATM   28  C   UNL     1      -8.555   9.487  64.544  1.00  0.00    -0.206 A  
HETATM   29  N   UNL     1      -5.632   6.019  65.502  1.00  0.00    -0.019 N  
HETATM   30  C   UNL     1      -6.539   5.298  64.759  1.00  0.00    -0.043 A  
HETATM   31  C   UNL     1      -9.494  10.469  64.814  1.00  0.00    -0.312 A  
HETATM   32  H   UNL     1      -4.882   5.601  66.052  1.00  0.00     0.000 HD 
HETATM   33  N   UNL     1      -6.512   3.971  64.624  1.00  0.00    -0.041 NA 
HETATM   34  C   UNL     1      -7.466   3.472  63.805  1.00  0.00    -0.059 A  
HETATM   35  C   UNL     1      -8.424   4.247  63.146  1.00  0.00    -0.099 A  
HETATM   36  C   UNL     1      -8.422   5.631  63.327  1.00  0.00     0.009 A  
HETATM   37  C   UNL     1      -7.450   6.158  64.158  1.00  0.00    -0.081 A  
ENDBRANCH  17  19
ENDBRANCH   7  15
BRANCH   6  38
HETATM   38  C   UNL     1      -9.137  16.291  67.285  1.00  0.00    -0.203 C  
HETATM   39  F   UNL     1      -7.273  15.107  68.188  1.00  0.00    -0.096 F  
HETATM   40  F   UNL     1      -7.002  15.976  66.206  1.00  0.00    -0.031 F  
HETATM   41  C   UNL     1      -7.903  15.391  67.018  1.00  0.00    -0.209 C  
HETATM   42  F   UNL     1      -8.233  14.186  66.478  1.00  0.00    -0.060 F  
ENDBRANCH   6  38
TORSDOF 4
ENDMDL
MODEL       29
REMARK 921   NORMALIZED FREE ENERGY PREDICTED BY IDOCK:   -6.83 KCAL/MOL
REMARK 922        TOTAL FREE ENERGY PREDICTED BY IDOCK:  -10.03 KCAL/MOL
REMARK 923 INTER-LIGAND FREE ENERGY PREDICTED BY IDOCK:   -8.12 KCAL/MOL
REMARK 924 INTRA-LIGAND FREE ENERGY PREDICTED BY IDOCK:   -1.90 KCAL/MOL
REMARK 927      BINDING AFFINITY PREDICTED BY RF-SCORE:    0.00 PKD
ROOT
HETATM    1  C   UNL     1      -6.990   3.702  69.137  1.00  0.00    -0.046 C  
HETATM    2  C   UNL     1      -7.643   4.230  70.422  1.00  0.00    -0.045 C  
HETATM    3  C   UNL     1      -9.182   4.385  70.253  1.00  0.00    -0.193 C  
HETATM    4  C   UNL     1      -9.789   4.747  71.624  1.00  0.00    -0.248 C  
HETATM    5  O   UNL     1      -6.895   6.511  73.058  1.00  0.00    -0.072 OA 
HETATM    6  N   UNL     1      -7.056   5.433  71.041  1.00  0.00    -0.066 N  
HETATM    7  C   UNL     1      -9.134   5.956  72.294  1.00  0.00    -0.141 C  
HETATM    8  C   UNL     1      -7.594   5.902  72.247  1.00  0.00    -0.101 C  
ENDROOT
BRANCH   3   9
HETATM    9  C   UNL     1      -9.647   5.292  69.114  1.00  0.00    -0.201 A  
HETATM   10  C   UNL     1     -11.371   6.716  68.145  1.00  0.00    -0.079 A  
HETATM   11  C   UNL     1     -10.891   5.932  69.201  1.00  0.00    -0.406 A  
HETATM   12  C   UNL     1      -8.903   5.494  67.944  1.00  0.00    -0.105 A  
HETATM   13  C   UNL     1      -9.380   6.262  66.883  1.00  0.00    -0.148 A  
HETATM   14  C   UNL     1     -10.617   6.877  66.984  1.00  0.00    -0.403 A  
ENDBRANCH   3   9
BRANCH   7  15
HETATM   15  N   UNL     1      -9.482   7.234  71.669  1.00  0.00    -0.152 N  
HETATM   16  H   UNL     1      -8.810   7.650  71.024  1.00  0.00     0.000 HD 
HETATM   17  C   UNL     1     -10.657   7.909  71.897  1.00  0.00    -0.231 C  
HETATM   18  O   UNL     1     -11.515   7.521  72.680  1.00  0.00    -0.323 OA 
BRANCH  17  19
HETATM   19  C   UNL     1     -10.858   9.168  71.122  1.00  0.00    -0.381 A  
HETATM   20  N   UNL     1     -12.379  10.980  70.522  1.00  0.00    -0.352 NA 
HETATM   21  C   UNL     1     -12.075   9.841  71.212  1.00  0.00    -0.382 A  
HETATM   22  C   UNL     1     -11.436  11.410  69.669  1.00  0.00    -0.309 A  
HETATM   23  C   UNL     1     -11.555  12.658  68.839  1.00  0.00    -0.363 C  
HETATM   24  C   UNL     1     -10.348  12.554  67.881  1.00  0.00    -0.219 C  
HETATM   25  C   UNL     1      -9.447  11.381  68.343  1.00  0.00    -0.194 C  
HETATM   26  C   UNL     1      -9.508  13.857  67.900  1.00  0.00    -0.212 C  
HETATM   27  O   UNL     1      -8.956  14.351  68.865  1.00  0.00    -0.159 OA 
HETATM   28  C   UNL     1     -10.229  10.776  69.464  1.00  0.00    -0.146 A  
HETATM   29  N   UNL     1      -9.468  14.349  66.611  1.00  0.00    -0.272 N  
HETATM   30  C   UNL     1     -10.209  13.575  65.747  1.00  0.00    -0.297 A  
HETATM   31  C   UNL     1      -9.900   9.673  70.235  1.00  0.00    -0.321 A  
HETATM   32  H   UNL     1      -8.953  15.184  66.333  1.00  0.00     0.000 HD 
HETATM   33  N   UNL     1     -10.389  13.856  64.455  1.00  0.00    -0.372 NA 
HETATM   34  C   UNL     1     -11.198  12.991  63.802  1.00  0.00    -0.349 A  
HETATM   35  C   UNL     1     -11.804  11.878  64.392  1.00  0.00    -0.336 A  
HETATM   36  C   UNL     1     -11.577  11.617  65.744  1.00  0.00    -0.088 A  
HETATM   37  C   UNL     1     -10.756  12.495  66.428  1.00  0.00    -0.275 A  
ENDBRANCH  17  19
ENDBRANCH   7  15
BRANCH   6  38
HETATM   38  C   UNL     1      -5.742   5.999  70.659  1.00  0.00    -0.018 C  
HETATM   39  F   UNL     1      -5.331   6.949  68.510  1.00  0.00    -0.013 F  
HETATM   40  F   UNL     1      -5.138   8.293  70.217  1.00  0.00    -0.023 F  
HETATM   41  C   UNL     1      -5.832   7.244  69.739  1.00  0.00    -0.023 C  
HETATM   42  F   UNL     1      -7.112   7.652  69.522  1.00  0.00    -0.057 F  
ENDBRANCH   6  38
TORSDOF 4
ENDMDL
MODEL       30
REMARK 921   NORMALIZED FREE ENERGY PREDICTED BY IDOCK:   -6.79 KCAL/MOL
REMARK 922        TOTAL FREE ENERGY PREDICTED BY IDOCK:   -9.97 KCAL/MOL
REMARK 923 INTER-LIGAND FREE ENERGY PREDICTED BY IDOCK:   -8.24 KCAL/MOL
REMARK 924 INTRA-LIGAND FREE ENERGY PREDICTED BY IDOCK:   -1.73 KCAL/MOL
REMARK 927      BINDING AFFINITY PREDICTED BY RF-SCORE:    0.00 PKD
ROOT
HETATM    1  C   UNL     1      -7.904  19.186  70.036  1.00  0.00     0.868 C  
HETATM    2  C   UNL     1      -8.654  19.306  68.701  1.00  0.00    -0.366 C  
HETATM    3  C   UNL     1     -10.089  18.713  68.803  1.00  0.00    -0.398 C  
HETATM    4  C   UNL     1     -10.838  19.024  67.492  1.00  0.00    -0.478 C  
HETATM    5  O   UNL     1      -7.951  19.102  65.212  1.00  0.00    -0.080 OA 
HETATM    6  N   UNL     1      -7.968  18.824  67.488  1.00  0.00    -0.243 N  
HETATM    7  C   UNL     1     -10.094  18.582  66.230  1.00  0.00    -0.398 C  
HETATM    8  C   UNL     1      -8.604  18.977  66.248  1.00  0.00    -0.274 C  
ENDROOT
BRANCH   3   9
HETATM    9  C   UNL     1     -10.185  17.251  69.236  1.00  0.00    -0.218 A  
HETATM   10  C   UNL     1      -9.096  15.101  69.599  1.00  0.00    -0.068 A  
HETATM   11  C   UNL     1      -9.028  16.459  69.269  1.00  0.00    -0.130 A  
HETATM   12  C   UNL     1     -11.396  16.630  69.573  1.00  0.00     0.043 A  
HETATM   13  C   UNL     1     -11.472  15.274  69.890  1.00  0.00    -0.325 A  
HETATM   14  C   UNL     1     -10.320  14.507  69.906  1.00  0.00     0.205 A  
ENDBRANCH   3   9
BRANCH   7  15
HETATM   15  N   UNL     1     -10.094  17.131  66.026  1.00  0.00    -0.312 N  
HETATM   16  H   UNL     1      -9.537  16.559  66.661  1.00  0.00     0.000 HD 
HETATM   17  C   UNL     1     -10.798  16.492  65.033  1.00  0.00    -0.229 C  
HETATM   18  O   UNL     1     -11.466  17.084  64.195  1.00  0.00    -1.135 OA 
BRANCH  17  19
HETATM   19  C   UNL     1     -10.720  15.003  65.021  1.00  0.00    -0.448 A  
HETATM   20  N   UNL     1     -11.824  12.901  64.450  1.00  0.00    -0.359 NA 
HETATM   21  C   UNL     1     -11.774  14.266  64.482  1.00  0.00    -0.418 A  
HETATM   22  C   UNL     1     -10.797  12.271  65.042  1.00  0.00    -0.298 A  
HETATM   23  C   UNL     1     -10.640  10.776  65.089  1.00  0.00    -0.239 C  
HETATM   24  C   UNL     1      -9.464  10.581  66.071  1.00  0.00    -0.227 C  
HETATM   25  C   UNL     1      -8.833  11.965  66.370  1.00  0.00    -0.152 C  
HETATM   26  C   UNL     1      -8.374   9.665  65.459  1.00  0.00    -0.139 C  
HETATM   27  O   UNL     1      -7.749   9.865  64.433  1.00  0.00    -0.132 OA 
HETATM   28  C   UNL     1      -9.743  12.912  65.657  1.00  0.00    -0.116 A  
HETATM   29  N   UNL     1      -8.210   8.586  66.303  1.00  0.00    -0.106 N  
HETATM   30  C   UNL     1      -9.079   8.636  67.369  1.00  0.00    -0.133 A  
HETATM   31  C   UNL     1      -9.663  14.294  65.603  1.00  0.00    -0.238 A  
HETATM   32  H   UNL     1      -7.529   7.842  66.155  1.00  0.00     0.000 HD 
HETATM   33  N   UNL     1      -9.174   7.691  68.305  1.00  0.00    -0.139 NA 
HETATM   34  C   UNL     1     -10.132   7.915  69.233  1.00  0.00    -0.197 A  
HETATM   35  C   UNL     1     -10.965   9.037  69.251  1.00  0.00    -0.052 A  
HETATM   36  C   UNL     1     -10.821  10.008  68.258  1.00  0.00    -0.286 A  
HETATM   37  C   UNL     1      -9.849   9.791  67.299  1.00  0.00    -0.228 A  
ENDBRANCH  17  19
ENDBRANCH   7  15
BRANCH   6  38
HETATM   38  C   UNL     1      -6.528  18.483  67.434  1.00  0.00    -0.195 C  
HETATM   39  F   UNL     1      -5.691  16.346  68.083  1.00  0.00    -0.095 F  
HETATM   40  F   UNL     1      -5.382  16.917  66.002  1.00  0.00    -0.107 F  
HETATM   41  C   UNL     1      -6.240  17.013  67.034  1.00  0.00    -0.190 C  
HETATM   42  F   UNL     1      -7.366  16.322  66.709  1.00  0.00    -0.208 F  
ENDBRANCH   6  38
TORSDOF 4
ENDMDL
MODEL       31
REMARK 921   NORMALIZED FREE ENERGY PREDICTED BY IDOCK:   -6.78 KCAL/MOL
REMARK 922        TOTAL FREE ENERGY PREDICTED BY IDOCK:   -9.97 KCAL/MOL
REMARK 923 INTER-LIGAND FREE ENERGY PREDICTED BY IDOCK:   -8.64 KCAL/MOL
REMARK 924 INTRA-LIGAND FREE ENERGY PREDICTED BY IDOCK:   -1.33 KCAL/MOL
REMARK 927      BINDING AFFINITY PREDICTED BY RF-SCORE:    0.00 PKD
ROOT
HETATM    1  C   UNL     1     -11.976  16.059  68.713  1.00  0.00    -0.088 C  
HETATM    2  C   UNL     1     -11.102  15.278  67.721  1.00  0.00    -0.318 C  
HETATM    3  C   UNL     1     -11.695  13.869  67.432  1.00  0.00    -0.422 C  
HETATM    4  C   UNL     1     -10.871  13.216  66.305  1.00  0.00    -0.292 C  
HETATM    5  O   UNL     1      -7.644  14.860  66.959  1.00  0.00    -0.166 OA 
HETATM    6  N   UNL     1      -9.657  15.194  68.006  1.00  0.00    -0.202 N  
HETATM    7  C   UNL     1      -9.365  13.188  66.572  1.00  0.00    -0.216 C  
HETATM    8  C   UNL     1      -8.826  14.539  67.086  1.00  0.00    -0.229 C  
ENDROOT
BRANCH   3   9
HETATM    9  C   UNL     1     -11.908  12.964  68.644  1.00  0.00    -0.347 A  
HETATM   10  C   UNL     1     -12.280  10.733  69.550  1.00  0.00    -0.292 A  
HETATM   11  C   UNL     1     -12.021  11.579  68.465  1.00  0.00    -0.293 A  
HETATM   12  C   UNL     1     -12.040  13.455  69.951  1.00  0.00    -0.389 A  
HETATM   13  C   UNL     1     -12.312  12.619  71.034  1.00  0.00    -0.307 A  
HETATM   14  C   UNL     1     -12.431  11.254  70.834  1.00  0.00    -0.493 A  
ENDBRANCH   3   9
BRANCH   7  15
HETATM   15  N   UNL     1      -8.967  12.215  67.591  1.00  0.00    -0.171 N  
HETATM   16  H   UNL     1      -9.286  12.366  68.548  1.00  0.00     0.000 HD 
HETATM   17  C   UNL     1      -8.188  11.110  67.340  1.00  0.00    -0.132 C  
HETATM   18  O   UNL     1      -7.719  10.855  66.238  1.00  0.00    -0.149 OA 
BRANCH  17  19
HETATM   19  C   UNL     1      -7.937  10.201  68.495  1.00  0.00    -0.104 A  
HETATM   20  N   UNL     1      -6.491   8.500  69.484  1.00  0.00    -0.040 NA 
HETATM   21  C   UNL     1      -6.802   9.393  68.497  1.00  0.00    -0.062 A  
HETATM   22  C   UNL     1      -7.398   8.387  70.467  1.00  0.00    -0.057 A  
HETATM   23  C   UNL     1      -7.237   7.490  71.663  1.00  0.00    -0.067 C  
HETATM   24  C   UNL     1      -8.629   7.546  72.330  1.00  0.00    -0.141 C  
HETATM   25  C   UNL     1      -9.467   8.649  71.636  1.00  0.00    -0.339 C  
HETATM   26  C   UNL     1      -8.511   7.891  73.836  1.00  0.00    -0.259 C  
HETATM   27  O   UNL     1      -8.019   8.896  74.315  1.00  0.00    -0.342 OA 
HETATM   28  C   UNL     1      -8.579   9.096  70.519  1.00  0.00    -0.252 A  
HETATM   29  N   UNL     1      -9.097   6.864  74.549  1.00  0.00    -0.256 N  
HETATM   30  C   UNL     1      -9.544   5.860  73.721  1.00  0.00    -0.147 A  
HETATM   31  C   UNL     1      -8.837  10.059  69.557  1.00  0.00    -0.209 A  
HETATM   32  H   UNL     1      -9.186   6.852  75.565  1.00  0.00     0.000 HD 
HETATM   33  N   UNL     1     -10.096   4.724  74.151  1.00  0.00    -0.181 NA 
HETATM   34  C   UNL     1     -10.415   3.850  73.169  1.00  0.00    -0.176 A  
HETATM   35  C   UNL     1     -10.210   4.085  71.807  1.00  0.00    -0.135 A  
HETATM   36  C   UNL     1      -9.640   5.293  71.403  1.00  0.00    -0.209 A  
HETATM   37  C   UNL     1      -9.304   6.196  72.395  1.00  0.00    -0.146 A  
ENDBRANCH  17  19
ENDBRANCH   7  15
BRANCH   6  38
HETATM   38  C   UNL     1      -8.967  16.020  69.021  1.00  0.00    -0.244 C  
HETATM   39  F   UNL     1      -7.247  17.574  68.456  1.00  0.00    -0.199 F  
HETATM   40  F   UNL     1      -9.049  18.408  69.359  1.00  0.00    -0.067 F  
HETATM   41  C   UNL     1      -8.598  17.445  68.534  1.00  0.00    -0.270 C  
HETATM   42  F   UNL     1      -9.063  17.714  67.284  1.00  0.00    -0.229 F  
ENDBRANCH   6  38
TORSDOF 4
ENDMDL
MODEL       32
REMARK 921   NORMALIZED FREE ENERGY PREDICTED BY IDOCK:   -6.75 KCAL/MOL
REMARK 922        TOTAL FREE ENERGY PREDICTED BY IDOCK:   -9.93 KCAL/MOL
REMARK 923 INTER-LIGAND FREE ENERGY PREDICTED BY IDOCK:   -8.39 KCAL/MOL
REMARK 924 INTRA-LIGAND FREE ENERGY PREDICTED BY IDOCK:   -1.54 KCAL/MOL
REMARK 927      BINDING AFFINITY PREDICTED BY RF-SCORE:    0.00 PKD
ROOT
HETATM    1  C   UNL     1     -11.018  17.677  66.624  1.00  0.00     0.211 C  
HETATM    2  C   UNL     1      -9.691  17.000  66.998  1.00  0.00    -0.263 C  
HETATM    3  C   UNL     1      -9.338  15.859  66.002  1.00  0.00    -0.385 C  
HETATM    4  C   UNL     1      -7.921  15.346  66.331  1.00  0.00     0.265 C  
HETATM    5  O   UNL     1      -7.896  16.079  69.937  1.00  0.00     0.115 OA 
HETATM    6  N   UNL     1      -9.524  16.553  68.394  1.00  0.00    -0.217 N  
HETATM    7  C   UNL     1      -7.730  14.945  67.795  1.00  0.00    -0.161 C  
HETATM    8  C   UNL     1      -8.300  15.987  68.778  1.00  0.00    -0.216 C  
ENDROOT
BRANCH   3   9
HETATM    9  C   UNL     1     -10.376  14.748  65.852  1.00  0.00    -0.335 A  
HETATM   10  C   UNL     1     -11.236  12.843  64.599  1.00  0.00    -0.353 A  
HETATM   11  C   UNL     1     -10.264  13.831  64.798  1.00  0.00    -0.362 A  
HETATM   12  C   UNL     1     -11.482  14.614  66.703  1.00  0.00    -0.363 A  
HETATM   13  C   UNL     1     -12.460  13.641  66.503  1.00  0.00    -0.337 A  
HETATM   14  C   UNL     1     -12.337  12.751  65.449  1.00  0.00    -0.528 A  
ENDBRANCH   3   9
BRANCH   7  15
HETATM   15  N   UNL     1      -8.397  13.690  68.152  1.00  0.00    -0.158 N  
HETATM   16  H   UNL     1      -9.275  13.745  68.669  1.00  0.00     0.000 HD 
HETATM   17  C   UNL     1      -7.914  12.443  67.835  1.00  0.00    -0.155 C  
HETATM   18  O   UNL     1      -6.853  12.261  67.252  1.00  0.00    -0.141 OA 
BRANCH  17  19
HETATM   19  C   UNL     1      -8.764  11.285  68.232  1.00  0.00    -0.158 A  
HETATM   20  N   UNL     1     -10.999  10.487  68.806  1.00  0.00    -0.235 NA 
HETATM   21  C   UNL     1     -10.134  11.468  68.411  1.00  0.00    -0.204 A  
HETATM   22  C   UNL     1     -10.439   9.300  69.087  1.00  0.00    -0.217 A  
HETATM   23  C   UNL     1     -11.212   8.080  69.506  1.00  0.00     0.140 C  
HETATM   24  C   UNL     1     -10.102   7.096  69.934  1.00  0.00    -0.197 C  
HETATM   25  C   UNL     1      -8.729   7.688  69.529  1.00  0.00    -0.136 C  
HETATM   26  C   UNL     1     -10.274   5.724  69.232  1.00  0.00    -0.226 C  
HETATM   27  O   UNL     1     -10.274   5.517  68.033  1.00  0.00    -0.168 OA 
HETATM   28  C   UNL     1      -9.087   9.041  69.002  1.00  0.00    -0.143 A  
HETATM   29  N   UNL     1     -10.397   4.762  70.215  1.00  0.00    -0.194 N  
HETATM   30  C   UNL     1     -10.379   5.316  71.474  1.00  0.00    -0.221 A  
HETATM   31  C   UNL     1      -8.236  10.020  68.515  1.00  0.00    -0.108 A  
HETATM   32  H   UNL     1     -10.489   3.764  70.029  1.00  0.00     0.000 HD 
HETATM   33  N   UNL     1     -10.539   4.620  72.601  1.00  0.00    -0.201 NA 
HETATM   34  C   UNL     1     -10.542   5.371  73.727  1.00  0.00    -0.286 A  
HETATM   35  C   UNL     1     -10.382   6.759  73.750  1.00  0.00    -0.397 A  
HETATM   36  C   UNL     1     -10.206   7.444  72.547  1.00  0.00    -0.261 A  
HETATM   37  C   UNL     1     -10.205   6.692  71.386  1.00  0.00    -0.220 A  
ENDBRANCH  17  19
ENDBRANCH   7  15
BRANCH   6  38
HETATM   38  C   UNL     1     -10.426  16.945  69.500  1.00  0.00    -0.228 C  
HETATM   39  F   UNL     1     -12.517  15.866  69.893  1.00  0.00    -0.363 F  
HETATM   40  F   UNL     1     -11.034  15.715  71.484  1.00  0.00    -0.385 F  
HETATM   41  C   UNL     1     -11.186  15.759  70.148  1.00  0.00    -0.349 C  
HETATM   42  F   UNL     1     -10.813  14.552  69.643  1.00  0.00    -0.248 F  
ENDBRANCH   6  38
TORSDOF 4
ENDMDL
MODEL       33
REMARK 921   NORMALIZED FREE ENERGY PREDICTED BY IDOCK:   -6.65 KCAL/MOL
REMARK 922        TOTAL FREE ENERGY PREDICTED BY IDOCK:   -9.79 KCAL/MOL
REMARK 923 INTER-LIGAND FREE ENERGY PREDICTED BY IDOCK:   -8.96 KCAL/MOL
REMARK 924 INTRA-LIGAND FREE ENERGY PREDICTED BY IDOCK:   -0.84 KCAL/MOL
REMARK 927      BINDING AFFINITY PREDICTED BY RF-SCORE:    0.00 PKD
ROOT
HETATM    1  C   UNL     1      -7.053   7.105  69.361  1.00  0.00    -0.075 C  
HETATM    2  C   UNL     1      -8.480   7.470  68.926  1.00  0.00    -0.129 C  
HETATM    3  C   UNL     1      -8.533   7.838  67.414  1.00  0.00    -0.119 C  
HETATM    4  C   UNL     1     -10.010   8.019  67.010  1.00  0.00    -0.324 C  
HETATM    5  O   UNL     1     -11.337   9.136  70.255  1.00  0.00    -0.250 OA 
HETATM    6  N   UNL     1      -9.207   8.464  69.737  1.00  0.00    -0.156 N  
HETATM    7  C   UNL     1     -10.781   9.001  67.894  1.00  0.00    -0.138 C  
HETATM    8  C   UNL     1     -10.533   8.770  69.398  1.00  0.00    -0.222 C  
ENDROOT
BRANCH   3   9
HETATM    9  C   UNL     1      -7.626   8.983  66.967  1.00  0.00    -0.091 A  
HETATM   10  C   UNL     1      -6.396  10.103  65.186  1.00  0.00    -0.121 A  
HETATM   11  C   UNL     1      -7.277   9.103  65.615  1.00  0.00    -0.082 A  
HETATM   12  C   UNL     1      -7.078   9.918  67.856  1.00  0.00    -0.086 A  
HETATM   13  C   UNL     1      -6.189  10.908  67.438  1.00  0.00    -0.056 A  
HETATM   14  C   UNL     1      -5.848  11.003  66.099  1.00  0.00    -0.142 A  
ENDBRANCH   3   9
BRANCH   7  15
HETATM   15  N   UNL     1     -10.422  10.403  67.667  1.00  0.00    -0.215 N  
HETATM   16  H   UNL     1      -9.489  10.606  67.306  1.00  0.00     0.000 HD 
HETATM   17  C   UNL     1     -11.263  11.463  67.909  1.00  0.00    -0.288 C  
HETATM   18  O   UNL     1     -12.387  11.336  68.378  1.00  0.00    -0.545 OA 
BRANCH  17  19
HETATM   19  C   UNL     1     -10.740  12.815  67.560  1.00  0.00    -0.247 A  
HETATM   20  N   UNL     1      -9.490  14.177  65.965  1.00  0.00    -0.216 NA 
HETATM   21  C   UNL     1     -10.041  12.993  66.367  1.00  0.00    -0.279 A  
HETATM   22  C   UNL     1      -9.603  15.193  66.835  1.00  0.00    -0.239 A  
HETATM   23  C   UNL     1      -9.098  16.585  66.575  1.00  0.00    -0.307 C  
HETATM   24  C   UNL     1      -9.252  17.273  67.949  1.00  0.00    -0.247 C  
HETATM   25  C   UNL     1     -10.054  16.335  68.886  1.00  0.00    -0.251 C  
HETATM   26  C   UNL     1     -10.020  18.613  67.818  1.00  0.00    -0.346 C  
HETATM   27  O   UNL     1     -11.149  18.764  67.391  1.00  0.00    -0.332 OA 
HETATM   28  C   UNL     1     -10.219  15.097  68.064  1.00  0.00    -0.230 A  
HETATM   29  N   UNL     1      -9.204  19.614  68.306  1.00  0.00    -0.346 N  
HETATM   30  C   UNL     1      -7.978  19.126  68.698  1.00  0.00    -0.363 A  
HETATM   31  C   UNL     1     -10.849  13.915  68.418  1.00  0.00    -0.269 A  
HETATM   32  H   UNL     1      -9.476  20.594  68.368  1.00  0.00     0.000 HD 
HETATM   33  N   UNL     1      -6.979  19.885  69.152  1.00  0.00    -0.314 NA 
HETATM   34  C   UNL     1      -5.842  19.206  69.429  1.00  0.00    -0.245 A  
HETATM   35  C   UNL     1      -5.691  17.825  69.278  1.00  0.00    -0.213 A  
HETATM   36  C   UNL     1      -6.767  17.069  68.811  1.00  0.00    -0.193 A  
HETATM   37  C   UNL     1      -7.936  17.748  68.518  1.00  0.00    -0.294 A  
ENDBRANCH  17  19
ENDBRANCH   7  15
BRANCH   6  38
HETATM   38  C   UNL     1      -8.761   8.926  71.071  1.00  0.00    -0.224 C  
HETATM   39  F   UNL     1      -9.963   8.427  73.070  1.00  0.00    -0.341 F  
HETATM   40  F   UNL     1      -7.935   7.638  72.935  1.00  0.00    -0.101 F  
HETATM   41  C   UNL     1      -9.037   7.917  72.215  1.00  0.00    -0.161 C  
HETATM   42  F   UNL     1      -9.557   6.741  71.771  1.00  0.00    -0.158 F  
ENDBRANCH   6  38
TORSDOF 4
ENDMDL
MODEL       34
REMARK 921   NORMALIZED FREE ENERGY PREDICTED BY IDOCK:   -6.64 KCAL/MOL
REMARK 922        TOTAL FREE ENERGY PREDICTED BY IDOCK:   -9.79 KCAL/MOL
REMARK 923 INTER-LIGAND FREE ENERGY PREDICTED BY IDOCK:   -8.43 KCAL/MOL
REMARK 924 INTRA-LIGAND FREE ENERGY PREDICTED BY IDOCK:   -1.35 KCAL/MOL
REMARK 927      BINDING AFFINITY PREDICTED BY RF-SCORE:    0.00 PKD
ROOT
HETATM    1  C   UNL     1     -10.605   7.923  66.917  1.00  0.00    -0.333 C  
HETATM    2  C   UNL     1      -9.296   8.434  67.535  1.00  0.00    -0.147 C  
HETATM    3  C   UNL     1      -9.570   9.402  68.722  1.00  0.00    -0.156 C  
HETATM    4  C   UNL     1      -8.226   9.734  69.401  1.00  0.00    -0.135 C  
HETATM    5  O   UNL     1      -6.029   9.382  66.470  1.00  0.00    -0.057 OA 
HETATM    6  N   UNL     1      -8.283   8.994  66.620  1.00  0.00    -0.117 N  
HETATM    7  C   UNL     1      -7.156  10.252  68.439  1.00  0.00    -0.078 C  
HETATM    8  C   UNL     1      -7.055   9.412  67.150  1.00  0.00    -0.086 C  
ENDROOT
BRANCH   3   9
HETATM    9  C   UNL     1     -10.422  10.631  68.407  1.00  0.00    -0.212 A  
HETATM   10  C   UNL     1     -11.517  12.049  66.755  1.00  0.00    -0.410 A  
HETATM   11  C   UNL     1     -10.792  10.897  67.081  1.00  0.00    -0.337 A  
HETATM   12  C   UNL     1     -10.831  11.550  69.383  1.00  0.00    -0.180 A  
HETATM   13  C   UNL     1     -11.541  12.706  69.064  1.00  0.00    -0.367 A  
HETATM   14  C   UNL     1     -11.888  12.957  67.746  1.00  0.00    -0.391 A  
ENDBRANCH   3   9
BRANCH   7  15
HETATM   15  N   UNL     1      -7.396  11.621  67.975  1.00  0.00    -0.084 N  
HETATM   16  H   UNL     1      -7.829  11.747  67.060  1.00  0.00     0.000 HD 
HETATM   17  C   UNL     1      -7.074  12.747  68.694  1.00  0.00    -0.100 C  
HETATM   18  O   UNL     1      -6.516  12.712  69.784  1.00  0.00    -0.101 OA 
BRANCH  17  19
HETATM   19  C   UNL     1      -7.449  14.053  68.082  1.00  0.00    -0.131 A  
HETATM   20  N   UNL     1      -8.836  15.225  66.449  1.00  0.00    -0.297 NA 
HETATM   21  C   UNL     1      -8.438  14.091  67.100  1.00  0.00    -0.190 A  
HETATM   22  C   UNL     1      -8.161  16.341  66.766  1.00  0.00    -0.259 A  
HETATM   23  C   UNL     1      -8.461  17.698  66.192  1.00  0.00    -0.167 C  
HETATM   24  C   UNL     1      -7.271  18.552  66.682  1.00  0.00    -0.239 C  
HETATM   25  C   UNL     1      -6.456  17.726  67.709  1.00  0.00    -0.188 C  
HETATM   26  C   UNL     1      -7.764  19.849  67.373  1.00  0.00    -0.281 C  
HETATM   27  O   UNL     1      -8.480  19.922  68.354  1.00  0.00    -0.283 OA 
HETATM   28  C   UNL     1      -7.127  16.390  67.676  1.00  0.00    -0.157 A  
HETATM   29  N   UNL     1      -7.217  20.920  66.695  1.00  0.00    -0.525 N  
HETATM   30  C   UNL     1      -6.468  20.511  65.616  1.00  0.00    -0.241 A  
HETATM   31  C   UNL     1      -6.796  15.251  68.391  1.00  0.00    -0.112 A  
HETATM   32  H   UNL     1      -7.353  21.895  66.960  1.00  0.00     0.000 HD 
HETATM   33  N   UNL     1      -5.876  21.341  64.755  1.00  0.00    -0.185 NA 
HETATM   34  C   UNL     1      -5.234  20.726  63.736  1.00  0.00    -0.198 A  
HETATM   35  C   UNL     1      -5.163  19.340  63.569  1.00  0.00    -0.317 A  
HETATM   36  C   UNL     1      -5.787  18.510  64.502  1.00  0.00    -0.033 A  
HETATM   37  C   UNL     1      -6.452  19.123  65.548  1.00  0.00    -0.303 A  
ENDBRANCH  17  19
ENDBRANCH   7  15
BRANCH   6  38
HETATM   38  C   UNL     1      -8.335   8.854  65.148  1.00  0.00    -0.161 C  
HETATM   39  F   UNL     1      -9.915  10.031  63.803  1.00  0.00    -0.330 F  
HETATM   40  F   UNL     1      -7.812  10.477  63.441  1.00  0.00    -0.155 F  
HETATM   41  C   UNL     1      -8.701  10.162  64.400  1.00  0.00    -0.202 C  
HETATM   42  F   UNL     1      -8.817  11.233  65.232  1.00  0.00    -0.189 F  
ENDBRANCH   6  38
TORSDOF 4
ENDMDL
MODEL       35
REMARK 921   NORMALIZED FREE ENERGY PREDICTED BY IDOCK:   -6.51 KCAL/MOL
REMARK 922        TOTAL FREE ENERGY PREDICTED BY IDOCK:   -9.63 KCAL/MOL
REMARK 923 INTER-LIGAND FREE ENERGY PREDICTED BY IDOCK:   -8.15 KCAL/MOL
REMARK 924 INTRA-LIGAND FREE ENERGY PREDICTED BY IDOCK:   -1.48 KCAL/MOL
REMARK 927      BINDING AFFINITY PREDICTED BY RF-SCORE:    0.00 PKD
ROOT
HETATM    1  C   UNL     1     -10.886   7.391  67.276  1.00  0.00    -0.326 C  
HETATM    2  C   UNL     1     -10.051   7.903  68.459  1.00  0.00    -0.197 C  
HETATM    3  C   UNL     1     -10.715   9.143  69.125  1.00  0.00    -0.190 C  
HETATM    4  C   UNL     1      -9.924   9.492  70.402  1.00  0.00    -0.325 C  
HETATM    5  O   UNL     1      -6.619   8.257  69.356  1.00  0.00    -0.040 OA 
HETATM    6  N   UNL     1      -8.613   8.134  68.230  1.00  0.00    -0.130 N  
HETATM    7  C   UNL     1      -8.421   9.666  70.174  1.00  0.00    -0.204 C  
HETATM    8  C   UNL     1      -7.816   8.543  69.308  1.00  0.00    -0.099 C  
ENDROOT
BRANCH   3   9
HETATM    9  C   UNL     1     -10.973  10.341  68.213  1.00  0.00    -0.315 A  
HETATM   10  C   UNL     1     -10.886  11.334  65.989  1.00  0.00    -0.273 A  
HETATM   11  C   UNL     1     -10.720  10.234  66.838  1.00  0.00    -0.252 A  
HETATM   12  C   UNL     1     -11.422  11.582  68.687  1.00  0.00    -0.354 A  
HETATM   13  C   UNL     1     -11.576  12.686  67.849  1.00  0.00    -0.401 A  
HETATM   14  C   UNL     1     -11.310  12.562  66.495  1.00  0.00    -0.387 A  
ENDBRANCH   3   9
BRANCH   7  15
HETATM   15  N   UNL     1      -8.073  10.905  69.475  1.00  0.00    -0.382 N  
HETATM   16  H   UNL     1      -8.688  11.222  68.725  1.00  0.00     0.000 HD 
HETATM   17  C   UNL     1      -6.967  11.669  69.765  1.00  0.00     0.138 C  
HETATM   18  O   UNL     1      -6.142  11.362  70.616  1.00  0.00    -0.316 OA 
BRANCH  17  19
HETATM   19  C   UNL     1      -6.811  12.930  68.984  1.00  0.00    -0.080 A  
HETATM   20  N   UNL     1      -5.468  14.193  67.383  1.00  0.00    -0.305 NA 
HETATM   21  C   UNL     1      -5.727  13.071  68.119  1.00  0.00    -0.093 A  
HETATM   22  C   UNL     1      -6.306  15.223  67.583  1.00  0.00    -0.146 A  
HETATM   23  C   UNL     1      -6.220  16.534  66.853  1.00  0.00    -0.143 C  
HETATM   24  C   UNL     1      -7.226  17.423  67.616  1.00  0.00    -0.176 C  
HETATM   25  C   UNL     1      -8.026  16.535  68.601  1.00  0.00    -0.232 C  
HETATM   26  C   UNL     1      -8.224  18.097  66.640  1.00  0.00    -0.262 C  
HETATM   27  O   UNL     1      -8.990  17.534  65.880  1.00  0.00    -0.517 OA 
HETATM   28  C   UNL     1      -7.366  15.200  68.464  1.00  0.00    -0.119 A  
HETATM   29  N   UNL     1      -8.116  19.463  66.806  1.00  0.00    -0.272 N  
HETATM   30  C   UNL     1      -7.145  19.789  67.725  1.00  0.00    -0.269 A  
HETATM   31  C   UNL     1      -7.668  14.026  69.136  1.00  0.00     0.068 A  
HETATM   32  H   UNL     1      -8.685  20.147  66.308  1.00  0.00     0.000 HD 
HETATM   33  N   UNL     1      -6.793  21.038  68.033  1.00  0.00    -0.209 NA 
HETATM   34  C   UNL     1      -5.778  21.131  68.923  1.00  0.00    -0.217 A  
HETATM   35  C   UNL     1      -5.135  20.034  69.503  1.00  0.00    -0.219 A  
HETATM   36  C   UNL     1      -5.545  18.745  69.160  1.00  0.00    -0.213 A  
HETATM   37  C   UNL     1      -6.579  18.632  68.247  1.00  0.00    -0.233 A  
ENDBRANCH  17  19
ENDBRANCH   7  15
BRANCH   6  38
HETATM   38  C   UNL     1      -7.882   7.661  67.033  1.00  0.00    -0.112 C  
HETATM   39  F   UNL     1      -8.110   8.700  64.898  1.00  0.00    -0.113 F  
HETATM   40  F   UNL     1      -6.121   8.746  65.791  1.00  0.00    -0.049 F  
HETATM   41  C   UNL     1      -7.436   8.795  66.074  1.00  0.00    -0.089 C  
HETATM   42  F   UNL     1      -7.714  10.036  66.556  1.00  0.00    -0.100 F  
ENDBRANCH   6  38
TORSDOF 4
ENDMDL
MODEL       36
REMARK 921   NORMALIZED FREE ENERGY PREDICTED BY IDOCK:   -6.46 KCAL/MOL
REMARK 922        TOTAL FREE ENERGY PREDICTED BY IDOCK:   -9.57 KCAL/MOL
REMARK 923 INTER-LIGAND FREE ENERGY PREDICTED BY IDOCK:   -7.20 KCAL/MOL
REMARK 924 INTRA-LIGAND FREE ENERGY PREDICTED BY IDOCK:   -2.38 KCAL/MOL
REMARK 927      BINDING AFFINITY PREDICTED BY RF-SCORE:    0.00 PKD
ROOT
HETATM    1  C   UNL     1     -10.732  11.054  64.466  1.00  0.00    -0.335 C  
HETATM    2  C   UNL     1      -9.326  11.294  65.034  1.00  0.00    -0.178 C  
HETATM    3  C   UNL     1      -8.477   9.990  65.013  1.00  0.00    -0.167 C  
HETATM    4  C   UNL     1      -7.034  10.341  65.428  1.00  0.00    -0.139 C  
HETATM    5  O   UNL     1      -7.773  13.214  67.605  1.00  0.00    -0.140 OA 
HETATM    6  N   UNL     1      -9.225  11.967  66.343  1.00  0.00    -0.219 N  
HETATM    7  C   UNL     1      -6.936  11.098  66.754  1.00  0.00    -0.137 C  
HETATM    8  C   UNL     1      -7.953  12.253  66.857  1.00  0.00    -0.068 C  
ENDROOT
BRANCH   3   9
HETATM    9  C   UNL     1      -9.060   8.792  65.761  1.00  0.00    -0.267 A  
HETATM   10  C   UNL     1      -8.992   6.411  66.275  1.00  0.00    -0.166 A  
HETATM   11  C   UNL     1      -8.443   7.539  65.653  1.00  0.00    -0.141 A  
HETATM   12  C   UNL     1     -10.227   8.868  66.535  1.00  0.00    -0.319 A  
HETATM   13  C   UNL     1     -10.786   7.746  67.146  1.00  0.00    -0.337 A  
HETATM   14  C   UNL     1     -10.166   6.514  67.018  1.00  0.00    -0.277 A  
ENDBRANCH   3   9
BRANCH   7  15
HETATM   15  N   UNL     1      -7.199  10.263  67.928  1.00  0.00    -0.085 N  
HETATM   16  H   UNL     1      -8.038  10.457  68.475  1.00  0.00     0.000 HD 
HETATM   17  C   UNL     1      -6.386   9.235  68.341  1.00  0.00    -0.053 C  
HETATM   18  O   UNL     1      -5.336   8.942  67.782  1.00  0.00    -0.034 OA 
BRANCH  17  19
HETATM   19  C   UNL     1      -6.850   8.459  69.526  1.00  0.00    -0.041 A  
HETATM   20  N   UNL     1      -6.229   7.284  71.574  1.00  0.00    -0.037 NA 
HETATM   21  C   UNL     1      -5.920   8.029  70.471  1.00  0.00    -0.029 A  
HETATM   22  C   UNL     1      -7.515   6.917  71.683  1.00  0.00    -0.085 A  
HETATM   23  C   UNL     1      -8.072   6.126  72.834  1.00  0.00    -0.109 C  
HETATM   24  C   UNL     1      -9.496   5.771  72.355  1.00  0.00    -0.155 C  
HETATM   25  C   UNL     1      -9.795   6.562  71.057  1.00  0.00    -0.196 C  
HETATM   26  C   UNL     1     -10.554   6.156  73.421  1.00  0.00    -0.269 C  
HETATM   27  O   UNL     1     -10.764   7.268  73.867  1.00  0.00    -0.318 OA 
HETATM   28  C   UNL     1      -8.494   7.239  70.767  1.00  0.00    -0.132 A  
HETATM   29  N   UNL     1     -11.247   5.010  73.758  1.00  0.00    -0.393 N  
HETATM   30  C   UNL     1     -10.759   3.907  73.096  1.00  0.00    -0.181 A  
HETATM   31  C   UNL     1      -8.182   8.068  69.702  1.00  0.00    -0.121 A  
HETATM   32  H   UNL     1     -12.024   4.985  74.417  1.00  0.00     0.000 HD 
HETATM   33  N   UNL     1     -11.207   2.664  73.279  1.00  0.00    -0.144 NA 
HETATM   34  C   UNL     1     -10.550   1.721  72.565  1.00  0.00    -0.135 A  
HETATM   35  C   UNL     1      -9.493   1.988  71.690  1.00  0.00    -0.191 A  
HETATM   36  C   UNL     1      -9.066   3.306  71.521  1.00  0.00    -0.174 A  
HETATM   37  C   UNL     1      -9.725   4.282  72.247  1.00  0.00    -0.210 A  
ENDBRANCH  17  19
ENDBRANCH   7  15
BRANCH   6  38
HETATM   38  C   UNL     1     -10.357  12.652  67.007  1.00  0.00    -0.232 C  
HETATM   39  F   UNL     1     -12.028  11.473  68.234  1.00  0.00    -0.367 F  
HETATM   40  F   UNL     1     -10.823  12.899  69.361  1.00  0.00    -0.206 F  
HETATM   41  C   UNL     1     -10.785  12.010  68.351  1.00  0.00    -0.229 C  
HETATM   42  F   UNL     1      -9.977  10.982  68.728  1.00  0.00    -0.178 F  
ENDBRANCH   6  38
TORSDOF 4
ENDMDL
MODEL       37
REMARK 921   NORMALIZED FREE ENERGY PREDICTED BY IDOCK:   -6.43 KCAL/MOL
REMARK 922        TOTAL FREE ENERGY PREDICTED BY IDOCK:   -9.52 KCAL/MOL
REMARK 923 INTER-LIGAND FREE ENERGY PREDICTED BY IDOCK:   -7.30 KCAL/MOL
REMARK 924 INTRA-LIGAND FREE ENERGY PREDICTED BY IDOCK:   -2.23 KCAL/MOL
REMARK 927      BINDING AFFINITY PREDICTED BY RF-SCORE:    0.00 PKD
ROOT
HETATM    1  C   UNL     1     -12.443  14.334  66.285  1.00  0.00    -0.329 C  
HETATM    2  C   UNL     1     -11.030  14.678  66.777  1.00  0.00    -0.323 C  
HETATM    3  C   UNL     1      -9.973  13.697  66.192  1.00  0.00    -0.314 C  
HETATM    4  C   UNL     1      -8.570  14.204  66.582  1.00  0.00     0.003 C  
HETATM    5  O   UNL     1      -9.449  15.885  69.735  1.00  0.00    -0.221 OA 
HETATM    6  N   UNL     1     -10.838  14.857  68.228  1.00  0.00    -0.250 N  
HETATM    7  C   UNL     1      -8.393  14.452  68.081  1.00  0.00    -0.158 C  
HETATM    8  C   UNL     1      -9.571  15.231  68.699  1.00  0.00    -0.206 C  
ENDROOT
BRANCH   3   9
HETATM    9  C   UNL     1     -10.195  12.213  66.483  1.00  0.00    -0.230 A  
HETATM   10  C   UNL     1      -9.661   9.885  66.005  1.00  0.00    -0.284 A  
HETATM   11  C   UNL     1      -9.434  11.252  65.805  1.00  0.00    -0.252 A  
HETATM   12  C   UNL     1     -11.167  11.746  67.380  1.00  0.00    -0.357 A  
HETATM   13  C   UNL     1     -11.407  10.387  67.572  1.00  0.00    -0.112 A  
HETATM   14  C   UNL     1     -10.651   9.452  66.885  1.00  0.00    -0.238 A  
ENDBRANCH   3   9
BRANCH   7  15
HETATM   15  N   UNL     1      -8.300  13.224  68.873  1.00  0.00    -0.353 N  
HETATM   16  H   UNL     1      -9.002  13.066  69.596  1.00  0.00     0.000 HD 
HETATM   17  C   UNL     1      -7.326  12.269  68.704  1.00  0.00    -0.106 C  
HETATM   18  O   UNL     1      -6.413  12.376  67.894  1.00  0.00    -0.072 OA 
BRANCH  17  19
HETATM   19  C   UNL     1      -7.430  11.057  69.566  1.00  0.00    -0.031 A  
HETATM   20  N   UNL     1      -6.271   9.468  71.013  1.00  0.00    -0.079 NA 
HETATM   21  C   UNL     1      -6.298  10.586  70.227  1.00  0.00    -0.137 A  
HETATM   22  C   UNL     1      -7.421   8.777  71.074  1.00  0.00    -0.096 A  
HETATM   23  C   UNL     1      -7.617   7.540  71.906  1.00  0.00    -0.085 C  
HETATM   24  C   UNL     1      -8.992   7.019  71.434  1.00  0.00    -0.139 C  
HETATM   25  C   UNL     1      -9.645   8.093  70.527  1.00  0.00    -0.177 C  
HETATM   26  C   UNL     1      -9.931   6.756  72.639  1.00  0.00    -0.171 C  
HETATM   27  O   UNL     1     -10.297   7.571  73.466  1.00  0.00    -0.345 OA 
HETATM   28  C   UNL     1      -8.574   9.129  70.405  1.00  0.00    -0.236 A  
HETATM   29  N   UNL     1     -10.310   5.429  72.595  1.00  0.00    -0.195 N  
HETATM   30  C   UNL     1      -9.710   4.763  71.550  1.00  0.00    -0.172 A  
HETATM   31  C   UNL     1      -8.609  10.312  69.685  1.00  0.00    -0.126 A  
HETATM   32  H   UNL     1     -10.954   4.996  73.255  1.00  0.00     0.000 HD 
HETATM   33  N   UNL     1      -9.855   3.459  71.311  1.00  0.00    -0.167 NA 
HETATM   34  C   UNL     1      -9.132   2.999  70.263  1.00  0.00    -0.120 A  
HETATM   35  C   UNL     1      -8.302   3.792  69.468  1.00  0.00    -0.079 A  
HETATM   36  C   UNL     1      -8.190   5.155  69.749  1.00  0.00    -0.089 A  
HETATM   37  C   UNL     1      -8.919   5.642  70.819  1.00  0.00    -0.154 A  
ENDBRANCH  17  19
ENDBRANCH   7  15
BRANCH   6  38
HETATM   38  C   UNL     1     -11.949  14.987  69.197  1.00  0.00    -0.275 C  
HETATM   39  F   UNL     1     -13.207  13.111  69.965  1.00  0.00     0.220 F  
HETATM   40  F   UNL     1     -12.085  14.210  71.478  1.00  0.00    -0.382 F  
HETATM   41  C   UNL     1     -12.061  13.805  70.195  1.00  0.00    -0.359 C  
HETATM   42  F   UNL     1     -11.053  12.901  70.060  1.00  0.00    -0.098 F  
ENDBRANCH   6  38
TORSDOF 4
ENDMDL
MODEL       38
REMARK 921   NORMALIZED FREE ENERGY PREDICTED BY IDOCK:   -6.37 KCAL/MOL
REMARK 922        TOTAL FREE ENERGY PREDICTED BY IDOCK:   -9.45 KCAL/MOL
REMARK 923 INTER-LIGAND FREE ENERGY PREDICTED BY IDOCK:   -8.18 KCAL/MOL
REMARK 924 INTRA-LIGAND FREE ENERGY PREDICTED BY IDOCK:   -1.27 KCAL/MOL
REMARK 927      BINDING AFFINITY PREDICTED BY RF-SCORE:    0.00 PKD
ROOT
HETATM    1  C   UNL     1      -8.920  15.994  65.831  1.00  0.00    -0.256 C  
HETATM    2  C   UNL     1     -10.000  15.567  66.835  1.00  0.00    -0.247 C  
HETATM    3  C   UNL     1      -9.406  15.390  68.263  1.00  0.00    -0.193 C  
HETATM    4  C   UNL     1     -10.567  15.137  69.245  1.00  0.00    -0.253 C  
HETATM    5  O   UNL     1     -12.909  13.509  66.921  1.00  0.00     0.115 OA 
HETATM    6  N   UNL     1     -10.853  14.420  66.473  1.00  0.00    -0.305 N  
HETATM    7  C   UNL     1     -11.490  13.989  68.833  1.00  0.00    -0.294 C  
HETATM    8  C   UNL     1     -11.886  14.048  67.345  1.00  0.00    -0.409 C  
ENDROOT
BRANCH   3   9
HETATM    9  C   UNL     1      -8.256  14.393  68.396  1.00  0.00    -0.145 A  
HETATM   10  C   UNL     1      -6.290  13.617  69.609  1.00  0.00    -0.110 A  
HETATM   11  C   UNL     1      -7.390  14.476  69.495  1.00  0.00    -0.063 A  
HETATM   12  C   UNL     1      -7.987  13.403  67.441  1.00  0.00    -0.170 A  
HETATM   13  C   UNL     1      -6.886  12.553  67.542  1.00  0.00    -0.150 A  
HETATM   14  C   UNL     1      -6.036  12.658  68.630  1.00  0.00    -0.065 A  
ENDBRANCH   3   9
BRANCH   7  15
HETATM   15  N   UNL     1     -10.893  12.662  69.009  1.00  0.00    -0.393 N  
HETATM   16  H   UNL     1      -9.984  12.486  68.580  1.00  0.00     0.000 HD 
HETATM   17  C   UNL     1     -11.480  11.640  69.715  1.00  0.00    -0.264 C  
HETATM   18  O   UNL     1     -12.585  11.730  70.236  1.00  0.00    -0.171 OA 
BRANCH  17  19
HETATM   19  C   UNL     1     -10.692  10.380  69.834  1.00  0.00    -0.331 A  
HETATM   20  N   UNL     1      -8.516   9.298  69.602  1.00  0.00    -0.128 NA 
HETATM   21  C   UNL     1      -9.326  10.397  69.558  1.00  0.00    -0.127 A  
HETATM   22  C   UNL     1      -9.131   8.136  69.874  1.00  0.00    -0.151 A  
HETATM   23  C   UNL     1      -8.422   6.816  70.002  1.00  0.00    -0.140 C  
HETATM   24  C   UNL     1      -9.585   5.802  70.068  1.00  0.00    -0.206 C  
HETATM   25  C   UNL     1     -10.916   6.583  70.214  1.00  0.00    -0.365 C  
HETATM   26  C   UNL     1      -9.431   4.858  71.288  1.00  0.00    -0.156 C  
HETATM   27  O   UNL     1      -9.384   5.186  72.459  1.00  0.00    -0.135 OA 
HETATM   28  C   UNL     1     -10.485   8.010  70.097  1.00  0.00    -0.225 A  
HETATM   29  N   UNL     1      -9.389   3.563  70.813  1.00  0.00    -0.143 N  
HETATM   30  C   UNL     1      -9.444   3.522  69.438  1.00  0.00    -0.164 A  
HETATM   31  C   UNL     1     -11.278   9.145  70.137  1.00  0.00    -0.211 A  
HETATM   32  H   UNL     1      -9.324   2.737  71.407  1.00  0.00     0.000 HD 
HETATM   33  N   UNL     1      -9.361   2.403  68.717  1.00  0.00    -0.169 NA 
HETATM   34  C   UNL     1      -9.382   2.597  67.378  1.00  0.00    -0.122 A  
HETATM   35  C   UNL     1      -9.492   3.847  66.764  1.00  0.00    -0.223 A  
HETATM   36  C   UNL     1      -9.588   4.990  67.559  1.00  0.00    -0.169 A  
HETATM   37  C   UNL     1      -9.564   4.810  68.930  1.00  0.00    -0.229 A  
ENDBRANCH  17  19
ENDBRANCH   7  15
BRANCH   6  38
HETATM   38  C   UNL     1     -10.913  13.833  65.116  1.00  0.00    -0.337 C  
HETATM   39  F   UNL     1      -9.448  12.089  64.408  1.00  0.00    -0.150 F  
HETATM   40  F   UNL     1     -11.576  11.614  64.441  1.00  0.00    -0.390 F  
HETATM   41  C   UNL     1     -10.614  12.312  65.070  1.00  0.00    -0.287 C  
HETATM   42  F   UNL     1     -10.442  11.769  66.306  1.00  0.00    -0.247 F  
ENDBRANCH   6  38
TORSDOF 4
ENDMDL
MODEL       39
REMARK 921   NORMALIZED FREE ENERGY PREDICTED BY IDOCK:   -6.37 KCAL/MOL
REMARK 922        TOTAL FREE ENERGY PREDICTED BY IDOCK:   -9.45 KCAL/MOL
REMARK 923 INTER-LIGAND FREE ENERGY PREDICTED BY IDOCK:   -7.58 KCAL/MOL
REMARK 924 INTRA-LIGAND FREE ENERGY PREDICTED BY IDOCK:   -1.87 KCAL/MOL
REMARK 927      BINDING AFFINITY PREDICTED BY RF-SCORE:    0.00 PKD
ROOT
HETATM    1  C   UNL     1      -9.918   3.677  71.761  1.00  0.00    -0.210 C  
HETATM    2  C   UNL     1      -8.597   4.461  71.748  1.00  0.00    -0.114 C  
HETATM    3  C   UNL     1      -8.733   5.812  72.510  1.00  0.00    -0.124 C  
HETATM    4  C   UNL     1      -7.337   6.458  72.608  1.00  0.00    -0.087 C  
HETATM    5  O   UNL     1      -5.868   5.064  69.535  1.00  0.00    -0.018 OA 
HETATM    6  N   UNL     1      -7.932   4.654  70.446  1.00  0.00    -0.063 N  
HETATM    7  C   UNL     1      -6.620   6.597  71.264  1.00  0.00    -0.050 C  
HETATM    8  C   UNL     1      -6.695   5.314  70.413  1.00  0.00    -0.043 C  
ENDROOT
BRANCH   3   9
HETATM    9  C   UNL     1      -9.819   6.762  72.008  1.00  0.00    -0.166 A  
HETATM   10  C   UNL     1     -11.775   7.151  70.608  1.00  0.00    -0.348 A  
HETATM   11  C   UNL     1     -10.806   6.288  71.133  1.00  0.00    -0.320 A  
HETATM   12  C   UNL     1      -9.864   8.122  72.349  1.00  0.00    -0.346 A  
HETATM   13  C   UNL     1     -10.818   8.989  71.818  1.00  0.00    -0.437 A  
HETATM   14  C   UNL     1     -11.778   8.503  70.947  1.00  0.00    -0.274 A  
ENDBRANCH   3   9
BRANCH   7  15
HETATM   15  N   UNL     1      -7.178   7.647  70.407  1.00  0.00    -0.062 N  
HETATM   16  H   UNL     1      -8.182   7.820  70.454  1.00  0.00     0.000 HD 
HETATM   17  C   UNL     1      -6.433   8.412  69.541  1.00  0.00    -0.040 C  
HETATM   18  O   UNL     1      -5.229   8.261  69.377  1.00  0.00    -0.029 OA 
BRANCH  17  19
HETATM   19  C   UNL     1      -7.169   9.472  68.795  1.00  0.00    -0.073 A  
HETATM   20  N   UNL     1      -7.162  11.034  66.918  1.00  0.00    -0.125 NA 
HETATM   21  C   UNL     1      -6.593  10.035  67.657  1.00  0.00    -0.067 A  
HETATM   22  C   UNL     1      -8.322  11.514  67.391  1.00  0.00    -0.148 A  
HETATM   23  C   UNL     1      -9.128  12.589  66.714  1.00  0.00    -0.214 C  
HETATM   24  C   UNL     1     -10.203  12.933  67.769  1.00  0.00    -0.224 C  
HETATM   25  C   UNL     1     -10.127  11.890  68.912  1.00  0.00    -0.060 C  
HETATM   26  C   UNL     1     -11.624  12.885  67.151  1.00  0.00    -0.363 C  
HETATM   27  O   UNL     1     -12.156  11.924  66.628  1.00  0.00    -0.587 OA 
HETATM   28  C   UNL     1      -8.936  11.067  68.541  1.00  0.00    -0.163 A  
HETATM   29  N   UNL     1     -12.200  14.127  67.327  1.00  0.00    -0.573 N  
HETATM   30  C   UNL     1     -11.335  15.008  67.934  1.00  0.00    -0.333 A  
HETATM   31  C   UNL     1      -8.393   9.994  69.229  1.00  0.00    -0.154 A  
HETATM   32  H   UNL     1     -13.150  14.362  67.041  1.00  0.00     0.000 HD 
HETATM   33  N   UNL     1     -11.615  16.291  68.171  1.00  0.00    -0.184 NA 
HETATM   34  C   UNL     1     -10.601  16.992  68.729  1.00  0.00    -0.346 A  
HETATM   35  C   UNL     1      -9.355  16.451  69.056  1.00  0.00    -0.248 A  
HETATM   36  C   UNL     1      -9.111  15.100  68.802  1.00  0.00    -0.200 A  
HETATM   37  C   UNL     1     -10.136  14.370  68.227  1.00  0.00    -0.239 A  
ENDBRANCH  17  19
ENDBRANCH   7  15
BRANCH   6  38
HETATM   38  C   UNL     1      -8.308   3.929  69.212  1.00  0.00    -0.060 C  
HETATM   39  F   UNL     1     -10.270   4.454  67.962  1.00  0.00    -0.158 F  
HETATM   40  F   UNL     1      -8.366   4.719  66.933  1.00  0.00    -0.106 F  
HETATM   41  C   UNL     1      -8.972   4.819  68.131  1.00  0.00    -0.112 C  
HETATM   42  F   UNL     1      -9.004   6.135  68.475  1.00  0.00    -0.117 F  
ENDBRANCH   6  38
TORSDOF 4
ENDMDL
MODEL       40
REMARK 921   NORMALIZED FREE ENERGY PREDICTED BY IDOCK:   -6.35 KCAL/MOL
REMARK 922        TOTAL FREE ENERGY PREDICTED BY IDOCK:   -9.43 KCAL/MOL
REMARK 923 INTER-LIGAND FREE ENERGY PREDICTED BY IDOCK:   -8.12 KCAL/MOL
REMARK 924 INTRA-LIGAND FREE ENERGY PREDICTED BY IDOCK:   -1.31 KCAL/MOL
REMARK 927      BINDING AFFINITY PREDICTED BY RF-SCORE:    0.00 PKD
ROOT
HETATM    1  C   UNL     1     -11.029  15.082  70.000  1.00  0.00    -0.268 C  
HETATM    2  C   UNL     1     -11.294  14.847  68.506  1.00  0.00    -0.298 C  
HETATM    3  C   UNL     1     -12.148  13.567  68.277  1.00  0.00    -0.295 C  
HETATM    4  C   UNL     1     -12.522  13.491  66.783  1.00  0.00    -0.213 C  
HETATM    5  O   UNL     1      -9.598  15.241  65.396  1.00  0.00    -0.279 OA 
HETATM    6  N   UNL     1     -10.135  14.878  67.595  1.00  0.00    -0.227 N  
HETATM    7  C   UNL     1     -11.324  13.590  65.837  1.00  0.00    -0.308 C  
HETATM    8  C   UNL     1     -10.355  14.728  66.219  1.00  0.00    -0.297 C  
ENDROOT
BRANCH   3   9
HETATM    9  C   UNL     1     -11.576  12.265  68.837  1.00  0.00    -0.367 A  
HETATM   10  C   UNL     1     -11.886  10.240  70.156  1.00  0.00    -0.343 A  
HETATM   11  C   UNL     1     -12.399  11.407  69.578  1.00  0.00    -0.211 A  
HETATM   12  C   UNL     1     -10.234  11.890  68.682  1.00  0.00    -0.202 A  
HETATM   13  C   UNL     1      -9.713  10.737  69.267  1.00  0.00    -0.142 A  
HETATM   14  C   UNL     1     -10.541   9.908  70.005  1.00  0.00    -0.335 A  
ENDBRANCH   3   9
BRANCH   7  15
HETATM   15  N   UNL     1     -10.493  12.384  65.814  1.00  0.00    -0.253 N  
HETATM   16  H   UNL     1      -9.919  12.182  66.633  1.00  0.00     0.000 HD 
HETATM   17  C   UNL     1     -10.436  11.507  64.757  1.00  0.00    -0.299 C  
HETATM   18  O   UNL     1     -11.052  11.673  63.711  1.00  0.00    -0.374 OA 
BRANCH  17  19
HETATM   19  C   UNL     1      -9.577  10.303  64.941  1.00  0.00    -0.365 A  
HETATM   20  N   UNL     1      -7.731   8.954  64.083  1.00  0.00    -0.120 NA 
HETATM   21  C   UNL     1      -8.554  10.044  64.030  1.00  0.00    -0.190 A  
HETATM   22  C   UNL     1      -8.000   8.073  65.059  1.00  0.00    -0.126 A  
HETATM   23  C   UNL     1      -7.197   6.827  65.315  1.00  0.00    -0.073 C  
HETATM   24  C   UNL     1      -8.054   6.069  66.352  1.00  0.00    -0.110 C  
HETATM   25  C   UNL     1      -9.193   7.003  66.834  1.00  0.00    -0.174 C  
HETATM   26  C   UNL     1      -7.204   5.655  67.580  1.00  0.00    -0.076 C  
HETATM   27  O   UNL     1      -6.596   6.400  68.327  1.00  0.00    -0.060 OA 
HETATM   28  C   UNL     1      -9.028   8.210  65.967  1.00  0.00    -0.213 A  
HETATM   29  N   UNL     1      -7.281   4.282  67.701  1.00  0.00    -0.067 N  
HETATM   30  C   UNL     1      -8.028   3.723  66.689  1.00  0.00    -0.096 A  
HETATM   31  C   UNL     1      -9.798   9.362  65.954  1.00  0.00    -0.362 A  
HETATM   32  H   UNL     1      -6.838   3.748  68.448  1.00  0.00     0.000 HD 
HETATM   33  N   UNL     1      -8.215   2.412  66.532  1.00  0.00    -0.084 NA 
HETATM   34  C   UNL     1      -8.938   2.076  65.439  1.00  0.00    -0.120 A  
HETATM   35  C   UNL     1      -9.472   2.997  64.534  1.00  0.00    -0.147 A  
HETATM   36  C   UNL     1      -9.261   4.361  64.745  1.00  0.00    -0.157 A  
HETATM   37  C   UNL     1      -8.519   4.721  65.856  1.00  0.00    -0.117 A  
ENDBRANCH  17  19
ENDBRANCH   7  15
BRANCH   6  38
HETATM   38  C   UNL     1      -8.795  15.375  67.981  1.00  0.00    -0.165 C  
HETATM   39  F   UNL     1      -7.237  14.044  69.202  1.00  0.00    -0.107 F  
HETATM   40  F   UNL     1      -6.623  14.669  67.205  1.00  0.00    -0.190 F  
HETATM   41  C   UNL     1      -7.684  14.295  67.943  1.00  0.00    -0.152 C  
HETATM   42  F   UNL     1      -8.124  13.098  67.467  1.00  0.00    -0.136 F  
ENDBRANCH   6  38
TORSDOF 4
ENDMDL
MODEL       41
REMARK 921   NORMALIZED FREE ENERGY PREDICTED BY IDOCK:   -6.22 KCAL/MOL
REMARK 922        TOTAL FREE ENERGY PREDICTED BY IDOCK:   -9.27 KCAL/MOL
REMARK 923 INTER-LIGAND FREE ENERGY PREDICTED BY IDOCK:   -7.86 KCAL/MOL
REMARK 924 INTRA-LIGAND FREE ENERGY PREDICTED BY IDOCK:   -1.41 KCAL/MOL
REMARK 927      BINDING AFFINITY PREDICTED BY RF-SCORE:    0.00 PKD
ROOT
HETATM    1  C   UNL     1      -7.654   5.655  70.096  1.00  0.00    -0.085 C  
HETATM    2  C   UNL     1      -8.076   6.224  68.734  1.00  0.00    -0.109 C  
HETATM    3  C   UNL     1      -6.987   7.172  68.154  1.00  0.00    -0.076 C  
HETATM    4  C   UNL     1      -7.395   7.563  66.720  1.00  0.00    -0.092 C  
HETATM    5  O   UNL     1     -11.047   7.332  67.104  1.00  0.00    -0.295 OA 
HETATM    6  N   UNL     1      -9.415   6.836  68.636  1.00  0.00    -0.133 N  
HETATM    7  C   UNL     1      -8.809   8.137  66.610  1.00  0.00    -0.143 C  
HETATM    8  C   UNL     1      -9.850   7.309  67.390  1.00  0.00    -0.159 C  
ENDROOT
BRANCH   3   9
HETATM    9  C   UNL     1      -6.592   8.361  69.029  1.00  0.00    -0.048 A  
HETATM   10  C   UNL     1      -6.637   9.466  71.201  1.00  0.00    -0.058 A  
HETATM   11  C   UNL     1      -6.928   8.362  70.390  1.00  0.00    -0.037 A  
HETATM   12  C   UNL     1      -5.934   9.494  68.530  1.00  0.00    -0.043 A  
HETATM   13  C   UNL     1      -5.653  10.601  69.329  1.00  0.00    -0.037 A  
HETATM   14  C   UNL     1      -6.003  10.588  70.669  1.00  0.00    -0.104 A  
ENDBRANCH   3   9
BRANCH   7  15
HETATM   15  N   UNL     1      -8.935   9.495  67.145  1.00  0.00    -0.134 N  
HETATM   16  H   UNL     1      -8.433   9.720  68.004  1.00  0.00     0.000 HD 
HETATM   17  C   UNL     1      -9.688  10.486  66.561  1.00  0.00    -0.192 C  
HETATM   18  O   UNL     1     -10.360  10.314  65.552  1.00  0.00    -0.258 OA 
BRANCH  17  19
HETATM   19  C   UNL     1      -9.646  11.823  67.220  1.00  0.00    -0.182 A  
HETATM   20  N   UNL     1     -10.719  13.376  68.769  1.00  0.00    -0.248 NA 
HETATM   21  C   UNL     1     -10.640  12.168  68.134  1.00  0.00    -0.216 A  
HETATM   22  C   UNL     1      -9.790  14.278  68.413  1.00  0.00    -0.233 A  
HETATM   23  C   UNL     1      -9.678  15.652  69.013  1.00  0.00    -0.241 C  
HETATM   24  C   UNL     1      -8.640  16.344  68.103  1.00  0.00    -0.193 C  
HETATM   25  C   UNL     1      -8.018  15.281  67.162  1.00  0.00    -0.251 C  
HETATM   26  C   UNL     1      -7.504  16.985  68.941  1.00  0.00    -0.237 C  
HETATM   27  O   UNL     1      -6.750  16.408  69.703  1.00  0.00    -0.216 OA 
HETATM   28  C   UNL     1      -8.808  14.051  67.474  1.00  0.00    -0.199 A  
HETATM   29  N   UNL     1      -7.474  18.333  68.646  1.00  0.00    -0.290 N  
HETATM   30  C   UNL     1      -8.469  18.683  67.762  1.00  0.00    -0.275 A  
HETATM   31  C   UNL     1      -8.688  12.793  66.905  1.00  0.00    -0.169 A  
HETATM   32  H   UNL     1      -6.797  18.989  69.036  1.00  0.00     0.000 HD 
HETATM   33  N   UNL     1      -8.704  19.931  67.354  1.00  0.00    -0.325 NA 
HETATM   34  C   UNL     1      -9.765  20.059  66.525  1.00  0.00    -0.443 A  
HETATM   35  C   UNL     1     -10.566  18.995  66.101  1.00  0.00    -0.495 A  
HETATM   36  C   UNL     1     -10.275  17.704  66.544  1.00  0.00    -0.355 A  
HETATM   37  C   UNL     1      -9.195  17.557  67.396  1.00  0.00    -0.238 A  
ENDBRANCH  17  19
ENDBRANCH   7  15
BRANCH   6  38
HETATM   38  C   UNL     1     -10.461   6.702  69.674  1.00  0.00    -0.213 C  
HETATM   39  F   UNL     1     -10.312   7.788  71.792  1.00  0.00    -0.206 F  
HETATM   40  F   UNL     1     -11.990   8.363  70.524  1.00  0.00    -0.239 F  
HETATM   41  C   UNL     1     -10.698   7.990  70.505  1.00  0.00    -0.229 C  
HETATM   42  F   UNL     1      -9.963   9.047  70.064  1.00  0.00    -0.168 F  
ENDBRANCH   6  38
TORSDOF 4
ENDMDL
MODEL       42
REMARK 921   NORMALIZED FREE ENERGY PREDICTED BY IDOCK:   -6.19 KCAL/MOL
REMARK 922        TOTAL FREE ENERGY PREDICTED BY IDOCK:   -9.23 KCAL/MOL
REMARK 923 INTER-LIGAND FREE ENERGY PREDICTED BY IDOCK:   -7.12 KCAL/MOL
REMARK 924 INTRA-LIGAND FREE ENERGY PREDICTED BY IDOCK:   -2.12 KCAL/MOL
REMARK 927      BINDING AFFINITY PREDICTED BY RF-SCORE:    0.00 PKD
ROOT
HETATM    1  C   UNL     1      -9.357   1.694  68.658  1.00  0.00    -0.228 C  
HETATM    2  C   UNL     1      -8.486   2.596  69.545  1.00  0.00    -0.061 C  
HETATM    3  C   UNL     1      -9.317   3.759  70.158  1.00  0.00    -0.244 C  
HETATM    4  C   UNL     1      -8.428   4.513  71.167  1.00  0.00    -0.117 C  
HETATM    5  O   UNL     1      -5.158   3.874  69.605  1.00  0.00    -0.003 OA 
HETATM    6  N   UNL     1      -7.220   3.095  68.974  1.00  0.00    -0.048 N  
HETATM    7  C   UNL     1      -7.087   4.973  70.592  1.00  0.00    -0.053 C  
HETATM    8  C   UNL     1      -6.376   3.870  69.782  1.00  0.00    -0.028 C  
ENDROOT
BRANCH   3   9
HETATM    9  C   UNL     1     -10.034   4.672  69.166  1.00  0.00    -0.208 A  
HETATM   10  C   UNL     1     -10.546   5.259  66.857  1.00  0.00    -0.283 A  
HETATM   11  C   UNL     1      -9.953   4.404  67.792  1.00  0.00    -0.098 A  
HETATM   12  C   UNL     1     -10.753   5.812  69.554  1.00  0.00    -0.408 A  
HETATM   13  C   UNL     1     -11.335   6.675  68.627  1.00  0.00    -0.148 A  
HETATM   14  C   UNL     1     -11.234   6.398  67.274  1.00  0.00    -0.295 A  
ENDBRANCH   3   9
BRANCH   7  15
HETATM   15  N   UNL     1      -7.201   6.102  69.666  1.00  0.00    -0.072 N  
HETATM   16  H   UNL     1      -7.089   5.917  68.669  1.00  0.00     0.000 HD 
HETATM   17  C   UNL     1      -7.448   7.397  70.055  1.00  0.00    -0.084 C  
HETATM   18  O   UNL     1      -7.559   7.737  71.226  1.00  0.00    -0.076 OA 
BRANCH  17  19
HETATM   19  C   UNL     1      -7.589   8.401  68.962  1.00  0.00    -0.092 A  
HETATM   20  N   UNL     1      -7.072  10.653  68.173  1.00  0.00    -0.080 NA 
HETATM   21  C   UNL     1      -6.980   9.648  69.094  1.00  0.00    -0.050 A  
HETATM   22  C   UNL     1      -7.859  10.398  67.115  1.00  0.00    -0.110 A  
HETATM   23  C   UNL     1      -8.071  11.353  65.973  1.00  0.00     0.053 C  
HETATM   24  C   UNL     1      -9.221  10.695  65.180  1.00  0.00    -0.241 C  
HETATM   25  C   UNL     1      -9.472   9.277  65.753  1.00  0.00    -0.329 C  
HETATM   26  C   UNL     1      -8.858  10.562  63.679  1.00  0.00    -0.203 C  
HETATM   27  O   UNL     1      -7.915   9.949  63.211  1.00  0.00    -0.137 OA 
HETATM   28  C   UNL     1      -8.552   9.221  66.930  1.00  0.00    -0.132 A  
HETATM   29  N   UNL     1      -9.816  11.240  62.953  1.00  0.00    -0.562 N  
HETATM   30  C   UNL     1     -10.740  11.847  63.772  1.00  0.00    -0.418 A  
HETATM   31  C   UNL     1      -8.378   8.180  67.827  1.00  0.00    -0.128 A  
HETATM   32  H   UNL     1      -9.836  11.286  61.934  1.00  0.00     0.000 HD 
HETATM   33  N   UNL     1     -11.740  12.615  63.335  1.00  0.00    -0.513 NA 
HETATM   34  C   UNL     1     -12.499  13.157  64.315  1.00  0.00    -0.288 A  
HETATM   35  C   UNL     1     -12.294  12.944  65.681  1.00  0.00    -0.482 A  
HETATM   36  C   UNL     1     -11.242  12.123  66.091  1.00  0.00    -0.386 A  
HETATM   37  C   UNL     1     -10.453  11.565  65.102  1.00  0.00    -0.340 A  
ENDBRANCH  17  19
ENDBRANCH   7  15
BRANCH   6  38
HETATM   38  C   UNL     1      -6.618   2.578  67.725  1.00  0.00    -0.036 C  
HETATM   39  F   UNL     1      -7.473   3.126  65.567  1.00  0.00    -0.070 F  
HETATM   40  F   UNL     1      -5.434   3.770  65.993  1.00  0.00    -0.011 F  
HETATM   41  C   UNL     1      -6.647   3.583  66.545  1.00  0.00    -0.041 C  
HETATM   42  F   UNL     1      -7.139   4.802  66.899  1.00  0.00    -0.067 F  
ENDBRANCH   6  38
TORSDOF 4
ENDMDL
MODEL       43
REMARK 921   NORMALIZED FREE ENERGY PREDICTED BY IDOCK:   -6.18 KCAL/MOL
REMARK 922        TOTAL FREE ENERGY PREDICTED BY IDOCK:   -9.21 KCAL/MOL
REMARK 923 INTER-LIGAND FREE ENERGY PREDICTED BY IDOCK:   -8.51 KCAL/MOL
REMARK 924 INTRA-LIGAND FREE ENERGY PREDICTED BY IDOCK:   -0.70 KCAL/MOL
REMARK 927      BINDING AFFINITY PREDICTED BY RF-SCORE:    0.00 PKD
ROOT
HETATM    1  C   UNL     1      -8.067   8.322  69.810  1.00  0.00    -0.118 C  
HETATM    2  C   UNL     1      -9.049   8.963  68.820  1.00  0.00    -0.134 C  
HETATM    3  C   UNL     1      -8.298   9.662  67.649  1.00  0.00    -0.121 C  
HETATM    4  C   UNL     1      -9.339  10.126  66.611  1.00  0.00    -0.195 C  
HETATM    5  O   UNL     1     -12.182  10.663  68.884  1.00  0.00    -0.370 OA 
HETATM    6  N   UNL     1     -10.098   9.841  69.371  1.00  0.00    -0.195 N  
HETATM    7  C   UNL     1     -10.463  10.982  67.197  1.00  0.00    -0.232 C  
HETATM    8  C   UNL     1     -11.046  10.391  68.497  1.00  0.00    -0.266 C  
ENDROOT
BRANCH   3   9
HETATM    9  C   UNL     1      -7.294  10.744  68.043  1.00  0.00    -0.088 A  
HETATM   10  C   UNL     1      -5.357  12.107  67.471  1.00  0.00    -0.103 A  
HETATM   11  C   UNL     1      -6.329  11.164  67.117  1.00  0.00    -0.083 A  
HETATM   12  C   UNL     1      -7.256  11.325  69.318  1.00  0.00    -0.094 A  
HETATM   13  C   UNL     1      -6.282  12.255  69.681  1.00  0.00    -0.131 A  
HETATM   14  C   UNL     1      -5.330  12.649  68.755  1.00  0.00    -0.058 A  
ENDBRANCH   3   9
BRANCH   7  15
HETATM   15  N   UNL     1     -10.042  12.338  67.559  1.00  0.00    -0.199 N  
HETATM   16  H   UNL     1      -9.042  12.537  67.584  1.00  0.00     0.000 HD 
HETATM   17  C   UNL     1     -10.909  13.358  67.867  1.00  0.00    -0.247 C  
HETATM   18  O   UNL     1     -12.126  13.218  67.905  1.00  0.00    -0.331 OA 
BRANCH  17  19
HETATM   19  C   UNL     1     -10.294  14.686  68.152  1.00  0.00    -0.230 A  
HETATM   20  N   UNL     1     -10.661  17.031  68.723  1.00  0.00    -0.347 NA 
HETATM   21  C   UNL     1     -11.114  15.766  68.477  1.00  0.00    -0.335 A  
HETATM   22  C   UNL     1      -9.340  17.213  68.571  1.00  0.00    -0.274 A  
HETATM   23  C   UNL     1      -8.633  18.516  68.825  1.00  0.00    -0.266 C  
HETATM   24  C   UNL     1      -7.214  18.254  68.276  1.00  0.00    -0.266 C  
HETATM   25  C   UNL     1      -7.080  16.746  67.945  1.00  0.00    -0.152 C  
HETATM   26  C   UNL     1      -6.134  18.625  69.325  1.00  0.00    -0.251 C  
HETATM   27  O   UNL     1      -6.010  18.150  70.439  1.00  0.00    -0.164 OA 
HETATM   28  C   UNL     1      -8.459  16.223  68.191  1.00  0.00    -0.174 A  
HETATM   29  N   UNL     1      -5.309  19.576  68.760  1.00  0.00    -0.195 N  
HETATM   30  C   UNL     1      -5.724  19.923  67.494  1.00  0.00    -0.176 A  
HETATM   31  C   UNL     1      -8.921  14.926  68.032  1.00  0.00    -0.172 A  
HETATM   32  H   UNL     1      -4.493  19.973  69.223  1.00  0.00     0.000 HD 
HETATM   33  N   UNL     1      -5.142  20.860  66.745  1.00  0.00    -0.171 NA 
HETATM   34  C   UNL     1      -5.745  21.079  65.554  1.00  0.00    -0.236 A  
HETATM   35  C   UNL     1      -6.876  20.393  65.104  1.00  0.00    -0.275 A  
HETATM   36  C   UNL     1      -7.444  19.412  65.917  1.00  0.00    -0.297 A  
HETATM   37  C   UNL     1      -6.843  19.178  67.141  1.00  0.00    -0.208 A  
ENDBRANCH  17  19
ENDBRANCH   7  15
BRANCH   6  38
HETATM   38  C   UNL     1     -10.425   9.931  70.812  1.00  0.00    -0.183 C  
HETATM   39  F   UNL     1     -12.465   9.092  71.720  1.00  0.00    -0.340 F  
HETATM   40  F   UNL     1     -10.628   8.166  72.445  1.00  0.00    -0.287 F  
HETATM   41  C   UNL     1     -11.210   8.712  71.361  1.00  0.00    -0.277 C  
HETATM   42  F   UNL     1     -11.377   7.729  70.435  1.00  0.00    -0.270 F  
ENDBRANCH   6  38
TORSDOF 4
ENDMDL
MODEL       44
REMARK 921   NORMALIZED FREE ENERGY PREDICTED BY IDOCK:   -6.17 KCAL/MOL
REMARK 922        TOTAL FREE ENERGY PREDICTED BY IDOCK:   -9.21 KCAL/MOL
REMARK 923 INTER-LIGAND FREE ENERGY PREDICTED BY IDOCK:   -8.46 KCAL/MOL
REMARK 924 INTRA-LIGAND FREE ENERGY PREDICTED BY IDOCK:   -0.74 KCAL/MOL
REMARK 927      BINDING AFFINITY PREDICTED BY RF-SCORE:    0.00 PKD
ROOT
HETATM    1  C   UNL     1      -9.176  15.777  65.700  1.00  0.00    -0.123 C  
HETATM    2  C   UNL     1     -10.357  15.267  66.539  1.00  0.00    -0.286 C  
HETATM    3  C   UNL     1     -10.082  15.434  68.062  1.00  0.00    -0.226 C  
HETATM    4  C   UNL     1     -11.367  15.071  68.832  1.00  0.00    -0.312 C  
HETATM    5  O   UNL     1     -12.768  12.643  66.447  1.00  0.00    -0.119 OA 
HETATM    6  N   UNL     1     -10.874  13.919  66.241  1.00  0.00    -0.289 N  
HETATM    7  C   UNL     1     -11.939  13.698  68.473  1.00  0.00    -0.361 C  
HETATM    8  C   UNL     1     -11.989  13.453  66.951  1.00  0.00    -0.385 C  
ENDROOT
BRANCH   3   9
HETATM    9  C   UNL     1      -8.826  14.750  68.600  1.00  0.00    -0.180 A  
HETATM   10  C   UNL     1      -6.845  14.827  70.017  1.00  0.00    -0.120 A  
HETATM   11  C   UNL     1      -8.035  15.402  69.555  1.00  0.00    -0.204 A  
HETATM   12  C   UNL     1      -8.388  13.495  68.154  1.00  0.00    -0.167 A  
HETATM   13  C   UNL     1      -7.197  12.923  68.600  1.00  0.00    -0.098 A  
HETATM   14  C   UNL     1      -6.424  13.589  69.535  1.00  0.00    -0.089 A  
ENDBRANCH   3   9
BRANCH   7  15
HETATM   15  N   UNL     1     -11.160  12.578  69.006  1.00  0.00    -0.319 N  
HETATM   16  H   UNL     1     -10.145  12.677  69.043  1.00  0.00     0.000 HD 
HETATM   17  C   UNL     1     -11.709  11.403  69.460  1.00  0.00    -0.348 C  
HETATM   18  O   UNL     1     -12.910  11.165  69.425  1.00  0.00    -0.145 OA 
BRANCH  17  19
HETATM   19  C   UNL     1     -10.758  10.402  70.023  1.00  0.00    -0.321 A  
HETATM   20  N   UNL     1      -8.653   9.197  69.744  1.00  0.00    -0.131 NA 
HETATM   21  C   UNL     1      -9.577  10.119  69.339  1.00  0.00    -0.232 A  
HETATM   22  C   UNL     1      -8.975   8.501  70.846  1.00  0.00    -0.172 A  
HETATM   23  C   UNL     1      -8.086   7.466  71.478  1.00  0.00    -0.100 C  
HETATM   24  C   UNL     1      -9.008   6.814  72.532  1.00  0.00    -0.138 C  
HETATM   25  C   UNL     1     -10.310   7.647  72.635  1.00  0.00    -0.332 C  
HETATM   26  C   UNL     1      -8.329   6.788  73.925  1.00  0.00    -0.128 C  
HETATM   27  O   UNL     1      -7.942   7.750  74.563  1.00  0.00    -0.182 OA 
HETATM   28  C   UNL     1     -10.147   8.665  71.552  1.00  0.00    -0.345 A  
HETATM   29  N   UNL     1      -8.265   5.472  74.337  1.00  0.00    -0.104 N  
HETATM   30  C   UNL     1      -8.766   4.615  73.383  1.00  0.00    -0.100 A  
HETATM   31  C   UNL     1     -11.032   9.664  71.180  1.00  0.00    -0.430 A  
HETATM   32  H   UNL     1      -7.892   5.171  75.237  1.00  0.00     0.000 HD 
HETATM   33  N   UNL     1      -8.772   3.286  73.497  1.00  0.00    -0.077 NA 
HETATM   34  C   UNL     1      -9.262   2.634  72.418  1.00  0.00    -0.089 A  
HETATM   35  C   UNL     1      -9.743   3.263  71.267  1.00  0.00    -0.222 A  
HETATM   36  C   UNL     1      -9.729   4.657  71.197  1.00  0.00    -0.252 A  
HETATM   37  C   UNL     1      -9.226   5.340  72.290  1.00  0.00    -0.153 A  
ENDBRANCH  17  19
ENDBRANCH   7  15
BRANCH   6  38
HETATM   38  C   UNL     1     -10.511  13.144  65.033  1.00  0.00    -0.342 C  
HETATM   39  F   UNL     1      -8.664  11.636  64.984  1.00  0.00     0.017 F  
HETATM   40  F   UNL     1     -10.635  10.766  64.650  1.00  0.00    -0.399 F  
HETATM   41  C   UNL     1      -9.975  11.720  65.331  1.00  0.00    -0.253 C  
HETATM   42  F   UNL     1     -10.025  11.401  66.653  1.00  0.00    -0.212 F  
ENDBRANCH   6  38
TORSDOF 4
ENDMDL
MODEL       45
REMARK 921   NORMALIZED FREE ENERGY PREDICTED BY IDOCK:   -6.16 KCAL/MOL
REMARK 922        TOTAL FREE ENERGY PREDICTED BY IDOCK:   -9.19 KCAL/MOL
REMARK 923 INTER-LIGAND FREE ENERGY PREDICTED BY IDOCK:   -7.46 KCAL/MOL
REMARK 924 INTRA-LIGAND FREE ENERGY PREDICTED BY IDOCK:   -1.73 KCAL/MOL
REMARK 927      BINDING AFFINITY PREDICTED BY RF-SCORE:    0.00 PKD
ROOT
HETATM    1  C   UNL     1     -11.020   6.974  67.092  1.00  0.00    -0.393 C  
HETATM    2  C   UNL     1      -9.850   7.012  68.084  1.00  0.00    -0.139 C  
HETATM    3  C   UNL     1     -10.221   7.813  69.366  1.00  0.00    -0.208 C  
HETATM    4  C   UNL     1      -9.073   7.662  70.385  1.00  0.00    -0.152 C  
HETATM    5  O   UNL     1      -6.292   7.221  68.016  1.00  0.00    -0.041 OA 
HETATM    6  N   UNL     1      -8.531   7.424  67.568  1.00  0.00    -0.116 N  
HETATM    7  C   UNL     1      -7.696   8.027  69.827  1.00  0.00    -0.101 C  
HETATM    8  C   UNL     1      -7.432   7.410  68.439  1.00  0.00    -0.105 C  
ENDROOT
BRANCH   3   9
HETATM    9  C   UNL     1     -10.670   9.258  69.153  1.00  0.00    -0.202 A  
HETATM   10  C   UNL     1     -11.566  11.328  70.074  1.00  0.00    -0.404 A  
HETATM   11  C   UNL     1     -11.089  10.024  70.249  1.00  0.00    -0.381 A  
HETATM   12  C   UNL     1     -10.727   9.863  67.889  1.00  0.00    -0.316 A  
HETATM   13  C   UNL     1     -11.213  11.157  67.707  1.00  0.00    -0.359 A  
HETATM   14  C   UNL     1     -11.633  11.893  68.802  1.00  0.00    -0.366 A  
ENDBRANCH   3   9
BRANCH   7  15
HETATM   15  N   UNL     1      -7.501   9.467  69.640  1.00  0.00    -0.076 N  
HETATM   16  H   UNL     1      -8.297  10.021  69.325  1.00  0.00     0.000 HD 
HETATM   17  C   UNL     1      -6.311  10.119  69.861  1.00  0.00    -0.074 C  
HETATM   18  O   UNL     1      -5.284   9.546  70.202  1.00  0.00    -0.031 OA 
BRANCH  17  19
HETATM   19  C   UNL     1      -6.323  11.598  69.673  1.00  0.00    -0.133 A  
HETATM   20  N   UNL     1      -6.022  13.793  70.698  1.00  0.00    -0.179 NA 
HETATM   21  C   UNL     1      -6.010  12.428  70.748  1.00  0.00     0.140 A  
HETATM   22  C   UNL     1      -6.426  14.326  69.534  1.00  0.00    -0.132 A  
HETATM   23  C   UNL     1      -6.481  15.803  69.256  1.00  0.00    -0.154 C  
HETATM   24  C   UNL     1      -7.229  15.875  67.907  1.00  0.00    -0.151 C  
HETATM   25  C   UNL     1      -7.369  14.439  67.340  1.00  0.00    -0.167 C  
HETATM   26  C   UNL     1      -6.446  16.735  66.882  1.00  0.00    -0.208 C  
HETATM   27  O   UNL     1      -5.317  16.532  66.475  1.00  0.00    -0.334 OA 
HETATM   28  C   UNL     1      -6.816  13.587  68.437  1.00  0.00    -0.102 A  
HETATM   29  N   UNL     1      -7.272  17.766  66.481  1.00  0.00    -0.219 N  
HETATM   30  C   UNL     1      -8.481  17.735  67.139  1.00  0.00    -0.228 A  
HETATM   31  C   UNL     1      -6.713  12.206  68.475  1.00  0.00    -0.071 A  
HETATM   32  H   UNL     1      -7.018  18.465  65.784  1.00  0.00     0.000 HD 
HETATM   33  N   UNL     1      -9.442  18.647  66.985  1.00  0.00    -0.291 NA 
HETATM   34  C   UNL     1     -10.527  18.455  67.769  1.00  0.00    -0.409 A  
HETATM   35  C   UNL     1     -10.673  17.395  68.668  1.00  0.00    -0.249 A  
HETATM   36  C   UNL     1      -9.647  16.457  68.787  1.00  0.00    -0.249 A  
HETATM   37  C   UNL     1      -8.527  16.641  67.995  1.00  0.00    -0.192 A  
ENDBRANCH  17  19
ENDBRANCH   7  15
BRANCH   6  38
HETATM   38  C   UNL     1      -8.210   7.544  66.129  1.00  0.00    -0.125 C  
HETATM   39  F   UNL     1      -9.084   9.292  64.761  1.00  0.00    -0.236 F  
HETATM   40  F   UNL     1      -6.916   9.232  64.988  1.00  0.00    -0.080 F  
HETATM   41  C   UNL     1      -8.078   9.006  65.629  1.00  0.00    -0.115 C  
HETATM   42  F   UNL     1      -8.188   9.921  66.630  1.00  0.00    -0.117 F  
ENDBRANCH   6  38
TORSDOF 4
ENDMDL
MODEL       46
REMARK 921   NORMALIZED FREE ENERGY PREDICTED BY IDOCK:   -6.10 KCAL/MOL
REMARK 922        TOTAL FREE ENERGY PREDICTED BY IDOCK:   -9.12 KCAL/MOL
REMARK 923 INTER-LIGAND FREE ENERGY PREDICTED BY IDOCK:   -7.80 KCAL/MOL
REMARK 924 INTRA-LIGAND FREE ENERGY PREDICTED BY IDOCK:   -1.32 KCAL/MOL
REMARK 927      BINDING AFFINITY PREDICTED BY RF-SCORE:    0.00 PKD
ROOT
HETATM    1  C   UNL     1      -9.456   2.452  68.952  1.00  0.00    -0.164 C  
HETATM    2  C   UNL     1      -8.239   3.379  69.084  1.00  0.00    -0.059 C  
HETATM    3  C   UNL     1      -8.307   4.221  70.392  1.00  0.00    -0.081 C  
HETATM    4  C   UNL     1      -6.981   4.991  70.546  1.00  0.00    -0.045 C  
HETATM    5  O   UNL     1      -6.133   5.343  66.982  1.00  0.00    -0.028 OA 
HETATM    6  N   UNL     1      -7.900   4.230  67.927  1.00  0.00    -0.079 N  
HETATM    7  C   UNL     1      -6.598   5.820  69.319  1.00  0.00    -0.054 C  
HETATM    8  C   UNL     1      -6.759   5.041  67.998  1.00  0.00    -0.055 C  
ENDROOT
BRANCH   3   9
HETATM    9  C   UNL     1      -9.550   5.091  70.569  1.00  0.00    -0.252 A  
HETATM   10  C   UNL     1     -11.130   6.205  72.054  1.00  0.00    -0.322 A  
HETATM   11  C   UNL     1      -9.959   5.462  71.857  1.00  0.00    -0.233 A  
HETATM   12  C   UNL     1     -10.346   5.517  69.496  1.00  0.00    -0.357 A  
HETATM   13  C   UNL     1     -11.520   6.245  69.686  1.00  0.00    -0.425 A  
HETATM   14  C   UNL     1     -11.913   6.592  70.968  1.00  0.00    -0.415 A  
ENDBRANCH   3   9
BRANCH   7  15
HETATM   15  N   UNL     1      -7.415   7.024  69.144  1.00  0.00    -0.092 N  
HETATM   16  H   UNL     1      -8.430   6.918  69.151  1.00  0.00     0.000 HD 
HETATM   17  C   UNL     1      -6.901   8.287  68.973  1.00  0.00    -0.056 C  
HETATM   18  O   UNL     1      -5.700   8.521  68.910  1.00  0.00    -0.038 OA 
BRANCH  17  19
HETATM   19  C   UNL     1      -7.891   9.396  68.871  1.00  0.00    -0.083 A  
HETATM   20  N   UNL     1     -10.180  10.141  69.284  1.00  0.00    -0.208 NA 
HETATM   21  C   UNL     1      -9.184   9.207  69.356  1.00  0.00    -0.156 A  
HETATM   22  C   UNL     1      -9.862  11.276  68.642  1.00  0.00    -0.202 A  
HETATM   23  C   UNL     1     -10.798  12.443  68.480  1.00  0.00    -0.270 C  
HETATM   24  C   UNL     1     -10.048  13.352  67.482  1.00  0.00    -0.227 C  
HETATM   25  C   UNL     1      -8.614  12.800  67.288  1.00  0.00    -0.197 C  
HETATM   26  C   UNL     1      -9.948  14.803  68.019  1.00  0.00    -0.218 C  
HETATM   27  O   UNL     1      -9.417  15.160  69.054  1.00  0.00    -0.202 OA 
HETATM   28  C   UNL     1      -8.632  11.528  68.074  1.00  0.00    -0.150 A  
HETATM   29  N   UNL     1     -10.546  15.635  67.094  1.00  0.00    -0.305 N  
HETATM   30  C   UNL     1     -11.074  14.927  66.038  1.00  0.00    -0.334 A  
HETATM   31  C   UNL     1      -7.608  10.609  68.233  1.00  0.00    -0.097 A  
HETATM   32  H   UNL     1     -10.592  16.650  67.183  1.00  0.00     0.000 HD 
HETATM   33  N   UNL     1     -11.757  15.477  65.033  1.00  0.00    -0.117 NA 
HETATM   34  C   UNL     1     -12.232  14.591  64.128  1.00  0.00    -0.342 A  
HETATM   35  C   UNL     1     -12.036  13.210  64.199  1.00  0.00    -0.499 A  
HETATM   36  C   UNL     1     -11.304  12.680  65.263  1.00  0.00    -0.350 A  
HETATM   37  C   UNL     1     -10.814  13.572  66.199  1.00  0.00    -0.284 A  
ENDBRANCH  17  19
ENDBRANCH   7  15
BRANCH   6  38
HETATM   38  C   UNL     1      -8.484   4.058  66.578  1.00  0.00    -0.105 C  
HETATM   39  F   UNL     1     -10.587   4.999  65.962  1.00  0.00    -0.266 F  
HETATM   40  F   UNL     1      -8.848   5.702  64.851  1.00  0.00    -0.153 F  
HETATM   41  C   UNL     1      -9.265   5.294  66.063  1.00  0.00    -0.157 C  
HETATM   42  F   UNL     1      -9.192   6.357  66.910  1.00  0.00    -0.122 F  
ENDBRANCH   6  38
TORSDOF 4
ENDMDL
MODEL       47
REMARK 921   NORMALIZED FREE ENERGY PREDICTED BY IDOCK:   -6.09 KCAL/MOL
REMARK 922        TOTAL FREE ENERGY PREDICTED BY IDOCK:   -9.11 KCAL/MOL
REMARK 923 INTER-LIGAND FREE ENERGY PREDICTED BY IDOCK:   -7.58 KCAL/MOL
REMARK 924 INTRA-LIGAND FREE ENERGY PREDICTED BY IDOCK:   -1.52 KCAL/MOL
REMARK 927      BINDING AFFINITY PREDICTED BY RF-SCORE:    0.00 PKD
ROOT
HETATM    1  C   UNL     1      -9.164   3.875  70.142  1.00  0.00    -0.217 C  
HETATM    2  C   UNL     1      -7.966   4.705  69.661  1.00  0.00    -0.065 C  
HETATM    3  C   UNL     1      -7.757   5.966  70.549  1.00  0.00    -0.100 C  
HETATM    4  C   UNL     1      -6.444   6.651  70.122  1.00  0.00    -0.040 C  
HETATM    5  O   UNL     1      -6.417   5.631  66.586  1.00  0.00    -0.047 OA 
HETATM    6  N   UNL     1      -7.908   5.054  68.229  1.00  0.00    -0.086 N  
HETATM    7  C   UNL     1      -6.359   6.952  68.624  1.00  0.00    -0.032 C  
HETATM    8  C   UNL     1      -6.795   5.759  67.751  1.00  0.00    -0.060 C  
ENDROOT
BRANCH   3   9
HETATM    9  C   UNL     1      -8.945   6.920  70.655  1.00  0.00    -0.151 A  
HETATM   10  C   UNL     1      -9.894   8.992  71.519  1.00  0.00    -0.381 A  
HETATM   11  C   UNL     1      -8.805   8.129  71.351  1.00  0.00    -0.185 A  
HETATM   12  C   UNL     1     -10.208   6.634  70.117  1.00  0.00    -0.215 A  
HETATM   13  C   UNL     1     -11.300   7.483  70.292  1.00  0.00    -0.219 A  
HETATM   14  C   UNL     1     -11.143   8.666  70.993  1.00  0.00    -0.316 A  
ENDBRANCH   3   9
BRANCH   7  15
HETATM   15  N   UNL     1      -7.217   8.061  68.198  1.00  0.00    -0.091 N  
HETATM   16  H   UNL     1      -8.130   8.158  68.643  1.00  0.00     0.000 HD 
HETATM   17  C   UNL     1      -6.869   8.979  67.236  1.00  0.00    -0.077 C  
HETATM   18  O   UNL     1      -5.816   8.933  66.613  1.00  0.00    -0.050 OA 
BRANCH  17  19
HETATM   19  C   UNL     1      -7.850  10.072  66.980  1.00  0.00    -0.102 A  
HETATM   20  N   UNL     1      -9.284  11.194  65.354  1.00  0.00    -0.213 NA 
HETATM   21  C   UNL     1      -8.404  10.211  65.708  1.00  0.00    -0.145 A  
HETATM   22  C   UNL     1      -9.557  12.098  66.308  1.00  0.00    -0.237 A  
HETATM   23  C   UNL     1     -10.522  13.239  66.137  1.00  0.00    -0.296 C  
HETATM   24  C   UNL     1     -10.280  14.090  67.403  1.00  0.00    -0.248 C  
HETATM   25  C   UNL     1      -9.364  13.296  68.368  1.00  0.00    -0.157 C  
HETATM   26  C   UNL     1     -11.614  14.396  68.131  1.00  0.00    -0.329 C  
HETATM   27  O   UNL     1     -12.398  13.582  68.583  1.00  0.00    -0.232 OA 
HETATM   28  C   UNL     1      -9.009  12.081  67.572  1.00  0.00    -0.174 A  
HETATM   29  N   UNL     1     -11.746  15.768  68.207  1.00  0.00    -0.370 N  
HETATM   30  C   UNL     1     -10.703  16.415  67.585  1.00  0.00    -0.312 A  
HETATM   31  C   UNL     1      -8.188  11.028  67.944  1.00  0.00    -0.119 A  
HETATM   32  H   UNL     1     -12.522  16.243  68.668  1.00  0.00     0.000 HD 
HETATM   33  N   UNL     1     -10.611  17.740  67.459  1.00  0.00    -0.378 NA 
HETATM   34  C   UNL     1      -9.530  18.162  66.764  1.00  0.00    -0.294 A  
HETATM   35  C   UNL     1      -8.563  17.315  66.217  1.00  0.00    -0.264 A  
HETATM   36  C   UNL     1      -8.695  15.935  66.384  1.00  0.00    -0.362 A  
HETATM   37  C   UNL     1      -9.797  15.486  67.089  1.00  0.00    -0.236 A  
ENDBRANCH  17  19
ENDBRANCH   7  15
BRANCH   6  38
HETATM   38  C   UNL     1      -8.775   4.442  67.196  1.00  0.00    -0.105 C  
HETATM   39  F   UNL     1     -11.023   5.147  66.827  1.00  0.00    -0.283 F  
HETATM   40  F   UNL     1      -9.640   5.408  65.161  1.00  0.00    -0.081 F  
HETATM   41  C   UNL     1      -9.736   5.442  66.503  1.00  0.00    -0.164 C  
HETATM   42  F   UNL     1      -9.543   6.727  66.905  1.00  0.00    -0.148 F  
ENDBRANCH   6  38
TORSDOF 4
ENDMDL
MODEL       48
REMARK 921   NORMALIZED FREE ENERGY PREDICTED BY IDOCK:   -6.07 KCAL/MOL
REMARK 922        TOTAL FREE ENERGY PREDICTED BY IDOCK:   -9.08 KCAL/MOL
REMARK 923 INTER-LIGAND FREE ENERGY PREDICTED BY IDOCK:   -8.11 KCAL/MOL
REMARK 924 INTRA-LIGAND FREE ENERGY PREDICTED BY IDOCK:   -0.97 KCAL/MOL
REMARK 927      BINDING AFFINITY PREDICTED BY RF-SCORE:    0.00 PKD
ROOT
HETATM    1  C   UNL     1      -9.329   3.191  67.224  1.00  0.00    -0.217 C  
HETATM    2  C   UNL     1      -8.434   4.117  66.388  1.00  0.00    -0.108 C  
HETATM    3  C   UNL     1      -7.748   5.196  67.277  1.00  0.00    -0.092 C  
HETATM    4  C   UNL     1      -6.737   5.971  66.409  1.00  0.00    -0.060 C  
HETATM    5  O   UNL     1      -8.423   5.621  63.156  1.00  0.00    -0.097 OA 
HETATM    6  N   UNL     1      -9.021   4.725  65.179  1.00  0.00    -0.150 N  
HETATM    7  C   UNL     1      -7.334   6.545  65.122  1.00  0.00    -0.078 C  
HETATM    8  C   UNL     1      -8.209   5.526  64.365  1.00  0.00    -0.127 C  
ENDROOT
BRANCH   3   9
HETATM    9  C   UNL     1      -8.682   6.094  68.088  1.00  0.00    -0.114 A  
HETATM   10  C   UNL     1     -10.942   6.664  68.796  1.00  0.00    -0.322 A  
HETATM   11  C   UNL     1     -10.056   5.821  68.114  1.00  0.00    -0.204 A  
HETATM   12  C   UNL     1      -8.238   7.223  68.790  1.00  0.00    -0.129 A  
HETATM   13  C   UNL     1      -9.117   8.073  69.460  1.00  0.00    -0.152 A  
HETATM   14  C   UNL     1     -10.473   7.793  69.465  1.00  0.00    -0.225 A  
ENDBRANCH   3   9
BRANCH   7  15
HETATM   15  N   UNL     1      -8.211   7.698  65.344  1.00  0.00    -0.132 N  
HETATM   16  H   UNL     1      -8.914   7.630  66.080  1.00  0.00     0.000 HD 
HETATM   17  C   UNL     1      -8.145   8.866  64.622  1.00  0.00    -0.151 C  
HETATM   18  O   UNL     1      -7.367   9.039  63.692  1.00  0.00    -0.098 OA 
BRANCH  17  19
HETATM   19  C   UNL     1      -9.082   9.950  65.033  1.00  0.00    -0.264 A  
HETATM   20  N   UNL     1     -10.974  11.364  64.415  1.00  0.00    -0.330 NA 
HETATM   21  C   UNL     1     -10.085  10.359  64.156  1.00  0.00    -0.191 A  
HETATM   22  C   UNL     1     -10.794  12.011  65.577  1.00  0.00    -0.292 A  
HETATM   23  C   UNL     1     -11.678  13.123  66.069  1.00  0.00    -0.424 C  
HETATM   24  C   UNL     1     -10.906  13.666  67.291  1.00  0.00    -0.292 C  
HETATM   25  C   UNL     1      -9.731  12.705  67.603  1.00  0.00    -0.197 C  
HETATM   26  C   UNL     1     -11.823  13.744  68.539  1.00  0.00    -0.370 C  
HETATM   27  O   UNL     1     -12.410  12.818  69.068  1.00  0.00    -0.086 OA 
HETATM   28  C   UNL     1      -9.791  11.722  66.478  1.00  0.00    -0.228 A  
HETATM   29  N   UNL     1     -11.833  15.055  68.971  1.00  0.00    -0.401 N  
HETATM   30  C   UNL     1     -11.085  15.868  68.150  1.00  0.00    -0.338 A  
HETATM   31  C   UNL     1      -8.954  10.644  66.242  1.00  0.00    -0.180 A  
HETATM   32  H   UNL     1     -12.333  15.381  69.798  1.00  0.00     0.000 HD 
HETATM   33  N   UNL     1     -10.972  17.188  68.303  1.00  0.00    -0.309 NA 
HETATM   34  C   UNL     1     -10.232  17.801  67.351  1.00  0.00    -0.353 A  
HETATM   35  C   UNL     1      -9.612  17.140  66.287  1.00  0.00    -0.273 A  
HETATM   36  C   UNL     1      -9.748  15.756  66.173  1.00  0.00    -0.351 A  
HETATM   37  C   UNL     1     -10.506  15.114  67.137  1.00  0.00    -0.280 A  
ENDBRANCH  17  19
ENDBRANCH   7  15
BRANCH   6  38
HETATM   38  C   UNL     1     -10.308   4.299  64.585  1.00  0.00    -0.115 C  
HETATM   39  F   UNL     1     -10.470   3.413  62.376  1.00  0.00    -0.122 F  
HETATM   40  F   UNL     1     -11.061   2.083  64.000  1.00  0.00     0.025 F  
HETATM   41  C   UNL     1     -10.200   3.059  63.661  1.00  0.00    -0.188 C  
HETATM   42  F   UNL     1      -8.949   2.524  63.637  1.00  0.00    -0.091 F  
ENDBRANCH   6  38
TORSDOF 4
ENDMDL
MODEL       49
REMARK 921   NORMALIZED FREE ENERGY PREDICTED BY IDOCK:   -6.04 KCAL/MOL
REMARK 922        TOTAL FREE ENERGY PREDICTED BY IDOCK:   -9.05 KCAL/MOL
REMARK 923 INTER-LIGAND FREE ENERGY PREDICTED BY IDOCK:   -8.28 KCAL/MOL
REMARK 924 INTRA-LIGAND FREE ENERGY PREDICTED BY IDOCK:   -0.76 KCAL/MOL
REMARK 927      BINDING AFFINITY PREDICTED BY RF-SCORE:    0.00 PKD
ROOT
HETATM    1  C   UNL     1     -11.472  15.815  68.978  1.00  0.00    -0.394 C  
HETATM    2  C   UNL     1     -10.837  14.846  67.971  1.00  0.00    -0.263 C  
HETATM    3  C   UNL     1     -11.737  13.597  67.742  1.00  0.00    -0.397 C  
HETATM    4  C   UNL     1     -11.129  12.762  66.598  1.00  0.00    -0.313 C  
HETATM    5  O   UNL     1      -7.594  13.668  67.074  1.00  0.00    -0.015 OA 
HETATM    6  N   UNL     1      -9.434  14.451  68.196  1.00  0.00    -0.198 N  
HETATM    7  C   UNL     1      -9.654  12.409  66.802  1.00  0.00    -0.224 C  
HETATM    8  C   UNL     1      -8.810  13.616  67.258  1.00  0.00    -0.224 C  
ENDROOT
BRANCH   3   9
HETATM    9  C   UNL     1     -12.085  12.780  68.985  1.00  0.00    -0.188 A  
HETATM   10  C   UNL     1     -12.664  10.634  69.984  1.00  0.00    -0.157 A  
HETATM   11  C   UNL     1     -12.281  11.397  68.874  1.00  0.00    -0.153 A  
HETATM   12  C   UNL     1     -12.262  13.353  70.253  1.00  0.00    -0.405 A  
HETATM   13  C   UNL     1     -12.656  12.601  71.359  1.00  0.00    -0.304 A  
HETATM   14  C   UNL     1     -12.856  11.237  71.225  1.00  0.00    -0.491 A  
ENDBRANCH   3   9
BRANCH   7  15
HETATM   15  N   UNL     1      -9.431  11.387  67.828  1.00  0.00    -0.162 N  
HETATM   16  H   UNL     1      -9.538  11.659  68.805  1.00  0.00     0.000 HD 
HETATM   17  C   UNL     1      -9.085  10.085  67.557  1.00  0.00    -0.134 C  
HETATM   18  O   UNL     1      -8.892   9.663  66.423  1.00  0.00    -0.144 OA 
BRANCH  17  19
HETATM   19  C   UNL     1      -8.958   9.176  68.731  1.00  0.00    -0.136 A  
HETATM   20  N   UNL     1      -7.459   8.029  70.279  1.00  0.00    -0.071 NA 
HETATM   21  C   UNL     1      -7.693   8.874  69.232  1.00  0.00    -0.094 A  
HETATM   22  C   UNL     1      -8.544   7.426  70.790  1.00  0.00    -0.137 A  
HETATM   23  C   UNL     1      -8.512   6.486  71.964  1.00  0.00    -0.114 C  
HETATM   24  C   UNL     1      -9.942   5.902  71.979  1.00  0.00    -0.204 C  
HETATM   25  C   UNL     1     -10.812   6.692  70.970  1.00  0.00    -0.289 C  
HETATM   26  C   UNL     1     -10.580   6.029  73.386  1.00  0.00    -0.260 C  
HETATM   27  O   UNL     1     -10.778   7.059  74.003  1.00  0.00    -0.263 OA 
HETATM   28  C   UNL     1      -9.827   7.611  70.321  1.00  0.00    -0.180 A  
HETATM   29  N   UNL     1     -10.918   4.760  73.810  1.00  0.00    -0.308 N  
HETATM   30  C   UNL     1     -10.546   3.801  72.895  1.00  0.00    -0.143 A  
HETATM   31  C   UNL     1     -10.057   8.538  69.318  1.00  0.00    -0.203 A  
HETATM   32  H   UNL     1     -11.387   4.557  74.693  1.00  0.00     0.000 HD 
HETATM   33  N   UNL     1     -10.701   2.489  73.079  1.00  0.00    -0.155 NA 
HETATM   34  C   UNL     1     -10.216   1.722  72.076  1.00  0.00    -0.145 A  
HETATM   35  C   UNL     1      -9.608   2.224  70.922  1.00  0.00    -0.185 A  
HETATM   36  C   UNL     1      -9.478   3.605  70.767  1.00  0.00    -0.238 A  
HETATM   37  C   UNL     1      -9.965   4.404  71.786  1.00  0.00    -0.257 A  
ENDBRANCH  17  19
ENDBRANCH   7  15
BRANCH   6  38
HETATM   38  C   UNL     1      -8.533  15.122  69.159  1.00  0.00    -0.220 C  
HETATM   39  F   UNL     1      -6.604  16.347  68.474  1.00  0.00    -0.124 F  
HETATM   40  F   UNL     1      -8.153  17.479  69.510  1.00  0.00     0.009 F  
HETATM   41  C   UNL     1      -7.947  16.464  68.650  1.00  0.00    -0.220 C  
HETATM   42  F   UNL     1      -8.444  16.834  67.439  1.00  0.00    -0.180 F  
ENDBRANCH   6  38
TORSDOF 4
ENDMDL
MODEL       50
REMARK 921   NORMALIZED FREE ENERGY PREDICTED BY IDOCK:   -6.03 KCAL/MOL
REMARK 922        TOTAL FREE ENERGY PREDICTED BY IDOCK:   -9.04 KCAL/MOL
REMARK 923 INTER-LIGAND FREE ENERGY PREDICTED BY IDOCK:   -8.32 KCAL/MOL
REMARK 924 INTRA-LIGAND FREE ENERGY PREDICTED BY IDOCK:   -0.72 KCAL/MOL
REMARK 927      BINDING AFFINITY PREDICTED BY RF-SCORE:    0.00 PKD
ROOT
HETATM    1  C   UNL     1     -10.353   5.232  69.163  1.00  0.00    -0.264 C  
HETATM    2  C   UNL     1      -9.055   5.964  68.794  1.00  0.00    -0.116 C  
HETATM    3  C   UNL     1      -8.659   7.001  69.885  1.00  0.00    -0.141 C  
HETATM    4  C   UNL     1      -7.267   7.566  69.538  1.00  0.00    -0.082 C  
HETATM    5  O   UNL     1      -7.427   7.214  65.879  1.00  0.00    -0.076 OA 
HETATM    6  N   UNL     1      -8.966   6.557  67.446  1.00  0.00    -0.111 N  
HETATM    7  C   UNL     1      -7.158   8.120  68.117  1.00  0.00    -0.082 C  
HETATM    8  C   UNL     1      -7.770   7.178  67.061  1.00  0.00    -0.107 C  
ENDROOT
BRANCH   3   9
HETATM    9  C   UNL     1      -9.699   8.074  70.204  1.00  0.00    -0.176 A  
HETATM   10  C   UNL     1     -11.194   9.125  71.816  1.00  0.00    -0.451 A  
HETATM   11  C   UNL     1     -10.195   8.194  71.510  1.00  0.00    -0.261 A  
HETATM   12  C   UNL     1     -10.227   8.940  69.236  1.00  0.00    -0.214 A  
HETATM   13  C   UNL     1     -11.232   9.860  69.532  1.00  0.00    -0.220 A  
HETATM   14  C   UNL     1     -11.716   9.955  70.826  1.00  0.00    -0.424 A  
ENDBRANCH   3   9
BRANCH   7  15
HETATM   15  N   UNL     1      -7.855   9.395  67.928  1.00  0.00    -0.091 N  
HETATM   16  H   UNL     1      -8.833   9.452  68.211  1.00  0.00     0.000 HD 
HETATM   17  C   UNL     1      -7.273  10.520  67.394  1.00  0.00    -0.092 C  
HETATM   18  O   UNL     1      -6.119  10.551  66.986  1.00  0.00    -0.053 OA 
BRANCH  17  19
HETATM   19  C   UNL     1      -8.126  11.742  67.336  1.00  0.00    -0.161 A  
HETATM   20  N   UNL     1      -9.808  13.007  66.099  1.00  0.00    -0.277 NA 
HETATM   21  C   UNL     1      -9.007  11.913  66.270  1.00  0.00    -0.157 A  
HETATM   22  C   UNL     1      -9.659  13.981  67.010  1.00  0.00    -0.253 A  
HETATM   23  C   UNL     1     -10.465  15.251  67.025  1.00  0.00    -0.292 C  
HETATM   24  C   UNL     1      -9.744  16.106  68.090  1.00  0.00    -0.222 C  
HETATM   25  C   UNL     1      -8.702  15.219  68.817  1.00  0.00    -0.195 C  
HETATM   26  C   UNL     1     -10.748  16.647  69.141  1.00  0.00    -0.342 C  
HETATM   27  O   UNL     1     -11.467  15.986  69.867  1.00  0.00    -0.323 OA 
HETATM   28  C   UNL     1      -8.769  13.931  68.061  1.00  0.00    -0.183 A  
HETATM   29  N   UNL     1     -10.661  18.025  69.133  1.00  0.00    -0.332 N  
HETATM   30  C   UNL     1      -9.770  18.474  68.185  1.00  0.00    -0.339 A  
HETATM   31  C   UNL     1      -8.028  12.779  68.270  1.00  0.00    -0.151 A  
HETATM   32  H   UNL     1     -11.192  18.635  69.754  1.00  0.00     0.000 HD 
HETATM   33  N   UNL     1      -9.537  19.761  67.925  1.00  0.00    -0.358 NA 
HETATM   34  C   UNL     1      -8.663  19.979  66.915  1.00  0.00    -0.341 A  
HETATM   35  C   UNL     1      -8.028  18.968  66.190  1.00  0.00    -0.273 A  
HETATM   36  C   UNL     1      -8.293  17.635  66.505  1.00  0.00    -0.300 A  
HETATM   37  C   UNL     1      -9.188  17.394  67.532  1.00  0.00    -0.233 A  
ENDBRANCH  17  19
ENDBRANCH   7  15
BRANCH   6  38
HETATM   38  C   UNL     1      -9.922   6.269  66.354  1.00  0.00    -0.054 C  
HETATM   39  F   UNL     1      -9.327   4.987  64.432  1.00  0.00    -0.114 F  
HETATM   40  F   UNL     1     -10.901   4.164  65.697  1.00  0.00    -0.181 F  
HETATM   41  C   UNL     1      -9.753   4.866  65.717  1.00  0.00    -0.169 C  
HETATM   42  F   UNL     1      -8.811   4.110  66.344  1.00  0.00    -0.111 F  
ENDBRANCH   6  38
TORSDOF 4
ENDMDL
MODEL       51
REMARK 921   NORMALIZED FREE ENERGY PREDICTED BY IDOCK:   -6.01 KCAL/MOL
REMARK 922        TOTAL FREE ENERGY PREDICTED BY IDOCK:   -9.00 KCAL/MOL
REMARK 923 INTER-LIGAND FREE ENERGY PREDICTED BY IDOCK:   -7.80 KCAL/MOL
REMARK 924 INTRA-LIGAND FREE ENERGY PREDICTED BY IDOCK:   -1.21 KCAL/MOL
REMARK 927      BINDING AFFINITY PREDICTED BY RF-SCORE:    0.00 PKD
ROOT
HETATM    1  C   UNL     1      -9.491  16.099  65.355  1.00  0.00     0.223 C  
HETATM    2  C   UNL     1     -10.656  15.516  66.168  1.00  0.00    -0.315 C  
HETATM    3  C   UNL     1     -10.235  15.238  67.640  1.00  0.00    -0.242 C  
HETATM    4  C   UNL     1     -11.490  14.825  68.436  1.00  0.00    -0.336 C  
HETATM    5  O   UNL     1     -13.402  13.293  65.690  1.00  0.00    -0.311 OA 
HETATM    6  N   UNL     1     -11.375  14.361  65.598  1.00  0.00    -0.323 N  
HETATM    7  C   UNL     1     -12.272  13.670  67.807  1.00  0.00    -0.166 C  
HETATM    8  C   UNL     1     -12.481  13.847  66.290  1.00  0.00    -0.409 C  
ENDROOT
BRANCH   3   9
HETATM    9  C   UNL     1      -9.045  14.301  67.836  1.00  0.00    -0.190 A  
HETATM   10  C   UNL     1      -7.035  13.703  69.079  1.00  0.00    -0.098 A  
HETATM   11  C   UNL     1      -8.170  14.506  68.912  1.00  0.00    -0.114 A  
HETATM   12  C   UNL     1      -8.746  13.248  66.959  1.00  0.00    -0.192 A  
HETATM   13  C   UNL     1      -7.611  12.454  67.112  1.00  0.00    -0.104 A  
HETATM   14  C   UNL     1      -6.753  12.680  68.176  1.00  0.00    -0.082 A  
ENDBRANCH   3   9
BRANCH   7  15
HETATM   15  N   UNL     1     -11.610  12.369  67.943  1.00  0.00    -0.336 N  
HETATM   16  H   UNL     1     -11.182  11.961  67.112  1.00  0.00     0.000 HD 
HETATM   17  C   UNL     1     -11.530  11.665  69.121  1.00  0.00    -0.300 C  
HETATM   18  O   UNL     1     -12.042  12.044  70.167  1.00  0.00    -0.322 OA 
BRANCH  17  19
HETATM   19  C   UNL     1     -10.765  10.387  69.076  1.00  0.00    -0.260 A  
HETATM   20  N   UNL     1     -10.281   8.333  67.848  1.00  0.00    -0.209 NA 
HETATM   21  C   UNL     1     -10.906   9.541  67.977  1.00  0.00    -0.168 A  
HETATM   22  C   UNL     1      -9.538   7.950  68.898  1.00  0.00    -0.155 A  
HETATM   23  C   UNL     1      -8.743   6.675  68.948  1.00  0.00    -0.128 C  
HETATM   24  C   UNL     1      -8.295   6.603  70.425  1.00  0.00    -0.127 C  
HETATM   25  C   UNL     1      -8.643   7.946  71.115  1.00  0.00    -0.136 C  
HETATM   26  C   UNL     1      -6.765   6.376  70.532  1.00  0.00    -0.053 C  
HETATM   27  O   UNL     1      -5.891   7.100  70.092  1.00  0.00    -0.023 OA 
HETATM   28  C   UNL     1      -9.390   8.687  70.053  1.00  0.00    -0.165 A  
HETATM   29  N   UNL     1      -6.562   5.214  71.248  1.00  0.00    -0.037 N  
HETATM   30  C   UNL     1      -7.751   4.612  71.589  1.00  0.00    -0.095 A  
HETATM   31  C   UNL     1      -9.958   9.948  70.133  1.00  0.00    -0.291 A  
HETATM   32  H   UNL     1      -5.643   4.847  71.494  1.00  0.00     0.000 HD 
HETATM   33  N   UNL     1      -7.844   3.447  72.232  1.00  0.00    -0.058 NA 
HETATM   34  C   UNL     1      -9.111   3.010  72.419  1.00  0.00    -0.095 A  
HETATM   35  C   UNL     1     -10.253   3.698  72.000  1.00  0.00    -0.145 A  
HETATM   36  C   UNL     1     -10.107   4.920  71.341  1.00  0.00    -0.268 A  
HETATM   37  C   UNL     1      -8.818   5.379  71.138  1.00  0.00    -0.146 A  
ENDBRANCH  17  19
ENDBRANCH   7  15
BRANCH   6  38
HETATM   38  C   UNL     1     -11.223  13.903  64.199  1.00  0.00    -0.158 C  
HETATM   39  F   UNL     1      -9.548  12.339  63.536  1.00  0.00    -0.302 F  
HETATM   40  F   UNL     1     -11.620  11.719  63.255  1.00  0.00    -0.469 F  
HETATM   41  C   UNL     1     -10.800  12.418  64.061  1.00  0.00    -0.397 C  
HETATM   42  F   UNL     1     -10.737  11.772  65.256  1.00  0.00    -0.294 F  
ENDBRANCH   6  38
TORSDOF 4
ENDMDL
MODEL       52
REMARK 921   NORMALIZED FREE ENERGY PREDICTED BY IDOCK:   -5.96 KCAL/MOL
REMARK 922        TOTAL FREE ENERGY PREDICTED BY IDOCK:   -8.95 KCAL/MOL
REMARK 923 INTER-LIGAND FREE ENERGY PREDICTED BY IDOCK:   -8.01 KCAL/MOL
REMARK 924 INTRA-LIGAND FREE ENERGY PREDICTED BY IDOCK:   -0.94 KCAL/MOL
REMARK 927      BINDING AFFINITY PREDICTED BY RF-SCORE:    0.00 PKD
ROOT
HETATM    1  C   UNL     1      -9.406   2.313  68.780  1.00  0.00    -0.221 C  
HETATM    2  C   UNL     1      -8.230   3.274  68.554  1.00  0.00    -0.068 C  
HETATM    3  C   UNL     1      -8.125   4.319  69.702  1.00  0.00    -0.062 C  
HETATM    4  C   UNL     1      -6.829   5.131  69.504  1.00  0.00    -0.053 C  
HETATM    5  O   UNL     1      -6.593   4.904  65.839  1.00  0.00    -0.042 OA 
HETATM    6  N   UNL     1      -8.127   3.927  67.235  1.00  0.00    -0.091 N  
HETATM    7  C   UNL     1      -6.692   5.753  68.113  1.00  0.00    -0.058 C  
HETATM    8  C   UNL     1      -7.030   4.761  66.981  1.00  0.00    -0.057 C  
ENDROOT
BRANCH   3   9
HETATM    9  C   UNL     1      -9.362   5.182  69.946  1.00  0.00    -0.196 A  
HETATM   10  C   UNL     1     -10.893   6.250  71.513  1.00  0.00    -0.303 A  
HETATM   11  C   UNL     1      -9.728   5.516  71.257  1.00  0.00    -0.215 A  
HETATM   12  C   UNL     1     -10.194   5.635  68.912  1.00  0.00    -0.279 A  
HETATM   13  C   UNL     1     -11.362   6.355  69.161  1.00  0.00    -0.366 A  
HETATM   14  C   UNL     1     -11.712   6.665  70.465  1.00  0.00    -0.453 A  
ENDBRANCH   3   9
BRANCH   7  15
HETATM   15  N   UNL     1      -7.584   6.894  67.888  1.00  0.00    -0.105 N  
HETATM   16  H   UNL     1      -8.548   6.819  68.215  1.00  0.00     0.000 HD 
HETATM   17  C   UNL     1      -7.204   8.058  67.265  1.00  0.00    -0.087 C  
HETATM   18  O   UNL     1      -6.085   8.238  66.801  1.00  0.00    -0.051 OA 
BRANCH  17  19
HETATM   19  C   UNL     1      -8.236   9.131  67.182  1.00  0.00    -0.113 A  
HETATM   20  N   UNL     1     -10.102  10.082  65.927  1.00  0.00    -0.266 NA 
HETATM   21  C   UNL     1      -9.140   9.131  66.121  1.00  0.00    -0.187 A  
HETATM   22  C   UNL     1     -10.101  11.095  66.808  1.00  0.00    -0.218 A  
HETATM   23  C   UNL     1     -11.093  12.225  66.796  1.00  0.00    -0.345 C  
HETATM   24  C   UNL     1     -10.508  13.212  67.830  1.00  0.00    -0.232 C  
HETATM   25  C   UNL     1      -9.336  12.519  68.570  1.00  0.00    -0.084 C  
HETATM   26  C   UNL     1     -11.577  13.622  68.875  1.00  0.00    -0.322 C  
HETATM   27  O   UNL     1     -12.180  12.879  69.626  1.00  0.00    -0.245 OA 
HETATM   28  C   UNL     1      -9.207  11.214  67.851  1.00  0.00    -0.154 A  
HETATM   29  N   UNL     1     -11.705  14.996  68.827  1.00  0.00    -0.368 N  
HETATM   30  C   UNL     1     -10.900  15.549  67.857  1.00  0.00    -0.307 A  
HETATM   31  C   UNL     1      -8.295  10.198  68.086  1.00  0.00    -0.117 A  
HETATM   32  H   UNL     1     -12.320  15.534  69.436  1.00  0.00     0.000 HD 
HETATM   33  N   UNL     1     -10.872  16.849  67.558  1.00  0.00    -0.264 NA 
HETATM   34  C   UNL     1     -10.048  17.170  66.534  1.00  0.00    -0.310 A  
HETATM   35  C   UNL     1      -9.268  16.248  65.830  1.00  0.00    -0.268 A  
HETATM   36  C   UNL     1      -9.321  14.899  66.186  1.00  0.00    -0.307 A  
HETATM   37  C   UNL     1     -10.162  14.553  67.229  1.00  0.00    -0.255 A  
ENDBRANCH  17  19
ENDBRANCH   7  15
BRANCH   6  38
HETATM   38  C   UNL     1      -8.915   3.520  66.050  1.00  0.00    -0.140 C  
HETATM   39  F   UNL     1     -11.040   4.472  65.536  1.00  0.00    -0.344 F  
HETATM   40  F   UNL     1      -9.457   4.787  64.070  1.00  0.00    -0.125 F  
HETATM   41  C   UNL     1      -9.705   4.678  65.388  1.00  0.00    -0.162 C  
HETATM   42  F   UNL     1      -9.456   5.886  65.963  1.00  0.00    -0.170 F  
ENDBRANCH   6  38
TORSDOF 4
ENDMDL
MODEL       53
REMARK 921   NORMALIZED FREE ENERGY PREDICTED BY IDOCK:   -5.95 KCAL/MOL
REMARK 922        TOTAL FREE ENERGY PREDICTED BY IDOCK:   -8.93 KCAL/MOL
REMARK 923 INTER-LIGAND FREE ENERGY PREDICTED BY IDOCK:   -8.76 KCAL/MOL
REMARK 924 INTRA-LIGAND FREE ENERGY PREDICTED BY IDOCK:   -0.17 KCAL/MOL
REMARK 927      BINDING AFFINITY PREDICTED BY RF-SCORE:    0.00 PKD
ROOT
HETATM    1  C   UNL     1     -11.238   5.792  71.063  1.00  0.00    -0.208 C  
HETATM    2  C   UNL     1      -9.881   6.503  71.173  1.00  0.00    -0.182 C  
HETATM    3  C   UNL     1      -9.994   7.810  72.011  1.00  0.00    -0.231 C  
HETATM    4  C   UNL     1      -8.575   8.373  72.229  1.00  0.00    -0.263 C  
HETATM    5  O   UNL     1      -6.999   7.092  69.160  1.00  0.00    -0.072 OA 
HETATM    6  N   UNL     1      -9.131   6.739  69.926  1.00  0.00    -0.144 N  
HETATM    7  C   UNL     1      -7.774   8.555  70.938  1.00  0.00    -0.090 C  
HETATM    8  C   UNL     1      -7.863   7.331  70.004  1.00  0.00    -0.111 C  
ENDROOT
BRANCH   3   9
HETATM    9  C   UNL     1     -10.999   8.847  71.512  1.00  0.00    -0.398 A  
HETATM   10  C   UNL     1     -11.561  10.634  69.954  1.00  0.00    -0.396 A  
HETATM   11  C   UNL     1     -10.687   9.633  70.394  1.00  0.00    -0.356 A  
HETATM   12  C   UNL     1     -12.226   9.090  72.145  1.00  0.00    -0.427 A  
HETATM   13  C   UNL     1     -13.094  10.095  71.719  1.00  0.00    -0.568 A  
HETATM   14  C   UNL     1     -12.763  10.868  70.619  1.00  0.00    -0.396 A  
ENDBRANCH   3   9
BRANCH   7  15
HETATM   15  N   UNL     1      -8.226   9.683  70.120  1.00  0.00    -0.177 N  
HETATM   16  H   UNL     1      -9.213   9.936  70.158  1.00  0.00     0.000 HD 
HETATM   17  C   UNL     1      -7.403  10.423  69.304  1.00  0.00    -0.106 C  
HETATM   18  O   UNL     1      -6.212  10.181  69.154  1.00  0.00    -0.040 OA 
BRANCH  17  19
HETATM   19  C   UNL     1      -8.035  11.571  68.594  1.00  0.00    -0.135 A  
HETATM   20  N   UNL     1      -9.014  12.406  66.519  1.00  0.00    -0.185 NA 
HETATM   21  C   UNL     1      -8.456  11.414  67.275  1.00  0.00    -0.148 A  
HETATM   22  C   UNL     1      -9.087  13.610  67.108  1.00  0.00    -0.239 A  
HETATM   23  C   UNL     1      -9.695  14.827  66.467  1.00  0.00    -0.295 C  
HETATM   24  C   UNL     1      -9.306  15.963  67.439  1.00  0.00    -0.214 C  
HETATM   25  C   UNL     1      -8.697  15.334  68.718  1.00  0.00    -0.195 C  
HETATM   26  C   UNL     1     -10.548  16.798  67.844  1.00  0.00    -0.350 C  
HETATM   27  O   UNL     1     -11.548  16.388  68.404  1.00  0.00    -0.286 OA 
HETATM   28  C   UNL     1      -8.639  13.878  68.384  1.00  0.00    -0.169 A  
HETATM   29  N   UNL     1     -10.307  18.109  67.484  1.00  0.00    -0.375 N  
HETATM   30  C   UNL     1      -9.094  18.248  66.851  1.00  0.00    -0.282 A  
HETATM   31  C   UNL     1      -8.157  12.842  69.168  1.00  0.00     0.509 A  
HETATM   32  H   UNL     1     -10.951  18.879  67.666  1.00  0.00     0.000 HD 
HETATM   33  N   UNL     1      -8.639  19.397  66.347  1.00  0.00    -0.343 NA 
HETATM   34  C   UNL     1      -7.445  19.298  65.718  1.00  0.00    -0.204 A  
HETATM   35  C   UNL     1      -6.714  18.114  65.595  1.00  0.00    -0.265 A  
HETATM   36  C   UNL     1      -7.224  16.938  66.148  1.00  0.00    -0.109 A  
HETATM   37  C   UNL     1      -8.446  17.021  66.791  1.00  0.00    -0.265 A  
ENDBRANCH  17  19
ENDBRANCH   7  15
BRANCH   6  38
HETATM   38  C   UNL     1      -9.469   6.111  68.629  1.00  0.00    -0.124 C  
HETATM   39  F   UNL     1     -11.328   6.814  67.310  1.00  0.00    -0.407 F  
HETATM   40  F   UNL     1      -9.357   7.043  66.406  1.00  0.00    -0.174 F  
HETATM   41  C   UNL     1     -10.026   7.100  67.572  1.00  0.00    -0.167 C  
HETATM   42  F   UNL     1     -10.014   8.393  67.998  1.00  0.00    -0.170 F  
ENDBRANCH   6  38
TORSDOF 4
ENDMDL
MODEL       54
REMARK 921   NORMALIZED FREE ENERGY PREDICTED BY IDOCK:   -5.93 KCAL/MOL
REMARK 922        TOTAL FREE ENERGY PREDICTED BY IDOCK:   -8.91 KCAL/MOL
REMARK 923 INTER-LIGAND FREE ENERGY PREDICTED BY IDOCK:   -8.64 KCAL/MOL
REMARK 924 INTRA-LIGAND FREE ENERGY PREDICTED BY IDOCK:   -0.27 KCAL/MOL
REMARK 927      BINDING AFFINITY PREDICTED BY RF-SCORE:    0.00 PKD
ROOT
HETATM    1  C   UNL     1     -11.125  16.344  69.842  1.00  0.00    -0.313 C  
HETATM    2  C   UNL     1     -10.957  15.745  68.438  1.00  0.00    -0.323 C  
HETATM    3  C   UNL     1     -12.065  14.694  68.135  1.00  0.00    -0.199 C  
HETATM    4  C   UNL     1     -11.941  14.268  66.659  1.00  0.00    -0.454 C  
HETATM    5  O   UNL     1      -8.321  14.781  66.241  1.00  0.00     0.159 OA 
HETATM    6  N   UNL     1      -9.625  15.227  68.073  1.00  0.00    -0.202 N  
HETATM    7  C   UNL     1     -10.541  13.794  66.264  1.00  0.00    -0.289 C  
HETATM    8  C   UNL     1      -9.428  14.730  66.777  1.00  0.00    -0.254 C  
ENDROOT
BRANCH   3   9
HETATM    9  C   UNL     1     -12.168  13.522  69.109  1.00  0.00    -0.236 A  
HETATM   10  C   UNL     1     -12.160  11.116  69.495  1.00  0.00    -0.396 A  
HETATM   11  C   UNL     1     -12.007  12.212  68.637  1.00  0.00    -0.290 A  
HETATM   12  C   UNL     1     -12.459  13.681  70.471  1.00  0.00    -0.394 A  
HETATM   13  C   UNL     1     -12.626  12.594  71.327  1.00  0.00    -0.339 A  
HETATM   14  C   UNL     1     -12.474  11.307  70.839  1.00  0.00    -0.493 A  
ENDBRANCH   3   9
BRANCH   7  15
HETATM   15  N   UNL     1     -10.195  12.475  66.799  1.00  0.00    -0.229 N  
HETATM   16  H   UNL     1     -10.320  12.316  67.799  1.00  0.00     0.000 HD 
HETATM   17  C   UNL     1      -9.713  11.437  66.038  1.00  0.00    -0.223 C  
HETATM   18  O   UNL     1      -9.488  11.531  64.838  1.00  0.00    -0.211 OA 
BRANCH  17  19
HETATM   19  C   UNL     1      -9.474  10.149  66.751  1.00  0.00    -0.205 A  
HETATM   20  N   UNL     1      -9.604   7.712  66.674  1.00  0.00    -0.201 NA 
HETATM   21  C   UNL     1      -9.753   8.946  66.105  1.00  0.00    -0.268 A  
HETATM   22  C   UNL     1      -9.219   7.711  67.960  1.00  0.00    -0.137 A  
HETATM   23  C   UNL     1      -8.965   6.465  68.762  1.00  0.00    -0.126 C  
HETATM   24  C   UNL     1      -8.799   7.005  70.199  1.00  0.00    -0.145 C  
HETATM   25  C   UNL     1      -8.726   8.552  70.143  1.00  0.00    -0.137 C  
HETATM   26  C   UNL     1      -7.493   6.474  70.846  1.00  0.00    -0.084 C  
HETATM   27  O   UNL     1      -6.360   6.641  70.435  1.00  0.00    -0.040 OA 
HETATM   28  C   UNL     1      -8.982   8.849  68.700  1.00  0.00    -0.137 A  
HETATM   29  N   UNL     1      -7.840   5.798  71.998  1.00  0.00    -0.105 N  
HETATM   30  C   UNL     1      -9.204   5.765  72.178  1.00  0.00    -0.146 A  
HETATM   31  C   UNL     1      -9.051  10.088  68.084  1.00  0.00    -0.121 A  
HETATM   32  H   UNL     1      -7.168   5.373  72.636  1.00  0.00     0.000 HD 
HETATM   33  N   UNL     1      -9.814   5.127  73.178  1.00  0.00    -0.151 NA 
HETATM   34  C   UNL     1     -11.165   5.179  73.135  1.00  0.00    -0.330 A  
HETATM   35  C   UNL     1     -11.898   5.844  72.149  1.00  0.00    -0.247 A  
HETATM   36  C   UNL     1     -11.217   6.509  71.127  1.00  0.00    -0.353 A  
HETATM   37  C   UNL     1      -9.835   6.462  71.154  1.00  0.00    -0.198 A  
ENDBRANCH  17  19
ENDBRANCH   7  15
BRANCH   6  38
HETATM   38  C   UNL     1      -8.397  15.484  68.857  1.00  0.00    -0.205 C  
HETATM   39  F   UNL     1      -6.516  16.639  67.953  1.00  0.00    -0.119 F  
HETATM   40  F   UNL     1      -7.504  17.579  69.654  1.00  0.00    -0.057 F  
HETATM   41  C   UNL     1      -7.721  16.844  68.548  1.00  0.00    -0.227 C  
HETATM   42  F   UNL     1      -8.435  17.604  67.673  1.00  0.00    -0.214 F  
ENDBRANCH   6  38
TORSDOF 4
ENDMDL
MODEL       55
REMARK 921   NORMALIZED FREE ENERGY PREDICTED BY IDOCK:   -5.88 KCAL/MOL
REMARK 922        TOTAL FREE ENERGY PREDICTED BY IDOCK:   -8.84 KCAL/MOL
REMARK 923 INTER-LIGAND FREE ENERGY PREDICTED BY IDOCK:   -6.71 KCAL/MOL
REMARK 924 INTRA-LIGAND FREE ENERGY PREDICTED BY IDOCK:   -2.13 KCAL/MOL
REMARK 927      BINDING AFFINITY PREDICTED BY RF-SCORE:    0.00 PKD
ROOT
HETATM    1  C   UNL     1     -11.591  17.565  67.083  1.00  0.00     1.321 C  
HETATM    2  C   UNL     1     -10.091  17.251  67.171  1.00  0.00    -0.297 C  
HETATM    3  C   UNL     1      -9.653  16.260  66.054  1.00  0.00    -0.371 C  
HETATM    4  C   UNL     1      -8.118  16.130  66.092  1.00  0.00    -0.047 C  
HETATM    5  O   UNL     1      -7.601  16.779  69.677  1.00  0.00     0.046 OA 
HETATM    6  N   UNL     1      -9.556  16.839  68.482  1.00  0.00    -0.236 N  
HETATM    7  C   UNL     1      -7.559  15.766  67.470  1.00  0.00    -0.168 C  
HETATM    8  C   UNL     1      -8.179  16.605  68.605  1.00  0.00    -0.245 C  
ENDROOT
BRANCH   3   9
HETATM    9  C   UNL     1     -10.386  14.919  66.017  1.00  0.00    -0.313 A  
HETATM   10  C   UNL     1     -10.614  12.685  65.071  1.00  0.00    -0.329 A  
HETATM   11  C   UNL     1      -9.925  13.900  65.172  1.00  0.00    -0.249 A  
HETATM   12  C   UNL     1     -11.541  14.657  66.767  1.00  0.00    -0.370 A  
HETATM   13  C   UNL     1     -12.239  13.455  66.660  1.00  0.00    -0.391 A  
HETATM   14  C   UNL     1     -11.774  12.465  65.811  1.00  0.00    -0.470 A  
ENDBRANCH   3   9
BRANCH   7  15
HETATM   15  N   UNL     1      -7.807  14.374  67.855  1.00  0.00    -0.135 N  
HETATM   16  H   UNL     1      -8.735  13.988  67.683  1.00  0.00     0.000 HD 
HETATM   17  C   UNL     1      -6.868  13.557  68.436  1.00  0.00    -0.102 C  
HETATM   18  O   UNL     1      -5.737  13.929  68.723  1.00  0.00    -0.079 OA 
BRANCH  17  19
HETATM   19  C   UNL     1      -7.288  12.152  68.704  1.00  0.00    -0.109 A  
HETATM   20  N   UNL     1      -6.666   9.960  69.582  1.00  0.00    -0.052 NA 
HETATM   21  C   UNL     1      -6.398  11.275  69.321  1.00  0.00    -0.081 A  
HETATM   22  C   UNL     1      -7.853   9.513  69.144  1.00  0.00    -0.082 A  
HETATM   23  C   UNL     1      -8.357   8.112  69.357  1.00  0.00    -0.123 C  
HETATM   24  C   UNL     1      -9.618   8.058  68.466  1.00  0.00    -0.159 C  
HETATM   25  C   UNL     1      -9.930   9.489  67.960  1.00  0.00    -0.198 C  
HETATM   26  C   UNL     1     -10.841   7.541  69.265  1.00  0.00    -0.117 C  
HETATM   27  O   UNL     1     -11.322   8.043  70.263  1.00  0.00    -0.243 OA 
HETATM   28  C   UNL     1      -8.772  10.287  68.468  1.00  0.00    -0.130 A  
HETATM   29  N   UNL     1     -11.316   6.415  68.622  1.00  0.00    -0.559 N  
HETATM   30  C   UNL     1     -10.543   6.087  67.532  1.00  0.00    -0.273 A  
HETATM   31  C   UNL     1      -8.523  11.638  68.290  1.00  0.00    -0.160 A  
HETATM   32  H   UNL     1     -12.139   5.891  68.919  1.00  0.00     0.000 HD 
HETATM   33  N   UNL     1     -10.743   5.013  66.767  1.00  0.00    -0.155 NA 
HETATM   34  C   UNL     1      -9.833   4.851  65.779  1.00  0.00    -0.168 A  
HETATM   35  C   UNL     1      -8.765   5.720  65.541  1.00  0.00    -0.141 A  
HETATM   36  C   UNL     1      -8.602   6.839  66.359  1.00  0.00    -0.131 A  
HETATM   37  C   UNL     1      -9.522   7.017  67.377  1.00  0.00    -0.155 A  
ENDBRANCH  17  19
ENDBRANCH   7  15
BRANCH   6  38
HETATM   38  C   UNL     1     -10.304  16.961  69.753  1.00  0.00    -0.021 C  
HETATM   39  F   UNL     1     -12.276  15.699  70.208  1.00  0.00    -0.341 F  
HETATM   40  F   UNL     1     -10.575  15.349  71.527  1.00  0.00    -0.296 F  
HETATM   41  C   UNL     1     -10.919  15.630  70.257  1.00  0.00    -0.348 C  
HETATM   42  F   UNL     1     -10.579  14.563  69.484  1.00  0.00    -0.237 F  
ENDBRANCH   6  38
TORSDOF 4
ENDMDL
MODEL       56
REMARK 921   NORMALIZED FREE ENERGY PREDICTED BY IDOCK:   -5.84 KCAL/MOL
REMARK 922        TOTAL FREE ENERGY PREDICTED BY IDOCK:   -8.80 KCAL/MOL
REMARK 923 INTER-LIGAND FREE ENERGY PREDICTED BY IDOCK:   -6.99 KCAL/MOL
REMARK 924 INTRA-LIGAND FREE ENERGY PREDICTED BY IDOCK:   -1.81 KCAL/MOL
REMARK 927      BINDING AFFINITY PREDICTED BY RF-SCORE:    0.00 PKD
ROOT
HETATM    1  C   UNL     1      -5.709   3.518  67.087  1.00  0.00    -0.022 C  
HETATM    2  C   UNL     1      -7.149   3.555  67.619  1.00  0.00    -0.055 C  
HETATM    3  C   UNL     1      -8.132   4.122  66.554  1.00  0.00    -0.101 C  
HETATM    4  C   UNL     1      -9.570   3.966  67.086  1.00  0.00    -0.226 C  
HETATM    5  O   UNL     1      -8.851   4.185  70.688  1.00  0.00    -0.074 OA 
HETATM    6  N   UNL     1      -7.375   4.186  68.933  1.00  0.00    -0.055 N  
HETATM    7  C   UNL     1      -9.786   4.563  68.478  1.00  0.00    -0.130 C  
HETATM    8  C   UNL     1      -8.670   4.180  69.470  1.00  0.00    -0.083 C  
ENDROOT
BRANCH   3   9
HETATM    9  C   UNL     1      -7.818   5.520  66.023  1.00  0.00    -0.104 A  
HETATM   10  C   UNL     1      -8.157   7.240  64.330  1.00  0.00    -0.065 A  
HETATM   11  C   UNL     1      -8.472   5.989  64.875  1.00  0.00    -0.060 A  
HETATM   12  C   UNL     1      -6.864   6.365  66.608  1.00  0.00    -0.066 A  
HETATM   13  C   UNL     1      -6.536   7.605  66.062  1.00  0.00    -0.046 A  
HETATM   14  C   UNL     1      -7.186   8.046  64.921  1.00  0.00    -0.073 A  
ENDBRANCH   3   9
BRANCH   7  15
HETATM   15  N   UNL     1      -9.811   6.028  68.492  1.00  0.00    -0.125 N  
HETATM   16  H   UNL     1      -9.181   6.523  67.861  1.00  0.00     0.000 HD 
HETATM   17  C   UNL     1     -10.631   6.777  69.302  1.00  0.00    -0.231 C  
HETATM   18  O   UNL     1     -11.396   6.286  70.123  1.00  0.00    -0.372 OA 
BRANCH  17  19
HETATM   19  C   UNL     1     -10.556   8.256  69.131  1.00  0.00    -0.179 A  
HETATM   20  N   UNL     1     -11.219  10.450  69.974  1.00  0.00    -0.295 NA 
HETATM   21  C   UNL     1     -11.193   9.086  70.053  1.00  0.00    -0.128 A  
HETATM   22  C   UNL     1     -10.630  10.978  68.890  1.00  0.00    -0.207 A  
HETATM   23  C   UNL     1     -10.517  12.455  68.628  1.00  0.00    -0.224 C  
HETATM   24  C   UNL     1      -9.996  12.510  67.175  1.00  0.00    -0.217 C  
HETATM   25  C   UNL     1      -9.603  11.077  66.734  1.00  0.00    -0.216 C  
HETATM   26  C   UNL     1      -8.745  13.419  67.067  1.00  0.00    -0.187 C  
HETATM   27  O   UNL     1      -7.688  13.273  67.654  1.00  0.00    -0.142 OA 
HETATM   28  C   UNL     1     -10.031  10.237  67.894  1.00  0.00    -0.191 A  
HETATM   29  N   UNL     1      -9.028  14.416  66.155  1.00  0.00    -0.481 N  
HETATM   30  C   UNL     1     -10.316  14.320  65.679  1.00  0.00    -0.336 A  
HETATM   31  C   UNL     1      -9.936   8.862  68.032  1.00  0.00    -0.215 A  
HETATM   32  H   UNL     1      -8.364  15.135  65.869  1.00  0.00     0.000 HD 
HETATM   33  N   UNL     1     -10.868  15.190  64.832  1.00  0.00    -0.422 NA 
HETATM   34  C   UNL     1     -12.164  14.937  64.536  1.00  0.00    -0.382 A  
HETATM   35  C   UNL     1     -12.894  13.859  65.046  1.00  0.00    -0.309 A  
HETATM   36  C   UNL     1     -12.270  12.968  65.921  1.00  0.00    -0.493 A  
HETATM   37  C   UNL     1     -10.946  13.215  66.237  1.00  0.00    -0.295 A  
ENDBRANCH  17  19
ENDBRANCH   7  15
BRANCH   6  38
HETATM   38  C   UNL     1      -6.290   4.541  69.875  1.00  0.00    -0.027 C  
HETATM   39  F   UNL     1      -5.149   6.634  69.788  1.00  0.00    -0.012 F  
HETATM   40  F   UNL     1      -6.263   6.213  71.614  1.00  0.00    -0.036 F  
HETATM   41  C   UNL     1      -6.267   6.037  70.280  1.00  0.00    -0.031 C  
HETATM   42  F   UNL     1      -7.312   6.741  69.768  1.00  0.00    -0.078 F  
ENDBRANCH   6  38
TORSDOF 4
ENDMDL
MODEL       57
REMARK 921   NORMALIZED FREE ENERGY PREDICTED BY IDOCK:   -5.83 KCAL/MOL
REMARK 922        TOTAL FREE ENERGY PREDICTED BY IDOCK:   -8.79 KCAL/MOL
REMARK 923 INTER-LIGAND FREE ENERGY PREDICTED BY IDOCK:   -8.03 KCAL/MOL
REMARK 924 INTRA-LIGAND FREE ENERGY PREDICTED BY IDOCK:   -0.76 KCAL/MOL
REMARK 927      BINDING AFFINITY PREDICTED BY RF-SCORE:    0.00 PKD
ROOT
HETATM    1  C   UNL     1      -9.463  16.524  65.637  1.00  0.00     0.003 C  
HETATM    2  C   UNL     1     -10.619  15.891  66.424  1.00  0.00    -0.297 C  
HETATM    3  C   UNL     1     -10.176  15.499  67.864  1.00  0.00    -0.238 C  
HETATM    4  C   UNL     1     -11.420  15.038  68.648  1.00  0.00    -0.329 C  
HETATM    5  O   UNL     1     -13.395  13.734  65.830  1.00  0.00    -0.471 OA 
HETATM    6  N   UNL     1     -11.360  14.789  65.782  1.00  0.00    -0.342 N  
HETATM    7  C   UNL     1     -12.224  13.940  67.948  1.00  0.00    -0.159 C  
HETATM    8  C   UNL     1     -12.458  14.234  66.453  1.00  0.00    -0.256 C  
ENDROOT
BRANCH   3   9
HETATM    9  C   UNL     1      -8.991  14.540  67.966  1.00  0.00    -0.180 A  
HETATM   10  C   UNL     1      -7.814  12.573  67.140  1.00  0.00    -0.123 A  
HETATM   11  C   UNL     1      -8.854  13.504  67.032  1.00  0.00    -0.219 A  
HETATM   12  C   UNL     1      -8.032  14.614  68.987  1.00  0.00    -0.122 A  
HETATM   13  C   UNL     1      -7.003  13.681  69.108  1.00  0.00    -0.070 A  
HETATM   14  C   UNL     1      -6.891  12.659  68.181  1.00  0.00    -0.090 A  
ENDBRANCH   3   9
BRANCH   7  15
HETATM   15  N   UNL     1     -11.573  12.628  67.974  1.00  0.00    -0.323 N  
HETATM   16  H   UNL     1     -11.190  12.266  67.100  1.00  0.00     0.000 HD 
HETATM   17  C   UNL     1     -11.445  11.853  69.102  1.00  0.00    -0.296 C  
HETATM   18  O   UNL     1     -11.901  12.172  70.193  1.00  0.00    -0.333 OA 
BRANCH  17  19
HETATM   19  C   UNL     1     -10.699  10.572  68.943  1.00  0.00    -0.253 A  
HETATM   20  N   UNL     1      -8.618   9.354  69.330  1.00  0.00    -0.136 NA 
HETATM   21  C   UNL     1      -9.404  10.466  69.449  1.00  0.00    -0.167 A  
HETATM   22  C   UNL     1      -9.146   8.345  68.620  1.00  0.00    -0.140 A  
HETATM   23  C   UNL     1      -8.464   7.023  68.397  1.00  0.00    -0.123 C  
HETATM   24  C   UNL     1      -9.363   6.343  67.341  1.00  0.00    -0.119 C  
HETATM   25  C   UNL     1     -10.651   7.186  67.168  1.00  0.00    -0.417 C  
HETATM   26  C   UNL     1      -9.766   4.915  67.791  1.00  0.00    -0.157 C  
HETATM   27  O   UNL     1     -10.379   4.617  68.799  1.00  0.00    -0.028 OA 
HETATM   28  C   UNL     1     -10.391   8.381  68.028  1.00  0.00    -0.270 A  
HETATM   29  N   UNL     1      -9.331   4.032  66.824  1.00  0.00    -0.169 N  
HETATM   30  C   UNL     1      -8.651   4.675  65.815  1.00  0.00    -0.122 A  
HETATM   31  C   UNL     1     -11.210   9.480  68.232  1.00  0.00     0.058 A  
HETATM   32  H   UNL     1      -9.495   3.026  66.853  1.00  0.00     0.000 HD 
HETATM   33  N   UNL     1      -8.074   4.055  64.785  1.00  0.00    -0.093 NA 
HETATM   34  C   UNL     1      -7.410   4.874  63.938  1.00  0.00    -0.051 A  
HETATM   35  C   UNL     1      -7.324   6.261  64.088  1.00  0.00    -0.071 A  
HETATM   36  C   UNL     1      -7.954   6.869  65.175  1.00  0.00    -0.125 A  
HETATM   37  C   UNL     1      -8.633   6.044  66.054  1.00  0.00    -0.147 A  
ENDBRANCH  17  19
ENDBRANCH   7  15
BRANCH   6  38
HETATM   38  C   UNL     1     -11.236  14.438  64.349  1.00  0.00    -0.222 C  
HETATM   39  F   UNL     1      -9.768  12.726  63.571  1.00  0.00    -0.206 F  
HETATM   40  F   UNL     1     -11.896  12.415  63.211  1.00  0.00    -0.497 F  
HETATM   41  C   UNL     1     -11.010  12.927  64.086  1.00  0.00    -0.408 C  
HETATM   42  F   UNL     1     -11.061  12.177  65.220  1.00  0.00    -0.322 F  
ENDBRANCH   6  38
TORSDOF 4
ENDMDL
MODEL       58
REMARK 921   NORMALIZED FREE ENERGY PREDICTED BY IDOCK:   -5.81 KCAL/MOL
REMARK 922        TOTAL FREE ENERGY PREDICTED BY IDOCK:   -8.77 KCAL/MOL
REMARK 923 INTER-LIGAND FREE ENERGY PREDICTED BY IDOCK:   -7.15 KCAL/MOL
REMARK 924 INTRA-LIGAND FREE ENERGY PREDICTED BY IDOCK:   -1.61 KCAL/MOL
REMARK 927      BINDING AFFINITY PREDICTED BY RF-SCORE:    0.00 PKD
ROOT
HETATM    1  C   UNL     1      -6.289   4.747  73.077  1.00  0.00    -0.042 C  
HETATM    2  C   UNL     1      -7.344   4.530  71.984  1.00  0.00    -0.067 C  
HETATM    3  C   UNL     1      -6.819   4.985  70.591  1.00  0.00    -0.040 C  
HETATM    4  C   UNL     1      -7.853   4.578  69.523  1.00  0.00    -0.058 C  
HETATM    5  O   UNL     1     -10.883   4.732  71.605  1.00  0.00    -0.024 OA 
HETATM    6  N   UNL     1      -8.701   5.052  72.232  1.00  0.00    -0.124 N  
HETATM    7  C   UNL     1      -9.274   5.065  69.816  1.00  0.00    -0.118 C  
HETATM    8  C   UNL     1      -9.700   4.815  71.277  1.00  0.00    -0.178 C  
ENDROOT
BRANCH   3   9
HETATM    9  C   UNL     1      -6.362   6.440  70.486  1.00  0.00    -0.040 A  
HETATM   10  C   UNL     1      -6.013   8.605  71.548  1.00  0.00    -0.050 A  
HETATM   11  C   UNL     1      -6.365   7.252  71.628  1.00  0.00    -0.036 A  
HETATM   12  C   UNL     1      -5.969   7.033  69.278  1.00  0.00    -0.019 A  
HETATM   13  C   UNL     1      -5.631   8.383  69.189  1.00  0.00    -0.035 A  
HETATM   14  C   UNL     1      -5.651   9.171  70.327  1.00  0.00    -0.031 A  
ENDBRANCH   3   9
BRANCH   7  15
HETATM   15  N   UNL     1      -9.455   6.505  69.616  1.00  0.00    -0.145 N  
HETATM   16  H   UNL     1      -9.479   7.104  70.441  1.00  0.00     0.000 HD 
HETATM   17  C   UNL     1      -9.593   7.100  68.385  1.00  0.00    -0.137 C  
HETATM   18  O   UNL     1      -9.617   6.473  67.333  1.00  0.00    -0.121 OA 
BRANCH  17  19
HETATM   19  C   UNL     1      -9.708   8.587  68.378  1.00  0.00    -0.169 A  
HETATM   20  N   UNL     1     -10.709  10.567  69.398  1.00  0.00    -0.226 NA 
HETATM   21  C   UNL     1     -10.505   9.217  69.332  1.00  0.00    -0.219 A  
HETATM   22  C   UNL     1     -10.132  11.287  68.423  1.00  0.00    -0.195 A  
HETATM   23  C   UNL     1     -10.203  12.786  68.328  1.00  0.00    -0.245 C  
HETATM   24  C   UNL     1      -9.608  13.074  66.932  1.00  0.00    -0.243 C  
HETATM   25  C   UNL     1      -9.000  11.763  66.372  1.00  0.00    -0.201 C  
HETATM   26  C   UNL     1      -8.486  14.140  67.015  1.00  0.00    -0.156 C  
HETATM   27  O   UNL     1      -7.457  14.064  67.661  1.00  0.00    -0.146 OA 
HETATM   28  C   UNL     1      -9.380  10.748  67.401  1.00  0.00    -0.163 A  
HETATM   29  N   UNL     1      -8.845  15.192  66.196  1.00  0.00    -0.468 N  
HETATM   30  C   UNL     1     -10.077  14.989  65.618  1.00  0.00    -0.362 A  
HETATM   31  C   UNL     1      -9.110   9.389  67.400  1.00  0.00    -0.141 A  
HETATM   32  H   UNL     1      -8.267  16.017  66.039  1.00  0.00     0.000 HD 
HETATM   33  N   UNL     1     -10.689  15.873  64.828  1.00  0.00    -0.576 NA 
HETATM   34  C   UNL     1     -11.919  15.494  64.411  1.00  0.00    -0.183 A  
HETATM   35  C   UNL     1     -12.527  14.281  64.748  1.00  0.00    -0.390 A  
HETATM   36  C   UNL     1     -11.843  13.381  65.567  1.00  0.00    -0.394 A  
HETATM   37  C   UNL     1     -10.586  13.756  66.006  1.00  0.00    -0.290 A  
ENDBRANCH  17  19
ENDBRANCH   7  15
BRANCH   6  38
HETATM   38  C   UNL     1      -9.173   5.527  73.552  1.00  0.00    -0.130 C  
HETATM   39  F   UNL     1      -8.563   7.655  74.442  1.00  0.00    -0.228 F  
HETATM   40  F   UNL     1     -10.688   7.332  74.072  1.00  0.00    -0.403 F  
HETATM   41  C   UNL     1      -9.455   7.051  73.612  1.00  0.00    -0.204 C  
HETATM   42  F   UNL     1      -9.307   7.665  72.407  1.00  0.00    -0.160 F  
ENDBRANCH   6  38
TORSDOF 4
ENDMDL
MODEL       59
REMARK 921   NORMALIZED FREE ENERGY PREDICTED BY IDOCK:   -5.80 KCAL/MOL
REMARK 922        TOTAL FREE ENERGY PREDICTED BY IDOCK:   -8.75 KCAL/MOL
REMARK 923 INTER-LIGAND FREE ENERGY PREDICTED BY IDOCK:   -7.96 KCAL/MOL
REMARK 924 INTRA-LIGAND FREE ENERGY PREDICTED BY IDOCK:   -0.79 KCAL/MOL
REMARK 927      BINDING AFFINITY PREDICTED BY RF-SCORE:    0.00 PKD
ROOT
HETATM    1  C   UNL     1      -8.164   5.540  70.301  1.00  0.00    -0.103 C  
HETATM    2  C   UNL     1      -9.526   6.185  70.596  1.00  0.00    -0.168 C  
HETATM    3  C   UNL     1     -10.356   6.373  69.293  1.00  0.00    -0.248 C  
HETATM    4  C   UNL     1     -11.768   6.858  69.681  1.00  0.00    -0.076 C  
HETATM    5  O   UNL     1     -10.904   8.641  72.782  1.00  0.00    -0.154 OA 
HETATM    6  N   UNL     1      -9.536   7.415  71.410  1.00  0.00    -0.160 N  
HETATM    7  C   UNL     1     -11.775   8.095  70.580  1.00  0.00    -0.143 C  
HETATM    8  C   UNL     1     -10.769   7.991  71.745  1.00  0.00    -0.240 C  
ENDROOT
BRANCH   3   9
HETATM    9  C   UNL     1      -9.701   7.202  68.189  1.00  0.00    -0.147 A  
HETATM   10  C   UNL     1      -7.715   8.290  67.289  1.00  0.00    -0.101 A  
HETATM   11  C   UNL     1      -8.329   7.480  68.252  1.00  0.00    -0.125 A  
HETATM   12  C   UNL     1     -10.417   7.747  67.114  1.00  0.00    -0.413 A  
HETATM   13  C   UNL     1      -9.814   8.566  66.160  1.00  0.00    -0.227 A  
HETATM   14  C   UNL     1      -8.459   8.837  66.245  1.00  0.00    -0.130 A  
ENDBRANCH   3   9
BRANCH   7  15
HETATM   15  N   UNL     1     -11.412   9.331  69.882  1.00  0.00    -0.437 N  
HETATM   16  H   UNL     1     -10.645   9.294  69.210  1.00  0.00     0.000 HD 
HETATM   17  C   UNL     1     -12.039  10.539  70.076  1.00  0.00    -0.274 C  
HETATM   18  O   UNL     1     -12.943  10.704  70.885  1.00  0.00    -0.370 OA 
BRANCH  17  19
HETATM   19  C   UNL     1     -11.568  11.672  69.230  1.00  0.00    -0.385 A  
HETATM   20  N   UNL     1     -10.935  12.435  66.998  1.00  0.00    -0.250 NA 
HETATM   21  C   UNL     1     -11.394  11.479  67.860  1.00  0.00    -0.303 A  
HETATM   22  C   UNL     1     -10.586  13.603  67.562  1.00  0.00    -0.241 A  
HETATM   23  C   UNL     1     -10.090  14.795  66.792  1.00  0.00    -0.258 C  
HETATM   24  C   UNL     1      -9.608  15.751  67.905  1.00  0.00    -0.214 C  
HETATM   25  C   UNL     1     -10.056  15.183  69.275  1.00  0.00    -0.246 C  
HETATM   26  C   UNL     1     -10.225  17.163  67.732  1.00  0.00    -0.324 C  
HETATM   27  O   UNL     1     -11.409  17.442  67.726  1.00  0.00     0.006 OA 
HETATM   28  C   UNL     1     -10.662  13.865  68.913  1.00  0.00    -0.256 A  
HETATM   29  N   UNL     1      -9.185  18.064  67.615  1.00  0.00    -0.257 N  
HETATM   30  C   UNL     1      -7.961  17.435  67.638  1.00  0.00    -0.193 A  
HETATM   31  C   UNL     1     -11.211  12.917  69.761  1.00  0.00    -0.001 A  
HETATM   32  H   UNL     1      -9.309  19.071  67.523  1.00  0.00     0.000 HD 
HETATM   33  N   UNL     1      -6.794  18.061  67.485  1.00  0.00    -0.188 NA 
HETATM   34  C   UNL     1      -5.716  17.243  67.487  1.00  0.00    -0.134 A  
HETATM   35  C   UNL     1      -5.778  15.856  67.645  1.00  0.00    -0.163 A  
HETATM   36  C   UNL     1      -7.021  15.245  67.814  1.00  0.00    -0.185 A  
HETATM   37  C   UNL     1      -8.134  16.066  67.810  1.00  0.00    -0.154 A  
ENDBRANCH  17  19
ENDBRANCH   7  15
BRANCH   6  38
HETATM   38  C   UNL     1      -8.367   7.910  72.171  1.00  0.00    -0.131 C  
HETATM   39  F   UNL     1      -8.338   8.014  74.554  1.00  0.00    -0.255 F  
HETATM   40  F   UNL     1      -6.867   6.701  73.623  1.00  0.00    -0.074 F  
HETATM   41  C   UNL     1      -8.123   7.169  73.511  1.00  0.00    -0.109 C  
HETATM   42  F   UNL     1      -8.977   6.127  73.703  1.00  0.00    -0.127 F  
ENDBRANCH   6  38
TORSDOF 4
ENDMDL
MODEL       60
REMARK 921   NORMALIZED FREE ENERGY PREDICTED BY IDOCK:   -5.79 KCAL/MOL
REMARK 922        TOTAL FREE ENERGY PREDICTED BY IDOCK:   -8.74 KCAL/MOL
REMARK 923 INTER-LIGAND FREE ENERGY PREDICTED BY IDOCK:   -6.99 KCAL/MOL
REMARK 924 INTRA-LIGAND FREE ENERGY PREDICTED BY IDOCK:   -1.75 KCAL/MOL
REMARK 927      BINDING AFFINITY PREDICTED BY RF-SCORE:    0.00 PKD
ROOT
HETATM    1  C   UNL     1     -12.749  13.559  66.123  1.00  0.00    -0.232 C  
HETATM    2  C   UNL     1     -11.420  14.165  66.597  1.00  0.00    -0.366 C  
HETATM    3  C   UNL     1     -10.207  13.494  65.888  1.00  0.00    -0.306 C  
HETATM    4  C   UNL     1      -8.929  14.265  66.276  1.00  0.00    -0.002 C  
HETATM    5  O   UNL     1      -9.982  15.439  69.600  1.00  0.00    -0.258 OA 
HETATM    6  N   UNL     1     -11.193  14.260  68.052  1.00  0.00    -0.269 N  
HETATM    7  C   UNL     1      -8.731  14.420  67.785  1.00  0.00    -0.180 C  
HETATM    8  C   UNL     1     -10.015  14.864  68.512  1.00  0.00    -0.223 C  
ENDROOT
BRANCH   3   9
HETATM    9  C   UNL     1     -10.087  11.979  66.047  1.00  0.00    -0.257 A  
HETATM   10  C   UNL     1      -9.468   9.820  65.102  1.00  0.00    -0.338 A  
HETATM   11  C   UNL     1      -9.531  11.215  65.011  1.00  0.00    -0.259 A  
HETATM   12  C   UNL     1     -10.546  11.289  67.177  1.00  0.00    -0.274 A  
HETATM   13  C   UNL     1     -10.498   9.898  67.268  1.00  0.00    -0.319 A  
HETATM   14  C   UNL     1      -9.955   9.161  66.229  1.00  0.00    -0.352 A  
ENDBRANCH   3   9
BRANCH   7  15
HETATM   15  N   UNL     1      -8.331  13.180  68.455  1.00  0.00    -0.300 N  
HETATM   16  H   UNL     1      -8.975  12.774  69.135  1.00  0.00     0.000 HD 
HETATM   17  C   UNL     1      -7.142  12.529  68.227  1.00  0.00    -0.104 C  
HETATM   18  O   UNL     1      -6.282  12.948  67.463  1.00  0.00    -0.149 OA 
BRANCH  17  19
HETATM   19  C   UNL     1      -6.939  11.247  68.961  1.00  0.00    -0.104 A  
HETATM   20  N   UNL     1      -5.513   9.298  69.320  1.00  0.00    -0.036 NA 
HETATM   21  C   UNL     1      -5.785  10.500  68.729  1.00  0.00    -0.040 A  
HETATM   22  C   UNL     1      -6.475   8.816  70.123  1.00  0.00    -0.038 A  
HETATM   23  C   UNL     1      -6.364   7.530  70.893  1.00  0.00    -0.038 C  
HETATM   24  C   UNL     1      -7.795   7.327  71.437  1.00  0.00    -0.096 C  
HETATM   25  C   UNL     1      -8.617   8.611  71.164  1.00  0.00    -0.224 C  
HETATM   26  C   UNL     1      -7.778   7.069  72.966  1.00  0.00    -0.090 C  
HETATM   27  O   UNL     1      -7.341   7.815  73.823  1.00  0.00    -0.107 OA 
HETATM   28  C   UNL     1      -7.674   9.451  70.363  1.00  0.00    -0.163 A  
HETATM   29  N   UNL     1      -8.379   5.848  73.193  1.00  0.00    -0.117 N  
HETATM   30  C   UNL     1      -8.749   5.236  72.017  1.00  0.00    -0.130 A  
HETATM   31  C   UNL     1      -7.898  10.709  69.827  1.00  0.00     0.029 A  
HETATM   32  H   UNL     1      -8.530   5.447  74.118  1.00  0.00     0.000 HD 
HETATM   33  N   UNL     1      -9.297   4.022  71.943  1.00  0.00    -0.126 NA 
HETATM   34  C   UNL     1      -9.534   3.590  70.683  1.00  0.00    -0.173 A  
HETATM   35  C   UNL     1      -9.252   4.328  69.530  1.00  0.00    -0.207 A  
HETATM   36  C   UNL     1      -8.689   5.599  69.656  1.00  0.00    -0.110 A  
HETATM   37  C   UNL     1      -8.437   6.055  70.938  1.00  0.00    -0.127 A  
ENDBRANCH  17  19
ENDBRANCH   7  15
BRANCH   6  38
HETATM   38  C   UNL     1     -12.253  14.059  69.066  1.00  0.00    -0.245 C  
HETATM   39  F   UNL     1     -12.921  11.895  69.812  1.00  0.00     0.122 F  
HETATM   40  F   UNL     1     -12.069  13.219  71.320  1.00  0.00    -0.382 F  
HETATM   41  C   UNL     1     -11.995  12.868  70.023  1.00  0.00    -0.309 C  
HETATM   42  F   UNL     1     -10.788  12.274  69.818  1.00  0.00    -0.094 F  
ENDBRANCH   6  38
TORSDOF 4
ENDMDL
MODEL       61
REMARK 921   NORMALIZED FREE ENERGY PREDICTED BY IDOCK:   -5.77 KCAL/MOL
REMARK 922        TOTAL FREE ENERGY PREDICTED BY IDOCK:   -8.72 KCAL/MOL
REMARK 923 INTER-LIGAND FREE ENERGY PREDICTED BY IDOCK:   -7.68 KCAL/MOL
REMARK 924 INTRA-LIGAND FREE ENERGY PREDICTED BY IDOCK:   -1.04 KCAL/MOL
REMARK 927      BINDING AFFINITY PREDICTED BY RF-SCORE:    0.00 PKD
ROOT
HETATM    1  C   UNL     1      -9.552  16.476  65.588  1.00  0.00    -0.063 C  
HETATM    2  C   UNL     1     -10.659  15.833  66.437  1.00  0.00    -0.307 C  
HETATM    3  C   UNL     1     -10.227  15.703  67.926  1.00  0.00    -0.239 C  
HETATM    4  C   UNL     1     -11.440  15.218  68.745  1.00  0.00    -0.345 C  
HETATM    5  O   UNL     1     -13.154  13.308  66.107  1.00  0.00     0.010 OA 
HETATM    6  N   UNL     1     -11.248  14.572  65.947  1.00  0.00    -0.326 N  
HETATM    7  C   UNL     1     -12.091  13.947  68.197  1.00  0.00    -0.282 C  
HETATM    8  C   UNL     1     -12.302  13.996  66.670  1.00  0.00    -0.371 C  
ENDROOT
BRANCH   3   9
HETATM    9  C   UNL     1      -8.947  14.911  68.191  1.00  0.00    -0.176 A  
HETATM   10  C   UNL     1      -6.947  14.558  69.537  1.00  0.00    -0.147 A  
HETATM   11  C   UNL     1      -8.157  15.223  69.306  1.00  0.00    -0.236 A  
HETATM   12  C   UNL     1      -8.487  13.894  67.343  1.00  0.00    -0.208 A  
HETATM   13  C   UNL     1      -7.277  13.237  67.561  1.00  0.00    -0.157 A  
HETATM   14  C   UNL     1      -6.505  13.568  68.661  1.00  0.00    -0.094 A  
ENDBRANCH   3   9
BRANCH   7  15
HETATM   15  N   UNL     1     -11.300  12.735  68.426  1.00  0.00    -0.272 N  
HETATM   16  H   UNL     1     -10.531  12.537  67.785  1.00  0.00     0.000 HD 
HETATM   17  C   UNL     1     -11.529  11.848  69.450  1.00  0.00    -0.302 C  
HETATM   18  O   UNL     1     -12.447  11.968  70.251  1.00  0.00    -0.203 OA 
BRANCH  17  19
HETATM   19  C   UNL     1     -10.580  10.703  69.557  1.00  0.00    -0.265 A  
HETATM   20  N   UNL     1      -8.546   9.645  68.718  1.00  0.00    -0.122 NA 
HETATM   21  C   UNL     1      -9.460  10.660  68.729  1.00  0.00    -0.183 A  
HETATM   22  C   UNL     1      -8.817   8.613  69.533  1.00  0.00    -0.144 A  
HETATM   23  C   UNL     1      -7.928   7.412  69.698  1.00  0.00    -0.126 C  
HETATM   24  C   UNL     1      -8.799   6.446  70.530  1.00  0.00    -0.144 C  
HETATM   25  C   UNL     1     -10.059   7.207  71.014  1.00  0.00    -0.199 C  
HETATM   26  C   UNL     1      -8.028   5.930  71.771  1.00  0.00    -0.111 C  
HETATM   27  O   UNL     1      -7.563   6.606  72.670  1.00  0.00    -0.092 OA 
HETATM   28  C   UNL     1      -9.932   8.535  70.341  1.00  0.00    -0.203 A  
HETATM   29  N   UNL     1      -7.986   4.552  71.696  1.00  0.00    -0.097 N  
HETATM   30  C   UNL     1      -8.583   4.086  70.547  1.00  0.00    -0.070 A  
HETATM   31  C   UNL     1     -10.801   9.612  70.406  1.00  0.00    -0.353 A  
HETATM   32  H   UNL     1      -7.564   3.953  72.405  1.00  0.00     0.000 HD 
HETATM   33  N   UNL     1      -8.631   2.800  70.195  1.00  0.00    -0.057 NA 
HETATM   34  C   UNL     1      -9.218   2.569  68.999  1.00  0.00    -0.143 A  
HETATM   35  C   UNL     1      -9.753   3.564  68.177  1.00  0.00    -0.073 A  
HETATM   36  C   UNL     1      -9.691   4.896  68.591  1.00  0.00    -0.225 A  
HETATM   37  C   UNL     1      -9.089   5.150  69.811  1.00  0.00    -0.154 A  
ENDBRANCH  17  19
ENDBRANCH   7  15
BRANCH   6  38
HETATM   38  C   UNL     1     -11.034  14.037  64.584  1.00  0.00    -0.392 C  
HETATM   39  F   UNL     1      -9.238  12.560  64.053  1.00  0.00     0.166 F  
HETATM   40  F   UNL     1     -11.253  11.772  63.781  1.00  0.00    -0.383 F  
HETATM   41  C   UNL     1     -10.502  12.581  64.552  1.00  0.00    -0.341 C  
HETATM   42  F   UNL     1     -10.417  12.021  65.789  1.00  0.00    -0.254 F  
ENDBRANCH   6  38
TORSDOF 4
ENDMDL
MODEL       62
REMARK 921   NORMALIZED FREE ENERGY PREDICTED BY IDOCK:   -5.69 KCAL/MOL
REMARK 922        TOTAL FREE ENERGY PREDICTED BY IDOCK:   -8.62 KCAL/MOL
REMARK 923 INTER-LIGAND FREE ENERGY PREDICTED BY IDOCK:   -8.59 KCAL/MOL
REMARK 924 INTRA-LIGAND FREE ENERGY PREDICTED BY IDOCK:   -0.03 KCAL/MOL
REMARK 927      BINDING AFFINITY PREDICTED BY RF-SCORE:    0.00 PKD
ROOT
HETATM    1  C   UNL     1      -8.483   2.991  71.721  1.00  0.00    -0.085 C  
HETATM    2  C   UNL     1      -8.971   4.307  72.343  1.00  0.00    -0.111 C  
HETATM    3  C   UNL     1     -10.321   4.763  71.718  1.00  0.00    -0.230 C  
HETATM    4  C   UNL     1     -10.835   5.984  72.506  1.00  0.00    -0.286 C  
HETATM    5  O   UNL     1      -7.591   7.355  73.573  1.00  0.00    -0.090 OA 
HETATM    6  N   UNL     1      -8.014   5.427  72.407  1.00  0.00    -0.102 N  
HETATM    7  C   UNL     1      -9.817   7.119  72.627  1.00  0.00    -0.166 C  
HETATM    8  C   UNL     1      -8.413   6.620  73.025  1.00  0.00    -0.117 C  
ENDROOT
BRANCH   3   9
HETATM    9  C   UNL     1     -10.330   4.958  70.202  1.00  0.00    -0.253 A  
HETATM   10  C   UNL     1     -11.136   6.183  68.256  1.00  0.00    -0.336 A  
HETATM   11  C   UNL     1     -11.057   6.018  69.644  1.00  0.00    -0.474 A  
HETATM   12  C   UNL     1      -9.671   4.095  69.315  1.00  0.00    -0.219 A  
HETATM   13  C   UNL     1      -9.757   4.246  67.932  1.00  0.00    -0.172 A  
HETATM   14  C   UNL     1     -10.490   5.293  67.400  1.00  0.00    -0.213 A  
ENDBRANCH   3   9
BRANCH   7  15
HETATM   15  N   UNL     1      -9.611   7.860  71.380  1.00  0.00    -0.151 N  
HETATM   16  H   UNL     1     -10.155   7.582  70.563  1.00  0.00     0.000 HD 
HETATM   17  C   UNL     1      -8.730   8.906  71.241  1.00  0.00    -0.215 C  
HETATM   18  O   UNL     1      -8.001   9.295  72.144  1.00  0.00    -0.169 OA 
BRANCH  17  19
HETATM   19  C   UNL     1      -8.703   9.575  69.909  1.00  0.00    -0.224 A  
HETATM   20  N   UNL     1      -7.659  11.263  68.488  1.00  0.00    -0.115 NA 
HETATM   21  C   UNL     1      -7.753  10.563  69.657  1.00  0.00    -0.110 A  
HETATM   22  C   UNL     1      -8.602  10.990  67.572  1.00  0.00    -0.128 A  
HETATM   23  C   UNL     1      -8.662  11.622  66.209  1.00  0.00    -0.136 C  
HETATM   24  C   UNL     1     -10.036  11.163  65.674  1.00  0.00    -0.297 C  
HETATM   25  C   UNL     1     -10.614  10.097  66.639  1.00  0.00    -0.214 C  
HETATM   26  C   UNL     1      -9.900  10.529  64.265  1.00  0.00    -0.338 C  
HETATM   27  O   UNL     1      -9.233   9.556  63.968  1.00  0.00    -0.219 OA 
HETATM   28  C   UNL     1      -9.619  10.077  67.755  1.00  0.00    -0.168 A  
HETATM   29  N   UNL     1     -10.702  11.249  63.403  1.00  0.00    -0.665 N  
HETATM   30  C   UNL     1     -11.313  12.306  64.038  1.00  0.00    -0.399 A  
HETATM   31  C   UNL     1      -9.647   9.313  68.910  1.00  0.00    -0.155 A  
HETATM   32  H   UNL     1     -10.825  11.026  62.415  1.00  0.00     0.000 HD 
HETATM   33  N   UNL     1     -12.095  13.198  63.427  1.00  0.00    -0.629 NA 
HETATM   34  C   UNL     1     -12.550  14.187  64.229  1.00  0.00    -0.122 A  
HETATM   35  C   UNL     1     -12.257  14.294  65.592  1.00  0.00    -0.409 A  
HETATM   36  C   UNL     1     -11.445  13.331  66.192  1.00  0.00    -0.359 A  
HETATM   37  C   UNL     1     -10.967  12.315  65.384  1.00  0.00    -0.341 A  
ENDBRANCH  17  19
ENDBRANCH   7  15
BRANCH   6  38
HETATM   38  C   UNL     1      -6.561   5.286  72.157  1.00  0.00    -0.052 C  
HETATM   39  F   UNL     1      -5.685   4.559  70.062  1.00  0.00    -0.011 F  
HETATM   40  F   UNL     1      -5.131   6.569  70.698  1.00  0.00    -0.013 F  
HETATM   41  C   UNL     1      -6.126   5.664  70.718  1.00  0.00    -0.030 C  
HETATM   42  F   UNL     1      -7.150   6.151  69.966  1.00  0.00    -0.061 F  
ENDBRANCH   6  38
TORSDOF 4
ENDMDL
MODEL       63
REMARK 921   NORMALIZED FREE ENERGY PREDICTED BY IDOCK:   -5.61 KCAL/MOL
REMARK 922        TOTAL FREE ENERGY PREDICTED BY IDOCK:   -8.52 KCAL/MOL
REMARK 923 INTER-LIGAND FREE ENERGY PREDICTED BY IDOCK:   -6.30 KCAL/MOL
REMARK 924 INTRA-LIGAND FREE ENERGY PREDICTED BY IDOCK:   -2.21 KCAL/MOL
REMARK 927      BINDING AFFINITY PREDICTED BY RF-SCORE:    0.00 PKD
ROOT
HETATM    1  C   UNL     1      -9.418   1.512  67.272  1.00  0.00     0.042 C  
HETATM    2  C   UNL     1      -8.062   2.156  67.593  1.00  0.00    -0.064 C  
HETATM    3  C   UNL     1      -8.180   3.165  68.773  1.00  0.00    -0.076 C  
HETATM    4  C   UNL     1      -6.763   3.637  69.153  1.00  0.00    -0.044 C  
HETATM    5  O   UNL     1      -5.165   3.296  65.856  1.00  0.00    -0.008 OA 
HETATM    6  N   UNL     1      -7.303   2.742  66.472  1.00  0.00    -0.069 N  
HETATM    7  C   UNL     1      -5.952   4.183  67.976  1.00  0.00    -0.027 C  
HETATM    8  C   UNL     1      -6.035   3.283  66.727  1.00  0.00    -0.024 C  
ENDROOT
BRANCH   3   9
HETATM    9  C   UNL     1      -9.181   4.304  68.588  1.00  0.00    -0.197 A  
HETATM   10  C   UNL     1     -10.554   6.062  69.570  1.00  0.00    -0.363 A  
HETATM   11  C   UNL     1      -9.590   5.055  69.699  1.00  0.00    -0.240 A  
HETATM   12  C   UNL     1      -9.758   4.624  67.351  1.00  0.00    -0.215 A  
HETATM   13  C   UNL     1     -10.728   5.616  67.219  1.00  0.00    -0.299 A  
HETATM   14  C   UNL     1     -11.127   6.340  68.330  1.00  0.00    -0.371 A  
ENDBRANCH   3   9
BRANCH   7  15
HETATM   15  N   UNL     1      -6.398   5.501  67.517  1.00  0.00    -0.041 N  
HETATM   16  H   UNL     1      -6.954   5.548  66.664  1.00  0.00     0.000 HD 
HETATM   17  C   UNL     1      -6.114   6.680  68.165  1.00  0.00    -0.029 C  
HETATM   18  O   UNL     1      -5.423   6.743  69.174  1.00  0.00    -0.013 OA 
BRANCH  17  19
HETATM   19  C   UNL     1      -6.705   7.916  67.578  1.00  0.00    -0.069 A  
HETATM   20  N   UNL     1      -6.335  10.221  66.862  1.00  0.00    -0.067 NA 
HETATM   21  C   UNL     1      -5.893   9.028  67.361  1.00  0.00    -0.046 A  
HETATM   22  C   UNL     1      -7.656  10.300  66.636  1.00  0.00    -0.110 A  
HETATM   23  C   UNL     1      -8.342  11.507  66.059  1.00  0.00     0.042 C  
HETATM   24  C   UNL     1      -9.839  11.174  66.239  1.00  0.00    -0.253 C  
HETATM   25  C   UNL     1      -9.969   9.698  66.692  1.00  0.00    -0.301 C  
HETATM   26  C   UNL     1     -10.612  11.350  64.906  1.00  0.00    -0.307 C  
HETATM   27  O   UNL     1     -10.400  10.764  63.861  1.00  0.00    -0.349 OA 
HETATM   28  C   UNL     1      -8.547   9.277  66.880  1.00  0.00    -0.132 A  
HETATM   29  N   UNL     1     -11.614  12.274  65.121  1.00  0.00    -0.351 N  
HETATM   30  C   UNL     1     -11.581  12.773  66.403  1.00  0.00    -0.378 A  
HETATM   31  C   UNL     1      -8.071   8.046  67.302  1.00  0.00    -0.121 A  
HETATM   32  H   UNL     1     -12.296  12.553  64.416  1.00  0.00     0.000 HD 
HETATM   33  N   UNL     1     -12.399  13.722  66.860  1.00  0.00    -0.357 NA 
HETATM   34  C   UNL     1     -12.158  14.104  68.135  1.00  0.00    -0.262 A  
HETATM   35  C   UNL     1     -11.153  13.564  68.943  1.00  0.00    -0.305 A  
HETATM   36  C   UNL     1     -10.328  12.564  68.426  1.00  0.00    -0.237 A  
HETATM   37  C   UNL     1     -10.559  12.165  67.122  1.00  0.00    -0.254 A  
ENDBRANCH  17  19
ENDBRANCH   7  15
BRANCH   6  38
HETATM   38  C   UNL     1      -7.632   2.518  65.047  1.00  0.00    -0.072 C  
HETATM   39  F   UNL     1      -9.390   3.687  63.937  1.00  0.00    -0.115 F  
HETATM   40  F   UNL     1      -7.376   4.009  63.168  1.00  0.00    -0.046 F  
HETATM   41  C   UNL     1      -8.083   3.795  64.292  1.00  0.00    -0.089 C  
HETATM   42  F   UNL     1      -8.003   4.918  65.057  1.00  0.00    -0.089 F  
ENDBRANCH   6  38
TORSDOF 4
ENDMDL
MODEL       64
REMARK 921   NORMALIZED FREE ENERGY PREDICTED BY IDOCK:   -5.61 KCAL/MOL
REMARK 922        TOTAL FREE ENERGY PREDICTED BY IDOCK:   -8.51 KCAL/MOL
REMARK 923 INTER-LIGAND FREE ENERGY PREDICTED BY IDOCK:   -6.67 KCAL/MOL
REMARK 924 INTRA-LIGAND FREE ENERGY PREDICTED BY IDOCK:   -1.85 KCAL/MOL
REMARK 927      BINDING AFFINITY PREDICTED BY RF-SCORE:    0.00 PKD
ROOT
HETATM    1  C   UNL     1      -9.463   2.619  70.028  1.00  0.00    -0.148 C  
HETATM    2  C   UNL     1      -8.157   3.424  70.022  1.00  0.00    -0.045 C  
HETATM    3  C   UNL     1      -8.283   4.714  70.884  1.00  0.00    -0.089 C  
HETATM    4  C   UNL     1      -6.894   5.376  70.977  1.00  0.00    -0.045 C  
HETATM    5  O   UNL     1      -5.524   4.233  67.758  1.00  0.00    -0.015 OA 
HETATM    6  N   UNL     1      -7.545   3.722  68.713  1.00  0.00    -0.054 N  
HETATM    7  C   UNL     1      -6.232   5.624  69.620  1.00  0.00    -0.029 C  
HETATM    8  C   UNL     1      -6.320   4.404  68.682  1.00  0.00    -0.036 C  
ENDROOT
BRANCH   3   9
HETATM    9  C   UNL     1      -9.402   5.679  70.493  1.00  0.00    -0.194 A  
HETATM   10  C   UNL     1     -10.595   7.768  70.885  1.00  0.00    -0.220 A  
HETATM   11  C   UNL     1      -9.541   6.894  71.178  1.00  0.00    -0.167 A  
HETATM   12  C   UNL     1     -10.343   5.396  69.494  1.00  0.00    -0.350 A  
HETATM   13  C   UNL     1     -11.403   6.255  69.206  1.00  0.00    -0.411 A  
HETATM   14  C   UNL     1     -11.529   7.446  69.902  1.00  0.00    -0.026 A  
ENDBRANCH   3   9
BRANCH   7  15
HETATM   15  N   UNL     1      -6.837   6.723  68.862  1.00  0.00    -0.063 N  
HETATM   16  H   UNL     1      -7.329   6.494  67.998  1.00  0.00     0.000 HD 
HETATM   17  C   UNL     1      -6.785   8.042  69.243  1.00  0.00    -0.040 C  
HETATM   18  O   UNL     1      -6.189   8.432  70.239  1.00  0.00    -0.034 OA 
BRANCH  17  19
HETATM   19  C   UNL     1      -7.512   9.011  68.373  1.00  0.00    -0.082 A  
HETATM   20  N   UNL     1      -7.796   9.934  66.130  1.00  0.00    -0.107 NA 
HETATM   21  C   UNL     1      -7.217   9.064  67.011  1.00  0.00    -0.086 A  
HETATM   22  C   UNL     1      -8.654  10.816  66.667  1.00  0.00    -0.143 A  
HETATM   23  C   UNL     1      -9.423  11.835  65.872  1.00  0.00    -0.239 C  
HETATM   24  C   UNL     1     -10.048  12.728  66.966  1.00  0.00    -0.240 C  
HETATM   25  C   UNL     1      -9.816  12.061  68.345  1.00  0.00    -0.204 C  
HETATM   26  C   UNL     1     -11.574  12.890  66.747  1.00  0.00    -0.360 C  
HETATM   27  O   UNL     1     -12.402  11.998  66.718  1.00  0.00    -0.340 OA 
HETATM   28  C   UNL     1      -8.960  10.882  68.010  1.00  0.00    -0.145 A  
HETATM   29  N   UNL     1     -11.840  14.239  66.620  1.00  0.00    -0.408 N  
HETATM   30  C   UNL     1     -10.689  14.992  66.676  1.00  0.00    -0.312 A  
HETATM   31  C   UNL     1      -8.433   9.937  68.875  1.00  0.00    -0.127 A  
HETATM   32  H   UNL     1     -12.774  14.629  66.499  1.00  0.00     0.000 HD 
HETATM   33  N   UNL     1     -10.651  16.316  66.522  1.00  0.00    -0.291 NA 
HETATM   34  C   UNL     1      -9.408  16.849  66.559  1.00  0.00    -0.270 A  
HETATM   35  C   UNL     1      -8.239  16.110  66.753  1.00  0.00    -0.304 A  
HETATM   36  C   UNL     1      -8.327  14.727  66.922  1.00  0.00    -0.184 A  
HETATM   37  C   UNL     1      -9.591  14.165  66.882  1.00  0.00    -0.275 A  
ENDBRANCH  17  19
ENDBRANCH   7  15
BRANCH   6  38
HETATM   38  C   UNL     1      -7.957   3.080  67.445  1.00  0.00    -0.077 C  
HETATM   39  F   UNL     1      -9.982   3.646  66.320  1.00  0.00    -0.181 F  
HETATM   40  F   UNL     1      -8.131   4.035  65.236  1.00  0.00    -0.096 F  
HETATM   41  C   UNL     1      -8.687   4.031  66.462  1.00  0.00    -0.116 C  
HETATM   42  F   UNL     1      -8.733   5.317  66.905  1.00  0.00    -0.114 F  
ENDBRANCH   6  38
TORSDOF 4
ENDMDL
MODEL       65
REMARK 921   NORMALIZED FREE ENERGY PREDICTED BY IDOCK:   -5.60 KCAL/MOL
REMARK 922        TOTAL FREE ENERGY PREDICTED BY IDOCK:   -8.50 KCAL/MOL
REMARK 923 INTER-LIGAND FREE ENERGY PREDICTED BY IDOCK:   -7.24 KCAL/MOL
REMARK 924 INTRA-LIGAND FREE ENERGY PREDICTED BY IDOCK:   -1.26 KCAL/MOL
REMARK 927      BINDING AFFINITY PREDICTED BY RF-SCORE:    0.00 PKD
ROOT
HETATM    1  C   UNL     1     -12.854  14.319  66.025  1.00  0.00    -0.104 C  
HETATM    2  C   UNL     1     -11.529  14.825  66.615  1.00  0.00    -0.335 C  
HETATM    3  C   UNL     1     -10.325  14.453  65.702  1.00  0.00    -0.360 C  
HETATM    4  C   UNL     1      -9.061  15.139  66.260  1.00  0.00    -0.313 C  
HETATM    5  O   UNL     1     -10.009  15.231  69.814  1.00  0.00    -0.251 OA 
HETATM    6  N   UNL     1     -11.242  14.499  68.025  1.00  0.00    -0.279 N  
HETATM    7  C   UNL     1      -8.802  14.853  67.740  1.00  0.00    -0.173 C  
HETATM    8  C   UNL     1     -10.069  15.000  68.606  1.00  0.00    -0.233 C  
ENDROOT
BRANCH   3   9
HETATM    9  C   UNL     1     -10.139  12.967  65.402  1.00  0.00    -0.265 A  
HETATM   10  C   UNL     1      -9.978  11.167  63.767  1.00  0.00    -0.401 A  
HETATM   11  C   UNL     1     -10.082  12.529  64.072  1.00  0.00    -0.316 A  
HETATM   12  C   UNL     1     -10.060  11.988  66.403  1.00  0.00    -0.242 A  
HETATM   13  C   UNL     1      -9.969  10.628  66.106  1.00  0.00    -0.283 A  
HETATM   14  C   UNL     1      -9.926  10.216  64.785  1.00  0.00    -0.334 A  
ENDBRANCH   3   9
BRANCH   7  15
HETATM   15  N   UNL     1      -8.325  13.493  68.002  1.00  0.00    -0.156 N  
HETATM   16  H   UNL     1      -9.008  12.794  68.295  1.00  0.00     0.000 HD 
HETATM   17  C   UNL     1      -7.015  13.098  67.877  1.00  0.00    -0.132 C  
HETATM   18  O   UNL     1      -6.108  13.862  67.571  1.00  0.00    -0.317 OA 
BRANCH  17  19
HETATM   19  C   UNL     1      -6.732  11.656  68.130  1.00  0.00    -0.063 A  
HETATM   20  N   UNL     1      -5.368   9.709  67.570  1.00  0.00    -0.036 NA 
HETATM   21  C   UNL     1      -5.692  11.031  67.443  1.00  0.00    -0.048 A  
HETATM   22  C   UNL     1      -6.167   8.992  68.376  1.00  0.00    -0.054 A  
HETATM   23  C   UNL     1      -5.967   7.533  68.680  1.00  0.00    -0.027 C  
HETATM   24  C   UNL     1      -7.264   7.154  69.429  1.00  0.00    -0.084 C  
HETATM   25  C   UNL     1      -8.056   8.450  69.737  1.00  0.00    -0.117 C  
HETATM   26  C   UNL     1      -6.945   6.441  70.768  1.00  0.00    -0.068 C  
HETATM   27  O   UNL     1      -6.301   6.894  71.697  1.00  0.00    -0.041 OA 
HETATM   28  C   UNL     1      -7.256   9.507  69.046  1.00  0.00    -0.071 A  
HETATM   29  N   UNL     1      -7.550   5.201  70.738  1.00  0.00    -0.077 N  
HETATM   30  C   UNL     1      -8.187   4.975  69.539  1.00  0.00    -0.085 A  
HETATM   31  C   UNL     1      -7.518  10.866  68.976  1.00  0.00    -0.124 A  
HETATM   32  H   UNL     1      -7.527   4.535  71.509  1.00  0.00     0.000 HD 
HETATM   33  N   UNL     1      -8.802   3.835  69.221  1.00  0.00    -0.089 NA 
HETATM   34  C   UNL     1      -9.317   3.806  67.970  1.00  0.00    -0.179 A  
HETATM   35  C   UNL     1      -9.240   4.865  67.062  1.00  0.00    -0.127 A  
HETATM   36  C   UNL     1      -8.597   6.044  67.442  1.00  0.00    -0.102 A  
HETATM   37  C   UNL     1      -8.062   6.088  68.717  1.00  0.00    -0.104 A  
ENDBRANCH  17  19
ENDBRANCH   7  15
BRANCH   6  38
HETATM   38  C   UNL     1     -12.247  13.957  68.967  1.00  0.00    -0.239 C  
HETATM   39  F   UNL     1     -12.704  11.624  69.152  1.00  0.00    -0.094 F  
HETATM   40  F   UNL     1     -11.919  12.601  70.935  1.00  0.00    -0.406 F  
HETATM   41  C   UNL     1     -11.858  12.592  69.591  1.00  0.00    -0.311 C  
HETATM   42  F   UNL     1     -10.612  12.181  69.231  1.00  0.00    -0.199 F  
ENDBRANCH   6  38
TORSDOF 4
ENDMDL
MODEL       66
REMARK 921   NORMALIZED FREE ENERGY PREDICTED BY IDOCK:   -5.59 KCAL/MOL
REMARK 922        TOTAL FREE ENERGY PREDICTED BY IDOCK:   -8.49 KCAL/MOL
REMARK 923 INTER-LIGAND FREE ENERGY PREDICTED BY IDOCK:   -6.76 KCAL/MOL
REMARK 924 INTRA-LIGAND FREE ENERGY PREDICTED BY IDOCK:   -1.73 KCAL/MOL
REMARK 927      BINDING AFFINITY PREDICTED BY RF-SCORE:    0.00 PKD
ROOT
HETATM    1  C   UNL     1     -12.617  13.896  66.920  1.00  0.00    -0.029 C  
HETATM    2  C   UNL     1     -11.138  14.272  67.090  1.00  0.00    -0.311 C  
HETATM    3  C   UNL     1     -10.229  13.433  66.145  1.00  0.00    -0.301 C  
HETATM    4  C   UNL     1      -8.791  13.982  66.241  1.00  0.00     0.181 C  
HETATM    5  O   UNL     1      -8.907  15.233  69.699  1.00  0.00    -0.233 OA 
HETATM    6  N   UNL     1     -10.595  14.296  68.461  1.00  0.00    -0.250 N  
HETATM    7  C   UNL     1      -8.253  14.069  67.670  1.00  0.00    -0.180 C  
HETATM    8  C   UNL     1      -9.264  14.695  68.651  1.00  0.00    -0.194 C  
ENDROOT
BRANCH   3   9
HETATM    9  C   UNL     1     -10.322  11.915  66.292  1.00  0.00    -0.259 A  
HETATM   10  C   UNL     1     -11.034   9.979  67.589  1.00  0.00    -0.297 A  
HETATM   11  C   UNL     1     -10.989  11.365  67.395  1.00  0.00    -0.326 A  
HETATM   12  C   UNL     1      -9.730  11.021  65.389  1.00  0.00    -0.279 A  
HETATM   13  C   UNL     1      -9.759   9.641  65.584  1.00  0.00    -0.363 A  
HETATM   14  C   UNL     1     -10.415   9.117  66.685  1.00  0.00    -0.237 A  
ENDBRANCH   3   9
BRANCH   7  15
HETATM   15  N   UNL     1      -7.923  12.766  68.254  1.00  0.00    -0.146 N  
HETATM   16  H   UNL     1      -8.467  12.450  69.057  1.00  0.00     0.000 HD 
HETATM   17  C   UNL     1      -6.926  11.943  67.788  1.00  0.00    -0.102 C  
HETATM   18  O   UNL     1      -6.188  12.240  66.857  1.00  0.00    -0.184 OA 
BRANCH  17  19
HETATM   19  C   UNL     1      -6.778  10.628  68.476  1.00  0.00    -0.056 A  
HETATM   20  N   UNL     1      -5.384   8.659  68.850  1.00  0.00    -0.036 NA 
HETATM   21  C   UNL     1      -5.611   9.888  68.297  1.00  0.00    -0.039 A  
HETATM   22  C   UNL     1      -6.404   8.145  69.556  1.00  0.00    -0.034 A  
HETATM   23  C   UNL     1      -6.352   6.824  70.273  1.00  0.00    -0.039 C  
HETATM   24  C   UNL     1      -7.820   6.601  70.697  1.00  0.00    -0.106 C  
HETATM   25  C   UNL     1      -8.618   7.900  70.422  1.00  0.00    -0.132 C  
HETATM   26  C   UNL     1      -7.918   6.274  72.209  1.00  0.00    -0.104 C  
HETATM   27  O   UNL     1      -7.547   6.977  73.131  1.00  0.00    -0.080 OA 
HETATM   28  C   UNL     1      -7.618   8.772  69.734  1.00  0.00    -0.072 A  
HETATM   29  N   UNL     1      -8.535   5.045  72.334  1.00  0.00    -0.120 N  
HETATM   30  C   UNL     1      -8.816   4.490  71.106  1.00  0.00    -0.116 A  
HETATM   31  C   UNL     1      -7.800  10.055  69.242  1.00  0.00    -0.125 A  
HETATM   32  H   UNL     1      -8.755   4.604  73.226  1.00  0.00     0.000 HD 
HETATM   33  N   UNL     1      -9.357   3.283  70.936  1.00  0.00    -0.137 NA 
HETATM   34  C   UNL     1      -9.498   2.910  69.643  1.00  0.00    -0.094 A  
HETATM   35  C   UNL     1      -9.130   3.699  68.550  1.00  0.00    -0.201 A  
HETATM   36  C   UNL     1      -8.578   4.961  68.776  1.00  0.00    -0.096 A  
HETATM   37  C   UNL     1      -8.423   5.356  70.093  1.00  0.00    -0.119 A  
ENDBRANCH  17  19
ENDBRANCH   7  15
BRANCH   6  38
HETATM   38  C   UNL     1     -11.431  14.244  69.681  1.00  0.00    -0.282 C  
HETATM   39  F   UNL     1     -11.532  16.041  71.245  1.00  0.00    -0.367 F  
HETATM   40  F   UNL     1     -13.397  15.525  70.241  1.00  0.00    -0.316 F  
HETATM   41  C   UNL     1     -12.064  15.603  70.074  1.00  0.00    -0.359 C  
HETATM   42  F   UNL     1     -11.812  16.587  69.168  1.00  0.00    -0.223 F  
ENDBRANCH   6  38
TORSDOF 4
ENDMDL
MODEL       67
REMARK 921   NORMALIZED FREE ENERGY PREDICTED BY IDOCK:   -5.58 KCAL/MOL
REMARK 922        TOTAL FREE ENERGY PREDICTED BY IDOCK:   -8.49 KCAL/MOL
REMARK 923 INTER-LIGAND FREE ENERGY PREDICTED BY IDOCK:   -7.46 KCAL/MOL
REMARK 924 INTRA-LIGAND FREE ENERGY PREDICTED BY IDOCK:   -1.03 KCAL/MOL
REMARK 927      BINDING AFFINITY PREDICTED BY RF-SCORE:    0.00 PKD
ROOT
HETATM    1  C   UNL     1      -8.672  16.279  65.963  1.00  0.00    -0.285 C  
HETATM    2  C   UNL     1      -9.735  15.679  66.894  1.00  0.00    -0.230 C  
HETATM    3  C   UNL     1      -9.110  15.215  68.242  1.00  0.00    -0.183 C  
HETATM    4  C   UNL     1     -10.252  14.791  69.188  1.00  0.00    -0.224 C  
HETATM    5  O   UNL     1     -12.684  13.690  66.655  1.00  0.00    -0.209 OA 
HETATM    6  N   UNL     1     -10.622  14.640  66.338  1.00  0.00    -0.295 N  
HETATM    7  C   UNL     1     -11.209  13.761  68.584  1.00  0.00    -0.278 C  
HETATM    8  C   UNL     1     -11.640  14.119  67.148  1.00  0.00    -0.377 C  
ENDROOT
BRANCH   3   9
HETATM    9  C   UNL     1      -7.979  14.193  68.144  1.00  0.00    -0.143 A  
HETATM   10  C   UNL     1      -5.887  13.298  69.017  1.00  0.00    -0.079 A  
HETATM   11  C   UNL     1      -6.970  14.180  69.117  1.00  0.00    -0.111 A  
HETATM   12  C   UNL     1      -7.867  13.273  67.092  1.00  0.00    -0.047 A  
HETATM   13  C   UNL     1      -6.784  12.402  66.980  1.00  0.00    -0.005 A  
HETATM   14  C   UNL     1      -5.792  12.412  67.945  1.00  0.00    -0.086 A  
ENDBRANCH   3   9
BRANCH   7  15
HETATM   15  N   UNL     1     -10.636  12.417  68.479  1.00  0.00    -0.228 N  
HETATM   16  H   UNL     1      -9.666  12.333  68.173  1.00  0.00     0.000 HD 
HETATM   17  C   UNL     1     -11.322  11.262  68.766  1.00  0.00    -0.270 C  
HETATM   18  O   UNL     1     -12.499  11.245  69.104  1.00  0.00    -0.378 OA 
BRANCH  17  19
HETATM   19  C   UNL     1     -10.551   9.990  68.657  1.00  0.00    -0.239 A  
HETATM   20  N   UNL     1      -8.359   8.915  68.698  1.00  0.00    -0.123 NA 
HETATM   21  C   UNL     1      -9.166  10.012  68.812  1.00  0.00    -0.159 A  
HETATM   22  C   UNL     1      -8.979   7.775  68.355  1.00  0.00    -0.132 A  
HETATM   23  C   UNL     1      -8.284   6.449  68.210  1.00  0.00    -0.116 C  
HETATM   24  C   UNL     1      -9.372   5.554  67.577  1.00  0.00    -0.114 C  
HETATM   25  C   UNL     1     -10.719   6.321  67.597  1.00  0.00    -0.391 C  
HETATM   26  C   UNL     1      -9.543   4.237  68.376  1.00  0.00    -0.133 C  
HETATM   27  O   UNL     1      -9.855   4.133  69.548  1.00  0.00    -0.206 OA 
HETATM   28  C   UNL     1     -10.332   7.668  68.118  1.00  0.00    -0.250 A  
HETATM   29  N   UNL     1      -9.309   3.188  67.510  1.00  0.00    -0.216 N  
HETATM   30  C   UNL     1      -8.958   3.631  66.255  1.00  0.00    -0.144 A  
HETATM   31  C   UNL     1     -11.148   8.769  68.324  1.00  0.00     0.246 A  
HETATM   32  H   UNL     1      -9.387   2.204  67.768  1.00  0.00     0.000 HD 
HETATM   33  N   UNL     1      -8.621   2.829  65.244  1.00  0.00    -0.102 NA 
HETATM   34  C   UNL     1      -8.258   3.477  64.113  1.00  0.00    -0.090 A  
HETATM   35  C   UNL     1      -8.235   4.867  63.973  1.00  0.00    -0.122 A  
HETATM   36  C   UNL     1      -8.607   5.667  65.055  1.00  0.00    -0.108 A  
HETATM   37  C   UNL     1      -8.977   5.020  66.221  1.00  0.00    -0.127 A  
ENDBRANCH  17  19
ENDBRANCH   7  15
BRANCH   6  38
HETATM   38  C   UNL     1     -10.727  14.332  64.894  1.00  0.00    -0.432 C  
HETATM   39  F   UNL     1      -9.440  12.615  63.851  1.00  0.00    -0.075 F  
HETATM   40  F   UNL     1     -11.606  12.363  63.812  1.00  0.00    -0.385 F  
HETATM   41  C   UNL     1     -10.584  12.826  64.555  1.00  0.00    -0.360 C  
HETATM   42  F   UNL     1     -10.482  12.041  65.662  1.00  0.00    -0.255 F  
ENDBRANCH   6  38
TORSDOF 4
ENDMDL
MODEL       68
REMARK 921   NORMALIZED FREE ENERGY PREDICTED BY IDOCK:   -5.42 KCAL/MOL
REMARK 922        TOTAL FREE ENERGY PREDICTED BY IDOCK:   -8.28 KCAL/MOL
REMARK 923 INTER-LIGAND FREE ENERGY PREDICTED BY IDOCK:   -7.15 KCAL/MOL
REMARK 924 INTRA-LIGAND FREE ENERGY PREDICTED BY IDOCK:   -1.12 KCAL/MOL
REMARK 927      BINDING AFFINITY PREDICTED BY RF-SCORE:    0.00 PKD
ROOT
HETATM    1  C   UNL     1     -10.902  15.427  67.210  1.00  0.00    -0.316 C  
HETATM    2  C   UNL     1     -10.830  14.137  66.380  1.00  0.00    -0.304 C  
HETATM    3  C   UNL     1     -11.985  13.161  66.748  1.00  0.00    -0.434 C  
HETATM    4  C   UNL     1     -11.955  11.976  65.762  1.00  0.00    -0.140 C  
HETATM    5  O   UNL     1      -8.349  11.962  65.029  1.00  0.00     0.815 OA 
HETATM    6  N   UNL     1      -9.536  13.429  66.331  1.00  0.00    -0.272 N  
HETATM    7  C   UNL     1     -10.594  11.284  65.664  1.00  0.00    -0.244 C  
HETATM    8  C   UNL     1      -9.426  12.282  65.532  1.00  0.00    -0.017 C  
ENDROOT
BRANCH   3   9
HETATM    9  C   UNL     1     -12.071  12.741  68.215  1.00  0.00    -0.152 A  
HETATM   10  C   UNL     1     -12.034  13.357  70.573  1.00  0.00    -0.332 A  
HETATM   11  C   UNL     1     -12.022  13.717  69.220  1.00  0.00    -0.399 A  
HETATM   12  C   UNL     1     -12.158  11.403  68.625  1.00  0.00    -0.214 A  
HETATM   13  C   UNL     1     -12.156  11.037  69.970  1.00  0.00    -0.441 A  
HETATM   14  C   UNL     1     -12.096  12.016  70.948  1.00  0.00    -0.203 A  
ENDBRANCH   3   9
BRANCH   7  15
HETATM   15  N   UNL     1     -10.261  10.472  66.837  1.00  0.00    -0.220 N  
HETATM   16  H   UNL     1     -10.459  10.860  67.759  1.00  0.00     0.000 HD 
HETATM   17  C   UNL     1      -9.697   9.220  66.773  1.00  0.00    -0.200 C  
HETATM   18  O   UNL     1      -9.383   8.677  65.721  1.00  0.00    -0.214 OA 
BRANCH  17  19
HETATM   19  C   UNL     1      -9.486   8.523  68.073  1.00  0.00    -0.154 A  
HETATM   20  N   UNL     1      -7.877   7.671  69.701  1.00  0.00    -0.106 NA 
HETATM   21  C   UNL     1      -8.188   8.326  68.542  1.00  0.00    -0.131 A  
HETATM   22  C   UNL     1      -8.919   7.149  70.368  1.00  0.00    -0.155 A  
HETATM   23  C   UNL     1      -8.801   6.421  71.678  1.00  0.00    -0.136 C  
HETATM   24  C   UNL     1     -10.214   5.829  71.874  1.00  0.00    -0.246 C  
HETATM   25  C   UNL     1     -11.156   6.427  70.800  1.00  0.00    -0.365 C  
HETATM   26  C   UNL     1     -10.776   6.183  73.275  1.00  0.00    -0.260 C  
HETATM   27  O   UNL     1     -10.963   7.299  73.722  1.00  0.00    -0.255 OA 
HETATM   28  C   UNL     1     -10.229   7.237  69.950  1.00  0.00    -0.210 A  
HETATM   29  N   UNL     1     -11.062   4.998  73.924  1.00  0.00    -0.355 N  
HETATM   30  C   UNL     1     -10.719   3.905  73.162  1.00  0.00    -0.181 A  
HETATM   31  C   UNL     1     -10.536   7.979  68.821  1.00  0.00    -0.196 A  
HETATM   32  H   UNL     1     -11.476   4.941  74.854  1.00  0.00     0.000 HD 
HETATM   33  N   UNL     1     -10.834   2.640  73.571  1.00  0.00    -0.178 NA 
HETATM   34  C   UNL     1     -10.388   1.722  72.683  1.00  0.00    -0.149 A  
HETATM   35  C   UNL     1      -9.857   2.031  71.429  1.00  0.00    -0.184 A  
HETATM   36  C   UNL     1      -9.767   3.368  71.038  1.00  0.00    -0.216 A  
HETATM   37  C   UNL     1     -10.214   4.320  71.936  1.00  0.00    -0.200 A  
ENDBRANCH  17  19
ENDBRANCH   7  15
BRANCH   6  38
HETATM   38  C   UNL     1      -8.260  14.011  66.802  1.00  0.00     0.200 C  
HETATM   39  F   UNL     1      -7.954  14.795  69.033  1.00  0.00    -0.134 F  
HETATM   40  F   UNL     1      -6.684  13.137  68.406  1.00  0.00    -0.071 F  
HETATM   41  C   UNL     1      -7.913  13.669  68.273  1.00  0.00    -0.150 C  
HETATM   42  F   UNL     1      -8.803  12.812  68.842  1.00  0.00    -0.035 F  
ENDBRANCH   6  38
TORSDOF 4
ENDMDL
MODEL       69
REMARK 921   NORMALIZED FREE ENERGY PREDICTED BY IDOCK:   -5.41 KCAL/MOL
REMARK 922        TOTAL FREE ENERGY PREDICTED BY IDOCK:   -8.26 KCAL/MOL
REMARK 923 INTER-LIGAND FREE ENERGY PREDICTED BY IDOCK:   -7.09 KCAL/MOL
REMARK 924 INTRA-LIGAND FREE ENERGY PREDICTED BY IDOCK:   -1.18 KCAL/MOL
REMARK 927      BINDING AFFINITY PREDICTED BY RF-SCORE:    0.00 PKD
ROOT
HETATM    1  C   UNL     1     -10.856  17.206  69.329  1.00  0.00    -0.035 C  
HETATM    2  C   UNL     1     -10.444  16.597  67.981  1.00  0.00    -0.320 C  
HETATM    3  C   UNL     1     -11.492  15.560  67.485  1.00  0.00    -0.184 C  
HETATM    4  C   UNL     1     -11.108  15.124  66.057  1.00  0.00    -0.312 C  
HETATM    5  O   UNL     1      -7.465  15.588  66.303  1.00  0.00     0.288 OA 
HETATM    6  N   UNL     1      -9.075  16.061  67.865  1.00  0.00    -0.187 N  
HETATM    7  C   UNL     1      -9.666  14.630  65.925  1.00  0.00    -0.310 C  
HETATM    8  C   UNL     1      -8.652  15.554  66.629  1.00  0.00    -0.290 C  
ENDROOT
BRANCH   3   9
HETATM    9  C   UNL     1     -11.786  14.394  68.427  1.00  0.00    -0.354 A  
HETATM   10  C   UNL     1     -12.047  13.557  70.701  1.00  0.00    -0.386 A  
HETATM   11  C   UNL     1     -11.843  14.617  69.810  1.00  0.00    -0.366 A  
HETATM   12  C   UNL     1     -11.968  13.076  67.983  1.00  0.00    -0.335 A  
HETATM   13  C   UNL     1     -12.157  12.014  68.866  1.00  0.00    -0.201 A  
HETATM   14  C   UNL     1     -12.199  12.254  70.229  1.00  0.00    -0.342 A  
ENDBRANCH   3   9
BRANCH   7  15
HETATM   15  N   UNL     1      -9.441  13.309  66.518  1.00  0.00    -0.301 N  
HETATM   16  H   UNL     1      -9.078  13.267  67.470  1.00  0.00     0.000 HD 
HETATM   17  C   UNL     1      -9.688  12.121  65.871  1.00  0.00    -0.239 C  
HETATM   18  O   UNL     1     -10.086  12.056  64.715  1.00  0.00    -0.261 OA 
BRANCH  17  19
HETATM   19  C   UNL     1      -9.453  10.878  66.659  1.00  0.00    -0.204 A  
HETATM   20  N   UNL     1      -9.816   8.470  66.839  1.00  0.00    -0.217 NA 
HETATM   21  C   UNL     1      -9.943   9.662  66.184  1.00  0.00    -0.276 A  
HETATM   22  C   UNL     1      -9.226   8.531  68.043  1.00  0.00    -0.136 A  
HETATM   23  C   UNL     1      -8.958   7.334  68.913  1.00  0.00    -0.133 C  
HETATM   24  C   UNL     1      -8.509   7.968  70.248  1.00  0.00    -0.127 C  
HETATM   25  C   UNL     1      -8.306   9.489  70.031  1.00  0.00    -0.192 C  
HETATM   26  C   UNL     1      -7.169   7.357  70.731  1.00  0.00    -0.068 C  
HETATM   27  O   UNL     1      -6.107   7.370  70.134  1.00  0.00    -0.024 OA 
HETATM   28  C   UNL     1      -8.767   9.695  68.624  1.00  0.00    -0.124 A  
HETATM   29  N   UNL     1      -7.381   6.816  71.983  1.00  0.00    -0.087 N  
HETATM   30  C   UNL     1      -8.694   6.942  72.376  1.00  0.00    -0.126 A  
HETATM   31  C   UNL     1      -8.824  10.880  67.909  1.00  0.00    -0.134 A  
HETATM   32  H   UNL     1      -6.655   6.376  72.547  1.00  0.00     0.000 HD 
HETATM   33  N   UNL     1      -9.186   6.455  73.516  1.00  0.00    -0.131 NA 
HETATM   34  C   UNL     1     -10.515   6.645  73.679  1.00  0.00    -0.330 A  
HETATM   35  C   UNL     1     -11.337   7.302  72.759  1.00  0.00    -0.318 A  
HETATM   36  C   UNL     1     -10.776   7.807  71.585  1.00  0.00    -0.257 A  
HETATM   37  C   UNL     1      -9.418   7.617  71.400  1.00  0.00    -0.166 A  
ENDBRANCH  17  19
ENDBRANCH   7  15
BRANCH   6  38
HETATM   38  C   UNL     1      -8.006  16.306  68.860  1.00  0.00    -0.230 C  
HETATM   39  F   UNL     1      -7.888  15.132  70.933  1.00  0.00     0.630 F  
HETATM   40  F   UNL     1      -6.213  14.853  69.564  1.00  0.00    -0.098 F  
HETATM   41  C   UNL     1      -7.545  15.036  69.621  1.00  0.00    -0.140 C  
HETATM   42  F   UNL     1      -8.144  13.901  69.168  1.00  0.00    -0.067 F  
ENDBRANCH   6  38
TORSDOF 4
ENDMDL
MODEL       70
REMARK 921   NORMALIZED FREE ENERGY PREDICTED BY IDOCK:   -5.31 KCAL/MOL
REMARK 922        TOTAL FREE ENERGY PREDICTED BY IDOCK:   -8.15 KCAL/MOL
REMARK 923 INTER-LIGAND FREE ENERGY PREDICTED BY IDOCK:   -7.00 KCAL/MOL
REMARK 924 INTRA-LIGAND FREE ENERGY PREDICTED BY IDOCK:   -1.14 KCAL/MOL
REMARK 927      BINDING AFFINITY PREDICTED BY RF-SCORE:    0.00 PKD
ROOT
HETATM    1  C   UNL     1     -11.910   5.159  72.812  1.00  0.00    -0.116 C  
HETATM    2  C   UNL     1     -10.566   5.834  73.120  1.00  0.00    -0.244 C  
HETATM    3  C   UNL     1     -10.737   7.368  73.326  1.00  0.00    -0.441 C  
HETATM    4  C   UNL     1      -9.390   7.948  73.802  1.00  0.00    -0.212 C  
HETATM    5  O   UNL     1      -7.143   5.534  72.171  1.00  0.00    -0.081 OA 
HETATM    6  N   UNL     1      -9.435   5.546  72.218  1.00  0.00    -0.145 N  
HETATM    7  C   UNL     1      -8.207   7.593  72.900  1.00  0.00    -0.120 C  
HETATM    8  C   UNL     1      -8.181   6.101  72.510  1.00  0.00    -0.108 C  
ENDROOT
BRANCH   3   9
HETATM    9  C   UNL     1     -11.365   8.138  72.166  1.00  0.00    -0.399 A  
HETATM   10  C   UNL     1     -11.504   8.567  69.771  1.00  0.00     0.241 A  
HETATM   11  C   UNL     1     -10.993   7.835  70.849  1.00  0.00    -0.260 A  
HETATM   12  C   UNL     1     -12.285   9.181  72.348  1.00  0.00    -0.263 A  
HETATM   13  C   UNL     1     -12.787   9.923  71.280  1.00  0.00    -0.486 A  
HETATM   14  C   UNL     1     -12.398   9.615  69.987  1.00  0.00     0.312 A  
ENDBRANCH   3   9
BRANCH   7  15
HETATM   15  N   UNL     1      -8.203   8.313  71.624  1.00  0.00    -0.125 N  
HETATM   16  H   UNL     1      -8.986   8.162  70.988  1.00  0.00     0.000 HD 
HETATM   17  C   UNL     1      -7.211   9.178  71.230  1.00  0.00    -0.035 C  
HETATM   18  O   UNL     1      -6.208   9.401  71.898  1.00  0.00    -0.249 OA 
BRANCH  17  19
HETATM   19  C   UNL     1      -7.412   9.863  69.921  1.00  0.00    -0.156 A  
HETATM   20  N   UNL     1      -6.369  10.846  67.944  1.00  0.00    -0.057 NA 
HETATM   21  C   UNL     1      -6.304  10.189  69.141  1.00  0.00    -0.044 A  
HETATM   22  C   UNL     1      -7.596  11.236  67.564  1.00  0.00    -0.110 A  
HETATM   23  C   UNL     1      -7.894  11.941  66.270  1.00  0.00     0.275 C  
HETATM   24  C   UNL     1      -9.368  12.371  66.440  1.00  0.00    -0.219 C  
HETATM   25  C   UNL     1      -9.937  11.698  67.714  1.00  0.00    -0.191 C  
HETATM   26  C   UNL     1     -10.221  11.924  65.225  1.00  0.00    -0.272 C  
HETATM   27  O   UNL     1     -10.388  10.784  64.834  1.00  0.00    -0.312 OA 
HETATM   28  C   UNL     1      -8.742  11.016  68.299  1.00  0.00    -0.144 A  
HETATM   29  N   UNL     1     -10.791  13.054  64.674  1.00  0.00    -0.333 N  
HETATM   30  C   UNL     1     -10.392  14.197  65.330  1.00  0.00    -0.388 A  
HETATM   31  C   UNL     1      -8.670  10.271  69.465  1.00  0.00    -0.155 A  
HETATM   32  H   UNL     1     -11.429  13.044  63.879  1.00  0.00     0.000 HD 
HETATM   33  N   UNL     1     -10.746  15.431  64.969  1.00  0.00    -0.433 NA 
HETATM   34  C   UNL     1     -10.197  16.414  65.719  1.00  0.00    -0.348 A  
HETATM   35  C   UNL     1      -9.336  16.194  66.798  1.00  0.00    -0.255 A  
HETATM   36  C   UNL     1      -9.002  14.885  67.147  1.00  0.00    -0.230 A  
HETATM   37  C   UNL     1      -9.552  13.868  66.387  1.00  0.00    -0.292 A  
ENDBRANCH  17  19
ENDBRANCH   7  15
BRANCH   6  38
HETATM   38  C   UNL     1      -9.439   4.462  71.210  1.00  0.00    -0.157 C  
HETATM   39  F   UNL     1      -7.949   2.603  71.321  1.00  0.00    -0.045 F  
HETATM   40  F   UNL     1     -10.078   2.149  71.460  1.00  0.00    -0.224 F  
HETATM   41  C   UNL     1      -9.141   3.056  71.792  1.00  0.00    -0.100 C  
HETATM   42  F   UNL     1      -9.021   3.058  73.147  1.00  0.00    -0.080 F  
ENDBRANCH   6  38
TORSDOF 4
ENDMDL
MODEL       71
REMARK 921   NORMALIZED FREE ENERGY PREDICTED BY IDOCK:   -5.28 KCAL/MOL
REMARK 922        TOTAL FREE ENERGY PREDICTED BY IDOCK:   -8.11 KCAL/MOL
REMARK 923 INTER-LIGAND FREE ENERGY PREDICTED BY IDOCK:   -6.95 KCAL/MOL
REMARK 924 INTRA-LIGAND FREE ENERGY PREDICTED BY IDOCK:   -1.16 KCAL/MOL
REMARK 927      BINDING AFFINITY PREDICTED BY RF-SCORE:    0.00 PKD
ROOT
HETATM    1  C   UNL     1     -10.000  14.252  69.440  1.00  0.00     0.163 C  
HETATM    2  C   UNL     1     -10.257  13.489  68.132  1.00  0.00    -0.249 C  
HETATM    3  C   UNL     1     -11.569  12.655  68.211  1.00  0.00    -0.377 C  
HETATM    4  C   UNL     1     -11.853  12.062  66.817  1.00  0.00    -0.244 C  
HETATM    5  O   UNL     1      -8.386  11.795  65.614  1.00  0.00     0.228 OA 
HETATM    6  N   UNL     1      -9.150  12.680  67.586  1.00  0.00    -0.183 N  
HETATM    7  C   UNL     1     -10.681  11.279  66.223  1.00  0.00    -0.257 C  
HETATM    8  C   UNL     1      -9.337  12.022  66.362  1.00  0.00    -0.228 C  
ENDROOT
BRANCH   3   9
HETATM    9  C   UNL     1     -11.652  11.634  69.345  1.00  0.00    -0.392 A  
HETATM   10  C   UNL     1     -12.856  10.728  71.260  1.00  0.00    -0.540 A  
HETATM   11  C   UNL     1     -12.782  11.609  70.174  1.00  0.00     0.022 A  
HETATM   12  C   UNL     1     -10.623  10.727  69.636  1.00  0.00    -0.222 A  
HETATM   13  C   UNL     1     -10.685   9.857  70.723  1.00  0.00    -0.350 A  
HETATM   14  C   UNL     1     -11.806   9.855  71.537  1.00  0.00    -0.445 A  
ENDBRANCH   3   9
BRANCH   7  15
HETATM   15  N   UNL     1     -10.457   9.980  66.863  1.00  0.00    -0.233 N  
HETATM   16  H   UNL     1     -10.701   9.884  67.849  1.00  0.00     0.000 HD 
HETATM   17  C   UNL     1      -9.940   8.882  66.218  1.00  0.00    -0.266 C  
HETATM   18  O   UNL     1      -9.579   8.898  65.047  1.00  0.00     0.086 OA 
BRANCH  17  19
HETATM   19  C   UNL     1      -9.842   7.629  67.020  1.00  0.00    -0.282 A  
HETATM   20  N   UNL     1     -10.695   5.375  67.408  1.00  0.00    -0.157 NA 
HETATM   21  C   UNL     1     -10.676   6.555  66.718  1.00  0.00    -0.273 A  
HETATM   22  C   UNL     1      -9.881   5.315  68.473  1.00  0.00    -0.152 A  
HETATM   23  C   UNL     1      -9.724   4.100  69.347  1.00  0.00    -0.233 C  
HETATM   24  C   UNL     1      -8.890   4.632  70.533  1.00  0.00    -0.141 C  
HETATM   25  C   UNL     1      -8.396   6.060  70.192  1.00  0.00    -0.120 C  
HETATM   26  C   UNL     1      -7.654   3.732  70.791  1.00  0.00    -0.041 C  
HETATM   27  O   UNL     1      -6.756   3.489  70.006  1.00  0.00    -0.033 OA 
HETATM   28  C   UNL     1      -9.067   6.347  68.887  1.00  0.00    -0.129 A  
HETATM   29  N   UNL     1      -7.733   3.273  72.090  1.00  0.00    -0.057 N  
HETATM   30  C   UNL     1      -8.880   3.707  72.715  1.00  0.00    -0.093 A  
HETATM   31  C   UNL     1      -8.995   7.503  68.127  1.00  0.00    -0.129 A  
HETATM   32  H   UNL     1      -7.028   2.685  72.533  1.00  0.00     0.000 HD 
HETATM   33  N   UNL     1      -9.235   3.364  73.954  1.00  0.00    -0.089 NA 
HETATM   34  C   UNL     1     -10.429   3.860  74.353  1.00  0.00    -0.216 A  
HETATM   35  C   UNL     1     -11.245   4.677  73.566  1.00  0.00    -0.400 A  
HETATM   36  C   UNL     1     -10.828   5.021  72.280  1.00  0.00    -0.207 A  
HETATM   37  C   UNL     1      -9.611   4.518  71.855  1.00  0.00    -0.211 A  
ENDBRANCH  17  19
ENDBRANCH   7  15
BRANCH   6  38
HETATM   38  C   UNL     1      -7.752  12.767  68.063  1.00  0.00    -0.137 C  
HETATM   39  F   UNL     1      -6.962  11.538  69.949  1.00  0.00    -0.113 F  
HETATM   40  F   UNL     1      -6.022  11.085  68.035  1.00  0.00    -0.049 F  
HETATM   41  C   UNL     1      -7.187  11.432  68.613  1.00  0.00    -0.100 C  
HETATM   42  F   UNL     1      -8.052  10.391  68.469  1.00  0.00    -0.099 F  
ENDBRANCH   6  38
TORSDOF 4
ENDMDL
MODEL       72
REMARK 921   NORMALIZED FREE ENERGY PREDICTED BY IDOCK:   -5.22 KCAL/MOL
REMARK 922        TOTAL FREE ENERGY PREDICTED BY IDOCK:   -8.04 KCAL/MOL
REMARK 923 INTER-LIGAND FREE ENERGY PREDICTED BY IDOCK:   -6.63 KCAL/MOL
REMARK 924 INTRA-LIGAND FREE ENERGY PREDICTED BY IDOCK:   -1.40 KCAL/MOL
REMARK 927      BINDING AFFINITY PREDICTED BY RF-SCORE:    0.00 PKD
ROOT
HETATM    1  C   UNL     1      -6.799   2.269  65.482  1.00  0.00    -0.036 C  
HETATM    2  C   UNL     1      -6.816   3.366  64.407  1.00  0.00    -0.044 C  
HETATM    3  C   UNL     1      -5.680   4.404  64.640  1.00  0.00    -0.014 C  
HETATM    4  C   UNL     1      -5.647   5.367  63.436  1.00  0.00    -0.014 C  
HETATM    5  O   UNL     1      -9.204   5.209  62.506  1.00  0.00    -0.046 OA 
HETATM    6  N   UNL     1      -8.101   4.041  64.142  1.00  0.00    -0.089 N  
HETATM    7  C   UNL     1      -6.996   6.016  63.121  1.00  0.00    -0.045 C  
HETATM    8  C   UNL     1      -8.159   5.003  63.125  1.00  0.00    -0.099 C  
ENDROOT
BRANCH   3   9
HETATM    9  C   UNL     1      -5.678   5.110  65.995  1.00  0.00    -0.018 A  
HETATM   10  C   UNL     1      -6.324   5.129  68.344  1.00  0.00    -0.036 A  
HETATM   11  C   UNL     1      -6.254   4.480  67.106  1.00  0.00    -0.036 A  
HETATM   12  C   UNL     1      -5.156   6.397  66.187  1.00  0.00    -0.013 A  
HETATM   13  C   UNL     1      -5.234   7.054  67.414  1.00  0.00    -0.012 A  
HETATM   14  C   UNL     1      -5.818   6.419  68.497  1.00  0.00    -0.020 A  
ENDBRANCH   3   9
BRANCH   7  15
HETATM   15  N   UNL     1      -7.393   7.044  64.086  1.00  0.00    -0.083 N  
HETATM   16  H   UNL     1      -7.254   6.849  65.078  1.00  0.00     0.000 HD 
HETATM   17  C   UNL     1      -7.942   8.255  63.740  1.00  0.00    -0.149 C  
HETATM   18  O   UNL     1      -8.188   8.576  62.584  1.00  0.00    -0.175 OA 
BRANCH  17  19
HETATM   19  C   UNL     1      -8.227   9.197  64.860  1.00  0.00    -0.154 A  
HETATM   20  N   UNL     1      -7.373  10.335  66.845  1.00  0.00    -0.095 NA 
HETATM   21  C   UNL     1      -7.214   9.513  65.765  1.00  0.00    -0.097 A  
HETATM   22  C   UNL     1      -8.617  10.798  67.041  1.00  0.00    -0.130 A  
HETATM   23  C   UNL     1      -9.001  11.741  68.148  1.00  0.00    -0.181 C  
HETATM   24  C   UNL     1     -10.543  11.754  68.074  1.00  0.00    -0.235 C  
HETATM   25  C   UNL     1     -10.985  11.013  66.787  1.00  0.00    -0.279 C  
HETATM   26  C   UNL     1     -11.085  13.206  68.016  1.00  0.00    -0.263 C  
HETATM   27  O   UNL     1     -10.835  14.041  67.166  1.00  0.00    -0.281 OA 
HETATM   28  C   UNL     1      -9.695  10.490  66.239  1.00  0.00    -0.254 A  
HETATM   29  N   UNL     1     -11.934  13.381  69.090  1.00  0.00    -0.327 N  
HETATM   30  C   UNL     1     -11.991  12.256  69.882  1.00  0.00    -0.306 A  
HETATM   31  C   UNL     1      -9.499   9.728  65.099  1.00  0.00    -0.338 A  
HETATM   32  H   UNL     1     -12.454  14.238  69.274  1.00  0.00     0.000 HD 
HETATM   33  N   UNL     1     -12.689  12.172  71.015  1.00  0.00    -0.294 NA 
HETATM   34  C   UNL     1     -12.563  10.992  71.665  1.00  0.00    -0.297 A  
HETATM   35  C   UNL     1     -11.786   9.923  71.213  1.00  0.00    -0.472 A  
HETATM   36  C   UNL     1     -11.081  10.051  70.014  1.00  0.00    -0.350 A  
HETATM   37  C   UNL     1     -11.196  11.254  69.340  1.00  0.00    -0.345 A  
ENDBRANCH  17  19
ENDBRANCH   7  15
BRANCH   6  38
HETATM   38  C   UNL     1      -9.406   3.557  64.645  1.00  0.00    -0.150 C  
HETATM   39  F   UNL     1      -9.940   3.490  66.969  1.00  0.00    -0.204 F  
HETATM   40  F   UNL     1     -11.177   4.787  65.727  1.00  0.00    -0.310 F  
HETATM   41  C   UNL     1      -9.927   4.318  65.891  1.00  0.00    -0.219 C  
HETATM   42  F   UNL     1      -9.131   5.364  66.244  1.00  0.00    -0.127 F  
ENDBRANCH   6  38
TORSDOF 4
ENDMDL
MODEL       73
REMARK 921   NORMALIZED FREE ENERGY PREDICTED BY IDOCK:   -5.20 KCAL/MOL
REMARK 922        TOTAL FREE ENERGY PREDICTED BY IDOCK:   -8.01 KCAL/MOL
REMARK 923 INTER-LIGAND FREE ENERGY PREDICTED BY IDOCK:   -7.04 KCAL/MOL
REMARK 924 INTRA-LIGAND FREE ENERGY PREDICTED BY IDOCK:   -0.97 KCAL/MOL
REMARK 927      BINDING AFFINITY PREDICTED BY RF-SCORE:    0.00 PKD
ROOT
HETATM    1  C   UNL     1     -11.236  17.503  67.186  1.00  0.00     0.406 C  
HETATM    2  C   UNL     1      -9.874  16.842  67.442  1.00  0.00    -0.261 C  
HETATM    3  C   UNL     1      -9.478  15.890  66.277  1.00  0.00    -0.350 C  
HETATM    4  C   UNL     1      -8.035  15.403  66.514  1.00  0.00     0.074 C  
HETATM    5  O   UNL     1      -7.999  15.561  70.190  1.00  0.00     0.137 OA 
HETATM    6  N   UNL     1      -9.667  16.190  68.749  1.00  0.00    -0.222 N  
HETATM    7  C   UNL     1      -7.806  14.786  67.895  1.00  0.00    -0.137 C  
HETATM    8  C   UNL     1      -8.413  15.632  69.033  1.00  0.00    -0.231 C  
ENDROOT
BRANCH   3   9
HETATM    9  C   UNL     1     -10.465  14.767  65.959  1.00  0.00    -0.312 A  
HETATM   10  C   UNL     1     -11.592  13.378  64.304  1.00  0.00    -0.442 A  
HETATM   11  C   UNL     1     -10.649  14.359  64.631  1.00  0.00    -0.331 A  
HETATM   12  C   UNL     1     -11.243  14.132  66.938  1.00  0.00    -0.326 A  
HETATM   13  C   UNL     1     -12.194  13.164  66.618  1.00  0.00    -0.331 A  
HETATM   14  C   UNL     1     -12.368  12.784  65.298  1.00  0.00    -0.546 A  
ENDBRANCH   3   9
BRANCH   7  15
HETATM   15  N   UNL     1      -8.408  13.460  68.054  1.00  0.00    -0.154 N  
HETATM   16  H   UNL     1      -9.417  13.375  67.933  1.00  0.00     0.000 HD 
HETATM   17  C   UNL     1      -7.698  12.323  68.357  1.00  0.00    -0.141 C  
HETATM   18  O   UNL     1      -6.491  12.318  68.563  1.00  0.00    -0.056 OA 
BRANCH  17  19
HETATM   19  C   UNL     1      -8.478  11.054  68.420  1.00  0.00    -0.144 A  
HETATM   20  N   UNL     1     -10.475   9.917  69.245  1.00  0.00    -0.208 NA 
HETATM   21  C   UNL     1      -9.696  11.030  69.096  1.00  0.00    -0.076 A  
HETATM   22  C   UNL     1      -9.964   8.782  68.742  1.00  0.00    -0.185 A  
HETATM   23  C   UNL     1     -10.671   7.455  68.769  1.00  0.00    -0.145 C  
HETATM   24  C   UNL     1      -9.576   6.469  68.304  1.00  0.00    -0.131 C  
HETATM   25  C   UNL     1      -8.357   7.283  67.801  1.00  0.00    -0.118 C  
HETATM   26  C   UNL     1     -10.086   5.578  67.143  1.00  0.00    -0.188 C  
HETATM   27  O   UNL     1     -10.488   5.958  66.058  1.00  0.00     0.036 OA 
HETATM   28  C   UNL     1      -8.740   8.694  68.114  1.00  0.00    -0.142 A  
HETATM   29  N   UNL     1      -9.975   4.262  67.543  1.00  0.00    -0.103 N  
HETATM   30  C   UNL     1      -9.506   4.160  68.833  1.00  0.00    -0.169 A  
HETATM   31  C   UNL     1      -8.004   9.847  67.893  1.00  0.00    -0.104 A  
HETATM   32  H   UNL     1     -10.212   3.463  66.955  1.00  0.00     0.000 HD 
HETATM   33  N   UNL     1      -9.359   3.008  69.489  1.00  0.00    -0.152 NA 
HETATM   34  C   UNL     1      -8.934   3.141  70.766  1.00  0.00    -0.098 A  
HETATM   35  C   UNL     1      -8.651   4.363  71.380  1.00  0.00    -0.125 A  
HETATM   36  C   UNL     1      -8.807   5.544  70.651  1.00  0.00    -0.142 A  
HETATM   37  C   UNL     1      -9.246   5.426  69.344  1.00  0.00    -0.150 A  
ENDBRANCH  17  19
ENDBRANCH   7  15
BRANCH   6  38
HETATM   38  C   UNL     1     -10.573  16.359  69.907  1.00  0.00    -0.245 C  
HETATM   39  F   UNL     1     -12.667  15.229  70.073  1.00  0.00    -0.354 F  
HETATM   40  F   UNL     1     -11.191  14.764  71.608  1.00  0.00    -0.358 F  
HETATM   41  C   UNL     1     -11.337  15.071  70.307  1.00  0.00    -0.263 C  
HETATM   42  F   UNL     1     -10.964  13.985  69.576  1.00  0.00    -0.251 F  
ENDBRANCH   6  38
TORSDOF 4
ENDMDL
MODEL       74
REMARK 921   NORMALIZED FREE ENERGY PREDICTED BY IDOCK:   -5.14 KCAL/MOL
REMARK 922        TOTAL FREE ENERGY PREDICTED BY IDOCK:   -7.93 KCAL/MOL
REMARK 923 INTER-LIGAND FREE ENERGY PREDICTED BY IDOCK:   -7.00 KCAL/MOL
REMARK 924 INTRA-LIGAND FREE ENERGY PREDICTED BY IDOCK:   -0.93 KCAL/MOL
REMARK 927      BINDING AFFINITY PREDICTED BY RF-SCORE:    0.00 PKD
ROOT
HETATM    1  C   UNL     1      -7.633  17.792  68.654  1.00  0.00    -0.276 C  
HETATM    2  C   UNL     1      -8.921  16.971  68.810  1.00  0.00    -0.249 C  
HETATM    3  C   UNL     1      -8.683  15.706  69.685  1.00  0.00    -0.100 C  
HETATM    4  C   UNL     1     -10.044  15.030  69.944  1.00  0.00    -0.065 C  
HETATM    5  O   UNL     1     -11.770  16.070  66.864  1.00  0.00     0.348 OA 
HETATM    6  N   UNL     1      -9.666  16.631  67.583  1.00  0.00    -0.247 N  
HETATM    7  C   UNL     1     -10.845  14.738  68.673  1.00  0.00    -0.253 C  
HETATM    8  C   UNL     1     -10.876  15.934  67.700  1.00  0.00    -0.312 C  
ENDROOT
BRANCH   3   9
HETATM    9  C   UNL     1      -7.599  14.745  69.200  1.00  0.00    -0.151 A  
HETATM   10  C   UNL     1      -5.483  13.604  69.602  1.00  0.00    -0.091 A  
HETATM   11  C   UNL     1      -6.523  14.431  70.043  1.00  0.00    -0.146 A  
HETATM   12  C   UNL     1      -7.596  14.177  67.919  1.00  0.00    -0.162 A  
HETATM   13  C   UNL     1      -6.556  13.364  67.469  1.00  0.00    -0.143 A  
HETATM   14  C   UNL     1      -5.497  13.075  68.313  1.00  0.00    -0.078 A  
ENDBRANCH   3   9
BRANCH   7  15
HETATM   15  N   UNL     1     -10.308  13.627  67.882  1.00  0.00    -0.243 N  
HETATM   16  H   UNL     1      -9.294  13.525  67.828  1.00  0.00     0.000 HD 
HETATM   17  C   UNL     1     -11.084  12.714  67.209  1.00  0.00    -0.278 C  
HETATM   18  O   UNL     1     -12.307  12.767  67.175  1.00  0.00    -0.357 OA 
BRANCH  17  19
HETATM   19  C   UNL     1     -10.357  11.618  66.507  1.00  0.00    -0.259 A  
HETATM   20  N   UNL     1     -10.062  10.355  64.439  1.00  0.00    -0.326 NA 
HETATM   21  C   UNL     1     -10.641  11.354  65.168  1.00  0.00    -0.293 A  
HETATM   22  C   UNL     1      -9.213   9.563  65.114  1.00  0.00    -0.244 A  
HETATM   23  C   UNL     1      -8.445   8.428  64.494  1.00  0.00    -0.078 C  
HETATM   24  C   UNL     1      -7.834   7.713  65.719  1.00  0.00    -0.106 C  
HETATM   25  C   UNL     1      -8.071   8.589  66.974  1.00  0.00    -0.103 C  
HETATM   26  C   UNL     1      -6.307   7.512  65.540  1.00  0.00    -0.041 C  
HETATM   27  O   UNL     1      -5.473   8.384  65.380  1.00  0.00    -0.035 OA 
HETATM   28  C   UNL     1      -8.918   9.706  66.452  1.00  0.00    -0.179 A  
HETATM   29  N   UNL     1      -6.049   6.159  65.628  1.00  0.00    -0.032 N  
HETATM   30  C   UNL     1      -7.205   5.429  65.791  1.00  0.00    -0.069 A  
HETATM   31  C   UNL     1      -9.445  10.777  67.155  1.00  0.00    -0.180 A  
HETATM   32  H   UNL     1      -5.117   5.750  65.577  1.00  0.00     0.000 HD 
HETATM   33  N   UNL     1      -7.250   4.097  65.845  1.00  0.00    -0.067 NA 
HETATM   34  C   UNL     1      -8.497   3.583  65.955  1.00  0.00    -0.112 A  
HETATM   35  C   UNL     1      -9.663   4.350  66.021  1.00  0.00    -0.218 A  
HETATM   36  C   UNL     1      -9.567   5.741  65.973  1.00  0.00    -0.079 A  
HETATM   37  C   UNL     1      -8.299   6.284  65.856  1.00  0.00    -0.142 A  
ENDBRANCH  17  19
ENDBRANCH   7  15
BRANCH   6  38
HETATM   38  C   UNL     1      -9.402  17.244  66.261  1.00  0.00    -0.223 C  
HETATM   39  F   UNL     1     -10.969  18.678  65.177  1.00  0.00    -0.421 F  
HETATM   40  F   UNL     1      -9.045  19.562  65.698  1.00  0.00    -0.234 F  
HETATM   41  C   UNL     1      -9.974  18.676  66.102  1.00  0.00    -0.330 C  
HETATM   42  F   UNL     1     -10.537  19.152  67.246  1.00  0.00    -0.426 F  
ENDBRANCH   6  38
TORSDOF 4
ENDMDL
MODEL       75
REMARK 921   NORMALIZED FREE ENERGY PREDICTED BY IDOCK:   -5.12 KCAL/MOL
REMARK 922        TOTAL FREE ENERGY PREDICTED BY IDOCK:   -7.91 KCAL/MOL
REMARK 923 INTER-LIGAND FREE ENERGY PREDICTED BY IDOCK:   -6.57 KCAL/MOL
REMARK 924 INTRA-LIGAND FREE ENERGY PREDICTED BY IDOCK:   -1.34 KCAL/MOL
REMARK 927      BINDING AFFINITY PREDICTED BY RF-SCORE:    0.00 PKD
ROOT
HETATM    1  C   UNL     1      -8.825   6.095  65.964  1.00  0.00    -0.160 C  
HETATM    2  C   UNL     1      -7.584   6.897  66.380  1.00  0.00    -0.089 C  
HETATM    3  C   UNL     1      -7.756   7.509  67.801  1.00  0.00    -0.115 C  
HETATM    4  C   UNL     1      -6.417   8.146  68.222  1.00  0.00    -0.055 C  
HETATM    5  O   UNL     1      -5.154   9.032  64.881  1.00  0.00    -0.037 OA 
HETATM    6  N   UNL     1      -7.073   7.904  65.430  1.00  0.00    -0.059 N  
HETATM    7  C   UNL     1      -5.855   9.141  67.204  1.00  0.00    -0.046 C  
HETATM    8  C   UNL     1      -5.906   8.608  65.759  1.00  0.00    -0.047 C  
ENDROOT
BRANCH   3   9
HETATM    9  C   UNL     1      -8.964   8.424  67.999  1.00  0.00    -0.138 A  
HETATM   10  C   UNL     1     -10.504   9.556  69.511  1.00  0.00    -0.234 A  
HETATM   11  C   UNL     1      -9.364   8.773  69.297  1.00  0.00    -0.149 A  
HETATM   12  C   UNL     1      -9.737   8.913  66.937  1.00  0.00    -0.263 A  
HETATM   13  C   UNL     1     -10.881   9.682  67.144  1.00  0.00    -0.184 A  
HETATM   14  C   UNL     1     -11.266  10.007  68.434  1.00  0.00    -0.187 A  
ENDBRANCH   3   9
BRANCH   7  15
HETATM   15  N   UNL     1      -6.583  10.412  67.161  1.00  0.00    -0.072 N  
HETATM   16  H   UNL     1      -6.946  10.724  66.260  1.00  0.00     0.000 HD 
HETATM   17  C   UNL     1      -6.806  11.210  68.257  1.00  0.00    -0.068 C  
HETATM   18  O   UNL     1      -6.381  10.951  69.375  1.00  0.00    -0.053 OA 
BRANCH  17  19
HETATM   19  C   UNL     1      -7.619  12.438  68.025  1.00  0.00    -0.128 A  
HETATM   20  N   UNL     1      -9.284  13.559  66.634  1.00  0.00    -0.238 NA 
HETATM   21  C   UNL     1      -8.516  12.476  66.959  1.00  0.00    -0.161 A  
HETATM   22  C   UNL     1      -9.085  14.655  67.384  1.00  0.00    -0.197 A  
HETATM   23  C   UNL     1      -9.848  15.940  67.217  1.00  0.00    -0.234 C  
HETATM   24  C   UNL     1      -9.080  16.921  68.129  1.00  0.00    -0.231 C  
HETATM   25  C   UNL     1      -8.053  16.118  68.967  1.00  0.00    -0.237 C  
HETATM   26  C   UNL     1     -10.044  17.650  69.099  1.00  0.00    -0.232 C  
HETATM   27  O   UNL     1     -10.770  17.132  69.928  1.00  0.00    -0.135 OA 
HETATM   28  C   UNL     1      -8.177  14.733  68.417  1.00  0.00    -0.154 A  
HETATM   29  N   UNL     1      -9.913  19.007  68.880  1.00  0.00    -0.444 N  
HETATM   30  C   UNL     1      -9.027  19.275  67.862  1.00  0.00    -0.311 A  
HETATM   31  C   UNL     1      -7.470  13.601  68.790  1.00  0.00    -0.088 A  
HETATM   32  H   UNL     1     -10.411  19.722  69.409  1.00  0.00     0.000 HD 
HETATM   33  N   UNL     1      -8.757  20.499  67.405  1.00  0.00    -0.324 NA 
HETATM   34  C   UNL     1      -7.897  20.530  66.361  1.00  0.00    -0.048 A  
HETATM   35  C   UNL     1      -7.309  19.399  65.789  1.00  0.00    -0.279 A  
HETATM   36  C   UNL     1      -7.611  18.139  66.308  1.00  0.00    -0.299 A  
HETATM   37  C   UNL     1      -8.493  18.088  67.373  1.00  0.00    -0.240 A  
ENDBRANCH  17  19
ENDBRANCH   7  15
BRANCH   6  38
HETATM   38  C   UNL     1      -7.509   8.003  64.019  1.00  0.00    -0.109 C  
HETATM   39  F   UNL     1      -9.439   9.239  63.357  1.00  0.00    -0.115 F  
HETATM   40  F   UNL     1      -7.528   9.923  62.558  1.00  0.00    -0.110 F  
HETATM   41  C   UNL     1      -8.116   9.378  63.639  1.00  0.00    -0.154 C  
HETATM   42  F   UNL     1      -8.052  10.284  64.653  1.00  0.00    -0.150 F  
ENDBRANCH   6  38
TORSDOF 4
ENDMDL
MODEL       76
REMARK 921   NORMALIZED FREE ENERGY PREDICTED BY IDOCK:   -5.08 KCAL/MOL
REMARK 922        TOTAL FREE ENERGY PREDICTED BY IDOCK:   -7.87 KCAL/MOL
REMARK 923 INTER-LIGAND FREE ENERGY PREDICTED BY IDOCK:   -6.65 KCAL/MOL
REMARK 924 INTRA-LIGAND FREE ENERGY PREDICTED BY IDOCK:   -1.22 KCAL/MOL
REMARK 927      BINDING AFFINITY PREDICTED BY RF-SCORE:    0.00 PKD
ROOT
HETATM    1  C   UNL     1      -9.612  17.283  67.391  1.00  0.00    -0.252 C  
HETATM    2  C   UNL     1     -10.316  16.114  66.687  1.00  0.00    -0.296 C  
HETATM    3  C   UNL     1     -11.710  15.829  67.318  1.00  0.00     0.275 C  
HETATM    4  C   UNL     1     -12.428  14.772  66.456  1.00  0.00     0.247 C  
HETATM    5  O   UNL     1      -9.466  12.993  65.187  1.00  0.00     0.117 OA 
HETATM    6  N   UNL     1      -9.552  14.865  66.509  1.00  0.00    -0.260 N  
HETATM    7  C   UNL     1     -11.607  13.503  66.218  1.00  0.00    -0.345 C  
HETATM    8  C   UNL     1     -10.149  13.803  65.815  1.00  0.00    -0.307 C  
ENDROOT
BRANCH   3   9
HETATM    9  C   UNL     1     -11.722  15.518  68.814  1.00  0.00    -0.372 A  
HETATM   10  C   UNL     1     -10.494  15.207  70.896  1.00  0.00     0.197 A  
HETATM   11  C   UNL     1     -10.522  15.550  69.539  1.00  0.00    -0.263 A  
HETATM   12  C   UNL     1     -12.882  15.155  69.511  1.00  0.00     0.239 A  
HETATM   13  C   UNL     1     -12.858  14.799  70.859  1.00  0.00    -0.423 A  
HETATM   14  C   UNL     1     -11.661  14.827  71.555  1.00  0.00    -0.350 A  
ENDBRANCH   3   9
BRANCH   7  15
HETATM   15  N   UNL     1     -11.499  12.642  67.398  1.00  0.00    -0.316 N  
HETATM   16  H   UNL     1     -11.481  13.088  68.315  1.00  0.00     0.000 HD 
HETATM   17  C   UNL     1     -11.420  11.271  67.348  1.00  0.00    -0.221 C  
HETATM   18  O   UNL     1     -11.394  10.637  66.300  1.00  0.00     0.052 OA 
BRANCH  17  19
HETATM   19  C   UNL     1     -11.376  10.562  68.659  1.00  0.00    -0.315 A  
HETATM   20  N   UNL     1     -11.743  10.692  71.069  1.00  0.00    -0.298 NA 
HETATM   21  C   UNL     1     -11.775  11.232  69.814  1.00  0.00    -0.349 A  
HETATM   22  C   UNL     1     -11.230   9.455  71.154  1.00  0.00    -0.357 A  
HETATM   23  C   UNL     1     -11.133   8.668  72.432  1.00  0.00    -0.328 C  
HETATM   24  C   UNL     1     -10.266   7.455  72.028  1.00  0.00    -0.221 C  
HETATM   25  C   UNL     1     -10.091   7.461  70.488  1.00  0.00    -0.192 C  
HETATM   26  C   UNL     1     -10.944   6.124  72.442  1.00  0.00    -0.259 C  
HETATM   27  O   UNL     1     -12.034   5.721  72.081  1.00  0.00    -0.215 OA 
HETATM   28  C   UNL     1     -10.750   8.739  70.078  1.00  0.00    -0.236 A  
HETATM   29  N   UNL     1     -10.074   5.452  73.277  1.00  0.00    -0.170 N  
HETATM   30  C   UNL     1      -8.930   6.180  73.513  1.00  0.00    -0.124 A  
HETATM   31  C   UNL     1     -10.872   9.264  68.802  1.00  0.00    -0.123 A  
HETATM   32  H   UNL     1     -10.256   4.530  73.671  1.00  0.00     0.000 HD 
HETATM   33  N   UNL     1      -7.949   5.792  74.329  1.00  0.00    -0.104 NA 
HETATM   34  C   UNL     1      -6.940   6.685  74.457  1.00  0.00    -0.092 A  
HETATM   35  C   UNL     1      -6.888   7.915  73.797  1.00  0.00    -0.126 A  
HETATM   36  C   UNL     1      -7.931   8.274  72.943  1.00  0.00    -0.199 A  
HETATM   37  C   UNL     1      -8.973   7.375  72.804  1.00  0.00    -0.179 A  
ENDBRANCH  17  19
ENDBRANCH   7  15
BRANCH   6  38
HETATM   38  C   UNL     1      -8.092  14.754  66.723  1.00  0.00     0.072 C  
HETATM   39  F   UNL     1      -7.137  14.339  68.869  1.00  0.00    -0.091 F  
HETATM   40  F   UNL     1      -6.781  12.825  67.341  1.00  0.00    -0.123 F  
HETATM   41  C   UNL     1      -7.686  13.711  67.796  1.00  0.00    -0.164 C  
HETATM   42  F   UNL     1      -8.747  13.013  68.284  1.00  0.00    -0.172 F  
ENDBRANCH   6  38
TORSDOF 4
ENDMDL
MODEL       77
REMARK 921   NORMALIZED FREE ENERGY PREDICTED BY IDOCK:   -5.07 KCAL/MOL
REMARK 922        TOTAL FREE ENERGY PREDICTED BY IDOCK:   -7.84 KCAL/MOL
REMARK 923 INTER-LIGAND FREE ENERGY PREDICTED BY IDOCK:   -6.71 KCAL/MOL
REMARK 924 INTRA-LIGAND FREE ENERGY PREDICTED BY IDOCK:   -1.13 KCAL/MOL
REMARK 927      BINDING AFFINITY PREDICTED BY RF-SCORE:    0.00 PKD
ROOT
HETATM    1  C   UNL     1      -5.922   3.798  66.237  1.00  0.00    -0.024 C  
HETATM    2  C   UNL     1      -7.428   3.864  66.528  1.00  0.00    -0.083 C  
HETATM    3  C   UNL     1      -8.188   4.631  65.407  1.00  0.00    -0.116 C  
HETATM    4  C   UNL     1      -9.702   4.506  65.671  1.00  0.00    -0.207 C  
HETATM    5  O   UNL     1      -9.596   4.205  69.337  1.00  0.00    -0.178 OA 
HETATM    6  N   UNL     1      -7.845   4.333  67.863  1.00  0.00    -0.079 N  
HETATM    7  C   UNL     1     -10.124   4.930  67.079  1.00  0.00    -0.205 C  
HETATM    8  C   UNL     1      -9.212   4.345  68.176  1.00  0.00    -0.137 C  
ENDROOT
BRANCH   3   9
HETATM    9  C   UNL     1      -7.725   6.061  65.134  1.00  0.00    -0.095 A  
HETATM   10  C   UNL     1      -6.699   8.117  65.945  1.00  0.00    -0.049 A  
HETATM   11  C   UNL     1      -7.076   6.784  66.145  1.00  0.00    -0.066 A  
HETATM   12  C   UNL     1      -7.952   6.721  63.918  1.00  0.00    -0.069 A  
HETATM   13  C   UNL     1      -7.591   8.052  63.717  1.00  0.00    -0.129 A  
HETATM   14  C   UNL     1      -6.960   8.753  64.732  1.00  0.00    -0.073 A  
ENDBRANCH   3   9
BRANCH   7  15
HETATM   15  N   UNL     1     -10.084   6.379  67.293  1.00  0.00    -0.146 N  
HETATM   16  H   UNL     1      -9.487   6.937  66.682  1.00  0.00     0.000 HD 
HETATM   17  C   UNL     1     -10.800   7.035  68.266  1.00  0.00    -0.141 C  
HETATM   18  O   UNL     1     -11.516   6.460  69.077  1.00  0.00    -0.337 OA 
BRANCH  17  19
HETATM   19  C   UNL     1     -10.676   8.520  68.291  1.00  0.00    -0.092 A  
HETATM   20  N   UNL     1     -11.392  10.617  69.316  1.00  0.00    -0.262 NA 
HETATM   21  C   UNL     1     -11.404   9.254  69.226  1.00  0.00     0.208 A  
HETATM   22  C   UNL     1     -10.664  11.252  68.384  1.00  0.00    -0.203 A  
HETATM   23  C   UNL     1     -10.490  12.745  68.323  1.00  0.00    -0.250 C  
HETATM   24  C   UNL     1      -9.794  12.957  66.960  1.00  0.00    -0.233 C  
HETATM   25  C   UNL     1      -9.379  11.576  66.394  1.00  0.00    -0.222 C  
HETATM   26  C   UNL     1      -8.521  13.828  67.116  1.00  0.00    -0.175 C  
HETATM   27  O   UNL     1      -7.548  13.576  67.801  1.00  0.00    -0.130 OA 
HETATM   28  C   UNL     1      -9.963  10.617  67.382  1.00  0.00    -0.213 A  
HETATM   29  N   UNL     1      -8.670  14.937  66.308  1.00  0.00    -0.457 N  
HETATM   30  C   UNL     1      -9.892  14.946  65.675  1.00  0.00    -0.337 A  
HETATM   31  C   UNL     1      -9.913   9.232  67.358  1.00  0.00    -0.253 A  
HETATM   32  H   UNL     1      -7.962  15.662  66.195  1.00  0.00     0.000 HD 
HETATM   33  N   UNL     1     -10.319  15.930  64.882  1.00  0.00    -0.499 NA 
HETATM   34  C   UNL     1     -11.574  15.760  64.405  1.00  0.00    -0.240 A  
HETATM   35  C   UNL     1     -12.382  14.656  64.687  1.00  0.00    -0.390 A  
HETATM   36  C   UNL     1     -11.888  13.643  65.511  1.00  0.00    -0.382 A  
HETATM   37  C   UNL     1     -10.609  13.803  66.011  1.00  0.00    -0.290 A  
ENDBRANCH  17  19
ENDBRANCH   7  15
BRANCH   6  38
HETATM   38  C   UNL     1      -6.921   4.487  69.009  1.00  0.00    -0.051 C  
HETATM   39  F   UNL     1      -7.053   3.116  70.956  1.00  0.00    -0.031 F  
HETATM   40  F   UNL     1      -5.208   2.984  69.802  1.00  0.00    -0.006 F  
HETATM   41  C   UNL     1      -6.539   3.152  69.698  1.00  0.00    -0.033 C  
HETATM   42  F   UNL     1      -7.050   2.062  69.064  1.00  0.00    -0.038 F  
ENDBRANCH   6  38
TORSDOF 4
ENDMDL
MODEL       78
REMARK 921   NORMALIZED FREE ENERGY PREDICTED BY IDOCK:   -5.03 KCAL/MOL
REMARK 922        TOTAL FREE ENERGY PREDICTED BY IDOCK:   -7.80 KCAL/MOL
REMARK 923 INTER-LIGAND FREE ENERGY PREDICTED BY IDOCK:   -6.76 KCAL/MOL
REMARK 924 INTRA-LIGAND FREE ENERGY PREDICTED BY IDOCK:   -1.04 KCAL/MOL
REMARK 927      BINDING AFFINITY PREDICTED BY RF-SCORE:    0.00 PKD
ROOT
HETATM    1  C   UNL     1     -10.115  18.569  69.171  1.00  0.00    -0.171 C  
HETATM    2  C   UNL     1      -9.797  18.003  67.779  1.00  0.00    -0.305 C  
HETATM    3  C   UNL     1     -10.913  17.032  67.295  1.00  0.00    -0.015 C  
HETATM    4  C   UNL     1     -10.620  16.645  65.832  1.00  0.00    -0.257 C  
HETATM    5  O   UNL     1      -6.953  16.947  65.907  1.00  0.00     0.025 OA 
HETATM    6  N   UNL     1      -8.460  17.416  67.570  1.00  0.00    -0.212 N  
HETATM    7  C   UNL     1      -9.209  16.098  65.604  1.00  0.00     0.013 C  
HETATM    8  C   UNL     1      -8.123  16.948  66.292  1.00  0.00    -0.316 C  
ENDROOT
BRANCH   3   9
HETATM    9  C   UNL     1     -11.210  15.839  68.202  1.00  0.00    -0.344 A  
HETATM   10  C   UNL     1     -12.129  13.599  68.479  1.00  0.00    -0.321 A  
HETATM   11  C   UNL     1     -11.787  14.683  67.660  1.00  0.00    -0.366 A  
HETATM   12  C   UNL     1     -10.969  15.849  69.583  1.00  0.00    -0.319 A  
HETATM   13  C   UNL     1     -11.319  14.779  70.405  1.00  0.00    -0.265 A  
HETATM   14  C   UNL     1     -11.899  13.650  69.852  1.00  0.00    -0.389 A  
ENDBRANCH   3   9
BRANCH   7  15
HETATM   15  N   UNL     1      -9.012  14.744  66.129  1.00  0.00    -0.495 N  
HETATM   16  H   UNL     1      -8.425  14.632  66.955  1.00  0.00     0.000 HD 
HETATM   17  C   UNL     1      -9.569  13.615  65.577  1.00  0.00     0.054 C  
HETATM   18  O   UNL     1     -10.256  13.631  64.563  1.00  0.00    -0.402 OA 
BRANCH  17  19
HETATM   19  C   UNL     1      -9.302  12.331  66.286  1.00  0.00    -0.206 A  
HETATM   20  N   UNL     1      -8.035  11.180  68.027  1.00  0.00    -0.112 NA 
HETATM   21  C   UNL     1      -8.381  12.304  67.332  1.00  0.00    -0.177 A  
HETATM   22  C   UNL     1      -8.600  10.039  67.601  1.00  0.00    -0.118 A  
HETATM   23  C   UNL     1      -8.382   8.698  68.246  1.00  0.00    -0.127 C  
HETATM   24  C   UNL     1      -9.039   7.722  67.246  1.00  0.00    -0.147 C  
HETATM   25  C   UNL     1      -9.816   8.544  66.186  1.00  0.00    -0.227 C  
HETATM   26  C   UNL     1     -10.037   6.778  67.964  1.00  0.00    -0.159 C  
HETATM   27  O   UNL     1     -11.022   7.108  68.598  1.00  0.00    -0.144 OA 
HETATM   28  C   UNL     1      -9.472   9.956  66.537  1.00  0.00    -0.230 A  
HETATM   29  N   UNL     1      -9.629   5.480  67.731  1.00  0.00    -0.119 N  
HETATM   30  C   UNL     1      -8.467   5.436  66.995  1.00  0.00    -0.106 A  
HETATM   31  C   UNL     1      -9.880  11.117  65.899  1.00  0.00    -0.275 A  
HETATM   32  H   UNL     1     -10.128   4.655  68.063  1.00  0.00     0.000 HD 
HETATM   33  N   UNL     1      -7.822   4.312  66.678  1.00  0.00    -0.097 NA 
HETATM   34  C   UNL     1      -6.669   4.501  65.995  1.00  0.00    -0.053 A  
HETATM   35  C   UNL     1      -6.168   5.752  65.625  1.00  0.00    -0.037 A  
HETATM   36  C   UNL     1      -6.883   6.900  65.968  1.00  0.00    -0.060 A  
HETATM   37  C   UNL     1      -8.062   6.725  66.670  1.00  0.00    -0.110 A  
ENDBRANCH  17  19
ENDBRANCH   7  15
BRANCH   6  38
HETATM   38  C   UNL     1      -7.333  17.574  68.516  1.00  0.00    -0.243 C  
HETATM   39  F   UNL     1      -7.155  16.295  70.522  1.00  0.00     0.486 F  
HETATM   40  F   UNL     1      -5.564  16.024  69.055  1.00  0.00    -0.108 F  
HETATM   41  C   UNL     1      -6.884  16.252  69.191  1.00  0.00    -0.202 C  
HETATM   42  F   UNL     1      -7.548  15.163  68.717  1.00  0.00    -0.110 F  
ENDBRANCH   6  38
TORSDOF 4
ENDMDL
MODEL       79
REMARK 921   NORMALIZED FREE ENERGY PREDICTED BY IDOCK:   -5.01 KCAL/MOL
REMARK 922        TOTAL FREE ENERGY PREDICTED BY IDOCK:   -7.78 KCAL/MOL
REMARK 923 INTER-LIGAND FREE ENERGY PREDICTED BY IDOCK:   -7.20 KCAL/MOL
REMARK 924 INTRA-LIGAND FREE ENERGY PREDICTED BY IDOCK:   -0.58 KCAL/MOL
REMARK 927      BINDING AFFINITY PREDICTED BY RF-SCORE:    0.00 PKD
ROOT
HETATM    1  C   UNL     1      -9.204  15.346  65.732  1.00  0.00    -0.172 C  
HETATM    2  C   UNL     1     -10.129  14.916  66.880  1.00  0.00    -0.242 C  
HETATM    3  C   UNL     1      -9.385  14.942  68.247  1.00  0.00    -0.195 C  
HETATM    4  C   UNL     1     -10.412  14.673  69.365  1.00  0.00    -0.175 C  
HETATM    5  O   UNL     1     -12.772  12.594  67.455  1.00  0.00     0.367 OA 
HETATM    6  N   UNL     1     -10.882  13.658  66.713  1.00  0.00    -0.289 N  
HETATM    7  C   UNL     1     -11.238  13.402  69.156  1.00  0.00    -0.248 C  
HETATM    8  C   UNL     1     -11.779  13.272  67.718  1.00  0.00    -0.358 C  
ENDROOT
BRANCH   3   9
HETATM    9  C   UNL     1      -8.125  14.084  68.346  1.00  0.00    -0.148 A  
HETATM   10  C   UNL     1      -6.799  12.212  67.524  1.00  0.00    -0.127 A  
HETATM   11  C   UNL     1      -7.912  13.055  67.418  1.00  0.00    -0.173 A  
HETATM   12  C   UNL     1      -7.167  14.244  69.357  1.00  0.00    -0.051 A  
HETATM   13  C   UNL     1      -6.064  13.399  69.475  1.00  0.00    -0.110 A  
HETATM   14  C   UNL     1      -5.878  12.381  68.555  1.00  0.00    -0.054 A  
ENDBRANCH   3   9
BRANCH   7  15
HETATM   15  N   UNL     1     -10.485  12.167  69.385  1.00  0.00    -0.409 N  
HETATM   16  H   UNL     1      -9.502  12.148  69.112  1.00  0.00     0.000 HD 
HETATM   17  C   UNL     1     -11.019  11.031  69.945  1.00  0.00    -0.150 C  
HETATM   18  O   UNL     1     -12.195  10.931  70.273  1.00  0.00    -0.296 OA 
BRANCH  17  19
HETATM   19  C   UNL     1     -10.080   9.892  70.153  1.00  0.00    -0.309 A  
HETATM   20  N   UNL     1      -7.822   9.016  69.837  1.00  0.00    -0.082 NA 
HETATM   21  C   UNL     1      -8.757  10.007  69.728  1.00  0.00    -0.179 A  
HETATM   22  C   UNL     1      -8.268   7.853  70.338  1.00  0.00    -0.119 A  
HETATM   23  C   UNL     1      -7.399   6.648  70.571  1.00  0.00    -0.081 C  
HETATM   24  C   UNL     1      -8.423   5.542  70.908  1.00  0.00    -0.123 C  
HETATM   25  C   UNL     1      -9.817   6.194  71.089  1.00  0.00    -0.210 C  
HETATM   26  C   UNL     1      -8.045   4.816  72.225  1.00  0.00    -0.107 C  
HETATM   27  O   UNL     1      -7.926   5.322  73.325  1.00  0.00    -0.106 OA 
HETATM   28  C   UNL     1      -9.571   7.623  70.725  1.00  0.00    -0.166 A  
HETATM   29  N   UNL     1      -7.894   3.474  71.936  1.00  0.00    -0.061 N  
HETATM   30  C   UNL     1      -8.073   3.219  70.595  1.00  0.00    -0.052 A  
HETATM   31  C   UNL     1     -10.484   8.664  70.691  1.00  0.00    -0.243 A  
HETATM   32  H   UNL     1      -7.676   2.761  72.630  1.00  0.00     0.000 HD 
HETATM   33  N   UNL     1      -7.927   2.017  70.035  1.00  0.00    -0.042 NA 
HETATM   34  C   UNL     1      -8.098   2.001  68.693  1.00  0.00    -0.052 A  
HETATM   35  C   UNL     1      -8.412   3.124  67.924  1.00  0.00    -0.104 A  
HETATM   36  C   UNL     1      -8.567   4.360  68.555  1.00  0.00    -0.107 A  
HETATM   37  C   UNL     1      -8.392   4.395  69.927  1.00  0.00    -0.075 A  
ENDBRANCH  17  19
ENDBRANCH   7  15
BRANCH   6  38
HETATM   38  C   UNL     1     -11.006  12.935  65.427  1.00  0.00    -0.278 C  
HETATM   39  F   UNL     1     -13.115  12.299  64.512  1.00  0.00    -0.545 F  
HETATM   40  F   UNL     1     -11.928  13.695  63.331  1.00  0.00    -0.472 F  
HETATM   41  C   UNL     1     -12.246  13.341  64.590  1.00  0.00    -0.407 C  
HETATM   42  F   UNL     1     -12.950  14.363  65.147  1.00  0.00    -0.446 F  
ENDBRANCH   6  38
TORSDOF 4
ENDMDL
MODEL       80
REMARK 921   NORMALIZED FREE ENERGY PREDICTED BY IDOCK:   -5.00 KCAL/MOL
REMARK 922        TOTAL FREE ENERGY PREDICTED BY IDOCK:   -7.76 KCAL/MOL
REMARK 923 INTER-LIGAND FREE ENERGY PREDICTED BY IDOCK:   -5.37 KCAL/MOL
REMARK 924 INTRA-LIGAND FREE ENERGY PREDICTED BY IDOCK:   -2.39 KCAL/MOL
REMARK 927      BINDING AFFINITY PREDICTED BY RF-SCORE:    0.00 PKD
ROOT
HETATM    1  C   UNL     1      -8.753   6.846  65.112  1.00  0.00     0.133 C  
HETATM    2  C   UNL     1      -7.474   7.627  65.445  1.00  0.00    -0.078 C  
HETATM    3  C   UNL     1      -7.309   7.814  66.982  1.00  0.00    -0.091 C  
HETATM    4  C   UNL     1      -5.928   8.445  67.250  1.00  0.00    -0.051 C  
HETATM    5  O   UNL     1      -5.559  10.318  64.104  1.00  0.00    -0.115 OA 
HETATM    6  N   UNL     1      -7.245   8.898  64.732  1.00  0.00    -0.091 N  
HETATM    7  C   UNL     1      -5.666   9.728  66.458  1.00  0.00    -0.053 C  
HETATM    8  C   UNL     1      -6.057   9.601  64.972  1.00  0.00    -0.085 C  
ENDROOT
BRANCH   3   9
HETATM    9  C   UNL     1      -8.458   8.516  67.703  1.00  0.00    -0.129 A  
HETATM   10  C   UNL     1      -9.534   9.160  69.793  1.00  0.00    -0.191 A  
HETATM   11  C   UNL     1      -8.462   8.581  69.103  1.00  0.00    -0.125 A  
HETATM   12  C   UNL     1      -9.555   9.077  67.033  1.00  0.00    -0.231 A  
HETATM   13  C   UNL     1     -10.631   9.643  67.714  1.00  0.00    -0.320 A  
HETATM   14  C   UNL     1     -10.621   9.688  69.098  1.00  0.00    -0.237 A  
ENDBRANCH   3   9
BRANCH   7  15
HETATM   15  N   UNL     1      -6.423  10.884  66.946  1.00  0.00    -0.087 N  
HETATM   16  H   UNL     1      -7.228  11.193  66.402  1.00  0.00     0.000 HD 
HETATM   17  C   UNL     1      -6.115  11.579  68.091  1.00  0.00    -0.045 C  
HETATM   18  O   UNL     1      -5.148  11.319  68.796  1.00  0.00    -0.041 OA 
BRANCH  17  19
HETATM   19  C   UNL     1      -7.037  12.692  68.457  1.00  0.00    -0.101 A  
HETATM   20  N   UNL     1      -7.295  14.862  69.546  1.00  0.00    -0.186 NA 
HETATM   21  C   UNL     1      -6.536  13.803  69.133  1.00  0.00    -0.112 A  
HETATM   22  C   UNL     1      -8.614  14.753  69.318  1.00  0.00    -0.036 A  
HETATM   23  C   UNL     1      -9.620  15.816  69.662  1.00  0.00    -0.233 C  
HETATM   24  C   UNL     1     -10.970  15.104  69.430  1.00  0.00    -0.268 C  
HETATM   25  C   UNL     1     -10.702  13.744  68.738  1.00  0.00    -0.267 C  
HETATM   26  C   UNL     1     -11.894  15.948  68.514  1.00  0.00    -0.188 C  
HETATM   27  O   UNL     1     -11.657  16.307  67.376  1.00  0.00     0.126 OA 
HETATM   28  C   UNL     1      -9.209  13.665  68.715  1.00  0.00     0.046 A  
HETATM   29  N   UNL     1     -13.058  16.200  69.211  1.00  0.00     0.406 N  
HETATM   30  C   UNL     1     -13.014  15.678  70.484  1.00  0.00    -0.209 A  
HETATM   31  C   UNL     1      -8.416  12.642  68.223  1.00  0.00    -0.163 A  
HETATM   32  H   UNL     1     -13.854  16.710  68.829  1.00  0.00     0.000 HD 
HETATM   33  N   UNL     1     -13.982  15.826  71.390  1.00  0.00    -0.431 NA 
HETATM   34  C   UNL     1     -13.708  15.278  72.596  1.00  0.00    -0.508 A  
HETATM   35  C   UNL     1     -12.528  14.596  72.903  1.00  0.00    -0.390 A  
HETATM   36  C   UNL     1     -11.548  14.455  71.920  1.00  0.00     0.327 A  
HETATM   37  C   UNL     1     -11.809  15.014  70.682  1.00  0.00    -0.364 A  
ENDBRANCH  17  19
ENDBRANCH   7  15
BRANCH   6  38
HETATM   38  C   UNL     1      -8.019   9.329  63.546  1.00  0.00    -0.144 C  
HETATM   39  F   UNL     1     -10.192  10.298  63.716  1.00  0.00    -0.351 F  
HETATM   40  F   UNL     1      -8.635  11.556  62.851  1.00  0.00    -0.144 F  
HETATM   41  C   UNL     1      -8.869  10.605  63.774  1.00  0.00    -0.171 C  
HETATM   42  F   UNL     1      -8.676  11.158  65.003  1.00  0.00    -0.176 F  
ENDBRANCH   6  38
TORSDOF 4
ENDMDL
MODEL       81
REMARK 921   NORMALIZED FREE ENERGY PREDICTED BY IDOCK:   -4.98 KCAL/MOL
REMARK 922        TOTAL FREE ENERGY PREDICTED BY IDOCK:   -7.74 KCAL/MOL
REMARK 923 INTER-LIGAND FREE ENERGY PREDICTED BY IDOCK:   -6.54 KCAL/MOL
REMARK 924 INTRA-LIGAND FREE ENERGY PREDICTED BY IDOCK:   -1.20 KCAL/MOL
REMARK 927      BINDING AFFINITY PREDICTED BY RF-SCORE:    0.00 PKD
ROOT
HETATM    1  C   UNL     1      -8.098   3.661  69.052  1.00  0.00    -0.066 C  
HETATM    2  C   UNL     1      -7.652   4.518  67.858  1.00  0.00    -0.077 C  
HETATM    3  C   UNL     1      -6.491   5.476  68.250  1.00  0.00    -0.043 C  
HETATM    4  C   UNL     1      -5.980   6.172  66.973  1.00  0.00    -0.018 C  
HETATM    5  O   UNL     1      -9.113   6.146  65.043  1.00  0.00     0.152 OA 
HETATM    6  N   UNL     1      -8.698   5.237  67.106  1.00  0.00    -0.108 N  
HETATM    7  C   UNL     1      -7.077   6.861  66.159  1.00  0.00    -0.073 C  
HETATM    8  C   UNL     1      -8.327   5.977  65.975  1.00  0.00    -0.134 C  
ENDROOT
BRANCH   3   9
HETATM    9  C   UNL     1      -6.770   6.436  69.406  1.00  0.00    -0.052 A  
HETATM   10  C   UNL     1      -8.294   7.258  71.121  1.00  0.00    -0.112 A  
HETATM   11  C   UNL     1      -7.984   6.350  70.101  1.00  0.00    -0.112 A  
HETATM   12  C   UNL     1      -5.880   7.447  69.794  1.00  0.00    -0.024 A  
HETATM   13  C   UNL     1      -6.188   8.362  70.800  1.00  0.00    -0.033 A  
HETATM   14  C   UNL     1      -7.397   8.267  71.467  1.00  0.00    -0.092 A  
ENDBRANCH   3   9
BRANCH   7  15
HETATM   15  N   UNL     1      -7.578   8.093  66.774  1.00  0.00    -0.093 N  
HETATM   16  H   UNL     1      -7.498   8.190  67.786  1.00  0.00     0.000 HD 
HETATM   17  C   UNL     1      -8.151   9.127  66.072  1.00  0.00    -0.110 C  
HETATM   18  O   UNL     1      -8.333   9.098  64.861  1.00  0.00    -0.143 OA 
BRANCH  17  19
HETATM   19  C   UNL     1      -8.547  10.325  66.866  1.00  0.00    -0.127 A  
HETATM   20  N   UNL     1      -7.959  11.885  68.649  1.00  0.00    -0.132 NA 
HETATM   21  C   UNL     1      -7.683  10.817  67.842  1.00  0.00    -0.100 A  
HETATM   22  C   UNL     1      -9.177  12.427  68.496  1.00  0.00    -0.076 A  
HETATM   23  C   UNL     1      -9.668  13.627  69.258  1.00  0.00     0.470 C  
HETATM   24  C   UNL     1     -11.168  13.678  68.897  1.00  0.00    -0.309 C  
HETATM   25  C   UNL     1     -11.440  12.658  67.762  1.00  0.00    -0.375 C  
HETATM   26  C   UNL     1     -11.573  15.089  68.398  1.00  0.00    -0.331 C  
HETATM   27  O   UNL     1     -11.115  15.679  67.437  1.00  0.00    -0.316 OA 
HETATM   28  C   UNL     1     -10.122  11.971  67.603  1.00  0.00    -0.205 A  
HETATM   29  N   UNL     1     -12.577  15.553  69.223  1.00  0.00    -0.526 N  
HETATM   30  C   UNL     1     -12.860  14.662  70.233  1.00  0.00    -0.206 A  
HETATM   31  C   UNL     1      -9.795  10.944  66.731  1.00  0.00    -0.231 A  
HETATM   32  H   UNL     1     -13.051  16.448  69.100  1.00  0.00     0.000 HD 
HETATM   33  N   UNL     1     -13.747  14.885  71.204  1.00  0.00    -0.408 NA 
HETATM   34  C   UNL     1     -13.830  13.898  72.125  1.00  0.00    -0.541 A  
HETATM   35  C   UNL     1     -13.075  12.722  72.091  1.00  0.00    -0.454 A  
HETATM   36  C   UNL     1     -12.167  12.526  71.049  1.00  0.00    -0.198 A  
HETATM   37  C   UNL     1     -12.067  13.528  70.101  1.00  0.00    -0.425 A  
ENDBRANCH  17  19
ENDBRANCH   7  15
BRANCH   6  38
HETATM   38  C   UNL     1     -10.148   4.980  67.260  1.00  0.00    -0.184 C  
HETATM   39  F   UNL     1     -11.427   5.888  69.057  1.00  0.00    -0.413 F  
HETATM   40  F   UNL     1     -12.000   6.511  67.048  1.00  0.00     0.151 F  
HETATM   41  C   UNL     1     -10.948   6.184  67.820  1.00  0.00    -0.303 C  
HETATM   42  F   UNL     1     -10.184   7.299  67.982  1.00  0.00    -0.169 F  
ENDBRANCH   6  38
TORSDOF 4
ENDMDL
MODEL       82
REMARK 921   NORMALIZED FREE ENERGY PREDICTED BY IDOCK:   -4.98 KCAL/MOL
REMARK 922        TOTAL FREE ENERGY PREDICTED BY IDOCK:   -7.74 KCAL/MOL
REMARK 923 INTER-LIGAND FREE ENERGY PREDICTED BY IDOCK:   -5.94 KCAL/MOL
REMARK 924 INTRA-LIGAND FREE ENERGY PREDICTED BY IDOCK:   -1.80 KCAL/MOL
REMARK 927      BINDING AFFINITY PREDICTED BY RF-SCORE:    0.00 PKD
ROOT
HETATM    1  C   UNL     1     -11.009  18.425  66.651  1.00  0.00     0.099 C  
HETATM    2  C   UNL     1      -9.527  18.031  66.741  1.00  0.00    -0.293 C  
HETATM    3  C   UNL     1      -9.214  16.800  65.841  1.00  0.00    -0.142 C  
HETATM    4  C   UNL     1      -7.689  16.572  65.843  1.00  0.00     0.459 C  
HETATM    5  O   UNL     1      -6.935  17.914  69.185  1.00  0.00    -0.258 OA 
HETATM    6  N   UNL     1      -8.947  17.863  68.086  1.00  0.00    -0.262 N  
HETATM    7  C   UNL     1      -7.078  16.464  67.241  1.00  0.00    -0.181 C  
HETATM    8  C   UNL     1      -7.582  17.563  68.198  1.00  0.00    -0.221 C  
ENDROOT
BRANCH   3   9
HETATM    9  C   UNL     1     -10.027  15.537  66.119  1.00  0.00    -0.332 A  
HETATM   10  C   UNL     1     -10.887  13.391  65.349  1.00  0.00    -0.303 A  
HETATM   11  C   UNL     1     -10.097  14.529  65.148  1.00  0.00    -0.361 A  
HETATM   12  C   UNL     1     -10.757  15.341  67.300  1.00  0.00    -0.311 A  
HETATM   13  C   UNL     1     -11.555  14.216  67.501  1.00  0.00    -0.396 A  
HETATM   14  C   UNL     1     -11.620  13.236  66.524  1.00  0.00    -0.392 A  
ENDBRANCH   3   9
BRANCH   7  15
HETATM   15  N   UNL     1      -7.388  15.204  67.922  1.00  0.00    -0.124 N  
HETATM   16  H   UNL     1      -8.255  15.151  68.458  1.00  0.00     0.000 HD 
HETATM   17  C   UNL     1      -6.585  14.090  67.886  1.00  0.00    -0.165 C  
HETATM   18  O   UNL     1      -5.506  14.058  67.307  1.00  0.00    -0.300 OA 
BRANCH  17  19
HETATM   19  C   UNL     1      -7.097  12.882  68.593  1.00  0.00    -0.103 A  
HETATM   20  N   UNL     1      -6.591  11.009  70.076  1.00  0.00    -0.154 NA 
HETATM   21  C   UNL     1      -6.238  12.149  69.410  1.00  0.00    -0.106 A  
HETATM   22  C   UNL     1      -7.840  10.571  69.851  1.00  0.00     0.051 A  
HETATM   23  C   UNL     1      -8.439   9.358  70.508  1.00  0.00    -0.251 C  
HETATM   24  C   UNL     1      -9.761   9.162  69.735  1.00  0.00    -0.191 C  
HETATM   25  C   UNL     1      -9.993  10.396  68.827  1.00  0.00    -0.196 C  
HETATM   26  C   UNL     1     -10.961   9.036  70.709  1.00  0.00    -0.258 C  
HETATM   27  O   UNL     1     -11.325   9.863  71.524  1.00  0.00    -0.343 OA 
HETATM   28  C   UNL     1      -8.740  11.191  69.011  1.00  0.00    -0.027 A  
HETATM   29  N   UNL     1     -11.571   7.822  70.467  1.00  0.00    -0.430 N  
HETATM   30  C   UNL     1     -10.909   7.103  69.498  1.00  0.00    -0.225 A  
HETATM   31  C   UNL     1      -8.396  12.393  68.413  1.00  0.00    -0.137 A  
HETATM   32  H   UNL     1     -12.410   7.497  70.948  1.00  0.00     0.000 HD 
HETATM   33  N   UNL     1     -11.251   5.872  69.112  1.00  0.00    -0.277 NA 
HETATM   34  C   UNL     1     -10.432   5.329  68.183  1.00  0.00    -0.070 A  
HETATM   35  C   UNL     1      -9.318   5.974  67.640  1.00  0.00    -0.112 A  
HETATM   36  C   UNL     1      -9.005   7.266  68.065  1.00  0.00    -0.131 A  
HETATM   37  C   UNL     1      -9.831   7.835  69.018  1.00  0.00    -0.169 A  
ENDBRANCH  17  19
ENDBRANCH   7  15
BRANCH   6  38
HETATM   38  C   UNL     1      -9.614  18.300  69.333  1.00  0.00     0.204 C  
HETATM   39  F   UNL     1      -8.868  20.183  70.594  1.00  0.00     0.555 F  
HETATM   40  F   UNL     1     -10.880  20.308  69.763  1.00  0.00    -0.102 F  
HETATM   41  C   UNL     1      -9.641  19.838  69.531  1.00  0.00     0.086 C  
HETATM   42  F   UNL     1      -9.127  20.518  68.470  1.00  0.00    -0.069 F  
ENDBRANCH   6  38
TORSDOF 4
ENDMDL
MODEL       83
REMARK 921   NORMALIZED FREE ENERGY PREDICTED BY IDOCK:   -4.88 KCAL/MOL
REMARK 922        TOTAL FREE ENERGY PREDICTED BY IDOCK:   -7.62 KCAL/MOL
REMARK 923 INTER-LIGAND FREE ENERGY PREDICTED BY IDOCK:   -5.94 KCAL/MOL
REMARK 924 INTRA-LIGAND FREE ENERGY PREDICTED BY IDOCK:   -1.68 KCAL/MOL
REMARK 927      BINDING AFFINITY PREDICTED BY RF-SCORE:    0.00 PKD
ROOT
HETATM    1  C   UNL     1      -6.980   2.209  66.126  1.00  0.00    -0.044 C  
HETATM    2  C   UNL     1      -6.364   3.499  65.566  1.00  0.00    -0.032 C  
HETATM    3  C   UNL     1      -5.919   4.457  66.709  1.00  0.00    -0.027 C  
HETATM    4  C   UNL     1      -5.156   5.642  66.083  1.00  0.00    -0.005 C  
HETATM    5  O   UNL     1      -6.838   5.711  62.811  1.00  0.00    -0.032 OA 
HETATM    6  N   UNL     1      -7.126   4.227  64.534  1.00  0.00    -0.050 N  
HETATM    7  C   UNL     1      -5.923   6.355  64.967  1.00  0.00    -0.029 C  
HETATM    8  C   UNL     1      -6.560   5.375  63.962  1.00  0.00    -0.041 C  
ENDROOT
BRANCH   3   9
HETATM    9  C   UNL     1      -7.005   4.877  67.698  1.00  0.00    -0.061 A  
HETATM   10  C   UNL     1      -9.252   4.571  68.591  1.00  0.00    -0.181 A  
HETATM   11  C   UNL     1      -8.215   4.170  67.741  1.00  0.00    -0.094 A  
HETATM   12  C   UNL     1      -6.876   5.977  68.557  1.00  0.00    -0.070 A  
HETATM   13  C   UNL     1      -7.909   6.390  69.396  1.00  0.00    -0.105 A  
HETATM   14  C   UNL     1      -9.101   5.685  69.416  1.00  0.00    -0.134 A  
ENDBRANCH   3   9
BRANCH   7  15
HETATM   15  N   UNL     1      -7.038   7.173  65.450  1.00  0.00    -0.063 N  
HETATM   16  H   UNL     1      -7.963   6.746  65.487  1.00  0.00     0.000 HD 
HETATM   17  C   UNL     1      -6.915   8.480  65.856  1.00  0.00    -0.071 C  
HETATM   18  O   UNL     1      -5.860   9.101  65.816  1.00  0.00    -0.049 OA 
BRANCH  17  19
HETATM   19  C   UNL     1      -8.153   9.131  66.372  1.00  0.00    -0.107 A  
HETATM   20  N   UNL     1     -10.403   9.937  65.872  1.00  0.00    -0.179 NA 
HETATM   21  C   UNL     1      -9.236   9.323  65.515  1.00  0.00    -0.231 A  
HETATM   22  C   UNL     1     -10.442  10.425  67.122  1.00  0.00    -0.256 A  
HETATM   23  C   UNL     1     -11.640  11.106  67.724  1.00  0.00    -0.303 C  
HETATM   24  C   UNL     1     -11.085  11.677  69.047  1.00  0.00    -0.297 C  
HETATM   25  C   UNL     1      -9.661  11.110  69.275  1.00  0.00     0.031 C  
HETATM   26  C   UNL     1     -11.976  11.267  70.248  1.00  0.00    -0.379 C  
HETATM   27  O   UNL     1     -12.230  10.133  70.610  1.00  0.00    -0.285 OA 
HETATM   28  C   UNL     1      -9.399  10.341  68.020  1.00  0.00    -0.145 A  
HETATM   29  N   UNL     1     -12.412  12.424  70.862  1.00  0.00    -0.342 N  
HETATM   30  C   UNL     1     -11.970  13.548  70.202  1.00  0.00    -0.329 A  
HETATM   31  C   UNL     1      -8.257   9.638  67.673  1.00  0.00    -0.114 A  
HETATM   32  H   UNL     1     -12.990  12.443  71.701  1.00  0.00     0.000 HD 
HETATM   33  N   UNL     1     -12.293  14.796  70.547  1.00  0.00    -0.316 NA 
HETATM   34  C   UNL     1     -11.793  15.750  69.729  1.00  0.00    -0.341 A  
HETATM   35  C   UNL     1     -10.992  15.492  68.613  1.00  0.00    -0.279 A  
HETATM   36  C   UNL     1     -10.670  14.172  68.297  1.00  0.00    -0.256 A  
HETATM   37  C   UNL     1     -11.177  13.183  69.121  1.00  0.00    -0.303 A  
ENDBRANCH  17  19
ENDBRANCH   7  15
BRANCH   6  38
HETATM   38  C   UNL     1      -8.298   3.666  63.825  1.00  0.00    -0.090 C  
HETATM   39  F   UNL     1     -10.381   3.259  64.914  1.00  0.00    -0.083 F  
HETATM   40  F   UNL     1     -10.405   4.714  63.290  1.00  0.00     0.029 F  
HETATM   41  C   UNL     1      -9.659   4.235  64.303  1.00  0.00    -0.123 C  
HETATM   42  F   UNL     1      -9.525   5.224  65.228  1.00  0.00    -0.159 F  
ENDBRANCH   6  38
TORSDOF 4
ENDMDL
MODEL       84
REMARK 921   NORMALIZED FREE ENERGY PREDICTED BY IDOCK:   -4.76 KCAL/MOL
REMARK 922        TOTAL FREE ENERGY PREDICTED BY IDOCK:   -7.46 KCAL/MOL
REMARK 923 INTER-LIGAND FREE ENERGY PREDICTED BY IDOCK:   -6.49 KCAL/MOL
REMARK 924 INTRA-LIGAND FREE ENERGY PREDICTED BY IDOCK:   -0.98 KCAL/MOL
REMARK 927      BINDING AFFINITY PREDICTED BY RF-SCORE:    0.00 PKD
ROOT
HETATM    1  C   UNL     1      -5.611   6.257  66.291  1.00  0.00    -0.013 C  
HETATM    2  C   UNL     1      -7.014   6.212  66.912  1.00  0.00    -0.071 C  
HETATM    3  C   UNL     1      -8.114   6.495  65.848  1.00  0.00    -0.125 C  
HETATM    4  C   UNL     1      -9.492   6.261  66.498  1.00  0.00    -0.181 C  
HETATM    5  O   UNL     1      -8.615   7.109  69.969  1.00  0.00    -0.138 OA 
HETATM    6  N   UNL     1      -7.245   7.008  68.133  1.00  0.00    -0.088 N  
HETATM    7  C   UNL     1      -9.705   7.036  67.799  1.00  0.00    -0.135 C  
HETATM    8  C   UNL     1      -8.499   6.938  68.755  1.00  0.00    -0.121 C  
ENDROOT
BRANCH   3   9
HETATM    9  C   UNL     1      -8.002   7.821  65.098  1.00  0.00    -0.129 A  
HETATM   10  C   UNL     1      -8.104   9.052  62.997  1.00  0.00    -0.167 A  
HETATM   11  C   UNL     1      -8.262   7.864  63.721  1.00  0.00    -0.011 A  
HETATM   12  C   UNL     1      -7.607   9.018  65.713  1.00  0.00    -0.090 A  
HETATM   13  C   UNL     1      -7.436  10.200  64.995  1.00  0.00    -0.140 A  
HETATM   14  C   UNL     1      -7.686  10.219  63.633  1.00  0.00    -0.109 A  
ENDBRANCH   3   9
BRANCH   7  15
HETATM   15  N   UNL     1      -9.908   8.474  67.601  1.00  0.00    -0.163 N  
HETATM   16  H   UNL     1      -9.482   8.909  66.783  1.00  0.00     0.000 HD 
HETATM   17  C   UNL     1     -10.638   9.273  68.448  1.00  0.00    -0.190 C  
HETATM   18  O   UNL     1     -11.159   8.863  69.478  1.00  0.00    -0.146 OA 
BRANCH  17  19
HETATM   19  C   UNL     1     -10.782  10.702  68.048  1.00  0.00    -0.275 A  
HETATM   20  N   UNL     1     -11.289  12.286  66.260  1.00  0.00    -0.327 NA 
HETATM   21  C   UNL     1     -11.160  11.014  66.743  1.00  0.00    -0.172 A  
HETATM   22  C   UNL     1     -10.962  13.266  67.117  1.00  0.00    -0.272 A  
HETATM   23  C   UNL     1     -11.065  14.732  66.799  1.00  0.00    -0.338 C  
HETATM   24  C   UNL     1     -10.352  15.397  67.997  1.00  0.00    -0.249 C  
HETATM   25  C   UNL     1     -10.074  14.317  69.072  1.00  0.00    -0.130 C  
HETATM   26  C   UNL     1     -11.237  16.503  68.627  1.00  0.00    -0.297 C  
HETATM   27  O   UNL     1     -12.346  16.360  69.108  1.00  0.00     0.129 OA 
HETATM   28  C   UNL     1     -10.517  13.055  68.404  1.00  0.00    -0.261 A  
HETATM   29  N   UNL     1     -10.528  17.687  68.577  1.00  0.00    -0.358 N  
HETATM   30  C   UNL     1      -9.312  17.527  67.954  1.00  0.00    -0.265 A  
HETATM   31  C   UNL     1     -10.477  11.764  68.907  1.00  0.00    -0.182 A  
HETATM   32  H   UNL     1     -10.866  18.572  68.955  1.00  0.00     0.000 HD 
HETATM   33  N   UNL     1      -8.453  18.520  67.718  1.00  0.00    -0.267 NA 
HETATM   34  C   UNL     1      -7.340  18.150  67.044  1.00  0.00    -0.206 A  
HETATM   35  C   UNL     1      -7.070  16.845  66.623  1.00  0.00    -0.289 A  
HETATM   36  C   UNL     1      -7.992  15.835  66.902  1.00  0.00    -0.285 A  
HETATM   37  C   UNL     1      -9.138  16.198  67.587  1.00  0.00    -0.197 A  
ENDBRANCH  17  19
ENDBRANCH   7  15
BRANCH   6  38
HETATM   38  C   UNL     1      -6.163   7.623  68.933  1.00  0.00    -0.035 C  
HETATM   39  F   UNL     1      -5.136   9.689  68.329  1.00  0.00    -0.034 F  
HETATM   40  F   UNL     1      -6.192   9.653  70.236  1.00  0.00    -0.045 F  
HETATM   41  C   UNL     1      -6.211   9.171  68.980  1.00  0.00    -0.043 C  
HETATM   42  F   UNL     1      -7.302   9.687  68.350  1.00  0.00    -0.073 F  
ENDBRANCH   6  38
TORSDOF 4
ENDMDL
MODEL       85
REMARK 921   NORMALIZED FREE ENERGY PREDICTED BY IDOCK:   -4.72 KCAL/MOL
REMARK 922        TOTAL FREE ENERGY PREDICTED BY IDOCK:   -7.42 KCAL/MOL
REMARK 923 INTER-LIGAND FREE ENERGY PREDICTED BY IDOCK:   -5.18 KCAL/MOL
REMARK 924 INTRA-LIGAND FREE ENERGY PREDICTED BY IDOCK:   -2.23 KCAL/MOL
REMARK 927      BINDING AFFINITY PREDICTED BY RF-SCORE:    0.00 PKD
ROOT
HETATM    1  C   UNL     1      -9.700   2.103  66.772  1.00  0.00     0.518 C  
HETATM    2  C   UNL     1      -8.577   2.328  67.795  1.00  0.00    -0.095 C  
HETATM    3  C   UNL     1      -9.123   2.977  69.101  1.00  0.00    -0.202 C  
HETATM    4  C   UNL     1      -7.985   3.009  70.141  1.00  0.00    -0.051 C  
HETATM    5  O   UNL     1      -5.133   3.246  67.827  1.00  0.00    -0.007 OA 
HETATM    6  N   UNL     1      -7.360   3.019  67.332  1.00  0.00    -0.057 N  
HETATM    7  C   UNL     1      -6.700   3.668  69.635  1.00  0.00    -0.034 C  
HETATM    8  C   UNL     1      -6.295   3.183  68.229  1.00  0.00    -0.033 C  
ENDROOT
BRANCH   3   9
HETATM    9  C   UNL     1      -9.849   4.311  68.938  1.00  0.00    -0.131 A  
HETATM   10  C   UNL     1     -10.662   6.086  67.480  1.00  0.00    -0.383 A  
HETATM   11  C   UNL     1     -10.058   4.835  67.655  1.00  0.00    -0.142 A  
HETATM   12  C   UNL     1     -10.293   5.078  70.024  1.00  0.00    -0.303 A  
HETATM   13  C   UNL     1     -10.884   6.330  69.857  1.00  0.00    -0.399 A  
HETATM   14  C   UNL     1     -11.071   6.835  68.581  1.00  0.00    -0.224 A  
ENDBRANCH   3   9
BRANCH   7  15
HETATM   15  N   UNL     1      -6.794   5.125  69.515  1.00  0.00    -0.051 N  
HETATM   16  H   UNL     1      -6.776   5.531  68.579  1.00  0.00     0.000 HD 
HETATM   17  C   UNL     1      -6.905   5.981  70.585  1.00  0.00    -0.058 C  
HETATM   18  O   UNL     1      -6.897   5.605  71.751  1.00  0.00    -0.062 OA 
BRANCH  17  19
HETATM   19  C   UNL     1      -7.050   7.429  70.261  1.00  0.00    -0.064 A  
HETATM   20  N   UNL     1      -7.015   9.725  71.090  1.00  0.00    -0.330 NA 
HETATM   21  C   UNL     1      -6.873   8.378  71.267  1.00  0.00    -0.065 A  
HETATM   22  C   UNL     1      -7.409  10.110  69.866  1.00  0.00    -0.165 A  
HETATM   23  C   UNL     1      -7.592  11.544  69.452  1.00  0.00     0.156 C  
HETATM   24  C   UNL     1      -8.275  11.422  68.071  1.00  0.00    -0.140 C  
HETATM   25  C   UNL     1      -8.246   9.936  67.634  1.00  0.00    -0.114 C  
HETATM   26  C   UNL     1      -7.527  12.263  67.005  1.00  0.00    -0.063 C  
HETATM   27  O   UNL     1      -6.365  12.140  66.666  1.00  0.00    -0.103 OA 
HETATM   28  C   UNL     1      -7.670   9.243  68.827  1.00  0.00    -0.083 A  
HETATM   29  N   UNL     1      -8.428  13.167  66.477  1.00  0.00    -0.406 N  
HETATM   30  C   UNL     1      -9.659  13.072  67.084  1.00  0.00    -0.230 A  
HETATM   31  C   UNL     1      -7.436   7.888  68.996  1.00  0.00    -0.097 A  
HETATM   32  H   UNL     1      -8.207  13.824  65.730  1.00  0.00     0.000 HD 
HETATM   33  N   UNL     1     -10.695  13.866  66.807  1.00  0.00    -0.280 NA 
HETATM   34  C   UNL     1     -11.795  13.635  67.559  1.00  0.00    -0.381 A  
HETATM   35  C   UNL     1     -11.883  12.649  68.545  1.00  0.00    -0.342 A  
HETATM   36  C   UNL     1     -10.778  11.833  68.792  1.00  0.00    -0.255 A  
HETATM   37  C   UNL     1      -9.643  12.059  68.035  1.00  0.00    -0.199 A  
ENDBRANCH  17  19
ENDBRANCH   7  15
BRANCH   6  38
HETATM   38  C   UNL     1      -7.045   3.269  65.907  1.00  0.00    -0.066 C  
HETATM   39  F   UNL     1      -8.041   5.047  64.667  1.00  0.00    -0.095 F  
HETATM   40  F   UNL     1      -5.875   5.125  64.905  1.00  0.00    -0.016 F  
HETATM   41  C   UNL     1      -7.018   4.770  65.518  1.00  0.00    -0.062 C  
HETATM   42  F   UNL     1      -7.196   5.596  66.584  1.00  0.00    -0.068 F  
ENDBRANCH   6  38
TORSDOF 4
ENDMDL
MODEL       86
REMARK 921   NORMALIZED FREE ENERGY PREDICTED BY IDOCK:   -4.60 KCAL/MOL
REMARK 922        TOTAL FREE ENERGY PREDICTED BY IDOCK:   -7.27 KCAL/MOL
REMARK 923 INTER-LIGAND FREE ENERGY PREDICTED BY IDOCK:   -6.17 KCAL/MOL
REMARK 924 INTRA-LIGAND FREE ENERGY PREDICTED BY IDOCK:   -1.10 KCAL/MOL
REMARK 927      BINDING AFFINITY PREDICTED BY RF-SCORE:    0.00 PKD
ROOT
HETATM    1  C   UNL     1      -7.148   5.894  67.604  1.00  0.00    -0.074 C  
HETATM    2  C   UNL     1      -8.526   6.560  67.723  1.00  0.00    -0.118 C  
HETATM    3  C   UNL     1      -8.842   7.436  66.476  1.00  0.00    -0.165 C  
HETATM    4  C   UNL     1     -10.299   7.927  66.581  1.00  0.00    -0.270 C  
HETATM    5  O   UNL     1     -10.591   7.999  70.249  1.00  0.00    -0.222 OA 
HETATM    6  N   UNL     1      -8.825   7.291  68.970  1.00  0.00    -0.132 N  
HETATM    7  C   UNL     1     -10.625   8.627  67.902  1.00  0.00    -0.161 C  
HETATM    8  C   UNL     1     -10.097   7.858  69.130  1.00  0.00    -0.197 C  
ENDROOT
BRANCH   3   9
HETATM    9  C   UNL     1      -7.838   8.543  66.158  1.00  0.00    -0.098 A  
HETATM   10  C   UNL     1      -6.602   9.834  64.501  1.00  0.00    -0.113 A  
HETATM   11  C   UNL     1      -7.564   8.869  64.823  1.00  0.00    -0.106 A  
HETATM   12  C   UNL     1      -7.130   9.242  67.146  1.00  0.00    -0.086 A  
HETATM   13  C   UNL     1      -6.162  10.194  66.833  1.00  0.00    -0.064 A  
HETATM   14  C   UNL     1      -5.897  10.494  65.507  1.00  0.00    -0.131 A  
ENDBRANCH   3   9
BRANCH   7  15
HETATM   15  N   UNL     1     -10.039   9.965  68.019  1.00  0.00    -0.163 N  
HETATM   16  H   UNL     1      -9.396  10.140  68.792  1.00  0.00     0.000 HD 
HETATM   17  C   UNL     1     -10.300  10.999  67.153  1.00  0.00    -0.220 C  
HETATM   18  O   UNL     1     -11.085  10.910  66.216  1.00  0.00    -0.128 OA 
BRANCH  17  19
HETATM   19  C   UNL     1      -9.563  12.271  67.400  1.00  0.00    -0.179 A  
HETATM   20  N   UNL     1      -8.196  13.578  68.945  1.00  0.00     0.061 NA 
HETATM   21  C   UNL     1      -8.875  12.443  68.600  1.00  0.00     0.038 A  
HETATM   22  C   UNL     1      -8.274  14.589  68.065  1.00  0.00    -0.145 A  
HETATM   23  C   UNL     1      -7.575  15.909  68.234  1.00  0.00    -0.135 C  
HETATM   24  C   UNL     1      -8.183  16.771  67.105  1.00  0.00    -0.210 C  
HETATM   25  C   UNL     1      -9.028  15.856  66.183  1.00  0.00    -0.376 C  
HETATM   26  C   UNL     1      -7.072  17.436  66.254  1.00  0.00    -0.295 C  
HETATM   27  O   UNL     1      -6.199  16.866  65.625  1.00  0.00     0.361 OA 
HETATM   28  C   UNL     1      -8.982  14.536  66.884  1.00  0.00    -0.267 A  
HETATM   29  N   UNL     1      -7.263  18.802  66.308  1.00  0.00    -0.239 N  
HETATM   30  C   UNL     1      -8.323  19.136  67.120  1.00  0.00    -0.279 A  
HETATM   31  C   UNL     1      -9.591  13.349  66.508  1.00  0.00    -0.277 A  
HETATM   32  H   UNL     1      -6.690  19.480  65.807  1.00  0.00     0.000 HD 
HETATM   33  N   UNL     1      -8.691  20.389  67.395  1.00  0.00    -0.343 NA 
HETATM   34  C   UNL     1      -9.726  20.491  68.260  1.00  0.00     0.035 A  
HETATM   35  C   UNL     1     -10.388  19.400  68.830  1.00  0.00    -0.288 A  
HETATM   36  C   UNL     1      -9.976  18.107  68.504  1.00  0.00    -0.408 A  
HETATM   37  C   UNL     1      -8.916  17.985  67.624  1.00  0.00    -0.251 A  
ENDBRANCH  17  19
ENDBRANCH   7  15
BRANCH   6  38
HETATM   38  C   UNL     1      -8.002   7.201  70.196  1.00  0.00    -0.113 C  
HETATM   39  F   UNL     1      -8.782   6.151  72.190  1.00  0.00    -0.129 F  
HETATM   40  F   UNL     1      -7.033   5.256  71.245  1.00  0.00    -0.045 F  
HETATM   41  C   UNL     1      -8.195   5.886  70.993  1.00  0.00    -0.122 C  
HETATM   42  F   UNL     1      -9.022   5.004  70.368  1.00  0.00    -0.119 F  
ENDBRANCH   6  38
TORSDOF 4
ENDMDL
MODEL       87
REMARK 921   NORMALIZED FREE ENERGY PREDICTED BY IDOCK:   -4.59 KCAL/MOL
REMARK 922        TOTAL FREE ENERGY PREDICTED BY IDOCK:   -7.26 KCAL/MOL
REMARK 923 INTER-LIGAND FREE ENERGY PREDICTED BY IDOCK:   -6.04 KCAL/MOL
REMARK 924 INTRA-LIGAND FREE ENERGY PREDICTED BY IDOCK:   -1.22 KCAL/MOL
REMARK 927      BINDING AFFINITY PREDICTED BY RF-SCORE:    0.00 PKD
ROOT
HETATM    1  C   UNL     1     -11.711   4.731  72.543  1.00  0.00     0.237 C  
HETATM    2  C   UNL     1     -10.292   5.121  72.979  1.00  0.00    -0.193 C  
HETATM    3  C   UNL     1     -10.186   6.648  73.261  1.00  0.00    -0.256 C  
HETATM    4  C   UNL     1      -8.795   6.938  73.860  1.00  0.00    -0.192 C  
HETATM    5  O   UNL     1      -6.924   4.210  72.247  1.00  0.00    -0.046 OA 
HETATM    6  N   UNL     1      -9.170   4.660  72.141  1.00  0.00    -0.126 N  
HETATM    7  C   UNL     1      -7.634   6.401  73.021  1.00  0.00    -0.095 C  
HETATM    8  C   UNL     1      -7.860   4.951  72.549  1.00  0.00    -0.093 C  
ENDROOT
BRANCH   3   9
HETATM    9  C   UNL     1     -10.567   7.575  72.107  1.00  0.00    -0.262 A  
HETATM   10  C   UNL     1     -10.666   7.997  69.710  1.00  0.00    -0.231 A  
HETATM   11  C   UNL     1     -10.387   7.146  70.785  1.00  0.00    -0.219 A  
HETATM   12  C   UNL     1     -11.060   8.873  72.299  1.00  0.00    -0.256 A  
HETATM   13  C   UNL     1     -11.327   9.731  71.232  1.00  0.00    -0.445 A  
HETATM   14  C   UNL     1     -11.132   9.292  69.934  1.00  0.00    -0.200 A  
ENDBRANCH   3   9
BRANCH   7  15
HETATM   15  N   UNL     1      -7.396   7.162  71.791  1.00  0.00    -0.083 N  
HETATM   16  H   UNL     1      -7.390   6.653  70.907  1.00  0.00     0.000 HD 
HETATM   17  C   UNL     1      -7.179   8.518  71.754  1.00  0.00    -0.095 C  
HETATM   18  O   UNL     1      -7.126   9.219  72.757  1.00  0.00    -0.124 OA 
BRANCH  17  19
HETATM   19  C   UNL     1      -7.015   9.125  70.402  1.00  0.00    -0.071 A  
HETATM   20  N   UNL     1      -6.318  11.071  69.103  1.00  0.00    -0.051 NA 
HETATM   21  C   UNL     1      -6.481  10.407  70.286  1.00  0.00    -0.141 A  
HETATM   22  C   UNL     1      -6.771  10.431  68.013  1.00  0.00    -0.065 A  
HETATM   23  C   UNL     1      -6.660  10.969  66.613  1.00  0.00    -0.128 C  
HETATM   24  C   UNL     1      -7.533   9.991  65.796  1.00  0.00    -0.121 C  
HETATM   25  C   UNL     1      -7.922   8.797  66.703  1.00  0.00    -0.100 C  
HETATM   26  C   UNL     1      -6.759   9.447  64.569  1.00  0.00    -0.089 C  
HETATM   27  O   UNL     1      -5.717   8.817  64.588  1.00  0.00    -0.061 OA 
HETATM   28  C   UNL     1      -7.372   9.191  68.036  1.00  0.00    -0.083 A  
HETATM   29  N   UNL     1      -7.479   9.775  63.438  1.00  0.00    -0.119 N  
HETATM   30  C   UNL     1      -8.603  10.507  63.745  1.00  0.00    -0.151 A  
HETATM   31  C   UNL     1      -7.449   8.494  69.231  1.00  0.00    -0.082 A  
HETATM   32  H   UNL     1      -7.211   9.508  62.491  1.00  0.00     0.000 HD 
HETATM   33  N   UNL     1      -9.446  11.004  62.838  1.00  0.00    -0.338 NA 
HETATM   34  C   UNL     1     -10.456  11.739  63.356  1.00  0.00    -0.434 A  
HETATM   35  C   UNL     1     -10.643  11.972  64.721  1.00  0.00    -0.340 A  
HETATM   36  C   UNL     1      -9.743  11.422  65.635  1.00  0.00    -0.263 A  
HETATM   37  C   UNL     1      -8.701  10.671  65.122  1.00  0.00    -0.196 A  
ENDBRANCH  17  19
ENDBRANCH   7  15
BRANCH   6  38
HETATM   38  C   UNL     1      -9.301   3.642  71.074  1.00  0.00    -0.141 C  
HETATM   39  F   UNL     1      -8.216   1.521  71.187  1.00  0.00    -0.044 F  
HETATM   40  F   UNL     1     -10.396   1.494  71.141  1.00  0.00    -0.155 F  
HETATM   41  C   UNL     1      -9.332   2.182  71.594  1.00  0.00    -0.110 C  
HETATM   42  F   UNL     1      -9.329   2.102  72.952  1.00  0.00    -0.078 F  
ENDBRANCH   6  38
TORSDOF 4
ENDMDL
MODEL       88
REMARK 921   NORMALIZED FREE ENERGY PREDICTED BY IDOCK:   -4.57 KCAL/MOL
REMARK 922        TOTAL FREE ENERGY PREDICTED BY IDOCK:   -7.23 KCAL/MOL
REMARK 923 INTER-LIGAND FREE ENERGY PREDICTED BY IDOCK:   -5.85 KCAL/MOL
REMARK 924 INTRA-LIGAND FREE ENERGY PREDICTED BY IDOCK:   -1.38 KCAL/MOL
REMARK 927      BINDING AFFINITY PREDICTED BY RF-SCORE:    0.00 PKD
ROOT
HETATM    1  C   UNL     1      -8.782   4.029  70.658  1.00  0.00    -0.120 C  
HETATM    2  C   UNL     1      -8.973   4.583  69.239  1.00  0.00    -0.096 C  
HETATM    3  C   UNL     1      -7.625   5.080  68.640  1.00  0.00    -0.078 C  
HETATM    4  C   UNL     1      -7.858   5.455  67.162  1.00  0.00    -0.101 C  
HETATM    5  O   UNL     1     -11.397   6.435  67.395  1.00  0.00    -0.283 OA 
HETATM    6  N   UNL     1     -10.041   5.579  69.033  1.00  0.00    -0.187 N  
HETATM    7  C   UNL     1      -9.010   6.438  66.945  1.00  0.00    -0.124 C  
HETATM    8  C   UNL     1     -10.277   6.056  67.737  1.00  0.00    -0.179 C  
ENDROOT
BRANCH   3   9
HETATM    9  C   UNL     1      -6.886   6.152  69.439  1.00  0.00    -0.062 A  
HETATM   10  C   UNL     1      -6.521   7.304  71.555  1.00  0.00    -0.040 A  
HETATM   11  C   UNL     1      -7.135   6.289  70.811  1.00  0.00    -0.069 A  
HETATM   12  C   UNL     1      -5.981   7.052  68.859  1.00  0.00    -0.022 A  
HETATM   13  C   UNL     1      -5.377   8.073  69.591  1.00  0.00    -0.023 A  
HETATM   14  C   UNL     1      -5.645   8.199  70.944  1.00  0.00    -0.029 A  
ENDBRANCH   3   9
BRANCH   7  15
HETATM   15  N   UNL     1      -8.703   7.806  67.368  1.00  0.00    -0.128 N  
HETATM   16  H   UNL     1      -8.281   7.939  68.288  1.00  0.00     0.000 HD 
HETATM   17  C   UNL     1      -8.947   8.923  66.605  1.00  0.00    -0.136 C  
HETATM   18  O   UNL     1      -9.484   8.881  65.505  1.00  0.00    -0.202 OA 
BRANCH  17  19
HETATM   19  C   UNL     1      -8.510  10.227  67.181  1.00  0.00    -0.125 A  
HETATM   20  N   UNL     1      -7.620  11.411  69.122  1.00  0.00    -0.084 NA 
HETATM   21  C   UNL     1      -8.015  10.269  68.484  1.00  0.00    -0.107 A  
HETATM   22  C   UNL     1      -7.794  12.549  68.432  1.00  0.00    -0.141 A  
HETATM   23  C   UNL     1      -7.396  13.909  68.936  1.00  0.00    -0.088 C  
HETATM   24  C   UNL     1      -8.026  14.862  67.897  1.00  0.00    -0.145 C  
HETATM   25  C   UNL     1      -8.559  14.020  66.710  1.00  0.00    -0.081 C  
HETATM   26  C   UNL     1      -6.977  15.867  67.356  1.00  0.00    -0.200 C  
HETATM   27  O   UNL     1      -5.941  15.595  66.777  1.00  0.00    -0.108 OA 
HETATM   28  C   UNL     1      -8.335  12.614  67.166  1.00  0.00    -0.172 A  
HETATM   29  N   UNL     1      -7.441  17.140  67.619  1.00  0.00    -0.166 N  
HETATM   30  C   UNL     1      -8.633  17.116  68.305  1.00  0.00    -0.241 A  
HETATM   31  C   UNL     1      -8.647  11.441  66.499  1.00  0.00    -0.175 A  
HETATM   32  H   UNL     1      -6.958  17.994  67.338  1.00  0.00     0.000 HD 
HETATM   33  N   UNL     1      -9.272  18.205  68.737  1.00  0.00    -0.274 NA 
HETATM   34  C   UNL     1     -10.401  17.951  69.438  1.00  0.00     0.123 A  
HETATM   35  C   UNL     1     -10.895  16.670  69.699  1.00  0.00    -0.282 A  
HETATM   36  C   UNL     1     -10.200  15.560  69.217  1.00  0.00    -0.252 A  
HETATM   37  C   UNL     1      -9.041  15.802  68.502  1.00  0.00    -0.194 A  
ENDBRANCH  17  19
ENDBRANCH   7  15
BRANCH   6  38
HETATM   38  C   UNL     1     -11.094   5.877  70.030  1.00  0.00    -0.341 C  
HETATM   39  F   UNL     1     -10.632   6.980  72.094  1.00  0.00    -0.205 F  
HETATM   40  F   UNL     1     -11.981   8.011  70.724  1.00  0.00    -0.294 F  
HETATM   41  C   UNL     1     -10.894   7.218  70.781  1.00  0.00    -0.241 C  
HETATM   42  F   UNL     1      -9.831   7.931  70.319  1.00  0.00    -0.180 F  
ENDBRANCH   6  38
TORSDOF 4
ENDMDL
MODEL       89
REMARK 921   NORMALIZED FREE ENERGY PREDICTED BY IDOCK:   -4.55 KCAL/MOL
REMARK 922        TOTAL FREE ENERGY PREDICTED BY IDOCK:   -7.21 KCAL/MOL
REMARK 923 INTER-LIGAND FREE ENERGY PREDICTED BY IDOCK:   -5.68 KCAL/MOL
REMARK 924 INTRA-LIGAND FREE ENERGY PREDICTED BY IDOCK:   -1.52 KCAL/MOL
REMARK 927      BINDING AFFINITY PREDICTED BY RF-SCORE:    0.00 PKD
ROOT
HETATM    1  C   UNL     1      -5.530   3.982  66.178  1.00  0.00    -0.013 C  
HETATM    2  C   UNL     1      -7.052   4.141  66.292  1.00  0.00    -0.067 C  
HETATM    3  C   UNL     1      -7.661   4.718  64.981  1.00  0.00    -0.078 C  
HETATM    4  C   UNL     1      -9.198   4.684  65.102  1.00  0.00    -0.156 C  
HETATM    5  O   UNL     1      -9.470   5.034  68.755  1.00  0.00    -0.123 OA 
HETATM    6  N   UNL     1      -7.578   4.850  67.474  1.00  0.00    -0.086 N  
HETATM    7  C   UNL     1      -9.737   5.363  66.363  1.00  0.00    -0.166 C  
HETATM    8  C   UNL     1      -8.966   4.956  67.634  1.00  0.00    -0.109 C  
ENDROOT
BRANCH   3   9
HETATM    9  C   UNL     1      -7.108   6.064  64.516  1.00  0.00    -0.056 A  
HETATM   10  C   UNL     1      -7.298   8.018  63.072  1.00  0.00    -0.103 A  
HETATM   11  C   UNL     1      -7.813   6.813  63.564  1.00  0.00    -0.110 A  
HETATM   12  C   UNL     1      -5.888   6.587  64.967  1.00  0.00    -0.030 A  
HETATM   13  C   UNL     1      -5.363   7.780  64.472  1.00  0.00    -0.029 A  
HETATM   14  C   UNL     1      -6.070   8.499  63.523  1.00  0.00    -0.077 A  
ENDBRANCH   3   9
BRANCH   7  15
HETATM   15  N   UNL     1      -9.652   6.825  66.326  1.00  0.00    -0.366 N  
HETATM   16  H   UNL     1      -8.821   7.245  65.909  1.00  0.00     0.000 HD 
HETATM   17  C   UNL     1     -10.621   7.666  66.818  1.00  0.00    -0.186 C  
HETATM   18  O   UNL     1     -11.638   7.269  67.373  1.00  0.00     0.373 OA 
BRANCH  17  19
HETATM   19  C   UNL     1     -10.383   9.127  66.636  1.00  0.00    -0.289 A  
HETATM   20  N   UNL     1      -9.342  10.880  65.292  1.00  0.00    -0.205 NA 
HETATM   21  C   UNL     1      -9.649   9.571  65.537  1.00  0.00    -0.279 A  
HETATM   22  C   UNL     1      -9.744  11.753  66.228  1.00  0.00    -0.222 A  
HETATM   23  C   UNL     1      -9.538  13.240  66.137  1.00  0.00    -0.211 C  
HETATM   24  C   UNL     1      -9.947  13.734  67.543  1.00  0.00    -0.233 C  
HETATM   25  C   UNL     1     -10.594  12.556  68.314  1.00  0.00    -0.245 C  
HETATM   26  C   UNL     1     -10.978  14.887  67.449  1.00  0.00    -0.314 C  
HETATM   27  O   UNL     1     -12.076  14.839  66.926  1.00  0.00    -0.295 OA 
HETATM   28  C   UNL     1     -10.418  11.403  67.378  1.00  0.00    -0.239 A  
HETATM   29  N   UNL     1     -10.443  15.982  68.097  1.00  0.00    -0.260 N  
HETATM   30  C   UNL     1      -9.175  15.727  68.566  1.00  0.00    -0.198 A  
HETATM   31  C   UNL     1     -10.798  10.084  67.569  1.00  0.00    -0.326 A  
HETATM   32  H   UNL     1     -10.928  16.871  68.214  1.00  0.00     0.000 HD 
HETATM   33  N   UNL     1      -8.406  16.629  69.178  1.00  0.00    -0.176 NA 
HETATM   34  C   UNL     1      -7.173  16.182  69.509  1.00  0.00    -0.136 A  
HETATM   35  C   UNL     1      -6.710  14.887  69.258  1.00  0.00    -0.141 A  
HETATM   36  C   UNL     1      -7.554  13.973  68.625  1.00  0.00    -0.130 A  
HETATM   37  C   UNL     1      -8.817  14.416  68.276  1.00  0.00    -0.182 A  
ENDBRANCH  17  19
ENDBRANCH   7  15
BRANCH   6  38
HETATM   38  C   UNL     1      -6.765   5.178  68.667  1.00  0.00    -0.050 C  
HETATM   39  F   UNL     1      -5.142   6.926  68.672  1.00  0.00    -0.012 F  
HETATM   40  F   UNL     1      -6.815   7.153  70.052  1.00  0.00    -0.050 F  
HETATM   41  C   UNL     1      -6.471   6.691  68.836  1.00  0.00    -0.039 C  
HETATM   42  F   UNL     1      -7.096   7.459  67.903  1.00  0.00    -0.073 F  
ENDBRANCH   6  38
TORSDOF 4
ENDMDL
MODEL       90
REMARK 921   NORMALIZED FREE ENERGY PREDICTED BY IDOCK:   -4.32 KCAL/MOL
REMARK 922        TOTAL FREE ENERGY PREDICTED BY IDOCK:   -6.93 KCAL/MOL
REMARK 923 INTER-LIGAND FREE ENERGY PREDICTED BY IDOCK:   -6.26 KCAL/MOL
REMARK 924 INTRA-LIGAND FREE ENERGY PREDICTED BY IDOCK:   -0.67 KCAL/MOL
REMARK 927      BINDING AFFINITY PREDICTED BY RF-SCORE:    0.00 PKD
ROOT
HETATM    1  C   UNL     1     -12.141  16.265  67.242  1.00  0.00     1.348 C  
HETATM    2  C   UNL     1     -10.654  15.915  67.397  1.00  0.00    -0.315 C  
HETATM    3  C   UNL     1     -10.036  15.456  66.044  1.00  0.00    -0.346 C  
HETATM    4  C   UNL     1      -8.515  15.293  66.233  1.00  0.00     0.037 C  
HETATM    5  O   UNL     1      -8.496  14.416  69.807  1.00  0.00     0.389 OA 
HETATM    6  N   UNL     1     -10.279  14.994  68.487  1.00  0.00    -0.222 N  
HETATM    7  C   UNL     1      -8.128  14.390  67.406  1.00  0.00    -0.199 C  
HETATM    8  C   UNL     1      -8.922  14.706  68.689  1.00  0.00    -0.184 C  
ENDROOT
BRANCH   3   9
HETATM    9  C   UNL     1     -10.705  14.261  65.368  1.00  0.00    -0.353 A  
HETATM   10  C   UNL     1     -12.626  12.774  65.171  1.00  0.00    -0.513 A  
HETATM   11  C   UNL     1     -12.012  13.903  65.727  1.00  0.00    -0.419 A  
HETATM   12  C   UNL     1     -10.060  13.459  64.417  1.00  0.00    -0.128 A  
HETATM   13  C   UNL     1     -10.660  12.326  63.869  1.00  0.00    -0.462 A  
HETATM   14  C   UNL     1     -11.948  11.983  64.245  1.00  0.00    -0.424 A  
ENDBRANCH   3   9
BRANCH   7  15
HETATM   15  N   UNL     1      -8.370  12.967  67.156  1.00  0.00    -0.273 N  
HETATM   16  H   UNL     1      -9.233  12.705  66.679  1.00  0.00     0.000 HD 
HETATM   17  C   UNL     1      -7.508  11.962  67.525  1.00  0.00    -0.136 C  
HETATM   18  O   UNL     1      -6.466  12.160  68.136  1.00  0.00    -0.050 OA 
BRANCH  17  19
HETATM   19  C   UNL     1      -7.900  10.578  67.132  1.00  0.00    -0.112 A  
HETATM   20  N   UNL     1      -9.660   9.109  66.292  1.00  0.00    -0.233 NA 
HETATM   21  C   UNL     1      -9.185  10.340  66.648  1.00  0.00    -0.155 A  
HETATM   22  C   UNL     1      -8.818   8.083  66.495  1.00  0.00    -0.151 A  
HETATM   23  C   UNL     1      -9.130   6.655  66.141  1.00  0.00    -0.143 C  
HETATM   24  C   UNL     1      -7.966   5.875  66.792  1.00  0.00    -0.102 C  
HETATM   25  C   UNL     1      -6.906   6.890  67.291  1.00  0.00    -0.072 C  
HETATM   26  C   UNL     1      -7.294   4.923  65.770  1.00  0.00    -0.077 C  
HETATM   27  O   UNL     1      -6.762   5.241  64.722  1.00  0.00    -0.045 OA 
HETATM   28  C   UNL     1      -7.554   8.211  67.028  1.00  0.00    -0.096 A  
HETATM   29  N   UNL     1      -7.376   3.641  66.273  1.00  0.00    -0.075 N  
HETATM   30  C   UNL     1      -8.056   3.606  67.469  1.00  0.00    -0.089 A  
HETATM   31  C   UNL     1      -7.055   9.475  67.300  1.00  0.00    -0.086 A  
HETATM   32  H   UNL     1      -6.982   2.820  65.815  1.00  0.00     0.000 HD 
HETATM   33  N   UNL     1      -8.331   2.488  68.144  1.00  0.00    -0.068 NA 
HETATM   34  C   UNL     1      -9.057   2.677  69.269  1.00  0.00    -0.125 A  
HETATM   35  C   UNL     1      -9.492   3.924  69.727  1.00  0.00    -0.264 A  
HETATM   36  C   UNL     1      -9.170   5.068  68.995  1.00  0.00    -0.157 A  
HETATM   37  C   UNL     1      -8.432   4.892  67.839  1.00  0.00    -0.103 A  
ENDBRANCH  17  19
ENDBRANCH   7  15
BRANCH   6  38
HETATM   38  C   UNL     1     -11.191  14.602  69.585  1.00  0.00    -0.272 C  
HETATM   39  F   UNL     1     -10.923  15.394  71.819  1.00  0.00    -0.434 F  
HETATM   40  F   UNL     1     -12.774  15.949  70.809  1.00  0.00    -0.462 F  
HETATM   41  C   UNL     1     -11.461  15.728  70.616  1.00  0.00    -0.390 C  
HETATM   42  F   UNL     1     -10.883  16.911  70.273  1.00  0.00    -0.297 F  
ENDBRANCH   6  38
TORSDOF 4
ENDMDL
MODEL       91
REMARK 921   NORMALIZED FREE ENERGY PREDICTED BY IDOCK:   -4.27 KCAL/MOL
REMARK 922        TOTAL FREE ENERGY PREDICTED BY IDOCK:   -6.86 KCAL/MOL
REMARK 923 INTER-LIGAND FREE ENERGY PREDICTED BY IDOCK:   -5.99 KCAL/MOL
REMARK 924 INTRA-LIGAND FREE ENERGY PREDICTED BY IDOCK:   -0.88 KCAL/MOL
REMARK 927      BINDING AFFINITY PREDICTED BY RF-SCORE:    0.00 PKD
ROOT
HETATM    1  C   UNL     1      -7.767  18.362  69.235  1.00  0.00     0.051 C  
HETATM    2  C   UNL     1      -9.100  17.998  68.564  1.00  0.00    -0.284 C  
HETATM    3  C   UNL     1      -9.654  16.647  69.103  1.00  0.00    -0.208 C  
HETATM    4  C   UNL     1     -11.066  16.434  68.522  1.00  0.00    -0.357 C  
HETATM    5  O   UNL     1     -10.646  18.276  65.364  1.00  0.00    -0.612 OA 
HETATM    6  N   UNL     1      -9.156  18.042  67.091  1.00  0.00    -0.251 N  
HETATM    7  C   UNL     1     -11.135  16.546  66.998  1.00  0.00     0.106 C  
HETATM    8  C   UNL     1     -10.377  17.773  66.455  1.00  0.00    -0.345 C  
ENDROOT
BRANCH   3   9
HETATM    9  C   UNL     1      -8.736  15.435  68.955  1.00  0.00    -0.208 A  
HETATM   10  C   UNL     1      -8.474  13.018  68.788  1.00  0.00     0.149 A  
HETATM   11  C   UNL     1      -9.292  14.152  68.860  1.00  0.00    -0.014 A  
HETATM   12  C   UNL     1      -7.338  15.530  68.948  1.00  0.00    -0.150 A  
HETATM   13  C   UNL     1      -6.517  14.404  68.890  1.00  0.00    -0.094 A  
HETATM   14  C   UNL     1      -7.086  13.144  68.808  1.00  0.00    -0.098 A  
ENDBRANCH   3   9
BRANCH   7  15
HETATM   15  N   UNL     1     -10.544  15.402  66.298  1.00  0.00    -0.302 N  
HETATM   16  H   UNL     1      -9.528  15.363  66.219  1.00  0.00     0.000 HD 
HETATM   17  C   UNL     1     -11.273  14.378  65.742  1.00  0.00    -0.326 C  
HETATM   18  O   UNL     1     -12.497  14.345  65.745  1.00  0.00    -0.396 OA 
BRANCH  17  19
HETATM   19  C   UNL     1     -10.491  13.271  65.122  1.00  0.00    -0.346 A  
HETATM   20  N   UNL     1     -10.305  11.677  63.281  1.00  0.00    -0.402 NA 
HETATM   21  C   UNL     1     -10.923  12.716  63.918  1.00  0.00    -0.424 A  
HETATM   22  C   UNL     1      -9.251  11.150  63.923  1.00  0.00    -0.119 A  
HETATM   23  C   UNL     1      -8.411  10.025  63.383  1.00  0.00    -0.170 C  
HETATM   24  C   UNL     1      -7.520   9.648  64.587  1.00  0.00    -0.123 C  
HETATM   25  C   UNL     1      -7.707  10.714  65.696  1.00  0.00    -0.109 C  
HETATM   26  C   UNL     1      -6.024   9.616  64.183  1.00  0.00    -0.099 C  
HETATM   27  O   UNL     1      -5.373  10.541  63.733  1.00  0.00    -0.144 OA 
HETATM   28  C   UNL     1      -8.789  11.587  65.146  1.00  0.00     0.190 A  
HETATM   29  N   UNL     1      -5.543   8.351  64.454  1.00  0.00    -0.058 N  
HETATM   30  C   UNL     1      -6.531   7.524  64.938  1.00  0.00    -0.037 A  
HETATM   31  C   UNL     1      -9.372  12.697  65.736  1.00  0.00     0.044 A  
HETATM   32  H   UNL     1      -4.575   8.064  64.313  1.00  0.00     0.000 HD 
HETATM   33  N   UNL     1      -6.354   6.233  65.227  1.00  0.00    -0.037 NA 
HETATM   34  C   UNL     1      -7.472   5.593  65.638  1.00  0.00    -0.074 A  
HETATM   35  C   UNL     1      -8.723   6.200  65.774  1.00  0.00    -0.151 A  
HETATM   36  C   UNL     1      -8.859   7.556  65.473  1.00  0.00    -0.012 A  
HETATM   37  C   UNL     1      -7.726   8.225  65.046  1.00  0.00    -0.105 A  
ENDBRANCH  17  19
ENDBRANCH   7  15
BRANCH   6  38
HETATM   38  C   UNL     1      -8.111  18.659  66.243  1.00  0.00    -0.244 C  
HETATM   39  F   UNL     1      -5.782  18.307  66.619  1.00  0.00    -0.146 F  
HETATM   40  F   UNL     1      -6.572  17.609  64.711  1.00  0.00     0.445 F  
HETATM   41  C   UNL     1      -6.869  17.759  66.015  1.00  0.00    -0.292 C  
HETATM   42  F   UNL     1      -7.005  16.520  66.559  1.00  0.00    -0.236 F  
ENDBRANCH   6  38
TORSDOF 4
ENDMDL
MODEL       92
REMARK 921   NORMALIZED FREE ENERGY PREDICTED BY IDOCK:   -4.26 KCAL/MOL
REMARK 922        TOTAL FREE ENERGY PREDICTED BY IDOCK:   -6.85 KCAL/MOL
REMARK 923 INTER-LIGAND FREE ENERGY PREDICTED BY IDOCK:   -6.90 KCAL/MOL
REMARK 924 INTRA-LIGAND FREE ENERGY PREDICTED BY IDOCK:    0.05 KCAL/MOL
REMARK 927      BINDING AFFINITY PREDICTED BY RF-SCORE:    0.00 PKD
ROOT
HETATM    1  C   UNL     1      -7.165   4.988  73.069  1.00  0.00    -0.086 C  
HETATM    2  C   UNL     1      -8.133   4.774  71.896  1.00  0.00    -0.109 C  
HETATM    3  C   UNL     1      -7.385   4.811  70.531  1.00  0.00    -0.050 C  
HETATM    4  C   UNL     1      -8.379   4.416  69.421  1.00  0.00    -0.083 C  
HETATM    5  O   UNL     1     -11.476   5.626  70.998  1.00  0.00    -0.074 OA 
HETATM    6  N   UNL     1      -9.349   5.607  71.854  1.00  0.00    -0.145 N  
HETATM    7  C   UNL     1      -9.669   5.238  69.420  1.00  0.00    -0.174 C  
HETATM    8  C   UNL     1     -10.279   5.390  70.828  1.00  0.00    -0.243 C  
ENDROOT
BRANCH   3   9
HETATM    9  C   UNL     1      -6.596   6.084  70.230  1.00  0.00    -0.044 A  
HETATM   10  C   UNL     1      -5.743   8.242  70.973  1.00  0.00    -0.033 A  
HETATM   11  C   UNL     1      -6.406   7.038  71.239  1.00  0.00    -0.041 A  
HETATM   12  C   UNL     1      -6.073   6.379  68.962  1.00  0.00    -0.029 A  
HETATM   13  C   UNL     1      -5.424   7.582  68.688  1.00  0.00    -0.023 A  
HETATM   14  C   UNL     1      -5.256   8.516  69.696  1.00  0.00    -0.030 A  
ENDBRANCH   3   9
BRANCH   7  15
HETATM   15  N   UNL     1      -9.492   6.611  68.940  1.00  0.00    -0.131 N  
HETATM   16  H   UNL     1      -8.547   6.918  68.707  1.00  0.00     0.000 HD 
HETATM   17  C   UNL     1     -10.518   7.511  68.782  1.00  0.00    -0.194 C  
HETATM   18  O   UNL     1     -11.682   7.261  69.067  1.00  0.00     0.430 OA 
BRANCH  17  19
HETATM   19  C   UNL     1     -10.149   8.844  68.224  1.00  0.00    -0.219 A  
HETATM   20  N   UNL     1      -8.355  10.405  67.669  1.00  0.00    -0.114 NA 
HETATM   21  C   UNL     1      -8.804   9.199  68.131  1.00  0.00    -0.129 A  
HETATM   22  C   UNL     1      -9.309  11.294  67.351  1.00  0.00    -0.162 A  
HETATM   23  C   UNL     1      -9.033  12.664  66.794  1.00  0.00    -0.197 C  
HETATM   24  C   UNL     1     -10.418  13.344  66.844  1.00  0.00    -0.273 C  
HETATM   25  C   UNL     1     -11.483  12.277  67.201  1.00  0.00    -0.419 C  
HETATM   26  C   UNL     1     -10.783  13.963  65.470  1.00  0.00    -0.302 C  
HETATM   27  O   UNL     1     -10.888  13.371  64.411  1.00  0.00    -0.384 OA 
HETATM   28  C   UNL     1     -10.662  11.057  67.471  1.00  0.00    -0.289 A  
HETATM   29  N   UNL     1     -11.003  15.312  65.662  1.00  0.00    -0.343 N  
HETATM   30  C   UNL     1     -10.784  15.682  66.969  1.00  0.00    -0.314 A  
HETATM   31  C   UNL     1     -11.101   9.801  67.856  1.00  0.00    -0.161 A  
HETATM   32  H   UNL     1     -11.291  15.955  64.925  1.00  0.00     0.000 HD 
HETATM   33  N   UNL     1     -10.868  16.936  67.418  1.00  0.00    -0.230 NA 
HETATM   34  C   UNL     1     -10.561  17.084  68.727  1.00  0.00    -0.346 A  
HETATM   35  C   UNL     1     -10.195  16.035  69.575  1.00  0.00    -0.274 A  
HETATM   36  C   UNL     1     -10.132  14.738  69.065  1.00  0.00    -0.232 A  
HETATM   37  C   UNL     1     -10.439  14.569  67.726  1.00  0.00    -0.242 A  
ENDBRANCH  17  19
ENDBRANCH   7  15
BRANCH   6  38
HETATM   38  C   UNL     1      -9.822   6.433  72.988  1.00  0.00    -0.165 C  
HETATM   39  F   UNL     1      -8.923   8.590  73.465  1.00  0.00    -0.298 F  
HETATM   40  F   UNL     1     -11.042   8.514  72.956  1.00  0.00    -0.330 F  
HETATM   41  C   UNL     1      -9.846   7.955  72.695  1.00  0.00    -0.252 C  
HETATM   42  F   UNL     1      -9.516   8.253  71.409  1.00  0.00    -0.166 F  
ENDBRANCH   6  38
TORSDOF 4
ENDMDL
MODEL       93
REMARK 921   NORMALIZED FREE ENERGY PREDICTED BY IDOCK:   -4.22 KCAL/MOL
REMARK 922        TOTAL FREE ENERGY PREDICTED BY IDOCK:   -6.81 KCAL/MOL
REMARK 923 INTER-LIGAND FREE ENERGY PREDICTED BY IDOCK:   -5.17 KCAL/MOL
REMARK 924 INTRA-LIGAND FREE ENERGY PREDICTED BY IDOCK:   -1.64 KCAL/MOL
REMARK 927      BINDING AFFINITY PREDICTED BY RF-SCORE:    0.00 PKD
ROOT
HETATM    1  C   UNL     1      -9.605   4.380  69.412  1.00  0.00    -0.269 C  
HETATM    2  C   UNL     1      -8.278   5.063  69.051  1.00  0.00    -0.087 C  
HETATM    3  C   UNL     1      -7.856   6.091  70.141  1.00  0.00    -0.101 C  
HETATM    4  C   UNL     1      -6.441   6.603  69.805  1.00  0.00    -0.044 C  
HETATM    5  O   UNL     1      -6.576   6.235  66.146  1.00  0.00    -0.045 OA 
HETATM    6  N   UNL     1      -8.154   5.643  67.701  1.00  0.00    -0.101 N  
HETATM    7  C   UNL     1      -6.298   7.145  68.381  1.00  0.00    -0.036 C  
HETATM    8  C   UNL     1      -6.932   6.219  67.325  1.00  0.00    -0.072 C  
ENDROOT
BRANCH   3   9
HETATM    9  C   UNL     1      -8.860   7.203  70.443  1.00  0.00    -0.151 A  
HETATM   10  C   UNL     1      -9.862   8.737  72.049  1.00  0.00    -0.376 A  
HETATM   11  C   UNL     1      -8.910   7.762  71.727  1.00  0.00    -0.150 A  
HETATM   12  C   UNL     1      -9.782   7.679  69.500  1.00  0.00    -0.168 A  
HETATM   13  C   UNL     1     -10.741   8.639  69.818  1.00  0.00    -0.215 A  
HETATM   14  C   UNL     1     -10.781   9.172  71.096  1.00  0.00    -0.380 A  
ENDBRANCH   3   9
BRANCH   7  15
HETATM   15  N   UNL     1      -6.947   8.443  68.178  1.00  0.00    -0.079 N  
HETATM   16  H   UNL     1      -7.933   8.529  68.423  1.00  0.00     0.000 HD 
HETATM   17  C   UNL     1      -6.310   9.553  67.678  1.00  0.00    -0.058 C  
HETATM   18  O   UNL     1      -5.140   9.551  67.316  1.00  0.00    -0.035 OA 
BRANCH  17  19
HETATM   19  C   UNL     1      -7.121  10.802  67.599  1.00  0.00    -0.091 A  
HETATM   20  N   UNL     1      -7.123  13.225  67.303  1.00  0.00    -0.088 NA 
HETATM   21  C   UNL     1      -6.484  12.019  67.361  1.00  0.00    -0.137 A  
HETATM   22  C   UNL     1      -8.441  13.195  67.557  1.00  0.00    -0.198 A  
HETATM   23  C   UNL     1      -9.336  14.403  67.512  1.00  0.00    -0.198 C  
HETATM   24  C   UNL     1     -10.659  13.876  68.110  1.00  0.00    -0.258 C  
HETATM   25  C   UNL     1     -10.559  12.337  68.258  1.00  0.00    -0.243 C  
HETATM   26  C   UNL     1     -11.858  14.205  67.184  1.00  0.00    -0.423 C  
HETATM   27  O   UNL     1     -12.003  13.848  66.029  1.00  0.00    -0.369 OA 
HETATM   28  C   UNL     1      -9.145  12.051  67.864  1.00  0.00    -0.183 A  
HETATM   29  N   UNL     1     -12.758  14.955  67.913  1.00  0.00     0.232 N  
HETATM   30  C   UNL     1     -12.297  15.211  69.184  1.00  0.00    -0.052 A  
HETATM   31  C   UNL     1      -8.500  10.825  67.832  1.00  0.00    -0.122 A  
HETATM   32  H   UNL     1     -13.655  15.280  67.553  1.00  0.00     0.000 HD 
HETATM   33  N   UNL     1     -12.941  15.962  70.078  1.00  0.00     0.011 NA 
HETATM   34  C   UNL     1     -12.282  16.128  71.248  1.00  0.00    -0.212 A  
HETATM   35  C   UNL     1     -11.036  15.566  71.538  1.00  0.00    -0.151 A  
HETATM   36  C   UNL     1     -10.404  14.777  70.576  1.00  0.00     0.402 A  
HETATM   37  C   UNL     1     -11.062  14.601  69.372  1.00  0.00    -0.293 A  
ENDBRANCH  17  19
ENDBRANCH   7  15
BRANCH   6  38
HETATM   38  C   UNL     1      -9.109   5.383  66.601  1.00  0.00    -0.124 C  
HETATM   39  F   UNL     1      -8.516   4.136  64.656  1.00  0.00    -0.101 F  
HETATM   40  F   UNL     1     -10.099   3.298  65.899  1.00  0.00    -0.003 F  
HETATM   41  C   UNL     1      -8.947   3.992  65.937  1.00  0.00    -0.128 C  
HETATM   42  F   UNL     1      -8.012   3.217  66.552  1.00  0.00    -0.079 F  
ENDBRANCH   6  38
TORSDOF 4
ENDMDL
MODEL       94
REMARK 921   NORMALIZED FREE ENERGY PREDICTED BY IDOCK:   -4.11 KCAL/MOL
REMARK 922        TOTAL FREE ENERGY PREDICTED BY IDOCK:   -6.66 KCAL/MOL
REMARK 923 INTER-LIGAND FREE ENERGY PREDICTED BY IDOCK:   -5.81 KCAL/MOL
REMARK 924 INTRA-LIGAND FREE ENERGY PREDICTED BY IDOCK:   -0.85 KCAL/MOL
REMARK 927      BINDING AFFINITY PREDICTED BY RF-SCORE:    0.00 PKD
ROOT
HETATM    1  C   UNL     1      -9.079   2.199  67.219  1.00  0.00    -0.159 C  
HETATM    2  C   UNL     1      -8.299   3.460  66.822  1.00  0.00    -0.101 C  
HETATM    3  C   UNL     1      -7.858   4.271  68.076  1.00  0.00    -0.079 C  
HETATM    4  C   UNL     1      -6.937   5.418  67.615  1.00  0.00    -0.066 C  
HETATM    5  O   UNL     1      -8.335   5.929  64.250  1.00  0.00    -0.116 OA 
HETATM    6  N   UNL     1      -8.903   4.345  65.808  1.00  0.00    -0.119 N  
HETATM    7  C   UNL     1      -7.539   6.295  66.516  1.00  0.00    -0.094 C  
HETATM    8  C   UNL     1      -8.185   5.472  65.384  1.00  0.00    -0.133 C  
ENDROOT
BRANCH   3   9
HETATM    9  C   UNL     1      -8.975   4.717  69.018  1.00  0.00    -0.149 A  
HETATM   10  C   UNL     1     -11.100   5.863  69.348  1.00  0.00    -0.369 A  
HETATM   11  C   UNL     1     -10.093   5.386  68.501  1.00  0.00    -0.242 A  
HETATM   12  C   UNL     1      -8.928   4.526  70.406  1.00  0.00    -0.144 A  
HETATM   13  C   UNL     1      -9.921   5.010  71.257  1.00  0.00    -0.264 A  
HETATM   14  C   UNL     1     -11.012   5.679  70.727  1.00  0.00    -0.257 A  
ENDBRANCH   3   9
BRANCH   7  15
HETATM   15  N   UNL     1      -8.605   7.181  66.989  1.00  0.00    -0.120 N  
HETATM   16  H   UNL     1      -9.565   6.836  66.954  1.00  0.00     0.000 HD 
HETATM   17  C   UNL     1      -8.395   8.448  67.478  1.00  0.00    -0.129 C  
HETATM   18  O   UNL     1      -7.290   8.974  67.529  1.00  0.00    -0.080 OA 
BRANCH  17  19
HETATM   19  C   UNL     1      -9.600   9.176  67.968  1.00  0.00    -0.165 A  
HETATM   20  N   UNL     1     -11.654  10.361  67.384  1.00  0.00    -0.139 NA 
HETATM   21  C   UNL     1     -10.534   9.652  67.049  1.00  0.00    -0.232 A  
HETATM   22  C   UNL     1     -11.791  10.644  68.689  1.00  0.00    -0.064 A  
HETATM   23  C   UNL     1     -12.963  11.383  69.273  1.00  0.00     1.194 C  
HETATM   24  C   UNL     1     -12.515  11.653  70.726  1.00  0.00    -0.425 C  
HETATM   25  C   UNL     1     -11.211  10.862  70.998  1.00  0.00     0.617 C  
HETATM   26  C   UNL     1     -13.594  11.187  71.737  1.00  0.00     0.052 C  
HETATM   27  O   UNL     1     -14.028  10.057  71.867  1.00  0.00    -0.107 OA 
HETATM   28  C   UNL     1     -10.888  10.273  69.662  1.00  0.00    -0.311 A  
HETATM   29  N   UNL     1     -13.960  12.281  72.494  1.00  0.00    -0.271 N  
HETATM   30  C   UNL     1     -13.305  13.422  72.090  1.00  0.00    -0.520 A  
HETATM   31  C   UNL     1      -9.805   9.480  69.319  1.00  0.00    -0.184 A  
HETATM   32  H   UNL     1     -14.633  12.248  73.259  1.00  0.00     0.000 HD 
HETATM   33  N   UNL     1     -13.515  14.632  72.612  1.00  0.00    -0.458 NA 
HETATM   34  C   UNL     1     -12.803  15.624  72.029  1.00  0.00    -0.443 A  
HETATM   35  C   UNL     1     -11.906  15.437  70.975  1.00  0.00    -0.406 A  
HETATM   36  C   UNL     1     -11.709  14.151  70.468  1.00  0.00    -0.284 A  
HETATM   37  C   UNL     1     -12.432  13.125  71.050  1.00  0.00    -0.406 A  
ENDBRANCH  17  19
ENDBRANCH   7  15
BRANCH   6  38
HETATM   38  C   UNL     1     -10.062   3.967  64.970  1.00  0.00    -0.195 C  
HETATM   39  F   UNL     1      -9.864   3.514  62.636  1.00  0.00    -0.099 F  
HETATM   40  F   UNL     1     -10.545   1.865  63.889  1.00  0.00    -0.122 F  
HETATM   41  C   UNL     1      -9.732   2.937  63.860  1.00  0.00    -0.141 C  
HETATM   42  F   UNL     1      -8.448   2.490  63.916  1.00  0.00    -0.083 F  
ENDBRANCH   6  38
TORSDOF 4
ENDMDL
MODEL       95
REMARK 921   NORMALIZED FREE ENERGY PREDICTED BY IDOCK:   -3.95 KCAL/MOL
REMARK 922        TOTAL FREE ENERGY PREDICTED BY IDOCK:   -6.47 KCAL/MOL
REMARK 923 INTER-LIGAND FREE ENERGY PREDICTED BY IDOCK:   -5.53 KCAL/MOL
REMARK 924 INTRA-LIGAND FREE ENERGY PREDICTED BY IDOCK:   -0.94 KCAL/MOL
REMARK 927      BINDING AFFINITY PREDICTED BY RF-SCORE:    0.00 PKD
ROOT
HETATM    1  C   UNL     1      -9.329  13.123  67.556  1.00  0.00    -0.207 C  
HETATM    2  C   UNL     1      -9.197  12.047  66.468  1.00  0.00    -0.216 C  
HETATM    3  C   UNL     1     -10.343  10.999  66.568  1.00  0.00    -0.295 C  
HETATM    4  C   UNL     1     -10.251  10.059  65.350  1.00  0.00    -0.226 C  
HETATM    5  O   UNL     1      -6.621  10.255  64.778  1.00  0.00    -0.128 OA 
HETATM    6  N   UNL     1      -7.888  11.385  66.319  1.00  0.00    -0.076 N  
HETATM    7  C   UNL     1      -8.872   9.424  65.157  1.00  0.00    -0.195 C  
HETATM    8  C   UNL     1      -7.723  10.443  65.294  1.00  0.00    -0.124 C  
ENDROOT
BRANCH   3   9
HETATM    9  C   UNL     1     -10.474  10.267  67.903  1.00  0.00    -0.253 A  
HETATM   10  C   UNL     1     -10.611   8.169  69.134  1.00  0.00    -0.179 A  
HETATM   11  C   UNL     1     -10.430   8.867  67.934  1.00  0.00    -0.281 A  
HETATM   12  C   UNL     1     -10.679  10.929  69.122  1.00  0.00    -0.265 A  
HETATM   13  C   UNL     1     -10.873  10.239  70.318  1.00  0.00    -0.349 A  
HETATM   14  C   UNL     1     -10.838   8.855  70.325  1.00  0.00    -0.265 A  
ENDBRANCH   3   9
BRANCH   7  15
HETATM   15  N   UNL     1      -8.565   8.380  66.138  1.00  0.00    -0.132 N  
HETATM   16  H   UNL     1      -8.771   8.568  67.119  1.00  0.00     0.000 HD 
HETATM   17  C   UNL     1      -8.015   7.161  65.819  1.00  0.00    -0.123 C  
HETATM   18  O   UNL     1      -7.693   6.846  64.680  1.00  0.00    -0.102 OA 
BRANCH  17  19
HETATM   19  C   UNL     1      -7.829   6.204  66.947  1.00  0.00    -0.104 A  
HETATM   20  N   UNL     1      -7.806   3.872  67.669  1.00  0.00    -0.081 NA 
HETATM   21  C   UNL     1      -7.924   4.834  66.706  1.00  0.00    -0.103 A  
HETATM   22  C   UNL     1      -7.646   4.324  68.923  1.00  0.00    -0.055 A  
HETATM   23  C   UNL     1      -7.463   3.436  70.123  1.00  0.00    -0.044 C  
HETATM   24  C   UNL     1      -7.576   4.423  71.305  1.00  0.00    -0.064 C  
HETATM   25  C   UNL     1      -7.583   5.868  70.747  1.00  0.00    -0.092 C  
HETATM   26  C   UNL     1      -6.372   4.274  72.271  1.00  0.00    -0.021 C  
HETATM   27  O   UNL     1      -5.197   4.424  71.995  1.00  0.00    -0.003 OA 
HETATM   28  C   UNL     1      -7.605   5.658  69.267  1.00  0.00    -0.087 A  
HETATM   29  N   UNL     1      -6.872   3.967  73.521  1.00  0.00    -0.052 N  
HETATM   30  C   UNL     1      -8.243   3.845  73.505  1.00  0.00    -0.088 A  
HETATM   31  C   UNL     1      -7.638   6.619  68.269  1.00  0.00    -0.104 A  
HETATM   32  H   UNL     1      -6.297   3.847  74.353  1.00  0.00     0.000 HD 
HETATM   33  N   UNL     1      -8.977   3.497  74.563  1.00  0.00    -0.086 NA 
HETATM   34  C   UNL     1     -10.302   3.383  74.312  1.00  0.00    -0.189 A  
HETATM   35  C   UNL     1     -10.891   3.613  73.066  1.00  0.00    -0.206 A  
HETATM   36  C   UNL     1     -10.085   3.986  71.990  1.00  0.00    -0.227 A  
HETATM   37  C   UNL     1      -8.728   4.103  72.228  1.00  0.00    -0.118 A  
ENDBRANCH  17  19
ENDBRANCH   7  15
BRANCH   6  38
HETATM   38  C   UNL     1      -6.642  11.867  66.956  1.00  0.00    -0.128 C  
HETATM   39  F   UNL     1      -6.554  12.557  69.238  1.00  0.00    -0.090 F  
HETATM   40  F   UNL     1      -5.322  10.842  68.696  1.00  0.00    -0.042 F  
HETATM   41  C   UNL     1      -6.493  11.456  68.444  1.00  0.00    -0.050 C  
HETATM   42  F   UNL     1      -7.495  10.641  68.872  1.00  0.00    -0.078 F  
ENDBRANCH   6  38
TORSDOF 4
ENDMDL
MODEL       96
REMARK 921   NORMALIZED FREE ENERGY PREDICTED BY IDOCK:   -3.88 KCAL/MOL
REMARK 922        TOTAL FREE ENERGY PREDICTED BY IDOCK:   -6.38 KCAL/MOL
REMARK 923 INTER-LIGAND FREE ENERGY PREDICTED BY IDOCK:   -5.18 KCAL/MOL
REMARK 924 INTRA-LIGAND FREE ENERGY PREDICTED BY IDOCK:   -1.20 KCAL/MOL
REMARK 927      BINDING AFFINITY PREDICTED BY RF-SCORE:    0.00 PKD
ROOT
HETATM    1  C   UNL     1     -11.875  10.836  70.942  1.00  0.00    -0.400 C  
HETATM    2  C   UNL     1     -10.864   9.887  71.600  1.00  0.00     0.431 C  
HETATM    3  C   UNL     1      -9.568   9.761  70.747  1.00  0.00    -0.010 C  
HETATM    4  C   UNL     1      -8.536   8.941  71.547  1.00  0.00    -0.205 C  
HETATM    5  O   UNL     1     -10.871   6.864  73.491  1.00  0.00    -0.315 OA 
HETATM    6  N   UNL     1     -11.348   8.559  72.022  1.00  0.00    -0.330 N  
HETATM    7  C   UNL     1      -9.062   7.592  72.041  1.00  0.00    -0.129 C  
HETATM    8  C   UNL     1     -10.461   7.696  72.681  1.00  0.00    -0.287 C  
ENDROOT
BRANCH   3   9
HETATM    9  C   UNL     1      -9.752   9.284  69.307  1.00  0.00    -0.169 A  
HETATM   10  C   UNL     1      -9.372   9.629  66.925  1.00  0.00    -0.183 A  
HETATM   11  C   UNL     1      -9.167  10.006  68.258  1.00  0.00    -0.129 A  
HETATM   12  C   UNL     1     -10.523   8.165  68.964  1.00  0.00    -0.211 A  
HETATM   13  C   UNL     1     -10.743   7.793  67.638  1.00  0.00    -0.227 A  
HETATM   14  C   UNL     1     -10.164   8.525  66.615  1.00  0.00    -0.345 A  
ENDBRANCH   3   9
BRANCH   7  15
HETATM   15  N   UNL     1      -9.210   6.594  70.979  1.00  0.00    -0.160 N  
HETATM   16  H   UNL     1      -9.526   6.913  70.063  1.00  0.00     0.000 HD 
HETATM   17  C   UNL     1      -8.950   5.254  71.138  1.00  0.00    -0.139 C  
HETATM   18  O   UNL     1      -8.605   4.758  72.203  1.00  0.00    -0.117 OA 
BRANCH  17  19
HETATM   19  C   UNL     1      -9.102   4.402  69.924  1.00  0.00    -0.173 A  
HETATM   20  N   UNL     1      -9.374   2.147  69.027  1.00  0.00    -0.144 NA 
HETATM   21  C   UNL     1      -9.261   3.025  70.069  1.00  0.00    -0.146 A  
HETATM   22  C   UNL     1      -9.259   2.685  67.802  1.00  0.00    -0.200 A  
HETATM   23  C   UNL     1      -9.385   1.904  66.524  1.00  0.00     0.108 C  
HETATM   24  C   UNL     1      -8.932   2.919  65.451  1.00  0.00    -0.144 C  
HETATM   25  C   UNL     1      -8.788   4.312  66.115  1.00  0.00    -0.116 C  
HETATM   26  C   UNL     1      -9.974   3.024  64.309  1.00  0.00    -0.125 C  
HETATM   27  O   UNL     1     -11.141   3.354  64.417  1.00  0.00    -0.111 OA 
HETATM   28  C   UNL     1      -9.036   4.024  67.561  1.00  0.00    -0.148 A  
HETATM   29  N   UNL     1      -9.335   2.704  63.127  1.00  0.00    -0.094 N  
HETATM   30  C   UNL     1      -8.021   2.354  63.337  1.00  0.00    -0.072 A  
HETATM   31  C   UNL     1      -9.012   4.912  68.624  1.00  0.00    -0.130 A  
HETATM   32  H   UNL     1      -9.783   2.725  62.211  1.00  0.00     0.000 HD 
HETATM   33  N   UNL     1      -7.191   1.945  62.377  1.00  0.00    -0.033 NA 
HETATM   34  C   UNL     1      -5.958   1.599  62.812  1.00  0.00    -0.008 A  
HETATM   35  C   UNL     1      -5.546   1.661  64.146  1.00  0.00    -0.008 A  
HETATM   36  C   UNL     1      -6.445   2.107  65.116  1.00  0.00    -0.023 A  
HETATM   37  C   UNL     1      -7.712   2.461  64.688  1.00  0.00    -0.073 A  
ENDBRANCH  17  19
ENDBRANCH   7  15
BRANCH   6  38
HETATM   38  C   UNL     1     -12.780   8.188  72.094  1.00  0.00    -0.297 C  
HETATM   39  F   UNL     1     -13.964   7.281  70.233  1.00  0.00     0.358 F  
HETATM   40  F   UNL     1     -13.798   6.004  71.993  1.00  0.00    -0.076 F  
HETATM   41  C   UNL     1     -13.151   6.932  71.265  1.00  0.00    -0.201 C  
HETATM   42  F   UNL     1     -12.069   6.337  70.692  1.00  0.00    -0.395 F  
ENDBRANCH   6  38
TORSDOF 4
ENDMDL
MODEL       97
REMARK 921   NORMALIZED FREE ENERGY PREDICTED BY IDOCK:   -3.84 KCAL/MOL
REMARK 922        TOTAL FREE ENERGY PREDICTED BY IDOCK:   -6.33 KCAL/MOL
REMARK 923 INTER-LIGAND FREE ENERGY PREDICTED BY IDOCK:   -6.14 KCAL/MOL
REMARK 924 INTRA-LIGAND FREE ENERGY PREDICTED BY IDOCK:   -0.19 KCAL/MOL
REMARK 927      BINDING AFFINITY PREDICTED BY RF-SCORE:    0.00 PKD
ROOT
HETATM    1  C   UNL     1     -10.959  17.222  68.766  1.00  0.00    -0.040 C  
HETATM    2  C   UNL     1     -10.725  16.222  67.624  1.00  0.00    -0.311 C  
HETATM    3  C   UNL     1     -11.845  15.142  67.579  1.00  0.00    -0.113 C  
HETATM    4  C   UNL     1     -11.644  14.285  66.313  1.00  0.00    -0.379 C  
HETATM    5  O   UNL     1      -7.991  14.605  66.005  1.00  0.00     1.139 OA 
HETATM    6  N   UNL     1      -9.390  15.603  67.523  1.00  0.00    -0.205 N  
HETATM    7  C   UNL     1     -10.238  13.698  66.176  1.00  0.00    -0.304 C  
HETATM    8  C   UNL     1      -9.130  14.733  66.455  1.00  0.00    -0.260 C  
ENDROOT
BRANCH   3   9
HETATM    9  C   UNL     1     -12.043  14.323  68.853  1.00  0.00    -0.314 A  
HETATM   10  C   UNL     1     -12.533  14.252  71.239  1.00  0.00    -0.439 A  
HETATM   11  C   UNL     1     -12.407  14.968  70.043  1.00  0.00    -0.353 A  
HETATM   12  C   UNL     1     -11.839  12.937  68.913  1.00  0.00    -0.352 A  
HETATM   13  C   UNL     1     -11.949  12.220  70.103  1.00  0.00    -0.377 A  
HETATM   14  C   UNL     1     -12.299  12.878  71.270  1.00  0.00    -0.179 A  
ENDBRANCH   3   9
BRANCH   7  15
HETATM   15  N   UNL     1      -9.967  12.600  67.108  1.00  0.00    -0.215 N  
HETATM   16  H   UNL     1     -10.296  12.695  68.069  1.00  0.00     0.000 HD 
HETATM   17  C   UNL     1      -9.296  11.449  66.769  1.00  0.00    -0.180 C  
HETATM   18  O   UNL     1      -8.825  11.248  65.656  1.00  0.00    -0.189 OA 
BRANCH  17  19
HETATM   19  C   UNL     1      -9.169  10.418  67.838  1.00  0.00    -0.143 A  
HETATM   20  N   UNL     1      -7.819   9.519  69.664  1.00  0.00    -0.102 NA 
HETATM   21  C   UNL     1      -8.055  10.433  68.676  1.00  0.00    -0.118 A  
HETATM   22  C   UNL     1      -8.717   8.525  69.758  1.00  0.00    -0.132 A  
HETATM   23  C   UNL     1      -8.664   7.437  70.795  1.00  0.00    -0.145 C  
HETATM   24  C   UNL     1      -9.749   6.448  70.315  1.00  0.00    -0.186 C  
HETATM   25  C   UNL     1     -10.547   7.107  69.163  1.00  0.00    -0.227 C  
HETATM   26  C   UNL     1     -10.734   6.103  71.462  1.00  0.00    -0.252 C  
HETATM   27  O   UNL     1     -11.433   6.886  72.078  1.00  0.00    -0.254 OA 
HETATM   28  C   UNL     1      -9.814   8.391  68.935  1.00  0.00    -0.184 A  
HETATM   29  N   UNL     1     -10.703   4.736  71.645  1.00  0.00    -0.021 N  
HETATM   30  C   UNL     1      -9.794   4.130  70.807  1.00  0.00    -0.178 A  
HETATM   31  C   UNL     1     -10.086   9.373  67.997  1.00  0.00    -0.230 A  
HETATM   32  H   UNL     1     -11.282   4.235  72.318  1.00  0.00     0.000 HD 
HETATM   33  N   UNL     1      -9.521   2.825  70.816  1.00  0.00    -0.151 NA 
HETATM   34  C   UNL     1      -8.555   2.449  69.946  1.00  0.00    -0.052 A  
HETATM   35  C   UNL     1      -7.884   3.323  69.087  1.00  0.00    -0.054 A  
HETATM   36  C   UNL     1      -8.212   4.680  69.104  1.00  0.00    -0.081 A  
HETATM   37  C   UNL     1      -9.194   5.081  69.991  1.00  0.00    -0.182 A  
ENDBRANCH  17  19
ENDBRANCH   7  15
BRANCH   6  38
HETATM   38  C   UNL     1      -8.204  16.072  68.274  1.00  0.00    -0.159 C  
HETATM   39  F   UNL     1      -7.708  15.328  70.485  1.00  0.00     0.140 F  
HETATM   40  F   UNL     1      -6.239  14.845  68.948  1.00  0.00    -0.084 F  
HETATM   41  C   UNL     1      -7.557  14.991  69.177  1.00  0.00    -0.176 C  
HETATM   42  F   UNL     1      -8.143  13.770  69.044  1.00  0.00    -0.101 F  
ENDBRANCH   6  38
TORSDOF 4
ENDMDL
MODEL       98
REMARK 921   NORMALIZED FREE ENERGY PREDICTED BY IDOCK:   -3.59 KCAL/MOL
REMARK 922        TOTAL FREE ENERGY PREDICTED BY IDOCK:   -6.02 KCAL/MOL
REMARK 923 INTER-LIGAND FREE ENERGY PREDICTED BY IDOCK:   -5.38 KCAL/MOL
REMARK 924 INTRA-LIGAND FREE ENERGY PREDICTED BY IDOCK:   -0.64 KCAL/MOL
REMARK 927      BINDING AFFINITY PREDICTED BY RF-SCORE:    0.00 PKD
ROOT
HETATM    1  C   UNL     1     -11.715  17.498  67.288  1.00  0.00     1.602 C  
HETATM    2  C   UNL     1     -10.182  17.459  67.212  1.00  0.00    -0.324 C  
HETATM    3  C   UNL     1      -9.697  16.624  65.990  1.00  0.00    -0.306 C  
HETATM    4  C   UNL     1      -8.167  16.774  65.874  1.00  0.00     0.039 C  
HETATM    5  O   UNL     1      -7.396  17.314  69.432  1.00  0.00    -0.147 OA 
HETATM    6  N   UNL     1      -9.447  17.081  68.434  1.00  0.00    -0.260 N  
HETATM    7  C   UNL     1      -7.411  16.445  67.163  1.00  0.00    -0.192 C  
HETATM    8  C   UNL     1      -8.046  17.096  68.409  1.00  0.00    -0.255 C  
ENDROOT
BRANCH   3   9
HETATM    9  C   UNL     1     -10.182  15.177  65.927  1.00  0.00    -0.345 A  
HETATM   10  C   UNL     1      -9.671  12.795  65.990  1.00  0.00    -0.226 A  
HETATM   11  C   UNL     1      -9.267  14.130  66.107  1.00  0.00    -0.088 A  
HETATM   12  C   UNL     1     -11.512  14.826  65.655  1.00  0.00    -0.327 A  
HETATM   13  C   UNL     1     -11.918  13.499  65.525  1.00  0.00    -0.420 A  
HETATM   14  C   UNL     1     -10.996  12.479  65.695  1.00  0.00    -0.323 A  
ENDBRANCH   3   9
BRANCH   7  15
HETATM   15  N   UNL     1      -7.368  15.014  67.470  1.00  0.00    -0.188 N  
HETATM   16  H   UNL     1      -8.220  14.469  67.334  1.00  0.00     0.000 HD 
HETATM   17  C   UNL     1      -6.252  14.357  67.931  1.00  0.00    -0.156 C  
HETATM   18  O   UNL     1      -5.190  14.920  68.167  1.00  0.00    -0.106 OA 
BRANCH  17  19
HETATM   19  C   UNL     1      -6.386  12.886  68.131  1.00  0.00    -0.096 A  
HETATM   20  N   UNL     1      -5.660  10.654  67.455  1.00  0.00    -0.043 NA 
HETATM   21  C   UNL     1      -5.596  12.017  67.379  1.00  0.00    -0.120 A  
HETATM   22  C   UNL     1      -6.600  10.164  68.278  1.00  0.00    -0.054 A  
HETATM   23  C   UNL     1      -6.816   8.698  68.534  1.00  0.00    -0.064 C  
HETATM   24  C   UNL     1      -8.138   8.676  69.333  1.00  0.00    -0.111 C  
HETATM   25  C   UNL     1      -8.512  10.131  69.713  1.00  0.00    -0.147 C  
HETATM   26  C   UNL     1      -7.986   7.850  70.636  1.00  0.00    -0.096 C  
HETATM   27  O   UNL     1      -7.205   8.063  71.545  1.00  0.00    -0.062 OA 
HETATM   28  C   UNL     1      -7.469  10.942  69.013  1.00  0.00    -0.124 A  
HETATM   29  N   UNL     1      -8.923   6.836  70.601  1.00  0.00    -0.151 N  
HETATM   30  C   UNL     1      -9.643   6.848  69.428  1.00  0.00    -0.147 A  
HETATM   31  C   UNL     1      -7.333  12.321  68.992  1.00  0.00     0.017 A  
HETATM   32  H   UNL     1      -9.063   6.162  71.352  1.00  0.00     0.000 HD 
HETATM   33  N   UNL     1     -10.571   5.945  69.109  1.00  0.00    -0.268 NA 
HETATM   34  C   UNL     1     -11.119   6.114  67.884  1.00  0.00    -0.206 A  
HETATM   35  C   UNL     1     -10.776   7.142  67.002  1.00  0.00    -0.420 A  
HETATM   36  C   UNL     1      -9.808   8.072  67.383  1.00  0.00    -0.244 A  
HETATM   37  C   UNL     1      -9.235   7.911  68.632  1.00  0.00    -0.142 A  
ENDBRANCH  17  19
ENDBRANCH   7  15
BRANCH   6  38
HETATM   38  C   UNL     1     -10.066  16.997  69.775  1.00  0.00     0.188 C  
HETATM   39  F   UNL     1     -12.194  15.986  70.145  1.00  0.00    -0.346 F  
HETATM   40  F   UNL     1     -10.493  15.055  71.142  1.00  0.00    -0.174 F  
HETATM   41  C   UNL     1     -10.872  15.696  70.021  1.00  0.00    -0.330 C  
HETATM   42  F   UNL     1     -10.787  14.816  68.986  1.00  0.00    -0.214 F  
ENDBRANCH   6  38
TORSDOF 4
ENDMDL
MODEL       99
REMARK 921   NORMALIZED FREE ENERGY PREDICTED BY IDOCK:   -3.56 KCAL/MOL
REMARK 922        TOTAL FREE ENERGY PREDICTED BY IDOCK:   -5.98 KCAL/MOL
REMARK 923 INTER-LIGAND FREE ENERGY PREDICTED BY IDOCK:   -4.48 KCAL/MOL
REMARK 924 INTRA-LIGAND FREE ENERGY PREDICTED BY IDOCK:   -1.51 KCAL/MOL
REMARK 927      BINDING AFFINITY PREDICTED BY RF-SCORE:    0.00 PKD
ROOT
HETATM    1  C   UNL     1      -6.707  18.670  66.232  1.00  0.00    -0.251 C  
HETATM    2  C   UNL     1      -7.819  18.777  67.286  1.00  0.00    -0.232 C  
HETATM    3  C   UNL     1      -7.412  18.070  68.611  1.00  0.00    -0.291 C  
HETATM    4  C   UNL     1      -8.491  18.367  69.672  1.00  0.00     0.853 C  
HETATM    5  O   UNL     1     -11.381  18.751  67.427  1.00  0.00    -0.004 OA 
HETATM    6  N   UNL     1      -9.184  18.393  66.879  1.00  0.00    -0.278 N  
HETATM    7  C   UNL     1      -9.914  18.029  69.224  1.00  0.00    -0.086 C  
HETATM    8  C   UNL     1     -10.228  18.538  67.803  1.00  0.00    -0.382 C  
ENDROOT
BRANCH   3   9
HETATM    9  C   UNL     1      -7.046  16.590  68.501  1.00  0.00    -0.164 A  
HETATM   10  C   UNL     1      -7.320  14.446  67.377  1.00  0.00    -0.167 A  
HETATM   11  C   UNL     1      -7.586  15.817  67.464  1.00  0.00    -0.194 A  
HETATM   12  C   UNL     1      -6.214  15.937  69.421  1.00  0.00    -0.153 A  
HETATM   13  C   UNL     1      -5.955  14.569  69.347  1.00  0.00    -0.101 A  
HETATM   14  C   UNL     1      -6.507  13.821  68.322  1.00  0.00    -0.110 A  
ENDBRANCH   3   9
BRANCH   7  15
HETATM   15  N   UNL     1     -10.188  16.591  69.175  1.00  0.00    -0.280 N  
HETATM   16  H   UNL     1      -9.691  16.032  68.481  1.00  0.00     0.000 HD 
HETATM   17  C   UNL     1     -11.074  15.946  70.004  1.00  0.00    -0.354 C  
HETATM   18  O   UNL     1     -11.752  16.525  70.844  1.00  0.00    -0.212 OA 
BRANCH  17  19
HETATM   19  C   UNL     1     -11.176  14.467  69.842  1.00  0.00    -0.247 A  
HETATM   20  N   UNL     1     -12.367  12.420  70.435  1.00  0.00    -0.274 NA 
HETATM   21  C   UNL     1     -12.200  13.776  70.486  1.00  0.00    -0.369 A  
HETATM   22  C   UNL     1     -11.424  11.746  69.759  1.00  0.00    -0.245 A  
HETATM   23  C   UNL     1     -11.436  10.256  69.554  1.00  0.00    -0.273 C  
HETATM   24  C   UNL     1     -10.042   9.978  68.950  1.00  0.00    -0.200 C  
HETATM   25  C   UNL     1      -9.370  11.332  68.609  1.00  0.00    -0.167 C  
HETATM   26  C   UNL     1     -10.157   9.143  67.649  1.00  0.00    -0.220 C  
HETATM   27  O   UNL     1     -10.756   9.455  66.636  1.00  0.00    -0.143 OA 
HETATM   28  C   UNL     1     -10.340  12.335  69.145  1.00  0.00     0.110 A  
HETATM   29  N   UNL     1      -9.427   7.985  67.827  1.00  0.00    -0.143 N  
HETATM   30  C   UNL     1      -8.883   7.916  69.089  1.00  0.00    -0.142 A  
HETATM   31  C   UNL     1     -10.233  13.716  69.130  1.00  0.00     0.099 A  
HETATM   32  H   UNL     1      -9.306   7.270  67.111  1.00  0.00     0.000 HD 
HETATM   33  N   UNL     1      -8.180   6.878  69.547  1.00  0.00    -0.130 NA 
HETATM   34  C   UNL     1      -7.784   6.994  70.835  1.00  0.00    -0.095 A  
HETATM   35  C   UNL     1      -8.058   8.098  71.648  1.00  0.00    -0.150 A  
HETATM   36  C   UNL     1      -8.787   9.166  71.123  1.00  0.00    -0.233 A  
HETATM   37  C   UNL     1      -9.203   9.061  69.808  1.00  0.00    -0.172 A  
ENDBRANCH  17  19
ENDBRANCH   7  15
BRANCH   6  38
HETATM   38  C   UNL     1      -9.593  18.168  65.475  1.00  0.00     0.823 C  
HETATM   39  F   UNL     1      -9.561  16.010  64.459  1.00  0.00     0.781 F  
HETATM   40  F   UNL     1     -11.508  16.979  64.615  1.00  0.00    -0.326 F  
HETATM   41  C   UNL     1     -10.325  16.822  65.237  1.00  0.00    -0.052 C  
HETATM   42  F   UNL     1     -10.545  16.127  66.386  1.00  0.00    -0.299 F  
ENDBRANCH   6  38
TORSDOF 4
ENDMDL
MODEL      100
REMARK 921   NORMALIZED FREE ENERGY PREDICTED BY IDOCK:   -3.48 KCAL/MOL
REMARK 922        TOTAL FREE ENERGY PREDICTED BY IDOCK:   -5.89 KCAL/MOL
REMARK 923 INTER-LIGAND FREE ENERGY PREDICTED BY IDOCK:   -3.87 KCAL/MOL
REMARK 924 INTRA-LIGAND FREE ENERGY PREDICTED BY IDOCK:   -2.03 KCAL/MOL
REMARK 927      BINDING AFFINITY PREDICTED BY RF-SCORE:    0.00 PKD
ROOT
HETATM    1  C   UNL     1      -6.370  20.710  67.437  1.00  0.00    -0.311 C  
HETATM    2  C   UNL     1      -7.523  20.441  68.414  1.00  0.00    -0.017 C  
HETATM    3  C   UNL     1      -7.264  19.157  69.255  1.00  0.00    -0.283 C  
HETATM    4  C   UNL     1      -8.366  19.047  70.328  1.00  0.00     1.861 C  
HETATM    5  O   UNL     1     -11.073  20.757  68.515  1.00  0.00     0.752 OA 
HETATM    6  N   UNL     1      -8.894  20.448  67.870  1.00  0.00    -0.154 N  
HETATM    7  C   UNL     1      -9.788  19.120  69.768  1.00  0.00     0.387 C  
HETATM    8  C   UNL     1      -9.969  20.265  68.751  1.00  0.00    -0.063 C  
ENDROOT
BRANCH   3   9
HETATM    9  C   UNL     1      -7.040  17.868  68.465  1.00  0.00    -0.254 A  
HETATM   10  C   UNL     1      -7.234  16.637  66.371  1.00  0.00    -0.168 A  
HETATM   11  C   UNL     1      -7.367  17.823  67.103  1.00  0.00    -0.208 A  
HETATM   12  C   UNL     1      -6.553  16.688  69.047  1.00  0.00    -0.198 A  
HETATM   13  C   UNL     1      -6.430  15.501  68.326  1.00  0.00    -0.122 A  
HETATM   14  C   UNL     1      -6.769  15.475  66.984  1.00  0.00     0.135 A  
ENDBRANCH   3   9
BRANCH   7  15
HETATM   15  N   UNL     1     -10.200  17.912  69.049  1.00  0.00    -0.381 N  
HETATM   16  H   UNL     1     -10.056  17.884  68.040  1.00  0.00     0.000 HD 
HETATM   17  C   UNL     1     -10.769  16.814  69.649  1.00  0.00    -0.229 C  
HETATM   18  O   UNL     1     -11.022  16.758  70.846  1.00  0.00     0.022 OA 
BRANCH  17  19
HETATM   19  C   UNL     1     -11.067  15.655  68.760  1.00  0.00    -0.307 A  
HETATM   20  N   UNL     1     -12.002  13.407  68.573  1.00  0.00    -0.355 NA 
HETATM   21  C   UNL     1     -11.711  14.536  69.286  1.00  0.00    -0.310 A  
HETATM   22  C   UNL     1     -11.567  13.397  67.303  1.00  0.00    -0.360 A  
HETATM   23  C   UNL     1     -11.810  12.270  66.338  1.00  0.00    -0.382 C  
HETATM   24  C   UNL     1     -10.913  12.642  65.137  1.00  0.00    -0.324 C  
HETATM   25  C   UNL     1     -10.371  14.078  65.348  1.00  0.00    -0.377 C  
HETATM   26  C   UNL     1     -11.716  12.609  63.811  1.00  0.00    -0.491 C  
HETATM   27  O   UNL     1     -12.699  13.273  63.541  1.00  0.00    -0.708 OA 
HETATM   28  C   UNL     1     -10.867  14.429  66.714  1.00  0.00    -0.301 A  
HETATM   29  N   UNL     1     -11.097  11.708  62.968  1.00  0.00    -0.758 N  
HETATM   30  C   UNL     1     -10.020  11.102  63.573  1.00  0.00    -0.379 A  
HETATM   31  C   UNL     1     -10.658  15.600  67.423  1.00  0.00    -0.301 A  
HETATM   32  H   UNL     1     -11.402  11.515  62.014  1.00  0.00     0.000 HD 
HETATM   33  N   UNL     1      -9.280  10.148  63.005  1.00  0.00    -0.275 NA 
HETATM   34  C   UNL     1      -8.302   9.651  63.797  1.00  0.00    -0.173 A  
HETATM   35  C   UNL     1      -8.050  10.082  65.102  1.00  0.00    -0.144 A  
HETATM   36  C   UNL     1      -8.842  11.091  65.651  1.00  0.00    -0.187 A  
HETATM   37  C   UNL     1      -9.850  11.607  64.856  1.00  0.00    -0.267 A  
ENDBRANCH  17  19
ENDBRANCH   7  15
BRANCH   6  38
HETATM   38  C   UNL     1      -9.244  20.951  66.523  1.00  0.00     0.387 C  
HETATM   39  F   UNL     1      -9.047  19.608  64.562  1.00  0.00     2.256 F  
HETATM   40  F   UNL     1     -11.054  20.292  65.070  1.00  0.00    -0.457 F  
HETATM   41  C   UNL     1      -9.884  19.885  65.596  1.00  0.00    -0.090 C  
HETATM   42  F   UNL     1     -10.097  18.697  66.223  1.00  0.00    -0.330 F  
ENDBRANCH   6  38
TORSDOF 4
ENDMDL
MODEL      101
REMARK 921   NORMALIZED FREE ENERGY PREDICTED BY IDOCK:   -3.46 KCAL/MOL
REMARK 922        TOTAL FREE ENERGY PREDICTED BY IDOCK:   -5.86 KCAL/MOL
REMARK 923 INTER-LIGAND FREE ENERGY PREDICTED BY IDOCK:   -4.24 KCAL/MOL
REMARK 924 INTRA-LIGAND FREE ENERGY PREDICTED BY IDOCK:   -1.61 KCAL/MOL
REMARK 927      BINDING AFFINITY PREDICTED BY RF-SCORE:    0.00 PKD
ROOT
HETATM    1  C   UNL     1      -9.433   1.482  67.285  1.00  0.00     0.042 C  
HETATM    2  C   UNL     1      -8.117   2.124  67.748  1.00  0.00    -0.063 C  
HETATM    3  C   UNL     1      -8.334   3.019  69.003  1.00  0.00    -0.085 C  
HETATM    4  C   UNL     1      -6.956   3.484  69.514  1.00  0.00    -0.042 C  
HETATM    5  O   UNL     1      -5.149   3.476  66.308  1.00  0.00    -0.007 OA 
HETATM    6  N   UNL     1      -7.306   2.824  66.735  1.00  0.00    -0.068 N  
HETATM    7  C   UNL     1      -6.090   4.152  68.444  1.00  0.00    -0.031 C  
HETATM    8  C   UNL     1      -6.071   3.366  67.117  1.00  0.00    -0.024 C  
ENDROOT
BRANCH   3   9
HETATM    9  C   UNL     1      -9.352   4.149  68.856  1.00  0.00    -0.228 A  
HETATM   10  C   UNL     1     -10.735   5.866  69.895  1.00  0.00    -0.406 A  
HETATM   11  C   UNL     1      -9.756   4.869  69.989  1.00  0.00    -0.285 A  
HETATM   12  C   UNL     1      -9.949   4.489  67.634  1.00  0.00    -0.138 A  
HETATM   13  C   UNL     1     -10.933   5.471  67.536  1.00  0.00     0.092 A  
HETATM   14  C   UNL     1     -11.327   6.164  68.668  1.00  0.00    -0.106 A  
ENDBRANCH   3   9
BRANCH   7  15
HETATM   15  N   UNL     1      -6.541   5.496  68.076  1.00  0.00    -0.048 N  
HETATM   16  H   UNL     1      -6.867   5.647  67.121  1.00  0.00     0.000 HD 
HETATM   17  C   UNL     1      -6.553   6.567  68.937  1.00  0.00    -0.048 C  
HETATM   18  O   UNL     1      -6.148   6.507  70.091  1.00  0.00    -0.028 OA 
BRANCH  17  19
HETATM   19  C   UNL     1      -7.104   7.843  68.397  1.00  0.00    -0.081 A  
HETATM   20  N   UNL     1      -7.310   9.331  66.472  1.00  0.00    -0.092 NA 
HETATM   21  C   UNL     1      -6.882   8.175  67.062  1.00  0.00    -0.070 A  
HETATM   22  C   UNL     1      -7.928  10.202  67.287  1.00  0.00    -0.110 A  
HETATM   23  C   UNL     1      -8.504  11.515  66.836  1.00  0.00    -0.165 C  
HETATM   24  C   UNL     1      -8.861  12.213  68.167  1.00  0.00    -0.187 C  
HETATM   25  C   UNL     1      -8.700  11.192  69.321  1.00  0.00     0.158 C  
HETATM   26  C   UNL     1     -10.327  12.716  68.155  1.00  0.00    -0.234 C  
HETATM   27  O   UNL     1     -11.327  12.038  68.010  1.00  0.00    -0.252 OA 
HETATM   28  C   UNL     1      -8.136   9.990  68.633  1.00  0.00    -0.102 A  
HETATM   29  N   UNL     1     -10.304  14.079  68.373  1.00  0.00    -0.245 N  
HETATM   30  C   UNL     1      -9.018  14.557  68.478  1.00  0.00    -0.188 A  
HETATM   31  C   UNL     1      -7.775   8.777  69.195  1.00  0.00    -0.093 A  
HETATM   32  H   UNL     1     -11.139  14.661  68.446  1.00  0.00     0.000 HD 
HETATM   33  N   UNL     1      -8.707  15.845  68.631  1.00  0.00    -0.187 NA 
HETATM   34  C   UNL     1      -7.378  16.101  68.657  1.00  0.00    -0.175 A  
HETATM   35  C   UNL     1      -6.385  15.124  68.549  1.00  0.00    -0.092 A  
HETATM   36  C   UNL     1      -6.758  13.787  68.402  1.00  0.00    -0.100 A  
HETATM   37  C   UNL     1      -8.112  13.509  68.369  1.00  0.00    -0.145 A  
ENDBRANCH  17  19
ENDBRANCH   7  15
BRANCH   6  38
HETATM   38  C   UNL     1      -7.540   2.723  65.277  1.00  0.00    -0.076 C  
HETATM   39  F   UNL     1      -9.192   4.023  64.150  1.00  0.00    -0.123 F  
HETATM   40  F   UNL     1      -7.123   4.351  63.546  1.00  0.00    -0.041 F  
HETATM   41  C   UNL     1      -7.910   4.067  64.600  1.00  0.00    -0.085 C  
HETATM   42  F   UNL     1      -7.860   5.123  65.456  1.00  0.00    -0.086 F  
ENDBRANCH   6  38
TORSDOF 4
ENDMDL
MODEL      102
REMARK 921   NORMALIZED FREE ENERGY PREDICTED BY IDOCK:   -3.33 KCAL/MOL
REMARK 922        TOTAL FREE ENERGY PREDICTED BY IDOCK:   -5.71 KCAL/MOL
REMARK 923 INTER-LIGAND FREE ENERGY PREDICTED BY IDOCK:   -6.31 KCAL/MOL
REMARK 924 INTRA-LIGAND FREE ENERGY PREDICTED BY IDOCK:    0.61 KCAL/MOL
REMARK 927      BINDING AFFINITY PREDICTED BY RF-SCORE:    0.00 PKD
ROOT
HETATM    1  C   UNL     1      -7.784   3.712  72.587  1.00  0.00    -0.061 C  
HETATM    2  C   UNL     1      -7.692   3.820  71.059  1.00  0.00    -0.048 C  
HETATM    3  C   UNL     1      -6.438   4.633  70.623  1.00  0.00    -0.030 C  
HETATM    4  C   UNL     1      -6.313   4.551  69.089  1.00  0.00    -0.032 C  
HETATM    5  O   UNL     1      -9.880   4.174  68.267  1.00  0.00    -0.115 OA 
HETATM    6  N   UNL     1      -8.893   4.276  70.334  1.00  0.00    -0.081 N  
HETATM    7  C   UNL     1      -7.583   4.960  68.339  1.00  0.00    -0.078 C  
HETATM    8  C   UNL     1      -8.856   4.325  68.933  1.00  0.00    -0.100 C  
ENDROOT
BRANCH   3   9
HETATM    9  C   UNL     1      -6.328   6.053  71.176  1.00  0.00    -0.044 A  
HETATM   10  C   UNL     1      -6.098   7.539  73.094  1.00  0.00    -0.059 A  
HETATM   11  C   UNL     1      -6.137   6.249  72.551  1.00  0.00    -0.042 A  
HETATM   12  C   UNL     1      -6.450   7.198  70.376  1.00  0.00    -0.046 A  
HETATM   13  C   UNL     1      -6.426   8.484  70.913  1.00  0.00    -0.042 A  
HETATM   14  C   UNL     1      -6.247   8.657  72.275  1.00  0.00    -0.076 A  
ENDBRANCH   3   9
BRANCH   7  15
HETATM   15  N   UNL     1      -7.839   6.403  68.362  1.00  0.00    -0.104 N  
HETATM   16  H   UNL     1      -7.394   6.956  69.094  1.00  0.00     0.000 HD 
HETATM   17  C   UNL     1      -8.641   7.057  67.458  1.00  0.00    -0.121 C  
HETATM   18  O   UNL     1      -9.253   6.486  66.564  1.00  0.00    -0.150 OA 
BRANCH  17  19
HETATM   19  C   UNL     1      -8.734   8.538  67.607  1.00  0.00    -0.136 A  
HETATM   20  N   UNL     1      -7.726  10.571  68.508  1.00  0.00    -0.098 NA 
HETATM   21  C   UNL     1      -7.726   9.223  68.284  1.00  0.00    -0.087 A  
HETATM   22  C   UNL     1      -8.816  11.229  68.082  1.00  0.00    -0.159 A  
HETATM   23  C   UNL     1      -9.003  12.716  68.200  1.00  0.00    -0.199 C  
HETATM   24  C   UNL     1     -10.483  12.913  67.802  1.00  0.00    -0.225 C  
HETATM   25  C   UNL     1     -11.029  11.574  67.245  1.00  0.00    -0.323 C  
HETATM   26  C   UNL     1     -10.624  13.998  66.704  1.00  0.00    -0.274 C  
HETATM   27  O   UNL     1     -10.119  13.980  65.596  1.00  0.00    -0.313 OA 
HETATM   28  C   UNL     1      -9.891  10.629  67.461  1.00  0.00    -0.194 A  
HETATM   29  N   UNL     1     -11.457  14.983  67.192  1.00  0.00    -0.332 N  
HETATM   30  C   UNL     1     -11.849  14.724  68.486  1.00  0.00    -0.306 A  
HETATM   31  C   UNL     1      -9.836   9.277  67.163  1.00  0.00    -0.251 A  
HETATM   32  H   UNL     1     -11.747  15.804  66.660  1.00  0.00     0.000 HD 
HETATM   33  N   UNL     1     -12.608  15.541  69.218  1.00  0.00     0.062 NA 
HETATM   34  C   UNL     1     -12.829  15.117  70.483  1.00  0.00    -0.348 A  
HETATM   35  C   UNL     1     -12.332  13.923  71.013  1.00  0.00    -0.453 A  
HETATM   36  C   UNL     1     -11.553  13.093  70.206  1.00  0.00    -0.079 A  
HETATM   37  C   UNL     1     -11.313  13.514  68.910  1.00  0.00    -0.332 A  
ENDBRANCH  17  19
ENDBRANCH   7  15
BRANCH   6  38
HETATM   38  C   UNL     1     -10.237   4.378  70.946  1.00  0.00    -0.042 C  
HETATM   39  F   UNL     1     -10.682   5.762  72.837  1.00  0.00    -0.217 F  
HETATM   40  F   UNL     1     -11.751   6.255  71.001  1.00  0.00    -0.363 F  
HETATM   41  C   UNL     1     -10.583   5.791  71.482  1.00  0.00    -0.246 C  
HETATM   42  F   UNL     1      -9.620   6.712  71.206  1.00  0.00    -0.167 F  
ENDBRANCH   6  38
TORSDOF 4
ENDMDL
MODEL      103
REMARK 921   NORMALIZED FREE ENERGY PREDICTED BY IDOCK:   -3.08 KCAL/MOL
REMARK 922        TOTAL FREE ENERGY PREDICTED BY IDOCK:   -5.39 KCAL/MOL
REMARK 923 INTER-LIGAND FREE ENERGY PREDICTED BY IDOCK:   -3.96 KCAL/MOL
REMARK 924 INTRA-LIGAND FREE ENERGY PREDICTED BY IDOCK:   -1.43 KCAL/MOL
REMARK 927      BINDING AFFINITY PREDICTED BY RF-SCORE:    0.00 PKD
ROOT
HETATM    1  C   UNL     1      -9.840   9.442  72.170  1.00  0.00     0.847 C  
HETATM    2  C   UNL     1     -10.349   8.071  72.637  1.00  0.00    -0.329 C  
HETATM    3  C   UNL     1      -9.169   7.100  72.933  1.00  0.00    -0.171 C  
HETATM    4  C   UNL     1      -9.743   5.814  73.560  1.00  0.00    -0.159 C  
HETATM    5  O   UNL     1     -13.058   5.853  71.962  1.00  0.00     0.352 OA 
HETATM    6  N   UNL     1     -11.382   7.411  71.816  1.00  0.00    -0.249 N  
HETATM    7  C   UNL     1     -10.861   5.167  72.740  1.00  0.00    -0.258 C  
HETATM    8  C   UNL     1     -11.908   6.187  72.251  1.00  0.00    -0.275 C  
ENDROOT
BRANCH   3   9
HETATM    9  C   UNL     1      -8.200   6.845  71.780  1.00  0.00    -0.105 A  
HETATM   10  C   UNL     1      -5.987   6.165  71.018  1.00  0.00    -0.030 A  
HETATM   11  C   UNL     1      -6.918   6.347  72.049  1.00  0.00    -0.073 A  
HETATM   12  C   UNL     1      -8.512   7.123  70.441  1.00  0.00    -0.140 A  
HETATM   13  C   UNL     1      -7.586   6.956  69.413  1.00  0.00    -0.099 A  
HETATM   14  C   UNL     1      -6.320   6.474  69.701  1.00  0.00    -0.038 A  
ENDBRANCH   3   9
BRANCH   7  15
HETATM   15  N   UNL     1     -10.388   4.505  71.521  1.00  0.00    -0.124 N  
HETATM   16  H   UNL     1     -10.833   4.754  70.638  1.00  0.00     0.000 HD 
HETATM   17  C   UNL     1      -9.382   3.569  71.494  1.00  0.00    -0.139 C  
HETATM   18  O   UNL     1      -8.807   3.169  72.499  1.00  0.00    -0.082 OA 
BRANCH  17  19
HETATM   19  C   UNL     1      -8.998   3.050  70.150  1.00  0.00    -0.170 A  
HETATM   20  N   UNL     1      -7.640   1.469  68.877  1.00  0.00    -0.042 NA 
HETATM   21  C   UNL     1      -8.087   1.999  70.055  1.00  0.00    -0.041 A  
HETATM   22  C   UNL     1      -8.089   2.071  67.765  1.00  0.00    -0.060 A  
HETATM   23  C   UNL     1      -7.748   1.626  66.369  1.00  0.00    -0.066 C  
HETATM   24  C   UNL     1      -8.300   2.773  65.495  1.00  0.00    -0.096 C  
HETATM   25  C   UNL     1      -9.143   3.717  66.388  1.00  0.00    -0.162 C  
HETATM   26  C   UNL     1      -9.208   2.223  64.364  1.00  0.00    -0.127 C  
HETATM   27  O   UNL     1     -10.225   1.569  64.503  1.00  0.00     0.134 OA 
HETATM   28  C   UNL     1      -8.941   3.155  67.759  1.00  0.00    -0.188 A  
HETATM   29  N   UNL     1      -8.675   2.635  63.160  1.00  0.00    -0.085 N  
HETATM   30  C   UNL     1      -7.508   3.343  63.335  1.00  0.00    -0.058 A  
HETATM   31  C   UNL     1      -9.454   3.624  68.957  1.00  0.00    -0.226 A  
HETATM   32  H   UNL     1      -9.094   2.439  62.252  1.00  0.00     0.000 HD 
HETATM   33  N   UNL     1      -6.755   3.808  62.336  1.00  0.00    -0.026 NA 
HETATM   34  C   UNL     1      -5.621   4.430  62.732  1.00  0.00    -0.010 A  
HETATM   35  C   UNL     1      -5.240   4.601  64.066  1.00  0.00    -0.009 A  
HETATM   36  C   UNL     1      -6.064   4.109  65.078  1.00  0.00    -0.023 A  
HETATM   37  C   UNL     1      -7.226   3.466  64.690  1.00  0.00    -0.066 A  
ENDBRANCH  17  19
ENDBRANCH   7  15
BRANCH   6  38
HETATM   38  C   UNL     1     -12.137   8.090  70.739  1.00  0.00    -0.076 C  
HETATM   39  F   UNL     1     -14.410   8.768  70.997  1.00  0.00    -0.393 F  
HETATM   40  F   UNL     1     -12.959  10.357  70.645  1.00  0.00    -0.394 F  
HETATM   41  C   UNL     1     -13.134   9.165  71.245  1.00  0.00    -0.240 C  
HETATM   42  F   UNL     1     -13.066   9.359  72.590  1.00  0.00    -0.462 F  
ENDBRANCH   6  38
TORSDOF 4
ENDMDL
MODEL      104
REMARK 921   NORMALIZED FREE ENERGY PREDICTED BY IDOCK:   -3.05 KCAL/MOL
REMARK 922        TOTAL FREE ENERGY PREDICTED BY IDOCK:   -5.35 KCAL/MOL
REMARK 923 INTER-LIGAND FREE ENERGY PREDICTED BY IDOCK:   -4.80 KCAL/MOL
REMARK 924 INTRA-LIGAND FREE ENERGY PREDICTED BY IDOCK:   -0.56 KCAL/MOL
REMARK 927      BINDING AFFINITY PREDICTED BY RF-SCORE:    0.00 PKD
ROOT
HETATM    1  C   UNL     1      -6.997   2.298  65.563  1.00  0.00    -0.051 C  
HETATM    2  C   UNL     1      -6.917   3.431  64.530  1.00  0.00    -0.053 C  
HETATM    3  C   UNL     1      -5.738   4.399  64.840  1.00  0.00    -0.014 C  
HETATM    4  C   UNL     1      -5.610   5.400  63.675  1.00  0.00    -0.014 C  
HETATM    5  O   UNL     1      -9.134   5.463  62.615  1.00  0.00     0.020 OA 
HETATM    6  N   UNL     1      -8.155   4.182  64.245  1.00  0.00    -0.089 N  
HETATM    7  C   UNL     1      -6.912   6.130  63.337  1.00  0.00    -0.046 C  
HETATM    8  C   UNL     1      -8.125   5.181  63.262  1.00  0.00    -0.106 C  
ENDROOT
BRANCH   3   9
HETATM    9  C   UNL     1      -5.750   5.055  66.220  1.00  0.00    -0.018 A  
HETATM   10  C   UNL     1      -5.319   4.902  68.613  1.00  0.00    -0.007 A  
HETATM   11  C   UNL     1      -5.262   4.350  67.328  1.00  0.00    -0.012 A  
HETATM   12  C   UNL     1      -6.269   6.337  66.453  1.00  0.00    -0.037 A  
HETATM   13  C   UNL     1      -6.341   6.887  67.733  1.00  0.00    -0.048 A  
HETATM   14  C   UNL     1      -5.864   6.169  68.816  1.00  0.00    -0.019 A  
ENDBRANCH   3   9
BRANCH   7  15
HETATM   15  N   UNL     1      -7.291   7.143  64.325  1.00  0.00    -0.079 N  
HETATM   16  H   UNL     1      -7.128   6.936  65.310  1.00  0.00     0.000 HD 
HETATM   17  C   UNL     1      -7.852   8.357  64.007  1.00  0.00    -0.146 C  
HETATM   18  O   UNL     1      -8.126   8.692  62.862  1.00  0.00    -0.159 OA 
BRANCH  17  19
HETATM   19  C   UNL     1      -8.115   9.282  65.146  1.00  0.00    -0.124 A  
HETATM   20  N   UNL     1      -9.682  10.014  66.869  1.00  0.00    -0.181 NA 
HETATM   21  C   UNL     1      -9.323   9.196  65.835  1.00  0.00    -0.243 A  
HETATM   22  C   UNL     1      -8.807  10.988  67.167  1.00  0.00    -0.140 A  
HETATM   23  C   UNL     1      -8.992  11.973  68.288  1.00  0.00    -0.186 C  
HETATM   24  C   UNL     1      -7.862  12.996  68.042  1.00  0.00    -0.146 C  
HETATM   25  C   UNL     1      -6.925  12.443  66.938  1.00  0.00     0.104 C  
HETATM   26  C   UNL     1      -7.027  13.223  69.328  1.00  0.00     0.018 C  
HETATM   27  O   UNL     1      -6.404  12.381  69.948  1.00  0.00    -0.124 OA 
HETATM   28  C   UNL     1      -7.618  11.192  66.501  1.00  0.00    -0.135 A  
HETATM   29  N   UNL     1      -7.086  14.567  69.635  1.00  0.00    -0.295 N  
HETATM   30  C   UNL     1      -7.888  15.256  68.754  1.00  0.00    -0.154 A  
HETATM   31  C   UNL     1      -7.228  10.301  65.515  1.00  0.00    -0.149 A  
HETATM   32  H   UNL     1      -6.596  14.997  70.418  1.00  0.00     0.000 HD 
HETATM   33  N   UNL     1      -8.166  16.557  68.852  1.00  0.00    -0.242 NA 
HETATM   34  C   UNL     1      -9.020  17.020  67.910  1.00  0.00    -0.228 A  
HETATM   35  C   UNL     1      -9.576  16.236  66.896  1.00  0.00    -0.244 A  
HETATM   36  C   UNL     1      -9.247  14.881  66.825  1.00  0.00    -0.281 A  
HETATM   37  C   UNL     1      -8.378  14.391  67.783  1.00  0.00    -0.172 A  
ENDBRANCH  17  19
ENDBRANCH   7  15
BRANCH   6  38
HETATM   38  C   UNL     1      -9.501   3.750  64.683  1.00  0.00    -0.165 C  
HETATM   39  F   UNL     1     -10.115   3.604  66.983  1.00  0.00    -0.172 F  
HETATM   40  F   UNL     1     -11.235   5.027  65.770  1.00  0.00    -0.284 F  
HETATM   41  C   UNL     1     -10.019   4.480  65.949  1.00  0.00    -0.244 C  
HETATM   42  F   UNL     1      -9.178   5.460  66.377  1.00  0.00    -0.130 F  
ENDBRANCH   6  38
TORSDOF 4
ENDMDL
MODEL      105
REMARK 921   NORMALIZED FREE ENERGY PREDICTED BY IDOCK:   -3.01 KCAL/MOL
REMARK 922        TOTAL FREE ENERGY PREDICTED BY IDOCK:   -5.30 KCAL/MOL
REMARK 923 INTER-LIGAND FREE ENERGY PREDICTED BY IDOCK:   -4.38 KCAL/MOL
REMARK 924 INTRA-LIGAND FREE ENERGY PREDICTED BY IDOCK:   -0.92 KCAL/MOL
REMARK 927      BINDING AFFINITY PREDICTED BY RF-SCORE:    0.00 PKD
ROOT
HETATM    1  C   UNL     1     -10.237   4.606  68.970  1.00  0.00    -0.032 C  
HETATM    2  C   UNL     1      -8.809   5.113  68.721  1.00  0.00    -0.093 C  
HETATM    3  C   UNL     1      -8.230   5.815  69.984  1.00  0.00    -0.115 C  
HETATM    4  C   UNL     1      -6.746   6.139  69.724  1.00  0.00    -0.052 C  
HETATM    5  O   UNL     1      -6.903   6.542  66.069  1.00  0.00    -0.054 OA 
HETATM    6  N   UNL     1      -8.574   5.924  67.512  1.00  0.00    -0.103 N  
HETATM    7  C   UNL     1      -6.497   6.924  68.434  1.00  0.00    -0.039 C  
HETATM    8  C   UNL     1      -7.269   6.349  67.229  1.00  0.00    -0.078 C  
ENDROOT
BRANCH   3   9
HETATM    9  C   UNL     1      -9.033   6.996  70.526  1.00  0.00    -0.155 A  
HETATM   10  C   UNL     1      -9.957   8.198  72.435  1.00  0.00    -0.345 A  
HETATM   11  C   UNL     1      -9.174   7.163  71.911  1.00  0.00    -0.149 A  
HETATM   12  C   UNL     1      -9.686   7.922  69.700  1.00  0.00    -0.173 A  
HETATM   13  C   UNL     1     -10.479   8.947  70.215  1.00  0.00    -0.239 A  
HETATM   14  C   UNL     1     -10.613   9.088  71.586  1.00  0.00    -0.434 A  
ENDBRANCH   3   9
BRANCH   7  15
HETATM   15  N   UNL     1      -6.914   8.326  68.510  1.00  0.00    -0.067 N  
HETATM   16  H   UNL     1      -7.787   8.540  68.992  1.00  0.00     0.000 HD 
HETATM   17  C   UNL     1      -6.202   9.372  67.974  1.00  0.00    -0.057 C  
HETATM   18  O   UNL     1      -5.162   9.224  67.343  1.00  0.00    -0.036 OA 
BRANCH  17  19
HETATM   19  C   UNL     1      -6.755  10.737  68.205  1.00  0.00    -0.063 A  
HETATM   20  N   UNL     1      -8.351  12.117  69.433  1.00  0.00     0.738 NA 
HETATM   21  C   UNL     1      -7.750  10.920  69.164  1.00  0.00    -0.127 A  
HETATM   22  C   UNL     1      -7.969  13.144  68.657  1.00  0.00    -0.033 A  
HETATM   23  C   UNL     1      -8.481  14.550  68.808  1.00  0.00    -0.145 C  
HETATM   24  C   UNL     1      -7.932  15.256  67.548  1.00  0.00    -0.197 C  
HETATM   25  C   UNL     1      -6.934  14.304  66.842  1.00  0.00     0.994 C  
HETATM   26  C   UNL     1      -7.186  16.562  67.923  1.00  0.00    -0.140 C  
HETATM   27  O   UNL     1      -6.214  16.660  68.649  1.00  0.00    -0.135 OA 
HETATM   28  C   UNL     1      -7.042  13.046  67.642  1.00  0.00    -0.156 A  
HETATM   29  N   UNL     1      -7.803  17.603  67.259  1.00  0.00    -0.202 N  
HETATM   30  C   UNL     1      -8.889  17.171  66.532  1.00  0.00    -0.262 A  
HETATM   31  C   UNL     1      -6.378  11.847  67.441  1.00  0.00    -0.128 A  
HETATM   32  H   UNL     1      -7.492  18.573  67.302  1.00  0.00     0.000 HD 
HETATM   33  N   UNL     1      -9.699  17.977  65.844  1.00  0.00    -0.536 NA 
HETATM   34  C   UNL     1     -10.737  17.349  65.245  1.00  0.00     0.037 A  
HETATM   35  C   UNL     1     -10.969  15.972  65.310  1.00  0.00    -0.309 A  
HETATM   36  C   UNL     1     -10.088  15.166  66.032  1.00  0.00    -0.323 A  
HETATM   37  C   UNL     1      -9.024  15.793  66.654  1.00  0.00    -0.313 A  
ENDBRANCH  17  19
ENDBRANCH   7  15
BRANCH   6  38
HETATM   38  C   UNL     1      -9.548   6.056  66.405  1.00  0.00    -0.137 C  
HETATM   39  F   UNL     1      -9.206   5.048  64.270  1.00  0.00    -0.132 F  
HETATM   40  F   UNL     1     -10.947   4.370  65.394  1.00  0.00    -0.322 F  
HETATM   41  C   UNL     1      -9.675   4.789  65.520  1.00  0.00    -0.152 C  
HETATM   42  F   UNL     1      -8.933   3.745  65.979  1.00  0.00    -0.116 F  
ENDBRANCH   6  38
TORSDOF 4
ENDMDL
MODEL      106
REMARK 921   NORMALIZED FREE ENERGY PREDICTED BY IDOCK:   -2.93 KCAL/MOL
REMARK 922        TOTAL FREE ENERGY PREDICTED BY IDOCK:   -5.21 KCAL/MOL
REMARK 923 INTER-LIGAND FREE ENERGY PREDICTED BY IDOCK:   -4.19 KCAL/MOL
REMARK 924 INTRA-LIGAND FREE ENERGY PREDICTED BY IDOCK:   -1.02 KCAL/MOL
REMARK 927      BINDING AFFINITY PREDICTED BY RF-SCORE:    0.00 PKD
ROOT
HETATM    1  C   UNL     1     -10.153   9.272  71.713  1.00  0.00    -0.129 C  
HETATM    2  C   UNL     1     -10.328  10.197  70.500  1.00  0.00    -0.040 C  
HETATM    3  C   UNL     1     -11.397   9.642  69.515  1.00  0.00    -0.080 C  
HETATM    4  C   UNL     1     -11.647  10.699  68.421  1.00  0.00    -0.269 C  
HETATM    5  O   UNL     1      -8.323  12.277  68.411  1.00  0.00    -0.167 OA 
HETATM    6  N   UNL     1      -9.111  10.613  69.778  1.00  0.00     0.150 N  
HETATM    7  C   UNL     1     -10.376  11.178  67.718  1.00  0.00    -0.187 C  
HETATM    8  C   UNL     1      -9.237  11.506  68.704  1.00  0.00    -0.132 C  
ENDROOT
BRANCH   3   9
HETATM    9  C   UNL     1     -11.147   8.237  68.970  1.00  0.00     0.225 A  
HETATM   10  C   UNL     1     -10.742   5.871  69.391  1.00  0.00    -0.406 A  
HETATM   11  C   UNL     1     -11.035   7.158  69.858  1.00  0.00    -0.278 A  
HETATM   12  C   UNL     1     -10.980   7.964  67.605  1.00  0.00     0.016 A  
HETATM   13  C   UNL     1     -10.674   6.687  67.135  1.00  0.00    -0.440 A  
HETATM   14  C   UNL     1     -10.557   5.637  68.030  1.00  0.00    -0.260 A  
ENDBRANCH   3   9
BRANCH   7  15
HETATM   15  N   UNL     1      -9.803  10.190  66.801  1.00  0.00    -0.187 N  
HETATM   16  H   UNL     1      -9.845   9.207  67.070  1.00  0.00     0.000 HD 
HETATM   17  C   UNL     1      -9.213  10.503  65.600  1.00  0.00    -0.186 C  
HETATM   18  O   UNL     1      -9.074  11.652  65.198  1.00  0.00    -0.071 OA 
BRANCH  17  19
HETATM   19  C   UNL     1      -8.740   9.355  64.775  1.00  0.00    -0.227 A  
HETATM   20  N   UNL     1      -8.334   8.474  62.534  1.00  0.00    -0.194 NA 
HETATM   21  C   UNL     1      -8.715   9.472  63.386  1.00  0.00    -0.222 A  
HETATM   22  C   UNL     1      -8.030   7.302  63.115  1.00  0.00    -0.085 A  
HETATM   23  C   UNL     1      -7.557   6.088  62.364  1.00  0.00    -0.071 C  
HETATM   24  C   UNL     1      -7.593   4.980  63.440  1.00  0.00    -0.062 C  
HETATM   25  C   UNL     1      -7.855   5.636  64.819  1.00  0.00    -0.112 C  
HETATM   26  C   UNL     1      -6.242   4.223  63.503  1.00  0.00    -0.018 C  
HETATM   27  O   UNL     1      -5.150   4.703  63.746  1.00  0.00    -0.008 OA 
HETATM   28  C   UNL     1      -8.088   7.071  64.472  1.00  0.00    -0.069 A  
HETATM   29  N   UNL     1      -6.498   2.887  63.265  1.00  0.00    -0.022 N  
HETATM   30  C   UNL     1      -7.830   2.663  63.004  1.00  0.00    -0.068 A  
HETATM   31  C   UNL     1      -8.390   8.118  65.328  1.00  0.00    -0.160 A  
HETATM   32  H   UNL     1      -5.787   2.157  63.281  1.00  0.00     0.000 HD 
HETATM   33  N   UNL     1      -8.341   1.473  62.683  1.00  0.00    -0.060 NA 
HETATM   34  C   UNL     1      -9.667   1.488  62.413  1.00  0.00    -0.088 A  
HETATM   35  C   UNL     1     -10.470   2.630  62.466  1.00  0.00    -0.132 A  
HETATM   36  C   UNL     1      -9.894   3.852  62.817  1.00  0.00    -0.146 A  
HETATM   37  C   UNL     1      -8.538   3.855  63.093  1.00  0.00    -0.095 A  
ENDBRANCH  17  19
ENDBRANCH   7  15
BRANCH   6  38
HETATM   38  C   UNL     1      -7.738  10.418  70.295  1.00  0.00     0.320 C  
HETATM   39  F   UNL     1      -6.851   8.261  70.794  1.00  0.00    -0.036 F  
HETATM   40  F   UNL     1      -5.837   9.387  69.227  1.00  0.00    -0.035 F  
HETATM   41  C   UNL     1      -7.041   9.136  69.772  1.00  0.00    -0.061 C  
HETATM   42  F   UNL     1      -7.786   8.466  68.851  1.00  0.00    -0.102 F  
ENDBRANCH   6  38
TORSDOF 4
ENDMDL
MODEL      107
REMARK 921   NORMALIZED FREE ENERGY PREDICTED BY IDOCK:   -2.83 KCAL/MOL
REMARK 922        TOTAL FREE ENERGY PREDICTED BY IDOCK:   -5.09 KCAL/MOL
REMARK 923 INTER-LIGAND FREE ENERGY PREDICTED BY IDOCK:   -6.45 KCAL/MOL
REMARK 924 INTRA-LIGAND FREE ENERGY PREDICTED BY IDOCK:    1.36 KCAL/MOL
REMARK 927      BINDING AFFINITY PREDICTED BY RF-SCORE:    0.00 PKD
ROOT
HETATM    1  C   UNL     1      -9.451   9.039  71.574  1.00  0.00    -0.316 C  
HETATM    2  C   UNL     1     -10.229   9.162  70.256  1.00  0.00    -0.214 C  
HETATM    3  C   UNL     1      -9.267   9.336  69.045  1.00  0.00    -0.144 C  
HETATM    4  C   UNL     1     -10.100   9.275  67.749  1.00  0.00    -0.253 C  
HETATM    5  O   UNL     1     -13.271  10.594  69.070  1.00  0.00     0.868 OA 
HETATM    6  N   UNL     1     -11.328  10.144  70.201  1.00  0.00    -0.282 N  
HETATM    7  C   UNL     1     -11.279  10.249  67.722  1.00  0.00    -0.190 C  
HETATM    8  C   UNL     1     -12.094  10.234  69.031  1.00  0.00     0.333 C  
ENDROOT
BRANCH   3   9
HETATM    9  C   UNL     1      -8.310  10.525  69.109  1.00  0.00    -0.154 A  
HETATM   10  C   UNL     1      -6.284  11.534  70.012  1.00  0.00    -0.142 A  
HETATM   11  C   UNL     1      -7.146  10.438  69.883  1.00  0.00    -0.160 A  
HETATM   12  C   UNL     1      -8.556  11.741  68.455  1.00  0.00    -0.156 A  
HETATM   13  C   UNL     1      -7.709  12.841  68.589  1.00  0.00    -0.064 A  
HETATM   14  C   UNL     1      -6.569  12.737  69.368  1.00  0.00    -0.064 A  
ENDBRANCH   3   9
BRANCH   7  15
HETATM   15  N   UNL     1     -10.883  11.648  67.544  1.00  0.00    -0.224 N  
HETATM   16  H   UNL     1     -10.128  12.009  68.127  1.00  0.00     0.000 HD 
HETATM   17  C   UNL     1     -11.464  12.505  66.641  1.00  0.00    -0.359 C  
HETATM   18  O   UNL     1     -12.402  12.188  65.920  1.00  0.00    -0.561 OA 
BRANCH  17  19
HETATM   19  C   UNL     1     -10.885  13.877  66.563  1.00  0.00    -0.295 A  
HETATM   20  N   UNL     1      -9.622  15.493  65.238  1.00  0.00    -0.238 NA 
HETATM   21  C   UNL     1     -10.220  14.275  65.404  1.00  0.00    -0.371 A  
HETATM   22  C   UNL     1      -9.652  16.303  66.308  1.00  0.00    -0.308 A  
HETATM   23  C   UNL     1      -9.084  17.696  66.326  1.00  0.00    -0.212 C  
HETATM   24  C   UNL     1      -9.154  18.079  67.821  1.00  0.00    -0.262 C  
HETATM   25  C   UNL     1      -9.971  16.998  68.573  1.00  0.00    -0.293 C  
HETATM   26  C   UNL     1      -9.856  19.448  68.012  1.00  0.00    -0.369 C  
HETATM   27  O   UNL     1     -10.990  19.735  67.678  1.00  0.00    -0.333 OA 
HETATM   28  C   UNL     1     -10.229  15.973  67.515  1.00  0.00    -0.275 A  
HETATM   29  N   UNL     1      -8.972  20.285  68.663  1.00  0.00     0.173 N  
HETATM   30  C   UNL     1      -7.761  19.672  68.887  1.00  0.00    -0.291 A  
HETATM   31  C   UNL     1     -10.907  14.771  67.639  1.00  0.00    -0.285 A  
HETATM   32  H   UNL     1      -9.191  21.240  68.944  1.00  0.00     0.000 HD 
HETATM   33  N   UNL     1      -6.708  20.272  69.445  1.00  0.00    -0.204 NA 
HETATM   34  C   UNL     1      -5.599  19.501  69.521  1.00  0.00    -0.218 A  
HETATM   35  C   UNL     1      -5.525  18.180  69.073  1.00  0.00    -0.194 A  
HETATM   36  C   UNL     1      -6.655  17.588  68.506  1.00  0.00    -0.198 A  
HETATM   37  C   UNL     1      -7.797  18.364  68.417  1.00  0.00    -0.323 A  
ENDBRANCH  17  19
ENDBRANCH   7  15
BRANCH   6  38
HETATM   38  C   UNL     1     -11.892  10.817  71.393  1.00  0.00     0.047 C  
HETATM   39  F   UNL     1     -11.627  13.153  71.793  1.00  0.00     0.772 F  
HETATM   40  F   UNL     1     -13.671  12.441  71.531  1.00  0.00    -0.239 F  
HETATM   41  C   UNL     1     -12.401  12.257  71.126  1.00  0.00    -0.147 C  
HETATM   42  F   UNL     1     -12.324  12.611  69.815  1.00  0.00    -0.301 F  
ENDBRANCH   6  38
TORSDOF 4
ENDMDL
MODEL      108
REMARK 921   NORMALIZED FREE ENERGY PREDICTED BY IDOCK:   -2.61 KCAL/MOL
REMARK 922        TOTAL FREE ENERGY PREDICTED BY IDOCK:   -4.81 KCAL/MOL
REMARK 923 INTER-LIGAND FREE ENERGY PREDICTED BY IDOCK:   -5.45 KCAL/MOL
REMARK 924 INTRA-LIGAND FREE ENERGY PREDICTED BY IDOCK:    0.64 KCAL/MOL
REMARK 927      BINDING AFFINITY PREDICTED BY RF-SCORE:    0.00 PKD
ROOT
HETATM    1  C   UNL     1      -8.979  16.385  66.545  1.00  0.00    -0.311 C  
HETATM    2  C   UNL     1      -9.975  15.403  67.179  1.00  0.00    -0.234 C  
HETATM    3  C   UNL     1      -9.326  14.620  68.358  1.00  0.00    -0.201 C  
HETATM    4  C   UNL     1     -10.423  13.791  69.054  1.00  0.00    -0.117 C  
HETATM    5  O   UNL     1     -12.627  13.251  66.157  1.00  0.00    -0.349 OA 
HETATM    6  N   UNL     1     -10.702  14.490  66.277  1.00  0.00    -0.303 N  
HETATM    7  C   UNL     1     -11.220  12.893  68.105  1.00  0.00    -0.270 C  
HETATM    8  C   UNL     1     -11.661  13.626  66.822  1.00  0.00    -0.392 C  
ENDROOT
BRANCH   3   9
HETATM    9  C   UNL     1      -8.067  13.822  68.025  1.00  0.00    -0.163 A  
HETATM   10  C   UNL     1      -5.642  13.599  68.131  1.00  0.00    -0.115 A  
HETATM   11  C   UNL     1      -6.819  14.275  68.476  1.00  0.00    -0.100 A  
HETATM   12  C   UNL     1      -8.082  12.658  67.243  1.00  0.00    -0.178 A  
HETATM   13  C   UNL     1      -6.913  11.989  66.886  1.00  0.00    -0.033 A  
HETATM   14  C   UNL     1      -5.689  12.458  67.332  1.00  0.00    -0.134 A  
ENDBRANCH   3   9
BRANCH   7  15
HETATM   15  N   UNL     1     -10.471  11.727  67.631  1.00  0.00    -0.194 N  
HETATM   16  H   UNL     1      -9.553  11.885  67.215  1.00  0.00     0.000 HD 
HETATM   17  C   UNL     1     -10.927  10.433  67.711  1.00  0.00    -0.309 C  
HETATM   18  O   UNL     1     -12.029  10.135  68.156  1.00  0.00     0.041 OA 
BRANCH  17  19
HETATM   19  C   UNL     1      -9.996   9.373  67.230  1.00  0.00    -0.252 A  
HETATM   20  N   UNL     1      -8.530   8.595  65.439  1.00  0.00    -0.163 NA 
HETATM   21  C   UNL     1      -9.372   9.518  65.992  1.00  0.00    -0.216 A  
HETATM   22  C   UNL     1      -8.369   7.464  66.143  1.00  0.00    -0.139 A  
HETATM   23  C   UNL     1      -7.463   6.337  65.731  1.00  0.00    -0.082 C  
HETATM   24  C   UNL     1      -7.831   5.214  66.726  1.00  0.00    -0.100 C  
HETATM   25  C   UNL     1      -8.759   5.804  67.818  1.00  0.00    -0.107 C  
HETATM   26  C   UNL     1      -6.565   4.641  67.412  1.00  0.00    -0.047 C  
HETATM   27  O   UNL     1      -5.765   5.258  68.092  1.00  0.00    -0.015 OA 
HETATM   28  C   UNL     1      -8.994   7.202  67.343  1.00  0.00    -0.122 A  
HETATM   29  N   UNL     1      -6.517   3.288  67.142  1.00  0.00    -0.036 N  
HETATM   30  C   UNL     1      -7.554   2.894  66.328  1.00  0.00    -0.076 A  
HETATM   31  C   UNL     1      -9.774   8.183  67.933  1.00  0.00    -0.191 A  
HETATM   32  H   UNL     1      -5.800   2.658  67.502  1.00  0.00     0.000 HD 
HETATM   33  N   UNL     1      -7.714   1.654  65.865  1.00  0.00    -0.066 NA 
HETATM   34  C   UNL     1      -8.772   1.497  65.037  1.00  0.00    -0.110 A  
HETATM   35  C   UNL     1      -9.653   2.522  64.680  1.00  0.00    -0.081 A  
HETATM   36  C   UNL     1      -9.453   3.803  65.199  1.00  0.00    -0.167 A  
HETATM   37  C   UNL     1      -8.373   3.980  66.044  1.00  0.00    -0.109 A  
ENDBRANCH  17  19
ENDBRANCH   7  15
BRANCH   6  38
HETATM   38  C   UNL     1     -10.731  14.637  64.804  1.00  0.00    -0.377 C  
HETATM   39  F   UNL     1     -12.733  14.394  63.530  1.00  0.00    -0.256 F  
HETATM   40  F   UNL     1     -11.771  16.350  63.461  1.00  0.00     0.174 F  
HETATM   41  C   UNL     1     -12.024  15.296  64.259  1.00  0.00    -0.223 C  
HETATM   42  F   UNL     1     -12.864  15.710  65.246  1.00  0.00     0.671 F  
ENDBRANCH   6  38
TORSDOF 4
ENDMDL
MODEL      109
REMARK 921   NORMALIZED FREE ENERGY PREDICTED BY IDOCK:   -2.52 KCAL/MOL
REMARK 922        TOTAL FREE ENERGY PREDICTED BY IDOCK:   -4.71 KCAL/MOL
REMARK 923 INTER-LIGAND FREE ENERGY PREDICTED BY IDOCK:   -5.87 KCAL/MOL
REMARK 924 INTRA-LIGAND FREE ENERGY PREDICTED BY IDOCK:    1.16 KCAL/MOL
REMARK 927      BINDING AFFINITY PREDICTED BY RF-SCORE:    0.00 PKD
ROOT
HETATM    1  C   UNL     1      -9.389   2.397  71.340  1.00  0.00    -0.197 C  
HETATM    2  C   UNL     1      -9.739   3.620  72.200  1.00  0.00    -0.163 C  
HETATM    3  C   UNL     1     -10.890   4.450  71.562  1.00  0.00     0.433 C  
HETATM    4  C   UNL     1     -11.307   5.551  72.557  1.00  0.00    -0.323 C  
HETATM    5  O   UNL     1      -8.073   6.012  74.252  1.00  0.00    -0.103 OA 
HETATM    6  N   UNL     1      -8.631   4.495  72.626  1.00  0.00    -0.113 N  
HETATM    7  C   UNL     1     -10.145   6.416  73.048  1.00  0.00    -0.189 C  
HETATM    8  C   UNL     1      -8.915   5.583  73.462  1.00  0.00    -0.125 C  
ENDROOT
BRANCH   3   9
HETATM    9  C   UNL     1     -10.646   4.961  70.143  1.00  0.00     0.019 A  
HETATM   10  C   UNL     1     -11.083   6.621  68.413  1.00  0.00    -0.281 A  
HETATM   11  C   UNL     1     -11.237   6.162  69.727  1.00  0.00    -0.494 A  
HETATM   12  C   UNL     1      -9.881   4.262  69.198  1.00  0.00    -0.163 A  
HETATM   13  C   UNL     1      -9.735   4.707  67.885  1.00  0.00    -0.198 A  
HETATM   14  C   UNL     1     -10.336   5.891  67.491  1.00  0.00    -0.269 A  
ENDBRANCH   3   9
BRANCH   7  15
HETATM   15  N   UNL     1      -9.641   7.351  72.040  1.00  0.00    -0.149 N  
HETATM   16  H   UNL     1     -10.137   7.409  71.150  1.00  0.00     0.000 HD 
HETATM   17  C   UNL     1      -8.540   8.156  72.216  1.00  0.00    -0.175 C  
HETATM   18  O   UNL     1      -7.850   8.139  73.227  1.00  0.00    -0.153 OA 
BRANCH  17  19
HETATM   19  C   UNL     1      -8.215   9.086  71.097  1.00  0.00    -0.198 A  
HETATM   20  N   UNL     1      -6.488  10.352  69.924  1.00  0.00    -0.092 NA 
HETATM   21  C   UNL     1      -6.894   9.480  70.894  1.00  0.00    -0.078 A  
HETATM   22  C   UNL     1      -7.469  10.886  69.179  1.00  0.00    -0.130 A  
HETATM   23  C   UNL     1      -7.239  11.840  68.040  1.00  0.00    -0.084 C  
HETATM   24  C   UNL     1      -8.665  12.326  67.700  1.00  0.00    -0.175 C  
HETATM   25  C   UNL     1      -9.683  11.465  68.489  1.00  0.00    -0.199 C  
HETATM   26  C   UNL     1      -8.959  12.173  66.186  1.00  0.00    -0.043 C  
HETATM   27  O   UNL     1      -8.941  11.139  65.543  1.00  0.00    -0.200 OA 
HETATM   28  C   UNL     1      -8.809  10.608  69.347  1.00  0.00    -0.037 A  
HETATM   29  N   UNL     1      -9.280  13.421  65.692  1.00  0.00    -0.308 N  
HETATM   30  C   UNL     1      -9.191  14.391  66.664  1.00  0.00    -0.261 A  
HETATM   31  C   UNL     1      -9.195   9.655  70.275  1.00  0.00    -0.285 A  
HETATM   32  H   UNL     1      -9.550  13.602  64.726  1.00  0.00     0.000 HD 
HETATM   33  N   UNL     1      -9.390  15.692  66.445  1.00  0.00    -0.273 NA 
HETATM   34  C   UNL     1      -9.198  16.478  67.530  1.00  0.00    -0.202 A  
HETATM   35  C   UNL     1      -8.833  16.004  68.793  1.00  0.00    -0.227 A  
HETATM   36  C   UNL     1      -8.647  14.633  68.978  1.00  0.00    -0.097 A  
HETATM   37  C   UNL     1      -8.834  13.816  67.878  1.00  0.00    -0.186 A  
ENDBRANCH  17  19
ENDBRANCH   7  15
BRANCH   6  38
HETATM   38  C   UNL     1      -7.201   4.133  72.504  1.00  0.00    -0.066 C  
HETATM   39  F   UNL     1      -5.902   3.394  74.364  1.00  0.00    -0.008 F  
HETATM   40  F   UNL     1      -6.148   1.974  72.728  1.00  0.00    -0.007 F  
HETATM   41  C   UNL     1      -6.767   2.953  73.412  1.00  0.00    -0.026 C  
HETATM   42  F   UNL     1      -7.806   2.398  74.092  1.00  0.00    -0.049 F  
ENDBRANCH   6  38
TORSDOF 4
ENDMDL
MODEL      110
REMARK 921   NORMALIZED FREE ENERGY PREDICTED BY IDOCK:   -2.31 KCAL/MOL
REMARK 922        TOTAL FREE ENERGY PREDICTED BY IDOCK:   -4.45 KCAL/MOL
REMARK 923 INTER-LIGAND FREE ENERGY PREDICTED BY IDOCK:   -3.93 KCAL/MOL
REMARK 924 INTRA-LIGAND FREE ENERGY PREDICTED BY IDOCK:   -0.52 KCAL/MOL
REMARK 927      BINDING AFFINITY PREDICTED BY RF-SCORE:    0.00 PKD
ROOT
HETATM    1  C   UNL     1     -10.609  18.907  67.083  1.00  0.00    -0.531 C  
HETATM    2  C   UNL     1      -9.321  18.087  66.922  1.00  0.00    -0.276 C  
HETATM    3  C   UNL     1      -9.510  16.934  65.894  1.00  0.00    -0.148 C  
HETATM    4  C   UNL     1      -8.140  16.268  65.652  1.00  0.00     1.202 C  
HETATM    5  O   UNL     1      -6.622  16.924  68.940  1.00  0.00    -0.170 OA 
HETATM    6  N   UNL     1      -8.666  17.597  68.150  1.00  0.00    -0.257 N  
HETATM    7  C   UNL     1      -7.432  15.821  66.932  1.00  0.00    -0.169 C  
HETATM    8  C   UNL     1      -7.457  16.898  68.035  1.00  0.00    -0.173 C  
ENDROOT
BRANCH   3   9
HETATM    9  C   UNL     1     -10.634  15.942  66.191  1.00  0.00    -0.310 A  
HETATM   10  C   UNL     1     -12.020  14.780  67.823  1.00  0.00    -0.247 A  
HETATM   11  C   UNL     1     -11.038  15.729  67.516  1.00  0.00    -0.258 A  
HETATM   12  C   UNL     1     -11.272  15.187  65.197  1.00  0.00    -0.392 A  
HETATM   13  C   UNL     1     -12.241  14.231  65.497  1.00  0.00    -0.408 A  
HETATM   14  C   UNL     1     -12.619  14.027  66.814  1.00  0.00    -0.070 A  
ENDBRANCH   3   9
BRANCH   7  15
HETATM   15  N   UNL     1      -8.032  14.637  67.553  1.00  0.00    -0.175 N  
HETATM   16  H   UNL     1      -8.970  14.725  67.945  1.00  0.00     0.000 HD 
HETATM   17  C   UNL     1      -7.412  13.414  67.640  1.00  0.00    -0.178 C  
HETATM   18  O   UNL     1      -6.274  13.207  67.238  1.00  0.00    -0.298 OA 
BRANCH  17  19
HETATM   19  C   UNL     1      -8.206  12.311  68.254  1.00  0.00    -0.167 A  
HETATM   20  N   UNL     1     -10.307  11.640  69.301  1.00  0.00    -0.020 NA 
HETATM   21  C   UNL     1      -9.504  12.564  68.694  1.00  0.00    -0.003 A  
HETATM   22  C   UNL     1      -9.745  10.440  69.520  1.00  0.00    -0.170 A  
HETATM   23  C   UNL     1     -10.463   9.275  70.143  1.00  0.00    -0.265 C  
HETATM   24  C   UNL     1      -9.326   8.258  70.388  1.00  0.00    -0.162 C  
HETATM   25  C   UNL     1      -8.042   8.771  69.688  1.00  0.00    -0.101 C  
HETATM   26  C   UNL     1      -9.685   6.869  69.801  1.00  0.00    -0.164 C  
HETATM   27  O   UNL     1      -9.934   6.615  68.637  1.00  0.00    -0.141 OA 
HETATM   28  C   UNL     1      -8.449  10.117  69.180  1.00  0.00    -0.157 A  
HETATM   29  N   UNL     1      -9.643   5.954  70.833  1.00  0.00    -0.168 N  
HETATM   30  C   UNL     1      -9.351   6.555  72.036  1.00  0.00    -0.147 A  
HETATM   31  C   UNL     1      -7.678  11.036  68.486  1.00  0.00    -0.122 A  
HETATM   32  H   UNL     1      -9.807   4.954  70.718  1.00  0.00     0.000 HD 
HETATM   33  N   UNL     1      -9.306   5.913  73.204  1.00  0.00    -0.140 NA 
HETATM   34  C   UNL     1      -9.054   6.707  74.270  1.00  0.00    -0.190 A  
HETATM   35  C   UNL     1      -8.843   8.086  74.194  1.00  0.00    -0.119 A  
HETATM   36  C   UNL     1      -8.888   8.714  72.949  1.00  0.00    -0.005 A  
HETATM   37  C   UNL     1      -9.149   7.917  71.848  1.00  0.00    -0.192 A  
ENDBRANCH  17  19
ENDBRANCH   7  15
BRANCH   6  38
HETATM   38  C   UNL     1      -9.015  18.061  69.512  1.00  0.00     0.671 C  
HETATM   39  F   UNL     1      -7.754  19.728  70.661  1.00  0.00     0.340 F  
HETATM   40  F   UNL     1      -9.835  20.214  70.228  1.00  0.00    -0.172 F  
HETATM   41  C   UNL     1      -8.753  19.570  69.753  1.00  0.00     0.678 C  
HETATM   42  F   UNL     1      -8.336  20.221  68.634  1.00  0.00    -0.156 F  
ENDBRANCH   6  38
TORSDOF 4
ENDMDL
MODEL      111
REMARK 921   NORMALIZED FREE ENERGY PREDICTED BY IDOCK:   -2.18 KCAL/MOL
REMARK 922        TOTAL FREE ENERGY PREDICTED BY IDOCK:   -4.29 KCAL/MOL
REMARK 923 INTER-LIGAND FREE ENERGY PREDICTED BY IDOCK:   -4.94 KCAL/MOL
REMARK 924 INTRA-LIGAND FREE ENERGY PREDICTED BY IDOCK:    0.66 KCAL/MOL
REMARK 927      BINDING AFFINITY PREDICTED BY RF-SCORE:    0.00 PKD
ROOT
HETATM    1  C   UNL     1      -9.357  14.332  67.501  1.00  0.00    -0.199 C  
HETATM    2  C   UNL     1      -9.465  13.133  66.548  1.00  0.00    -0.243 C  
HETATM    3  C   UNL     1     -10.860  12.451  66.652  1.00  0.00    -0.281 C  
HETATM    4  C   UNL     1     -10.960  11.376  65.552  1.00  0.00    -0.248 C  
HETATM    5  O   UNL     1      -7.391  10.518  65.294  1.00  0.00    -0.134 OA 
HETATM    6  N   UNL     1      -8.383  12.131  66.587  1.00  0.00    -0.108 N  
HETATM    7  C   UNL     1      -9.802  10.376  65.553  1.00  0.00    -0.269 C  
HETATM    8  C   UNL     1      -8.426  11.058  65.686  1.00  0.00    -0.099 C  
ENDROOT
BRANCH   3   9
HETATM    9  C   UNL     1     -11.266  11.954  68.039  1.00  0.00    -0.317 A  
HETATM   10  C   UNL     1     -12.321  10.250  69.424  1.00  0.00     0.229 A  
HETATM   11  C   UNL     1     -11.881  10.702  68.175  1.00  0.00     0.082 A  
HETATM   12  C   UNL     1     -11.091  12.713  69.205  1.00  0.00    -0.193 A  
HETATM   13  C   UNL     1     -11.539  12.274  70.450  1.00  0.00     0.048 A  
HETATM   14  C   UNL     1     -12.155  11.038  70.562  1.00  0.00    -0.470 A  
ENDBRANCH   3   9
BRANCH   7  15
HETATM   15  N   UNL     1      -9.854   9.418  66.660  1.00  0.00    -0.225 N  
HETATM   16  H   UNL     1     -10.524   9.590  67.410  1.00  0.00     0.000 HD 
HETATM   17  C   UNL     1      -9.055   8.304  66.754  1.00  0.00    -0.156 C  
HETATM   18  O   UNL     1      -8.192   8.024  65.931  1.00  0.00    -0.112 OA 
BRANCH  17  19
HETATM   19  C   UNL     1      -9.295   7.415  67.926  1.00  0.00    -0.138 A  
HETATM   20  N   UNL     1     -10.440   7.106  70.061  1.00  0.00    -0.215 NA 
HETATM   21  C   UNL     1     -10.173   7.823  68.928  1.00  0.00    -0.211 A  
HETATM   22  C   UNL     1      -9.742   5.968  70.202  1.00  0.00    -0.167 A  
HETATM   23  C   UNL     1      -9.907   5.016  71.355  1.00  0.00    -0.245 C  
HETATM   24  C   UNL     1      -8.729   4.036  71.166  1.00  0.00    -0.123 C  
HETATM   25  C   UNL     1      -8.070   4.310  69.791  1.00  0.00    -0.062 C  
HETATM   26  C   UNL     1      -9.219   2.565  71.193  1.00  0.00    -0.125 C  
HETATM   27  O   UNL     1     -10.028   2.055  70.440  1.00  0.00     0.071 OA 
HETATM   28  C   UNL     1      -8.806   5.514  69.298  1.00  0.00    -0.112 A  
HETATM   29  N   UNL     1      -8.549   1.918  72.212  1.00  0.00    -0.057 N  
HETATM   30  C   UNL     1      -7.715   2.773  72.897  1.00  0.00    -0.050 A  
HETATM   31  C   UNL     1      -8.612   6.207  68.114  1.00  0.00    -0.115 A  
HETATM   32  H   UNL     1      -8.658   0.928  72.430  1.00  0.00     0.000 HD 
HETATM   33  N   UNL     1      -6.994   2.422  73.963  1.00  0.00    -0.027 NA 
HETATM   34  C   UNL     1      -6.285   3.433  74.516  1.00  0.00    -0.021 A  
HETATM   35  C   UNL     1      -6.272   4.744  74.032  1.00  0.00    -0.047 A  
HETATM   36  C   UNL     1      -7.033   5.062  72.906  1.00  0.00    -0.081 A  
HETATM   37  C   UNL     1      -7.768   4.041  72.331  1.00  0.00    -0.080 A  
ENDBRANCH  17  19
ENDBRANCH   7  15
BRANCH   6  38
HETATM   38  C   UNL     1      -7.093  12.337  67.282  1.00  0.00    -0.138 C  
HETATM   39  F   UNL     1      -6.831  12.000  69.629  1.00  0.00    -0.107 F  
HETATM   40  F   UNL     1      -5.645  10.715  68.327  1.00  0.00    -0.041 F  
HETATM   41  C   UNL     1      -6.831  11.341  68.440  1.00  0.00    -0.063 C  
HETATM   42  F   UNL     1      -7.797  10.389  68.550  1.00  0.00    -0.092 F  
ENDBRANCH   6  38
TORSDOF 4
ENDMDL
MODEL      112
REMARK 921   NORMALIZED FREE ENERGY PREDICTED BY IDOCK:   -1.20 KCAL/MOL
REMARK 922        TOTAL FREE ENERGY PREDICTED BY IDOCK:   -3.07 KCAL/MOL
REMARK 923 INTER-LIGAND FREE ENERGY PREDICTED BY IDOCK:   -1.94 KCAL/MOL
REMARK 924 INTRA-LIGAND FREE ENERGY PREDICTED BY IDOCK:   -1.13 KCAL/MOL
REMARK 927      BINDING AFFINITY PREDICTED BY RF-SCORE:    0.00 PKD
ROOT
HETATM    1  C   UNL     1      -6.464   5.512  64.712  1.00  0.00    -0.038 C  
HETATM    2  C   UNL     1      -7.779   5.863  65.422  1.00  0.00    -0.093 C  
HETATM    3  C   UNL     1      -8.537   7.003  64.681  1.00  0.00     0.268 C  
HETATM    4  C   UNL     1      -9.918   7.179  65.342  1.00  0.00     1.719 C  
HETATM    5  O   UNL     1      -9.042   6.097  68.748  1.00  0.00    -0.126 OA 
HETATM    6  N   UNL     1      -7.723   6.123  66.873  1.00  0.00    -0.102 N  
HETATM    7  C   UNL     1      -9.861   7.384  66.857  1.00  0.00    -0.216 C  
HETATM    8  C   UNL     1      -8.917   6.386  67.558  1.00  0.00    -0.116 C  
ENDROOT
BRANCH   3   9
HETATM    9  C   UNL     1      -7.770   8.311  64.495  1.00  0.00    -0.123 A  
HETATM   10  C   UNL     1      -7.610  10.514  63.465  1.00  0.00     0.035 A  
HETATM   11  C   UNL     1      -8.319   9.331  63.705  1.00  0.00    -0.180 A  
HETATM   12  C   UNL     1      -6.502   8.541  65.048  1.00  0.00    -0.060 A  
HETATM   13  C   UNL     1      -5.786   9.711  64.801  1.00  0.00    -0.074 A  
HETATM   14  C   UNL     1      -6.341  10.702  64.009  1.00  0.00     0.140 A  
ENDBRANCH   3   9
BRANCH   7  15
HETATM   15  N   UNL     1      -9.369   8.705  67.254  1.00  0.00    -0.148 N  
HETATM   16  H   UNL     1      -8.625   8.749  67.951  1.00  0.00     0.000 HD 
HETATM   17  C   UNL     1      -9.847   9.890  66.747  1.00  0.00    -0.201 C  
HETATM   18  O   UNL     1     -10.763   9.954  65.937  1.00  0.00     0.017 OA 
BRANCH  17  19
HETATM   19  C   UNL     1      -9.180  11.133  67.230  1.00  0.00    -0.166 A  
HETATM   20  N   UNL     1      -8.030  12.258  69.066  1.00  0.00     0.142 NA 
HETATM   21  C   UNL     1      -8.632  11.164  68.511  1.00  0.00    -0.157 A  
HETATM   22  C   UNL     1      -8.042  13.369  68.314  1.00  0.00    -0.152 A  
HETATM   23  C   UNL     1      -7.406  14.670  68.722  1.00  0.00    -0.131 C  
HETATM   24  C   UNL     1      -7.913  15.656  67.646  1.00  0.00    -0.170 C  
HETATM   25  C   UNL     1      -8.624  14.850  66.530  1.00  0.00    -0.131 C  
HETATM   26  C   UNL     1      -6.736  16.441  67.013  1.00  0.00    -0.204 C  
HETATM   27  O   UNL     1      -5.783  15.969  66.420  1.00  0.00     0.280 OA 
HETATM   28  C   UNL     1      -8.615  13.453  67.063  1.00  0.00    -0.168 A  
HETATM   29  N   UNL     1      -6.973  17.786  67.212  1.00  0.00    -0.174 N  
HETATM   30  C   UNL     1      -8.125  17.998  67.935  1.00  0.00    -0.243 A  
HETATM   31  C   UNL     1      -9.143  12.314  66.479  1.00  0.00    -0.188 A  
HETATM   32  H   UNL     1      -6.369  18.531  66.866  1.00  0.00     0.000 HD 
HETATM   33  N   UNL     1      -8.558  19.200  68.319  1.00  0.00    -0.322 NA 
HETATM   34  C   UNL     1      -9.684  19.176  69.068  1.00  0.00    -0.361 A  
HETATM   35  C   UNL     1     -10.372  18.012  69.422  1.00  0.00     0.171 A  
HETATM   36  C   UNL     1      -9.888  16.777  68.987  1.00  0.00    -0.260 A  
HETATM   37  C   UNL     1      -8.734  16.783  68.224  1.00  0.00    -0.227 A  
ENDBRANCH  17  19
ENDBRANCH   7  15
BRANCH   6  38
HETATM   38  C   UNL     1      -6.550   5.814  67.721  1.00  0.00    -0.053 C  
HETATM   39  F   UNL     1      -6.563   4.060  69.338  1.00  0.00    -0.031 F  
HETATM   40  F   UNL     1      -5.128   3.865  67.708  1.00  0.00    -0.006 F  
HETATM   41  C   UNL     1      -6.362   4.303  68.016  1.00  0.00    -0.037 C  
HETATM   42  F   UNL     1      -7.260   3.520  67.360  1.00  0.00    -0.056 F  
ENDBRANCH   6  38
TORSDOF 4
ENDMDL
MODEL      113
REMARK 921   NORMALIZED FREE ENERGY PREDICTED BY IDOCK:   -1.16 KCAL/MOL
REMARK 922        TOTAL FREE ENERGY PREDICTED BY IDOCK:   -3.02 KCAL/MOL
REMARK 923 INTER-LIGAND FREE ENERGY PREDICTED BY IDOCK:   -6.49 KCAL/MOL
REMARK 924 INTRA-LIGAND FREE ENERGY PREDICTED BY IDOCK:    3.47 KCAL/MOL
REMARK 927      BINDING AFFINITY PREDICTED BY RF-SCORE:    0.00 PKD
ROOT
HETATM    1  C   UNL     1      -6.176   3.795  66.005  1.00  0.00    -0.032 C  
HETATM    2  C   UNL     1      -7.695   3.997  66.102  1.00  0.00    -0.090 C  
HETATM    3  C   UNL     1      -8.231   4.846  64.913  1.00  0.00    -0.124 C  
HETATM    4  C   UNL     1      -9.771   4.859  64.978  1.00  0.00     0.048 C  
HETATM    5  O   UNL     1     -10.170   4.498  68.618  1.00  0.00    -0.040 OA 
HETATM    6  N   UNL     1      -8.238   4.483  67.385  1.00  0.00    -0.101 N  
HETATM    7  C   UNL     1     -10.332   5.301  66.331  1.00  0.00    -0.268 C  
HETATM    8  C   UNL     1      -9.627   4.618  67.520  1.00  0.00    -0.163 C  
ENDROOT
BRANCH   3   9
HETATM    9  C   UNL     1      -7.609   6.231  64.739  1.00  0.00    -0.093 A  
HETATM   10  C   UNL     1      -6.244   8.039  65.638  1.00  0.00    -0.038 A  
HETATM   11  C   UNL     1      -6.775   6.747  65.741  1.00  0.00    -0.052 A  
HETATM   12  C   UNL     1      -7.860   7.050  63.630  1.00  0.00    -0.112 A  
HETATM   13  C   UNL     1      -7.346   8.341  63.528  1.00  0.00    -0.108 A  
HETATM   14  C   UNL     1      -6.533   8.837  64.533  1.00  0.00    -0.067 A  
ENDBRANCH   3   9
BRANCH   7  15
HETATM   15  N   UNL     1     -10.190   6.736  66.586  1.00  0.00    -0.399 N  
HETATM   16  H   UNL     1     -10.599   7.385  65.912  1.00  0.00     0.000 HD 
HETATM   17  C   UNL     1      -9.539   7.265  67.674  1.00  0.00    -0.135 C  
HETATM   18  O   UNL     1      -8.979   6.581  68.522  1.00  0.00    -0.127 OA 
BRANCH  17  19
HETATM   19  C   UNL     1      -9.549   8.752  67.793  1.00  0.00    -0.177 A  
HETATM   20  N   UNL     1      -8.355  10.755  68.516  1.00  0.00    -0.131 NA 
HETATM   21  C   UNL     1      -8.440   9.404  68.329  1.00  0.00    -0.120 A  
HETATM   22  C   UNL     1      -9.459  11.453  68.203  1.00  0.00    -0.181 A  
HETATM   23  C   UNL     1      -9.566  12.950  68.301  1.00  0.00    -0.212 C  
HETATM   24  C   UNL     1     -11.072  13.205  68.074  1.00  0.00    -0.290 C  
HETATM   25  C   UNL     1     -11.737  11.882  67.620  1.00  0.00    -0.346 C  
HETATM   26  C   UNL     1     -11.294  14.272  66.971  1.00  0.00    -0.341 C  
HETATM   27  O   UNL     1     -10.925  14.208  65.813  1.00  0.00    -0.293 OA 
HETATM   28  C   UNL     1     -10.624  10.890  67.728  1.00  0.00    -0.255 A  
HETATM   29  N   UNL     1     -12.021  15.305  67.527  1.00  0.00    -0.280 N  
HETATM   30  C   UNL     1     -12.269  15.092  68.864  1.00  0.00    -0.103 A  
HETATM   31  C   UNL     1     -10.663   9.531  67.461  1.00  0.00    -0.311 A  
HETATM   32  H   UNL     1     -12.335  16.126  67.010  1.00  0.00     0.000 HD 
HETATM   33  N   UNL     1     -12.899  15.959  69.657  1.00  0.00     0.157 NA 
HETATM   34  C   UNL     1     -12.988  15.573  70.951  1.00  0.00    -0.467 A  
HETATM   35  C   UNL     1     -12.484  14.369  71.450  1.00  0.00    -0.433 A  
HETATM   36  C   UNL     1     -11.842  13.486  70.580  1.00  0.00    -0.200 A  
HETATM   37  C   UNL     1     -11.739  13.868  69.255  1.00  0.00    -0.381 A  
ENDBRANCH  17  19
ENDBRANCH   7  15
BRANCH   6  38
HETATM   38  C   UNL     1      -7.460   4.535  68.643  1.00  0.00    -0.064 C  
HETATM   39  F   UNL     1      -8.005   3.199  70.543  1.00  0.00    -0.043 F  
HETATM   40  F   UNL     1      -6.052   2.847  69.638  1.00  0.00    -0.021 F  
HETATM   41  C   UNL     1      -7.330   3.168  69.363  1.00  0.00    -0.045 C  
HETATM   42  F   UNL     1      -7.877   2.142  68.656  1.00  0.00    -0.052 F  
ENDBRANCH   6  38
TORSDOF 4
ENDMDL
MODEL      114
REMARK 921   NORMALIZED FREE ENERGY PREDICTED BY IDOCK:   -0.84 KCAL/MOL
REMARK 922        TOTAL FREE ENERGY PREDICTED BY IDOCK:   -2.63 KCAL/MOL
REMARK 923 INTER-LIGAND FREE ENERGY PREDICTED BY IDOCK:   -4.94 KCAL/MOL
REMARK 924 INTRA-LIGAND FREE ENERGY PREDICTED BY IDOCK:    2.31 KCAL/MOL
REMARK 927      BINDING AFFINITY PREDICTED BY RF-SCORE:    0.00 PKD
ROOT
HETATM    1  C   UNL     1     -11.713  14.705  69.787  1.00  0.00    -0.361 C  
HETATM    2  C   UNL     1     -11.252  14.098  68.455  1.00  0.00    -0.265 C  
HETATM    3  C   UNL     1     -11.909  12.708  68.209  1.00  0.00    -0.354 C  
HETATM    4  C   UNL     1     -11.544  12.242  66.785  1.00  0.00    -0.434 C  
HETATM    5  O   UNL     1      -8.299  13.947  66.463  1.00  0.00     0.134 OA 
HETATM    6  N   UNL     1      -9.802  14.049  68.192  1.00  0.00    -0.228 N  
HETATM    7  C   UNL     1     -10.042  12.255  66.493  1.00  0.00    -0.215 C  
HETATM    8  C   UNL     1      -9.356  13.555  66.958  1.00  0.00    -0.247 C  
ENDROOT
BRANCH   3   9
HETATM    9  C   UNL     1     -11.671  11.650  69.285  1.00  0.00    -0.396 A  
HETATM   10  C   UNL     1     -12.074  10.841  71.548  1.00  0.00    -0.201 A  
HETATM   11  C   UNL     1     -12.322  11.760  70.522  1.00  0.00    -0.387 A  
HETATM   12  C   UNL     1     -10.789  10.573  69.118  1.00  0.00    -0.277 A  
HETATM   13  C   UNL     1     -10.527   9.662  70.141  1.00  0.00    -0.321 A  
HETATM   14  C   UNL     1     -11.172   9.794  71.359  1.00  0.00    -0.368 A  
ENDBRANCH   3   9
BRANCH   7  15
HETATM   15  N   UNL     1      -9.303  11.182  67.164  1.00  0.00    -0.164 N  
HETATM   16  H   UNL     1      -9.729  10.748  67.983  1.00  0.00     0.000 HD 
HETATM   17  C   UNL     1      -8.073  10.724  66.759  1.00  0.00    -0.137 C  
HETATM   18  O   UNL     1      -7.456  11.200  65.814  1.00  0.00    -0.002 OA 
BRANCH  17  19
HETATM   19  C   UNL     1      -7.504   9.584  67.533  1.00  0.00    -0.091 A  
HETATM   20  N   UNL     1      -5.549   8.194  67.992  1.00  0.00    -0.034 NA 
HETATM   21  C   UNL     1      -6.164   9.239  67.362  1.00  0.00    -0.058 A  
HETATM   22  C   UNL     1      -6.342   7.442  68.772  1.00  0.00    -0.036 A  
HETATM   23  C   UNL     1      -5.861   6.268  69.579  1.00  0.00    -0.017 C  
HETATM   24  C   UNL     1      -7.175   5.627  70.076  1.00  0.00    -0.068 C  
HETATM   25  C   UNL     1      -8.350   6.580  69.740  1.00  0.00    -0.127 C  
HETATM   26  C   UNL     1      -7.142   5.408  71.611  1.00  0.00    -0.072 C  
HETATM   27  O   UNL     1      -7.001   6.265  72.464  1.00  0.00    -0.072 OA 
HETATM   28  C   UNL     1      -7.690   7.665  68.953  1.00  0.00    -0.117 A  
HETATM   29  N   UNL     1      -7.333   4.062  71.847  1.00  0.00    -0.058 N  
HETATM   30  C   UNL     1      -7.440   3.349  70.674  1.00  0.00    -0.040 A  
HETATM   31  C   UNL     1      -8.278   8.780  68.377  1.00  0.00    -0.118 A  
HETATM   32  H   UNL     1      -7.388   3.646  72.776  1.00  0.00     0.000 HD 
HETATM   33  N   UNL     1      -7.571   2.023  70.612  1.00  0.00    -0.036 NA 
HETATM   34  C   UNL     1      -7.604   1.522  69.356  1.00  0.00    -0.042 A  
HETATM   35  C   UNL     1      -7.523   2.296  68.196  1.00  0.00    -0.054 A  
HETATM   36  C   UNL     1      -7.398   3.682  68.309  1.00  0.00    -0.054 A  
HETATM   37  C   UNL     1      -7.358   4.210  69.587  1.00  0.00    -0.050 A  
ENDBRANCH  17  19
ENDBRANCH   7  15
BRANCH   6  38
HETATM   38  C   UNL     1      -8.793  14.775  68.996  1.00  0.00    -0.136 C  
HETATM   39  F   UNL     1      -7.365  13.676  70.559  1.00  0.00     0.691 F  
HETATM   40  F   UNL     1      -6.386  14.670  68.883  1.00  0.00    -0.083 F  
HETATM   41  C   UNL     1      -7.485  13.980  69.239  1.00  0.00     0.059 C  
HETATM   42  F   UNL     1      -7.461  12.787  68.586  1.00  0.00    -0.107 F  
ENDBRANCH   6  38
TORSDOF 4
ENDMDL
MODEL      115
REMARK 921   NORMALIZED FREE ENERGY PREDICTED BY IDOCK:   -0.11 KCAL/MOL
REMARK 922        TOTAL FREE ENERGY PREDICTED BY IDOCK:   -1.73 KCAL/MOL
REMARK 923 INTER-LIGAND FREE ENERGY PREDICTED BY IDOCK:   -4.00 KCAL/MOL
REMARK 924 INTRA-LIGAND FREE ENERGY PREDICTED BY IDOCK:    2.27 KCAL/MOL
REMARK 927      BINDING AFFINITY PREDICTED BY RF-SCORE:    0.00 PKD
ROOT
HETATM    1  C   UNL     1      -7.664   3.764  72.660  1.00  0.00    -0.069 C  
HETATM    2  C   UNL     1      -7.260   4.007  71.199  1.00  0.00    -0.033 C  
HETATM    3  C   UNL     1      -5.911   4.777  71.105  1.00  0.00    -0.017 C  
HETATM    4  C   UNL     1      -5.483   4.831  69.625  1.00  0.00    -0.008 C  
HETATM    5  O   UNL     1      -8.823   4.752  68.082  1.00  0.00    -0.102 OA 
HETATM    6  N   UNL     1      -8.270   4.601  70.302  1.00  0.00    -0.074 N  
HETATM    7  C   UNL     1      -6.557   5.385  68.687  1.00  0.00    -0.048 C  
HETATM    8  C   UNL     1      -7.949   4.778  68.949  1.00  0.00    -0.076 C  
ENDROOT
BRANCH   3   9
HETATM    9  C   UNL     1      -5.857   6.131  71.812  1.00  0.00    -0.032 A  
HETATM   10  C   UNL     1      -5.831   7.406  73.889  1.00  0.00    -0.060 A  
HETATM   11  C   UNL     1      -5.816   6.180  73.212  1.00  0.00    -0.045 A  
HETATM   12  C   UNL     1      -5.885   7.354  71.128  1.00  0.00    -0.035 A  
HETATM   13  C   UNL     1      -5.914   8.578  71.796  1.00  0.00    -0.051 A  
HETATM   14  C   UNL     1      -5.884   8.605  73.180  1.00  0.00    -0.095 A  
ENDBRANCH   3   9
BRANCH   7  15
HETATM   15  N   UNL     1      -6.751   6.832  68.807  1.00  0.00    -0.054 N  
HETATM   16  H   UNL     1      -7.398   7.171  69.520  1.00  0.00     0.000 HD 
HETATM   17  C   UNL     1      -6.118   7.764  68.019  1.00  0.00    -0.045 C  
HETATM   18  O   UNL     1      -5.354   7.467  67.109  1.00  0.00    -0.026 OA 
BRANCH  17  19
HETATM   19  C   UNL     1      -6.399   9.194  68.330  1.00  0.00    -0.054 A  
HETATM   20  N   UNL     1      -7.164  10.816  69.987  1.00  0.00    -0.124 NA 
HETATM   21  C   UNL     1      -6.845   9.544  69.604  1.00  0.00    -0.063 A  
HETATM   22  C   UNL     1      -7.086  11.748  69.024  1.00  0.00    -0.100 A  
HETATM   23  C   UNL     1      -7.362  13.210  69.240  1.00  0.00     0.227 C  
HETATM   24  C   UNL     1      -7.375  13.777  67.804  1.00  0.00    -0.170 C  
HETATM   25  C   UNL     1      -6.876  12.679  66.832  1.00  0.00     0.296 C  
HETATM   26  C   UNL     1      -6.438  15.006  67.682  1.00  0.00    -0.150 C  
HETATM   27  O   UNL     1      -5.240  15.029  67.896  1.00  0.00    -0.141 OA 
HETATM   28  C   UNL     1      -6.719  11.487  67.721  1.00  0.00    -0.072 A  
HETATM   29  N   UNL     1      -7.199  16.074  67.254  1.00  0.00    -0.186 N  
HETATM   30  C   UNL     1      -8.526  15.734  67.121  1.00  0.00    -0.208 A  
HETATM   31  C   UNL     1      -6.313  10.210  67.371  1.00  0.00    -0.066 A  
HETATM   32  H   UNL     1      -6.824  17.002  67.059  1.00  0.00     0.000 HD 
HETATM   33  N   UNL     1      -9.489  16.590  66.779  1.00  0.00    -0.238 NA 
HETATM   34  C   UNL     1     -10.733  16.056  66.760  1.00  0.00    -0.259 A  
HETATM   35  C   UNL     1     -11.022  14.722  67.058  1.00  0.00    -0.324 A  
HETATM   36  C   UNL     1      -9.980  13.859  67.400  1.00  0.00    -0.240 A  
HETATM   37  C   UNL     1      -8.703  14.390  67.428  1.00  0.00    -0.214 A  
ENDBRANCH  17  19
ENDBRANCH   7  15
BRANCH   6  38
HETATM   38  C   UNL     1      -9.704   4.728  70.645  1.00  0.00    -0.200 C  
HETATM   39  F   UNL     1     -10.494   6.237  72.315  1.00  0.00    -0.204 F  
HETATM   40  F   UNL     1     -11.202   6.584  70.282  1.00  0.00    -0.305 F  
HETATM   41  C   UNL     1     -10.144   6.171  71.003  1.00  0.00    -0.188 C  
HETATM   42  F   UNL     1      -9.147   7.084  70.845  1.00  0.00    -0.149 F  
ENDBRANCH   6  38
TORSDOF 4
ENDMDL
MODEL      116
REMARK 921   NORMALIZED FREE ENERGY PREDICTED BY IDOCK:    0.73 KCAL/MOL
REMARK 922        TOTAL FREE ENERGY PREDICTED BY IDOCK:   -0.69 KCAL/MOL
REMARK 923 INTER-LIGAND FREE ENERGY PREDICTED BY IDOCK:   -1.21 KCAL/MOL
REMARK 924 INTRA-LIGAND FREE ENERGY PREDICTED BY IDOCK:    0.51 KCAL/MOL
REMARK 927      BINDING AFFINITY PREDICTED BY RF-SCORE:    0.00 PKD
ROOT
HETATM    1  C   UNL     1     -11.481  15.824  68.572  1.00  0.00    -0.381 C  
HETATM    2  C   UNL     1     -11.510  15.202  67.168  1.00  0.00    -0.250 C  
HETATM    3  C   UNL     1     -12.172  13.794  67.187  1.00  0.00    -0.352 C  
HETATM    4  C   UNL     1     -12.326  13.309  65.732  1.00  0.00    -0.505 C  
HETATM    5  O   UNL     1      -9.459  15.080  64.255  1.00  0.00     1.485 OA 
HETATM    6  N   UNL     1     -10.248  15.181  66.405  1.00  0.00    -0.270 N  
HETATM    7  C   UNL     1     -11.029  13.350  64.922  1.00  0.00    -0.342 C  
HETATM    8  C   UNL     1     -10.259  14.674  65.099  1.00  0.00    -0.382 C  
ENDROOT
BRANCH   3   9
HETATM    9  C   UNL     1     -11.537  12.762  68.117  1.00  0.00    -0.380 A  
HETATM   10  C   UNL     1      -9.531  11.693  68.997  1.00  0.00     0.120 A  
HETATM   11  C   UNL     1     -10.141  12.671  68.203  1.00  0.00    -0.231 A  
HETATM   12  C   UNL     1     -12.286  11.853  68.878  1.00  0.00    -0.065 A  
HETATM   13  C   UNL     1     -11.685  10.868  69.661  1.00  0.00    -0.403 A  
HETATM   14  C   UNL     1     -10.304  10.788  69.723  1.00  0.00    -0.073 A  
ENDBRANCH   3   9
BRANCH   7  15
HETATM   15  N   UNL     1     -10.070  12.307  65.295  1.00  0.00    -0.276 N  
HETATM   16  H   UNL     1      -9.115  12.592  65.513  1.00  0.00     0.000 HD 
HETATM   17  C   UNL     1     -10.376  10.970  65.369  1.00  0.00    -0.268 C  
HETATM   18  O   UNL     1     -11.479  10.516  65.091  1.00  0.00     0.781 OA 
BRANCH  17  19
HETATM   19  C   UNL     1      -9.281  10.065  65.824  1.00  0.00    -0.222 A  
HETATM   20  N   UNL     1      -7.083   9.113  65.352  1.00  0.00    -0.081 NA 
HETATM   21  C   UNL     1      -8.130   9.937  65.048  1.00  0.00    -0.140 A  
HETATM   22  C   UNL     1      -7.244   8.352  66.446  1.00  0.00    -0.072 A  
HETATM   23  C   UNL     1      -6.202   7.404  66.973  1.00  0.00    -0.047 C  
HETATM   24  C   UNL     1      -6.966   6.621  68.063  1.00  0.00    -0.080 C  
HETATM   25  C   UNL     1      -8.341   7.299  68.290  1.00  0.00    -0.125 C  
HETATM   26  C   UNL     1      -6.186   6.629  69.403  1.00  0.00    -0.034 C  
HETATM   27  O   UNL     1      -5.862   7.608  70.049  1.00  0.00    -0.024 OA 
HETATM   28  C   UNL     1      -8.371   8.362  67.238  1.00  0.00    -0.123 A  
HETATM   29  N   UNL     1      -5.948   5.316  69.758  1.00  0.00    -0.017 N  
HETATM   30  C   UNL     1      -6.421   4.439  68.809  1.00  0.00    -0.037 A  
HETATM   31  C   UNL     1      -9.386   9.266  66.968  1.00  0.00    -0.183 A  
HETATM   32  H   UNL     1      -5.479   5.032  70.617  1.00  0.00     0.000 HD 
HETATM   33  N   UNL     1      -6.272   3.115  68.872  1.00  0.00    -0.028 NA 
HETATM   34  C   UNL     1      -6.767   2.444  67.806  1.00  0.00    -0.039 A  
HETATM   35  C   UNL     1      -7.398   3.050  66.717  1.00  0.00    -0.070 A  
HETATM   36  C   UNL     1      -7.543   4.439  66.700  1.00  0.00    -0.089 A  
HETATM   37  C   UNL     1      -7.038   5.140  67.780  1.00  0.00    -0.066 A  
ENDBRANCH  17  19
ENDBRANCH   7  15
BRANCH   6  38
HETATM   38  C   UNL     1      -9.040  15.945  66.789  1.00  0.00    -0.248 C  
HETATM   39  F   UNL     1      -7.136  14.916  67.793  1.00  0.00    -0.114 F  
HETATM   40  F   UNL     1      -6.818  15.859  65.853  1.00  0.00     0.950 F  
HETATM   41  C   UNL     1      -7.711  15.172  66.588  1.00  0.00     0.326 C  
HETATM   42  F   UNL     1      -7.889  13.957  66.002  1.00  0.00     1.146 F  
ENDBRANCH   6  38
TORSDOF 4
ENDMDL
MODEL      117
REMARK 921   NORMALIZED FREE ENERGY PREDICTED BY IDOCK:    1.33 KCAL/MOL
REMARK 922        TOTAL FREE ENERGY PREDICTED BY IDOCK:    0.05 KCAL/MOL
REMARK 923 INTER-LIGAND FREE ENERGY PREDICTED BY IDOCK:   -1.88 KCAL/MOL
REMARK 924 INTRA-LIGAND FREE ENERGY PREDICTED BY IDOCK:    1.92 KCAL/MOL
REMARK 927      BINDING AFFINITY PREDICTED BY RF-SCORE:    0.00 PKD
ROOT
HETATM    1  C   UNL     1     -10.081  15.406  67.270  1.00  0.00    -0.238 C  
HETATM    2  C   UNL     1     -10.981  14.191  67.538  1.00  0.00    -0.283 C  
HETATM    3  C   UNL     1     -10.449  13.345  68.731  1.00  0.00    -0.203 C  
HETATM    4  C   UNL     1     -11.487  12.252  69.054  1.00  0.00    -0.349 C  
HETATM    5  O   UNL     1     -12.911  11.833  65.687  1.00  0.00     0.958 OA 
HETATM    6  N   UNL     1     -11.322  13.328  66.391  1.00  0.00    -0.303 N  
HETATM    7  C   UNL     1     -11.889  11.400  67.848  1.00  0.00    -0.165 C  
HETATM    8  C   UNL     1     -12.190  12.247  66.595  1.00  0.00     0.254 C  
ENDROOT
BRANCH   3   9
HETATM    9  C   UNL     1      -9.020  12.820  68.602  1.00  0.00     0.048 A  
HETATM   10  C   UNL     1      -7.049  12.438  67.221  1.00  0.00    -0.128 A  
HETATM   11  C   UNL     1      -8.334  12.966  67.388  1.00  0.00    -0.190 A  
HETATM   12  C   UNL     1      -8.353  12.150  69.638  1.00  0.00     1.573 A  
HETATM   13  C   UNL     1      -7.079  11.610  69.473  1.00  0.00     0.055 A  
HETATM   14  C   UNL     1      -6.423  11.755  68.263  1.00  0.00    -0.051 A  
ENDBRANCH   3   9
BRANCH   7  15
HETATM   15  N   UNL     1     -10.852  10.458  67.422  1.00  0.00    -0.289 N  
HETATM   16  H   UNL     1     -10.756  10.271  66.424  1.00  0.00     0.000 HD 
HETATM   17  C   UNL     1      -9.999   9.809  68.283  1.00  0.00    -0.153 C  
HETATM   18  O   UNL     1     -10.053   9.929  69.500  1.00  0.00    -0.193 OA 
BRANCH  17  19
HETATM   19  C   UNL     1      -8.969   8.931  67.657  1.00  0.00    -0.141 A  
HETATM   20  N   UNL     1      -6.986   8.794  66.239  1.00  0.00    -0.080 NA 
HETATM   21  C   UNL     1      -7.959   9.503  66.885  1.00  0.00    -0.109 A  
HETATM   22  C   UNL     1      -7.084   7.458  66.333  1.00  0.00    -0.074 A  
HETATM   23  C   UNL     1      -6.101   6.496  65.727  1.00  0.00    -0.030 C  
HETATM   24  C   UNL     1      -6.797   5.129  65.909  1.00  0.00    -0.061 C  
HETATM   25  C   UNL     1      -8.036   5.320  66.819  1.00  0.00    -0.105 C  
HETATM   26  C   UNL     1      -5.845   4.106  66.582  1.00  0.00    -0.023 C  
HETATM   27  O   UNL     1      -5.321   4.212  67.675  1.00  0.00    -0.011 OA 
HETATM   28  C   UNL     1      -8.083   6.801  67.019  1.00  0.00    -0.109 A  
HETATM   29  N   UNL     1      -5.719   3.027  65.731  1.00  0.00    -0.018 N  
HETATM   30  C   UNL     1      -6.419   3.216  64.562  1.00  0.00    -0.031 A  
HETATM   31  C   UNL     1      -9.010   7.535  67.741  1.00  0.00    -0.131 A  
HETATM   32  H   UNL     1      -5.174   2.192  65.943  1.00  0.00     0.000 HD 
HETATM   33  N   UNL     1      -6.422   2.356  63.542  1.00  0.00    -0.021 NA 
HETATM   34  C   UNL     1      -7.135   2.765  62.467  1.00  0.00    -0.035 A  
HETATM   35  C   UNL     1      -7.833   3.973  62.396  1.00  0.00    -0.061 A  
HETATM   36  C   UNL     1      -7.811   4.837  63.492  1.00  0.00    -0.081 A  
HETATM   37  C   UNL     1      -7.083   4.436  64.598  1.00  0.00    -0.061 A  
ENDBRANCH  17  19
ENDBRANCH   7  15
BRANCH   6  38
HETATM   38  C   UNL     1     -11.078  13.699  64.979  1.00  0.00    -0.332 C  
HETATM   39  F   UNL     1      -9.173  12.936  63.763  1.00  0.00     0.401 F  
HETATM   40  F   UNL     1     -11.120  12.311  63.006  1.00  0.00    -0.427 F  
HETATM   41  C   UNL     1     -10.430  12.574  64.131  1.00  0.00    -0.403 C  
HETATM   42  F   UNL     1     -10.289  11.408  64.818  1.00  0.00    -0.277 F  
ENDBRANCH   6  38
TORSDOF 4
ENDMDL
MODEL      118
REMARK 921   NORMALIZED FREE ENERGY PREDICTED BY IDOCK:    1.73 KCAL/MOL
REMARK 922        TOTAL FREE ENERGY PREDICTED BY IDOCK:    0.54 KCAL/MOL
REMARK 923 INTER-LIGAND FREE ENERGY PREDICTED BY IDOCK:   -2.93 KCAL/MOL
REMARK 924 INTRA-LIGAND FREE ENERGY PREDICTED BY IDOCK:    3.47 KCAL/MOL
REMARK 927      BINDING AFFINITY PREDICTED BY RF-SCORE:    0.00 PKD
ROOT
HETATM    1  C   UNL     1      -7.254   4.306  65.613  1.00  0.00    -0.072 C  
HETATM    2  C   UNL     1      -8.432   4.806  66.461  1.00  0.00    -0.110 C  
HETATM    3  C   UNL     1      -9.191   5.963  65.749  1.00  0.00    -0.059 C  
HETATM    4  C   UNL     1     -10.455   6.292  66.568  1.00  0.00    -0.174 C  
HETATM    5  O   UNL     1      -9.217   5.335  69.898  1.00  0.00    -0.129 OA 
HETATM    6  N   UNL     1      -8.162   5.143  67.872  1.00  0.00    -0.098 N  
HETATM    7  C   UNL     1     -10.181   6.577  68.046  1.00  0.00    -0.164 C  
HETATM    8  C   UNL     1      -9.231   5.544  68.685  1.00  0.00    -0.122 C  
ENDROOT
BRANCH   3   9
HETATM    9  C   UNL     1      -8.359   7.189  65.378  1.00  0.00    -0.122 A  
HETATM   10  C   UNL     1      -7.960   9.073  63.885  1.00  0.00    -0.146 A  
HETATM   11  C   UNL     1      -8.740   7.982  64.287  1.00  0.00     0.341 A  
HETATM   12  C   UNL     1      -7.187   7.552  66.056  1.00  0.00    -0.070 A  
HETATM   13  C   UNL     1      -6.399   8.629  65.652  1.00  0.00    -0.056 A  
HETATM   14  C   UNL     1      -6.787   9.394  64.565  1.00  0.00    -0.093 A  
ENDBRANCH   3   9
BRANCH   7  15
HETATM   15  N   UNL     1      -9.541   7.872  68.286  1.00  0.00    -0.153 N  
HETATM   16  H   UNL     1     -10.016   8.711  67.951  1.00  0.00     0.000 HD 
HETATM   17  C   UNL     1      -8.339   8.030  68.935  1.00  0.00    -0.126 C  
HETATM   18  O   UNL     1      -7.667   7.091  69.342  1.00  0.00    -0.103 OA 
BRANCH  17  19
HETATM   19  C   UNL     1      -7.876   9.433  69.137  1.00  0.00    -0.080 A  
HETATM   20  N   UNL     1      -6.952  11.080  70.685  1.00  0.00     0.203 NA 
HETATM   21  C   UNL     1      -7.372   9.816  70.379  1.00  0.00    -0.141 A  
HETATM   22  C   UNL     1      -7.111  11.993  69.714  1.00  0.00     0.402 A  
HETATM   23  C   UNL     1      -6.685  13.431  69.831  1.00  0.00     0.174 C  
HETATM   24  C   UNL     1      -7.305  14.079  68.574  1.00  0.00    -0.114 C  
HETATM   25  C   UNL     1      -7.861  12.959  67.660  1.00  0.00    -0.168 C  
HETATM   26  C   UNL     1      -6.242  14.881  67.781  1.00  0.00    -0.145 C  
HETATM   27  O   UNL     1      -5.216  14.444  67.295  1.00  0.00    -0.278 OA 
HETATM   28  C   UNL     1      -7.658  11.724  68.478  1.00  0.00    -0.131 A  
HETATM   29  N   UNL     1      -6.682  16.187  67.691  1.00  0.00    -0.137 N  
HETATM   30  C   UNL     1      -7.870  16.371  68.361  1.00  0.00    -0.176 A  
HETATM   31  C   UNL     1      -7.996  10.420  68.153  1.00  0.00    -0.110 A  
HETATM   32  H   UNL     1      -6.186  16.924  67.190  1.00  0.00     0.000 HD 
HETATM   33  N   UNL     1      -8.486  17.548  68.483  1.00  0.00    -0.278 NA 
HETATM   34  C   UNL     1      -9.615  17.513  69.229  1.00  0.00     0.062 A  
HETATM   35  C   UNL     1     -10.131  16.360  69.826  1.00  0.00    -0.065 A  
HETATM   36  C   UNL     1      -9.458  15.149  69.661  1.00  0.00    -0.104 A  
HETATM   37  C   UNL     1      -8.299  15.167  68.905  1.00  0.00    -0.190 A  
ENDBRANCH  17  19
ENDBRANCH   7  15
BRANCH   6  38
HETATM   38  C   UNL     1      -6.913   4.784  68.581  1.00  0.00    -0.052 C  
HETATM   39  F   UNL     1      -6.844   3.131  70.299  1.00  0.00    -0.032 F  
HETATM   40  F   UNL     1      -5.657   2.725  68.516  1.00  0.00    -0.015 F  
HETATM   41  C   UNL     1      -6.803   3.282  68.949  1.00  0.00    -0.045 C  
HETATM   42  F   UNL     1      -7.838   2.541  68.467  1.00  0.00    -0.053 F  
ENDBRANCH   6  38
TORSDOF 4
ENDMDL
MODEL      119
REMARK 921   NORMALIZED FREE ENERGY PREDICTED BY IDOCK:    1.88 KCAL/MOL
REMARK 922        TOTAL FREE ENERGY PREDICTED BY IDOCK:    0.73 KCAL/MOL
REMARK 923 INTER-LIGAND FREE ENERGY PREDICTED BY IDOCK:    1.25 KCAL/MOL
REMARK 924 INTRA-LIGAND FREE ENERGY PREDICTED BY IDOCK:   -0.52 KCAL/MOL
REMARK 927      BINDING AFFINITY PREDICTED BY RF-SCORE:    0.00 PKD
ROOT
HETATM    1  C   UNL     1      -6.033  21.344  66.359  1.00  0.00    -0.331 C  
HETATM    2  C   UNL     1      -6.760  21.006  67.668  1.00  0.00    -0.341 C  
HETATM    3  C   UNL     1      -6.034  19.865  68.439  1.00  0.00    -0.276 C  
HETATM    4  C   UNL     1      -6.711  19.700  69.815  1.00  0.00    -0.299 C  
HETATM    5  O   UNL     1     -10.100  20.802  68.897  1.00  0.00     0.236 OA 
HETATM    6  N   UNL     1      -8.211  20.755  67.598  1.00  0.00    -0.147 N  
HETATM    7  C   UNL     1      -8.227  19.506  69.743  1.00  0.00     0.581 C  
HETATM    8  C   UNL     1      -8.910  20.504  68.787  1.00  0.00     0.764 C  
ENDROOT
BRANCH   3   9
HETATM    9  C   UNL     1      -5.849  18.551  67.682  1.00  0.00    -0.165 A  
HETATM   10  C   UNL     1      -5.731  16.117  67.712  1.00  0.00    -0.160 A  
HETATM   11  C   UNL     1      -5.959  17.333  68.367  1.00  0.00    -0.150 A  
HETATM   12  C   UNL     1      -5.529  18.492  66.318  1.00  0.00    -0.179 A  
HETATM   13  C   UNL     1      -5.287  17.285  65.663  1.00  0.00     0.473 A  
HETATM   14  C   UNL     1      -5.390  16.093  66.361  1.00  0.00     1.254 A  
ENDBRANCH   3   9
BRANCH   7  15
HETATM   15  N   UNL     1      -8.628  18.185  69.254  1.00  0.00     0.164 N  
HETATM   16  H   UNL     1      -7.946  17.645  68.720  1.00  0.00     0.000 HD 
HETATM   17  C   UNL     1      -9.865  17.626  69.469  1.00  0.00     0.209 C  
HETATM   18  O   UNL     1     -10.769  18.201  70.062  1.00  0.00     0.803 OA 
BRANCH  17  19
HETATM   19  C   UNL     1     -10.067  16.245  68.944  1.00  0.00    -0.251 A  
HETATM   20  N   UNL     1     -11.593  14.357  68.685  1.00  0.00    -0.296 NA 
HETATM   21  C   UNL     1     -11.308  15.629  69.097  1.00  0.00    -0.338 A  
HETATM   22  C   UNL     1     -10.564  13.674  68.159  1.00  0.00    -0.247 A  
HETATM   23  C   UNL     1     -10.670  12.276  67.615  1.00  0.00    -0.250 C  
HETATM   24  C   UNL     1      -9.196  11.885  67.374  1.00  0.00    -0.177 C  
HETATM   25  C   UNL     1      -8.312  13.144  67.560  1.00  0.00    -0.185 C  
HETATM   26  C   UNL     1      -8.992  11.348  65.934  1.00  0.00    -0.177 C  
HETATM   27  O   UNL     1      -9.213  11.947  64.897  1.00  0.00     0.030 OA 
HETATM   28  C   UNL     1      -9.287  14.176  68.026  1.00  0.00    -0.203 A  
HETATM   29  N   UNL     1      -8.479  10.070  66.031  1.00  0.00    -0.129 N  
HETATM   30  C   UNL     1      -8.361   9.667  67.342  1.00  0.00    -0.114 A  
HETATM   31  C   UNL     1      -9.036  15.496  68.366  1.00  0.00    -0.190 A  
HETATM   32  H   UNL     1      -8.220   9.496  65.230  1.00  0.00     0.000 HD 
HETATM   33  N   UNL     1      -7.948   8.457  67.720  1.00  0.00    -0.110 NA 
HETATM   34  C   UNL     1      -7.959   8.254  69.057  1.00  0.00    -0.112 A  
HETATM   35  C   UNL     1      -8.351   9.210  69.997  1.00  0.00    -0.156 A  
HETATM   36  C   UNL     1      -8.765  10.468  69.556  1.00  0.00    -0.040 A  
HETATM   37  C   UNL     1      -8.764  10.691  68.191  1.00  0.00    -0.130 A  
ENDBRANCH  17  19
ENDBRANCH   7  15
BRANCH   6  38
HETATM   38  C   UNL     1      -9.045  21.064  66.414  1.00  0.00     0.819 C  
HETATM   39  F   UNL     1      -9.284  19.552  64.585  1.00  0.00     1.970 F  
HETATM   40  F   UNL     1     -11.103  20.036  65.686  1.00  0.00    -0.469 F  
HETATM   41  C   UNL     1      -9.779  19.835  65.819  1.00  0.00    -0.141 C  
HETATM   42  F   UNL     1      -9.599  18.703  66.553  1.00  0.00    -0.291 F  
ENDBRANCH   6  38
TORSDOF 4
ENDMDL
MODEL      120
REMARK 921   NORMALIZED FREE ENERGY PREDICTED BY IDOCK:    3.10 KCAL/MOL
REMARK 922        TOTAL FREE ENERGY PREDICTED BY IDOCK:    2.23 KCAL/MOL
REMARK 923 INTER-LIGAND FREE ENERGY PREDICTED BY IDOCK:    0.32 KCAL/MOL
REMARK 924 INTRA-LIGAND FREE ENERGY PREDICTED BY IDOCK:    1.91 KCAL/MOL
REMARK 927      BINDING AFFINITY PREDICTED BY RF-SCORE:    0.00 PKD
ROOT
HETATM    1  C   UNL     1     -11.254  12.923  69.268  1.00  0.00    -0.251 C  
HETATM    2  C   UNL     1     -10.312  11.997  70.051  1.00  0.00     1.610 C  
HETATM    3  C   UNL     1      -8.991  11.740  69.268  1.00  0.00     0.598 C  
HETATM    4  C   UNL     1      -8.029  10.955  70.182  1.00  0.00     1.011 C  
HETATM    5  O   UNL     1     -10.528   9.164  72.203  1.00  0.00    -0.265 OA 
HETATM    6  N   UNL     1     -10.872  10.735  70.570  1.00  0.00     0.090 N  
HETATM    7  C   UNL     1      -8.634   9.680  70.772  1.00  0.00     0.130 C  
HETATM    8  C   UNL     1     -10.051   9.900  71.340  1.00  0.00     0.805 C  
ENDROOT
BRANCH   3   9
HETATM    9  C   UNL     1      -9.141  11.142  67.870  1.00  0.00    -0.150 A  
HETATM   10  C   UNL     1     -10.535  10.030  66.209  1.00  0.00    -0.172 A  
HETATM   11  C   UNL     1     -10.385  10.642  67.459  1.00  0.00    -0.254 A  
HETATM   12  C   UNL     1      -8.074  11.025  66.969  1.00  0.00    -0.136 A  
HETATM   13  C   UNL     1      -8.214  10.405  65.728  1.00  0.00    -0.156 A  
HETATM   14  C   UNL     1      -9.448   9.907  65.345  1.00  0.00    -0.319 A  
ENDBRANCH   3   9
BRANCH   7  15
HETATM   15  N   UNL     1      -8.786   8.596  69.798  1.00  0.00    -0.130 N  
HETATM   16  H   UNL     1      -8.065   8.490  69.084  1.00  0.00     0.000 HD 
HETATM   17  C   UNL     1      -9.839   7.712  69.786  1.00  0.00    -0.181 C  
HETATM   18  O   UNL     1     -10.777   7.773  70.571  1.00  0.00    -0.227 OA 
BRANCH  17  19
HETATM   19  C   UNL     1      -9.789   6.639  68.753  1.00  0.00    -0.140 A  
HETATM   20  N   UNL     1     -10.000   4.255  68.266  1.00  0.00    -0.032 NA 
HETATM   21  C   UNL     1     -10.051   5.320  69.121  1.00  0.00    -0.219 A  
HETATM   22  C   UNL     1      -9.609   4.537  67.013  1.00  0.00    -0.190 A  
HETATM   23  C   UNL     1      -9.518   3.520  65.909  1.00  0.00    -0.143 C  
HETATM   24  C   UNL     1      -8.801   4.295  64.782  1.00  0.00    -0.140 C  
HETATM   25  C   UNL     1      -8.717   5.789  65.182  1.00  0.00    -0.070 C  
HETATM   26  C   UNL     1      -9.584   4.186  63.448  1.00  0.00    -0.130 C  
HETATM   27  O   UNL     1     -10.728   4.548  63.245  1.00  0.00     0.181 OA 
HETATM   28  C   UNL     1      -9.268   5.798  66.572  1.00  0.00    -0.150 A  
HETATM   29  N   UNL     1      -8.738   3.629  62.510  1.00  0.00    -0.081 N  
HETATM   30  C   UNL     1      -7.515   3.308  63.053  1.00  0.00    -0.054 A  
HETATM   31  C   UNL     1      -9.410   6.879  67.427  1.00  0.00    -0.144 A  
HETATM   32  H   UNL     1      -8.989   3.475  61.534  1.00  0.00     0.000 HD 
HETATM   33  N   UNL     1      -6.532   2.704  62.383  1.00  0.00    -0.017 NA 
HETATM   34  C   UNL     1      -5.434   2.433  63.125  1.00  0.00    -0.008 A  
HETATM   35  C   UNL     1      -5.297   2.753  64.478  1.00  0.00    -0.009 A  
HETATM   36  C   UNL     1      -6.347   3.396  65.135  1.00  0.00    -0.031 A  
HETATM   37  C   UNL     1      -7.480   3.677  64.393  1.00  0.00    -0.072 A  
ENDBRANCH  17  19
ENDBRANCH   7  15
BRANCH   6  38
HETATM   38  C   UNL     1     -12.320  10.432  70.614  1.00  0.00    -0.346 C  
HETATM   39  F   UNL     1     -13.544  10.314  72.657  1.00  0.00    -0.352 F  
HETATM   40  F   UNL     1     -14.160  11.858  71.246  1.00  0.00     0.677 F  
HETATM   41  C   UNL     1     -13.093  11.192  71.722  1.00  0.00    -0.431 C  
HETATM   42  F   UNL     1     -12.313  12.078  72.399  1.00  0.00     0.215 F  
ENDBRANCH   6  38
TORSDOF 4
ENDMDL
MODEL      121
REMARK 921   NORMALIZED FREE ENERGY PREDICTED BY IDOCK:    4.35 KCAL/MOL
REMARK 922        TOTAL FREE ENERGY PREDICTED BY IDOCK:    3.77 KCAL/MOL
REMARK 923 INTER-LIGAND FREE ENERGY PREDICTED BY IDOCK:   -1.22 KCAL/MOL
REMARK 924 INTRA-LIGAND FREE ENERGY PREDICTED BY IDOCK:    4.99 KCAL/MOL
REMARK 927      BINDING AFFINITY PREDICTED BY RF-SCORE:    0.00 PKD
ROOT
HETATM    1  C   UNL     1      -9.801  20.840  68.248  1.00  0.00     0.134 C  
HETATM    2  C   UNL     1      -8.391  20.377  67.854  1.00  0.00    -0.086 C  
HETATM    3  C   UNL     1      -8.438  19.346  66.690  1.00  0.00    -0.339 C  
HETATM    4  C   UNL     1      -6.993  19.062  66.232  1.00  0.00    -0.253 C  
HETATM    5  O   UNL     1      -5.275  19.659  69.430  1.00  0.00    -0.183 OA 
HETATM    6  N   UNL     1      -7.499  19.914  68.934  1.00  0.00    -0.254 N  
HETATM    7  C   UNL     1      -6.053  18.645  67.364  1.00  0.00    -0.174 C  
HETATM    8  C   UNL     1      -6.186  19.544  68.610  1.00  0.00    -0.244 C  
ENDROOT
BRANCH   3   9
HETATM    9  C   UNL     1      -9.265  18.086  66.938  1.00  0.00    -0.271 A  
HETATM   10  C   UNL     1     -10.075  16.386  68.485  1.00  0.00    -0.248 A  
HETATM   11  C   UNL     1      -9.378  17.575  68.238  1.00  0.00    -0.281 A  
HETATM   12  C   UNL     1      -9.901  17.372  65.912  1.00  0.00    -0.124 A  
HETATM   13  C   UNL     1     -10.586  16.182  66.149  1.00  0.00    -0.288 A  
HETATM   14  C   UNL     1     -10.676  15.687  67.440  1.00  0.00    -0.309 A  
ENDBRANCH   3   9
BRANCH   7  15
HETATM   15  N   UNL     1      -6.292  17.286  67.856  1.00  0.00    -0.146 N  
HETATM   16  H   UNL     1      -6.422  17.156  68.859  1.00  0.00     0.000 HD 
HETATM   17  C   UNL     1      -6.350  16.174  67.051  1.00  0.00    -0.040 C  
HETATM   18  O   UNL     1      -6.169  16.210  65.840  1.00  0.00     1.281 OA 
BRANCH  17  19
HETATM   19  C   UNL     1      -6.662  14.883  67.727  1.00  0.00    -0.191 A  
HETATM   20  N   UNL     1      -6.405  13.506  69.727  1.00  0.00    -0.113 NA 
HETATM   21  C   UNL     1      -6.207  14.662  69.026  1.00  0.00    -0.091 A  
HETATM   22  C   UNL     1      -7.031  12.524  69.060  1.00  0.00    -0.066 A  
HETATM   23  C   UNL     1      -7.377  11.187  69.655  1.00  0.00     0.034 C  
HETATM   24  C   UNL     1      -7.843  10.372  68.429  1.00  0.00    -0.104 C  
HETATM   25  C   UNL     1      -7.976  11.329  67.218  1.00  0.00    -0.141 C  
HETATM   26  C   UNL     1      -9.223   9.715  68.691  1.00  0.00    -0.136 C  
HETATM   27  O   UNL     1     -10.262  10.289  68.958  1.00  0.00    -0.186 OA 
HETATM   28  C   UNL     1      -7.460  12.626  67.754  1.00  0.00    -0.131 A  
HETATM   29  N   UNL     1      -9.074   8.351  68.536  1.00  0.00    -0.136 N  
HETATM   30  C   UNL     1      -7.771   8.010  68.254  1.00  0.00    -0.117 A  
HETATM   31  C   UNL     1      -7.331  13.834  67.087  1.00  0.00     0.141 A  
HETATM   32  H   UNL     1      -9.836   7.679  68.620  1.00  0.00     0.000 HD 
HETATM   33  N   UNL     1      -7.337   6.756  68.115  1.00  0.00    -0.094 NA 
HETATM   34  C   UNL     1      -6.007   6.645  67.894  1.00  0.00    -0.024 A  
HETATM   35  C   UNL     1      -5.130   7.728  67.802  1.00  0.00    -0.031 A  
HETATM   36  C   UNL     1      -5.630   9.023  67.943  1.00  0.00    -0.035 A  
HETATM   37  C   UNL     1      -6.987   9.155  68.173  1.00  0.00    -0.076 A  
ENDBRANCH  17  19
ENDBRANCH   7  15
BRANCH   6  38
HETATM   38  C   UNL     1      -7.775  20.112  70.374  1.00  0.00     1.066 C  
HETATM   39  F   UNL     1      -6.520  19.019  72.083  1.00  0.00     0.653 F  
HETATM   40  F   UNL     1      -6.424  21.197  72.053  1.00  0.00     0.543 F  
HETATM   41  C   UNL     1      -6.509  20.107  71.268  1.00  0.00     0.055 C  
HETATM   42  F   UNL     1      -5.355  20.015  70.553  1.00  0.00    -0.216 F  
ENDBRANCH   6  38
TORSDOF 4
ENDMDL
MODEL      122
REMARK 921   NORMALIZED FREE ENERGY PREDICTED BY IDOCK:    4.40 KCAL/MOL
REMARK 922        TOTAL FREE ENERGY PREDICTED BY IDOCK:    3.84 KCAL/MOL
REMARK 923 INTER-LIGAND FREE ENERGY PREDICTED BY IDOCK:    0.21 KCAL/MOL
REMARK 924 INTRA-LIGAND FREE ENERGY PREDICTED BY IDOCK:    3.63 KCAL/MOL
REMARK 927      BINDING AFFINITY PREDICTED BY RF-SCORE:    0.00 PKD
ROOT
HETATM    1  C   UNL     1     -11.257  17.016  63.965  1.00  0.00     2.028 C  
HETATM    2  C   UNL     1     -12.021  16.286  65.079  1.00  0.00     0.847 C  
HETATM    3  C   UNL     1     -11.315  16.457  66.455  1.00  0.00     0.505 C  
HETATM    4  C   UNL     1     -12.223  15.854  67.546  1.00  0.00     1.081 C  
HETATM    5  O   UNL     1     -13.896  13.284  65.511  1.00  0.00     0.259 OA 
HETATM    6  N   UNL     1     -12.386  14.876  64.845  1.00  0.00    -0.245 N  
HETATM    7  C   UNL     1     -12.654  14.412  67.269  1.00  0.00     0.425 C  
HETATM    8  C   UNL     1     -13.136  14.203  65.819  1.00  0.00    -0.014 C  
ENDROOT
BRANCH   3   9
HETATM    9  C   UNL     1      -9.863  15.988  66.532  1.00  0.00    -0.284 A  
HETATM   10  C   UNL     1      -8.259  14.220  67.021  1.00  0.00    -0.116 A  
HETATM   11  C   UNL     1      -9.580  14.660  66.880  1.00  0.00    -0.253 A  
HETATM   12  C   UNL     1      -8.771  16.838  66.307  1.00  0.00    -0.342 A  
HETATM   13  C   UNL     1      -7.453  16.410  66.458  1.00  0.00    -0.223 A  
HETATM   14  C   UNL     1      -7.195  15.097  66.814  1.00  0.00     0.542 A  
ENDBRANCH   3   9
BRANCH   7  15
HETATM   15  N   UNL     1     -11.581  13.432  67.451  1.00  0.00    -0.333 N  
HETATM   16  H   UNL     1     -10.679  13.623  67.013  1.00  0.00     0.000 HD 
HETATM   17  C   UNL     1     -11.712  12.271  68.173  1.00  0.00    -0.349 C  
HETATM   18  O   UNL     1     -12.759  11.924  68.706  1.00  0.00     0.264 OA 
BRANCH  17  19
HETATM   19  C   UNL     1     -10.489  11.426  68.296  1.00  0.00    -0.221 A  
HETATM   20  N   UNL     1      -8.055  11.363  68.472  1.00  0.00    -0.144 NA 
HETATM   21  C   UNL     1      -9.240  12.038  68.391  1.00  0.00    -0.160 A  
HETATM   22  C   UNL     1      -8.143  10.026  68.391  1.00  0.00    -0.101 A  
HETATM   23  C   UNL     1      -6.966   9.095  68.492  1.00  0.00    -0.067 C  
HETATM   24  C   UNL     1      -7.568   7.730  68.095  1.00  0.00    -0.116 C  
HETATM   25  C   UNL     1      -9.109   7.872  68.010  1.00  0.00    -0.132 C  
HETATM   26  C   UNL     1      -7.232   6.645  69.151  1.00  0.00    -0.091 C  
HETATM   27  O   UNL     1      -7.532   6.662  70.330  1.00  0.00    -0.086 OA 
HETATM   28  C   UNL     1      -9.325   9.335  68.232  1.00  0.00    -0.141 A  
HETATM   29  N   UNL     1      -6.552   5.630  68.508  1.00  0.00    -0.050 N  
HETATM   30  C   UNL     1      -6.349   5.917  67.177  1.00  0.00    -0.038 A  
HETATM   31  C   UNL     1     -10.525  10.028  68.241  1.00  0.00    -0.246 A  
HETATM   32  H   UNL     1      -6.239   4.773  68.963  1.00  0.00     0.000 HD 
HETATM   33  N   UNL     1      -5.669   5.135  66.337  1.00  0.00    -0.017 NA 
HETATM   34  C   UNL     1      -5.543   5.633  65.086  1.00  0.00    -0.017 A  
HETATM   35  C   UNL     1      -6.076   6.854  64.666  1.00  0.00    -0.036 A  
HETATM   36  C   UNL     1      -6.791   7.634  65.576  1.00  0.00    -0.049 A  
HETATM   37  C   UNL     1      -6.926   7.141  66.862  1.00  0.00    -0.077 A  
ENDBRANCH  17  19
ENDBRANCH   7  15
BRANCH   6  38
HETATM   38  C   UNL     1     -12.300  14.210  63.526  1.00  0.00     0.204 C  
HETATM   39  F   UNL     1     -10.771  12.433  63.083  1.00  0.00    -0.460 F  
HETATM   40  F   UNL     1     -12.891  11.952  62.914  1.00  0.00    -0.608 F  
HETATM   41  C   UNL     1     -12.001  12.691  63.602  1.00  0.00    -0.535 C  
HETATM   42  F   UNL     1     -11.965  12.221  64.878  1.00  0.00    -0.397 F  
ENDBRANCH   6  38
TORSDOF 4
ENDMDL
MODEL      123
REMARK 921   NORMALIZED FREE ENERGY PREDICTED BY IDOCK:    5.21 KCAL/MOL
REMARK 922        TOTAL FREE ENERGY PREDICTED BY IDOCK:    4.83 KCAL/MOL
REMARK 923 INTER-LIGAND FREE ENERGY PREDICTED BY IDOCK:   -3.18 KCAL/MOL
REMARK 924 INTRA-LIGAND FREE ENERGY PREDICTED BY IDOCK:    8.01 KCAL/MOL
REMARK 927      BINDING AFFINITY PREDICTED BY RF-SCORE:    0.00 PKD
ROOT
HETATM    1  C   UNL     1      -9.245   7.076  71.274  1.00  0.00    -0.152 C  
HETATM    2  C   UNL     1      -9.164   7.290  69.755  1.00  0.00    -0.140 C  
HETATM    3  C   UNL     1      -7.703   7.573  69.301  1.00  0.00    -0.112 C  
HETATM    4  C   UNL     1      -7.669   7.601  67.759  1.00  0.00    -0.122 C  
HETATM    5  O   UNL     1     -11.108   8.763  67.155  1.00  0.00     0.046 OA 
HETATM    6  N   UNL     1     -10.101   8.256  69.152  1.00  0.00    -0.197 N  
HETATM    7  C   UNL     1      -8.688   8.555  67.133  1.00  0.00    -0.129 C  
HETATM    8  C   UNL     1     -10.090   8.426  67.760  1.00  0.00    -0.207 C  
ENDROOT
BRANCH   3   9
HETATM    9  C   UNL     1      -7.012   8.769  69.955  1.00  0.00    -0.046 A  
HETATM   10  C   UNL     1      -5.242  10.443  69.912  1.00  0.00    -0.038 A  
HETATM   11  C   UNL     1      -5.934   9.387  69.307  1.00  0.00    -0.037 A  
HETATM   12  C   UNL     1      -7.378   9.270  71.212  1.00  0.00    -0.000 A  
HETATM   13  C   UNL     1      -6.684  10.312  71.826  1.00  0.00     1.477 A  
HETATM   14  C   UNL     1      -5.615  10.902  71.174  1.00  0.00     0.004 A  
ENDBRANCH   3   9
BRANCH   7  15
HETATM   15  N   UNL     1      -8.339   9.970  67.286  1.00  0.00    -0.121 N  
HETATM   16  H   UNL     1      -7.645  10.363  66.650  1.00  0.00     0.000 HD 
HETATM   17  C   UNL     1      -8.888  10.801  68.233  1.00  0.00    -0.139 C  
HETATM   18  O   UNL     1      -9.699  10.424  69.069  1.00  0.00    -0.187 OA 
BRANCH  17  19
HETATM   19  C   UNL     1      -8.451  12.226  68.195  1.00  0.00    -0.176 A  
HETATM   20  N   UNL     1      -7.294  14.043  69.345  1.00  0.00     0.006 NA 
HETATM   21  C   UNL     1      -7.715  12.746  69.259  1.00  0.00     0.469 A  
HETATM   22  C   UNL     1      -7.688  14.847  68.345  1.00  0.00    -0.115 A  
HETATM   23  C   UNL     1      -7.308  16.297  68.229  1.00  0.00    -0.146 C  
HETATM   24  C   UNL     1      -8.202  16.799  67.074  1.00  0.00    -0.224 C  
HETATM   25  C   UNL     1      -8.889  15.579  66.411  1.00  0.00    -0.359 C  
HETATM   26  C   UNL     1      -7.361  17.535  65.999  1.00  0.00    -0.253 C  
HETATM   27  O   UNL     1      -6.441  17.070  65.353  1.00  0.00     0.643 OA 
HETATM   28  C   UNL     1      -8.470  14.440  67.285  1.00  0.00    -0.229 A  
HETATM   29  N   UNL     1      -7.863  18.815  65.878  1.00  0.00    -0.158 N  
HETATM   30  C   UNL     1      -8.892  19.045  66.762  1.00  0.00    -0.310 A  
HETATM   31  C   UNL     1      -8.814  13.103  67.167  1.00  0.00    -0.222 A  
HETATM   32  H   UNL     1      -7.514  19.506  65.214  1.00  0.00     0.000 HD 
HETATM   33  N   UNL     1      -9.518  20.215  66.897  1.00  0.00    -0.391 NA 
HETATM   34  C   UNL     1     -10.464  20.236  67.864  1.00  0.00    -0.181 A  
HETATM   35  C   UNL     1     -10.796  19.142  68.666  1.00  0.00     0.513 A  
HETATM   36  C   UNL     1     -10.123  17.933  68.481  1.00  0.00    -0.392 A  
HETATM   37  C   UNL     1      -9.149  17.896  67.500  1.00  0.00    -0.245 A  
ENDBRANCH  17  19
ENDBRANCH   7  15
BRANCH   6  38
HETATM   38  C   UNL     1     -11.269   8.824  69.860  1.00  0.00    -0.051 C  
HETATM   39  F   UNL     1     -11.501   8.730  72.232  1.00  0.00    -0.400 F  
HETATM   40  F   UNL     1     -11.379  10.720  71.349  1.00  0.00    -0.162 F  
HETATM   41  C   UNL     1     -10.931   9.456  71.235  1.00  0.00    -0.370 C  
HETATM   42  F   UNL     1      -9.597   9.459  71.502  1.00  0.00    -0.328 F  
ENDBRANCH   6  38
TORSDOF 4
ENDMDL
MODEL      124
REMARK 921   NORMALIZED FREE ENERGY PREDICTED BY IDOCK:    5.55 KCAL/MOL
REMARK 922        TOTAL FREE ENERGY PREDICTED BY IDOCK:    5.25 KCAL/MOL
REMARK 923 INTER-LIGAND FREE ENERGY PREDICTED BY IDOCK:    4.47 KCAL/MOL
REMARK 924 INTRA-LIGAND FREE ENERGY PREDICTED BY IDOCK:    0.78 KCAL/MOL
REMARK 927      BINDING AFFINITY PREDICTED BY RF-SCORE:    0.00 PKD
ROOT
HETATM    1  C   UNL     1     -13.673  15.470  68.710  1.00  0.00     4.723 C  
HETATM    2  C   UNL     1     -12.297  16.065  68.376  1.00  0.00     0.791 C  
HETATM    3  C   UNL     1     -11.812  15.613  66.968  1.00  0.00     0.428 C  
HETATM    4  C   UNL     1     -10.520  16.382  66.627  1.00  0.00    -0.274 C  
HETATM    5  O   UNL     1      -9.253  16.870  70.048  1.00  0.00     0.867 OA 
HETATM    6  N   UNL     1     -11.226  15.912  69.377  1.00  0.00    -0.310 N  
HETATM    7  C   UNL     1      -9.433  16.276  67.699  1.00  0.00    -0.221 C  
HETATM    8  C   UNL     1      -9.978  16.498  69.124  1.00  0.00    -0.275 C  
ENDROOT
BRANCH   3   9
HETATM    9  C   UNL     1     -11.711  14.105  66.742  1.00  0.00    -0.432 A  
HETATM   10  C   UNL     1     -11.591  12.225  65.196  1.00  0.00    -0.402 A  
HETATM   11  C   UNL     1     -11.621  13.604  65.436  1.00  0.00    -0.334 A  
HETATM   12  C   UNL     1     -11.743  13.170  67.786  1.00  0.00    -0.401 A  
HETATM   13  C   UNL     1     -11.728  11.796  67.553  1.00  0.00    -0.312 A  
HETATM   14  C   UNL     1     -11.650  11.321  66.255  1.00  0.00     0.250 A  
ENDBRANCH   3   9
BRANCH   7  15
HETATM   15  N   UNL     1      -8.782  14.964  67.747  1.00  0.00    -0.161 N  
HETATM   16  H   UNL     1      -9.022  14.284  67.026  1.00  0.00     0.000 HD 
HETATM   17  C   UNL     1      -7.869  14.592  68.704  1.00  0.00    -0.138 C  
HETATM   18  O   UNL     1      -7.539  15.315  69.636  1.00  0.00    -0.216 OA 
BRANCH  17  19
HETATM   19  C   UNL     1      -7.269  13.235  68.554  1.00  0.00    -0.110 A  
HETATM   20  N   UNL     1      -5.519  11.873  67.534  1.00  0.00    -0.074 NA 
HETATM   21  C   UNL     1      -6.130  13.072  67.768  1.00  0.00    -0.151 A  
HETATM   22  C   UNL     1      -6.125  10.801  68.068  1.00  0.00    -0.050 A  
HETATM   23  C   UNL     1      -5.602   9.395  67.960  1.00  0.00    -0.037 C  
HETATM   24  C   UNL     1      -6.768   8.547  68.512  1.00  0.00    -0.060 C  
HETATM   25  C   UNL     1      -7.821   9.497  69.136  1.00  0.00    -0.082 C  
HETATM   26  C   UNL     1      -6.275   7.571  69.610  1.00  0.00    -0.031 C  
HETATM   27  O   UNL     1      -5.731   7.870  70.657  1.00  0.00    -0.029 OA 
HETATM   28  C   UNL     1      -7.288  10.855  68.806  1.00  0.00    -0.104 A  
HETATM   29  N   UNL     1      -6.591   6.289  69.206  1.00  0.00    -0.043 N  
HETATM   30  C   UNL     1      -7.184   6.279  67.964  1.00  0.00    -0.087 A  
HETATM   31  C   UNL     1      -7.846  12.087  69.108  1.00  0.00     0.247 A  
HETATM   32  H   UNL     1      -6.407   5.453  69.759  1.00  0.00     0.000 HD 
HETATM   33  N   UNL     1      -7.538   5.171  67.311  1.00  0.00    -0.090 NA 
HETATM   34  C   UNL     1      -8.056   5.388  66.080  1.00  0.00    -0.107 A  
HETATM   35  C   UNL     1      -8.233   6.651  65.510  1.00  0.00    -0.138 A  
HETATM   36  C   UNL     1      -7.860   7.784  66.236  1.00  0.00    -0.091 A  
HETATM   37  C   UNL     1      -7.324   7.580  67.494  1.00  0.00    -0.102 A  
ENDBRANCH  17  19
ENDBRANCH   7  15
BRANCH   6  38
HETATM   38  C   UNL     1     -11.456  15.464  70.769  1.00  0.00    -0.355 C  
HETATM   39  F   UNL     1     -10.681  16.698  72.658  1.00  0.00     1.241 F  
HETATM   40  F   UNL     1     -12.840  16.451  72.481  1.00  0.00    -0.459 F  
HETATM   41  C   UNL     1     -11.709  16.619  71.772  1.00  0.00     0.018 C  
HETATM   42  F   UNL     1     -11.769  17.839  71.172  1.00  0.00     1.579 F  
ENDBRANCH   6  38
TORSDOF 4
ENDMDL
MODEL      125
REMARK 921   NORMALIZED FREE ENERGY PREDICTED BY IDOCK:    5.94 KCAL/MOL
REMARK 922        TOTAL FREE ENERGY PREDICTED BY IDOCK:    5.73 KCAL/MOL
REMARK 923 INTER-LIGAND FREE ENERGY PREDICTED BY IDOCK:    0.46 KCAL/MOL
REMARK 924 INTRA-LIGAND FREE ENERGY PREDICTED BY IDOCK:    5.27 KCAL/MOL
REMARK 927      BINDING AFFINITY PREDICTED BY RF-SCORE:    0.00 PKD
ROOT
HETATM    1  C   UNL     1     -10.056   8.350  72.228  1.00  0.00    -0.382 C  
HETATM    2  C   UNL     1     -10.212   8.491  70.707  1.00  0.00    -0.198 C  
HETATM    3  C   UNL     1      -8.888   8.142  69.967  1.00  0.00    -0.139 C  
HETATM    4  C   UNL     1      -9.165   8.133  68.451  1.00  0.00    -0.135 C  
HETATM    5  O   UNL     1     -11.895  10.599  68.376  1.00  0.00    -0.439 OA 
HETATM    6  N   UNL     1     -10.787   9.749  70.194  1.00  0.00    -0.268 N  
HETATM    7  C   UNL     1      -9.822   9.413  67.931  1.00  0.00    -0.165 C  
HETATM    8  C   UNL     1     -10.996   9.881  68.814  1.00  0.00    -0.179 C  
ENDROOT
BRANCH   3   9
HETATM    9  C   UNL     1      -7.658   8.956  70.365  1.00  0.00    -0.088 A  
HETATM   10  C   UNL     1      -5.387   9.690  69.874  1.00  0.00    -0.033 A  
HETATM   11  C   UNL     1      -6.552   9.005  69.507  1.00  0.00    -0.043 A  
HETATM   12  C   UNL     1      -7.554   9.640  71.585  1.00  0.00     0.931 A  
HETATM   13  C   UNL     1      -6.393  10.312  71.962  1.00  0.00     1.153 A  
HETATM   14  C   UNL     1      -5.306  10.340  71.105  1.00  0.00    -0.086 A  
ENDBRANCH   3   9
BRANCH   7  15
HETATM   15  N   UNL     1      -8.913  10.561  67.880  1.00  0.00    -0.135 N  
HETATM   16  H   UNL     1      -8.387  10.716  67.020  1.00  0.00     0.000 HD 
HETATM   17  C   UNL     1      -8.723  11.441  68.918  1.00  0.00    -0.004 C  
HETATM   18  O   UNL     1      -9.273  11.326  70.007  1.00  0.00     1.162 OA 
BRANCH  17  19
HETATM   19  C   UNL     1      -7.801  12.583  68.657  1.00  0.00    -0.048 A  
HETATM   20  N   UNL     1      -5.695  13.682  69.219  1.00  0.00    -0.081 NA 
HETATM   21  C   UNL     1      -6.596  12.665  69.354  1.00  0.00    -0.067 A  
HETATM   22  C   UNL     1      -6.062  14.676  68.395  1.00  0.00    -0.101 A  
HETATM   23  C   UNL     1      -5.205  15.871  68.080  1.00  0.00    -0.118 C  
HETATM   24  C   UNL     1      -6.170  16.797  67.309  1.00  0.00    -0.207 C  
HETATM   25  C   UNL     1      -7.470  16.012  67.000  1.00  0.00    -0.264 C  
HETATM   26  C   UNL     1      -5.544  17.260  65.968  1.00  0.00     0.076 C  
HETATM   27  O   UNL     1      -5.177  16.546  65.053  1.00  0.00     2.667 OA 
HETATM   28  C   UNL     1      -7.259  14.715  67.713  1.00  0.00    -0.191 A  
HETATM   29  N   UNL     1      -5.505  18.640  65.978  1.00  0.00    -0.151 N  
HETATM   30  C   UNL     1      -5.975  19.154  67.164  1.00  0.00    -0.174 A  
HETATM   31  C   UNL     1      -8.123  13.635  67.792  1.00  0.00    -0.173 A  
HETATM   32  H   UNL     1      -5.168  19.208  65.201  1.00  0.00     0.000 HD 
HETATM   33  N   UNL     1      -5.993  20.454  67.463  1.00  0.00    -0.196 NA 
HETATM   34  C   UNL     1      -6.447  20.737  68.706  1.00  0.00    -0.103 A  
HETATM   35  C   UNL     1      -6.879  19.778  69.625  1.00  0.00    -0.310 A  
HETATM   36  C   UNL     1      -6.854  18.429  69.264  1.00  0.00    -0.221 A  
HETATM   37  C   UNL     1      -6.389  18.123  67.998  1.00  0.00    -0.181 A  
ENDBRANCH  17  19
ENDBRANCH   7  15
BRANCH   6  38
HETATM   38  C   UNL     1     -11.456  10.758  71.046  1.00  0.00     0.126 C  
HETATM   39  F   UNL     1     -13.785  11.242  70.871  1.00  0.00     0.166 F  
HETATM   40  F   UNL     1     -13.102  10.441  72.781  1.00  0.00    -0.180 F  
HETATM   41  C   UNL     1     -12.905  10.384  71.451  1.00  0.00    -0.452 C  
HETATM   42  F   UNL     1     -13.270   9.143  71.026  1.00  0.00    -0.313 F  
ENDBRANCH   6  38
TORSDOF 4
ENDMDL
MODEL      126
REMARK 921   NORMALIZED FREE ENERGY PREDICTED BY IDOCK:    6.66 KCAL/MOL
REMARK 922        TOTAL FREE ENERGY PREDICTED BY IDOCK:    6.63 KCAL/MOL
REMARK 923 INTER-LIGAND FREE ENERGY PREDICTED BY IDOCK:    5.46 KCAL/MOL
REMARK 924 INTRA-LIGAND FREE ENERGY PREDICTED BY IDOCK:    1.17 KCAL/MOL
REMARK 927      BINDING AFFINITY PREDICTED BY RF-SCORE:    0.00 PKD
ROOT
HETATM    1  C   UNL     1      -9.321  14.237  71.281  1.00  0.00     5.072 C  
HETATM    2  C   UNL     1      -9.942  14.159  69.879  1.00  0.00     0.880 C  
HETATM    3  C   UNL     1     -11.173  13.207  69.857  1.00  0.00     0.067 C  
HETATM    4  C   UNL     1     -11.846  13.314  68.474  1.00  0.00    -0.384 C  
HETATM    5  O   UNL     1      -8.872  14.158  66.478  1.00  0.00    -0.173 OA 
HETATM    6  N   UNL     1      -9.038  13.878  68.748  1.00  0.00    -0.072 N  
HETATM    7  C   UNL     1     -10.892  13.088  67.299  1.00  0.00    -0.252 C  
HETATM    8  C   UNL     1      -9.567  13.862  67.450  1.00  0.00    -0.235 C  
ENDROOT
BRANCH   3   9
HETATM    9  C   UNL     1     -10.924  11.771  70.312  1.00  0.00     0.755 A  
HETATM   10  C   UNL     1     -11.764   9.724  71.333  1.00  0.00    -0.475 A  
HETATM   11  C   UNL     1     -11.979  11.019  70.848  1.00  0.00    -0.391 A  
HETATM   12  C   UNL     1      -9.663  11.160  70.262  1.00  0.00     1.858 A  
HETATM   13  C   UNL     1      -9.440   9.875  70.755  1.00  0.00     0.239 A  
HETATM   14  C   UNL     1     -10.494   9.153  71.290  1.00  0.00    -0.398 A  
ENDBRANCH   3   9
BRANCH   7  15
HETATM   15  N   UNL     1     -10.491  11.689  67.129  1.00  0.00    -0.213 N  
HETATM   16  H   UNL     1      -9.593  11.500  66.685  1.00  0.00     0.000 HD 
HETATM   17  C   UNL     1     -11.249  10.615  67.531  1.00  0.00    -0.253 C  
HETATM   18  O   UNL     1     -12.358  10.727  68.038  1.00  0.00    -0.034 OA 
BRANCH  17  19
HETATM   19  C   UNL     1     -10.646   9.267  67.327  1.00  0.00    -0.303 A  
HETATM   20  N   UNL     1     -11.034   6.871  67.060  1.00  0.00    -0.387 NA 
HETATM   21  C   UNL     1     -11.478   8.154  67.214  1.00  0.00     1.660 A  
HETATM   22  C   UNL     1      -9.701   6.713  67.084  1.00  0.00    -0.142 A  
HETATM   23  C   UNL     1      -9.005   5.393  66.899  1.00  0.00    -0.110 C  
HETATM   24  C   UNL     1      -7.538   5.722  67.256  1.00  0.00    -0.096 C  
HETATM   25  C   UNL     1      -7.395   7.257  67.404  1.00  0.00    -0.092 C  
HETATM   26  C   UNL     1      -6.574   5.242  66.142  1.00  0.00    -0.048 C  
HETATM   27  O   UNL     1      -6.579   5.591  64.976  1.00  0.00    -0.038 OA 
HETATM   28  C   UNL     1      -8.801   7.744  67.255  1.00  0.00    -0.130 A  
HETATM   29  N   UNL     1      -5.676   4.363  66.714  1.00  0.00    -0.021 N  
HETATM   30  C   UNL     1      -5.945   4.156  68.048  1.00  0.00    -0.027 A  
HETATM   31  C   UNL     1      -9.264   9.048  67.321  1.00  0.00    -0.159 A  
HETATM   32  H   UNL     1      -4.908   3.920  66.210  1.00  0.00     0.000 HD 
HETATM   33  N   UNL     1      -5.269   3.310  68.827  1.00  0.00    -0.011 NA 
HETATM   34  C   UNL     1      -5.735   3.221  70.094  1.00  0.00    -0.017 A  
HETATM   35  C   UNL     1      -6.822   3.947  70.587  1.00  0.00    -0.033 A  
HETATM   36  C   UNL     1      -7.492   4.831  69.738  1.00  0.00    -0.055 A  
HETATM   37  C   UNL     1      -7.031   4.930  68.438  1.00  0.00    -0.057 A  
ENDBRANCH  17  19
ENDBRANCH   7  15
BRANCH   6  38
HETATM   38  C   UNL     1      -7.561  13.930  68.840  1.00  0.00    -0.060 C  
HETATM   39  F   UNL     1      -6.311  12.456  70.239  1.00  0.00    -0.143 F  
HETATM   40  F   UNL     1      -5.928  12.317  68.097  1.00  0.00    -0.049 F  
HETATM   41  C   UNL     1      -6.889  12.543  69.011  1.00  0.00    -0.089 C  
HETATM   42  F   UNL     1      -7.776  11.513  68.951  1.00  0.00    -0.121 F  
ENDBRANCH   6  38
TORSDOF 4
ENDMDL
MODEL      127
REMARK 921   NORMALIZED FREE ENERGY PREDICTED BY IDOCK:    7.32 KCAL/MOL
REMARK 922        TOTAL FREE ENERGY PREDICTED BY IDOCK:    7.44 KCAL/MOL
REMARK 923 INTER-LIGAND FREE ENERGY PREDICTED BY IDOCK:    8.06 KCAL/MOL
REMARK 924 INTRA-LIGAND FREE ENERGY PREDICTED BY IDOCK:   -0.62 KCAL/MOL
REMARK 927      BINDING AFFINITY PREDICTED BY RF-SCORE:    0.00 PKD
ROOT
HETATM    1  C   UNL     1     -12.693   8.974  67.689  1.00  0.00    10.042 C  
HETATM    2  C   UNL     1     -11.256   8.796  68.200  1.00  0.00     0.530 C  
HETATM    3  C   UNL     1     -10.986   9.684  69.449  1.00  0.00    -0.215 C  
HETATM    4  C   UNL     1      -9.595   9.325  70.011  1.00  0.00    -0.235 C  
HETATM    5  O   UNL     1      -7.990   8.272  66.871  1.00  0.00    -0.098 OA 
HETATM    6  N   UNL     1     -10.162   8.918  67.219  1.00  0.00    -0.237 N  
HETATM    7  C   UNL     1      -8.472   9.388  68.975  1.00  0.00    -0.129 C  
HETATM    8  C   UNL     1      -8.845   8.699  67.647  1.00  0.00    -0.136 C  
ENDROOT
BRANCH   3   9
HETATM    9  C   UNL     1     -11.210  11.185  69.270  1.00  0.00    -0.331 A  
HETATM   10  C   UNL     1     -11.506  13.389  70.266  1.00  0.00     0.015 A  
HETATM   11  C   UNL     1     -11.238  12.021  70.395  1.00  0.00     0.667 A  
HETATM   12  C   UNL     1     -11.434  11.782  68.022  1.00  0.00    -0.388 A  
HETATM   13  C   UNL     1     -11.715  13.141  67.888  1.00  0.00    -0.398 A  
HETATM   14  C   UNL     1     -11.749  13.949  69.013  1.00  0.00    -0.378 A  
ENDBRANCH   3   9
BRANCH   7  15
HETATM   15  N   UNL     1      -8.098  10.753  68.595  1.00  0.00    -0.128 N  
HETATM   16  H   UNL     1      -8.642  11.524  68.984  1.00  0.00     0.000 HD 
HETATM   17  C   UNL     1      -7.061  11.062  67.748  1.00  0.00    -0.086 C  
HETATM   18  O   UNL     1      -6.369  10.215  67.196  1.00  0.00    -0.065 OA 
BRANCH  17  19
HETATM   19  C   UNL     1      -6.796  12.512  67.527  1.00  0.00    -0.150 A  
HETATM   20  N   UNL     1      -5.136  14.243  67.070  1.00  0.00     0.392 NA 
HETATM   21  C   UNL     1      -5.497  12.938  67.254  1.00  0.00     0.090 A  
HETATM   22  C   UNL     1      -6.118  15.144  67.230  1.00  0.00     0.290 A  
HETATM   23  C   UNL     1      -5.943  16.625  67.041  1.00  0.00    -0.188 C  
HETATM   24  C   UNL     1      -7.271  17.203  67.577  1.00  0.00    -0.177 C  
HETATM   25  C   UNL     1      -8.253  16.033  67.834  1.00  0.00    -0.154 C  
HETATM   26  C   UNL     1      -7.913  18.168  66.547  1.00  0.00    -0.262 C  
HETATM   27  O   UNL     1      -8.257  17.895  65.412  1.00  0.00     0.011 OA 
HETATM   28  C   UNL     1      -7.417  14.824  67.563  1.00  0.00    -0.221 A  
HETATM   29  N   UNL     1      -8.060  19.397  67.158  1.00  0.00    -0.261 N  
HETATM   30  C   UNL     1      -7.556  19.393  68.438  1.00  0.00    -0.321 A  
HETATM   31  C   UNL     1      -7.786  13.492  67.659  1.00  0.00    -0.178 A  
HETATM   32  H   UNL     1      -8.488  20.209  66.714  1.00  0.00     0.000 HD 
HETATM   33  N   UNL     1      -7.516  20.464  69.232  1.00  0.00     0.275 NA 
HETATM   34  C   UNL     1      -6.929  20.250  70.432  1.00  0.00     0.375 A  
HETATM   35  C   UNL     1      -6.408  19.022  70.848  1.00  0.00     0.532 A  
HETATM   36  C   UNL     1      -6.483  17.925  69.988  1.00  0.00     0.186 A  
HETATM   37  C   UNL     1      -7.076  18.127  68.755  1.00  0.00    -0.287 A  
ENDBRANCH  17  19
ENDBRANCH   7  15
BRANCH   6  38
HETATM   38  C   UNL     1     -10.368   8.937  65.753  1.00  0.00     0.771 C  
HETATM   39  F   UNL     1     -11.012  10.908  64.574  1.00  0.00    -0.382 F  
HETATM   40  F   UNL     1      -9.078  10.050  64.045  1.00  0.00    -0.196 F  
HETATM   41  C   UNL     1      -9.927  10.256  65.069  1.00  0.00    -0.323 C  
HETATM   42  F   UNL     1      -9.338  11.129  65.931  1.00  0.00    -0.194 F  
ENDBRANCH   6  38
TORSDOF 4
ENDMDL
MODEL      128
REMARK 921   NORMALIZED FREE ENERGY PREDICTED BY IDOCK:    7.36 KCAL/MOL
REMARK 922        TOTAL FREE ENERGY PREDICTED BY IDOCK:    7.49 KCAL/MOL
REMARK 923 INTER-LIGAND FREE ENERGY PREDICTED BY IDOCK:    1.56 KCAL/MOL
REMARK 924 INTRA-LIGAND FREE ENERGY PREDICTED BY IDOCK:    5.93 KCAL/MOL
REMARK 927      BINDING AFFINITY PREDICTED BY RF-SCORE:    0.00 PKD
ROOT
HETATM    1  C   UNL     1     -11.272  14.746  70.291  1.00  0.00    -0.239 C  
HETATM    2  C   UNL     1     -10.747  14.749  68.848  1.00  0.00    -0.252 C  
HETATM    3  C   UNL     1     -11.694  13.958  67.900  1.00  0.00    -0.396 C  
HETATM    4  C   UNL     1     -11.204  14.151  66.450  1.00  0.00    -0.328 C  
HETATM    5  O   UNL     1      -7.621  14.627  67.139  1.00  0.00    -0.181 OA 
HETATM    6  N   UNL     1      -9.340  14.362  68.632  1.00  0.00    -0.202 N  
HETATM    7  C   UNL     1      -9.727  13.812  66.243  1.00  0.00    -0.284 C  
HETATM    8  C   UNL     1      -8.818  14.415  67.333  1.00  0.00    -0.203 C  
ENDROOT
BRANCH   3   9
HETATM    9  C   UNL     1     -11.957  12.500  68.273  1.00  0.00    -0.274 A  
HETATM   10  C   UNL     1     -12.469  10.837  69.979  1.00  0.00    -0.317 A  
HETATM   11  C   UNL     1     -12.286  12.171  69.595  1.00  0.00    -0.065 A  
HETATM   12  C   UNL     1     -11.846  11.443  67.358  1.00  0.00    -0.038 A  
HETATM   13  C   UNL     1     -12.014  10.112  67.737  1.00  0.00     1.743 A  
HETATM   14  C   UNL     1     -12.329   9.807  69.051  1.00  0.00     1.508 A  
ENDBRANCH   3   9
BRANCH   7  15
HETATM   15  N   UNL     1      -9.444  12.375  66.274  1.00  0.00    -0.262 N  
HETATM   16  H   UNL     1     -10.233  11.733  66.354  1.00  0.00     0.000 HD 
HETATM   17  C   UNL     1      -8.181  11.836  66.203  1.00  0.00     0.159 C  
HETATM   18  O   UNL     1      -7.163  12.514  66.145  1.00  0.00     0.953 OA 
BRANCH  17  19
HETATM   19  C   UNL     1      -8.097  10.347  66.190  1.00  0.00    -0.139 A  
HETATM   20  N   UNL     1      -9.261   8.235  65.809  1.00  0.00    -0.131 NA 
HETATM   21  C   UNL     1      -9.215   9.601  65.823  1.00  0.00    -0.210 A  
HETATM   22  C   UNL     1      -8.152   7.615  66.242  1.00  0.00    -0.112 A  
HETATM   23  C   UNL     1      -7.980   6.121  66.275  1.00  0.00    -0.106 C  
HETATM   24  C   UNL     1      -6.667   5.941  67.068  1.00  0.00    -0.061 C  
HETATM   25  C   UNL     1      -6.007   7.330  67.258  1.00  0.00    -0.041 C  
HETATM   26  C   UNL     1      -5.677   5.025  66.304  1.00  0.00    -0.018 C  
HETATM   27  O   UNL     1      -5.216   5.220  65.194  1.00  0.00    -0.009 OA 
HETATM   28  C   UNL     1      -7.021   8.267  66.685  1.00  0.00    -0.069 A  
HETATM   29  N   UNL     1      -5.379   3.954  67.121  1.00  0.00    -0.012 N  
HETATM   30  C   UNL     1      -6.076   4.009  68.307  1.00  0.00    -0.031 A  
HETATM   31  C   UNL     1      -6.959   9.649  66.609  1.00  0.00    -0.085 A  
HETATM   32  H   UNL     1      -4.723   3.212  66.876  1.00  0.00     0.000 HD 
HETATM   33  N   UNL     1      -6.021   3.070  69.253  1.00  0.00    -0.023 NA 
HETATM   34  C   UNL     1      -6.828   3.297  70.314  1.00  0.00    -0.034 A  
HETATM   35  C   UNL     1      -7.656   4.415  70.451  1.00  0.00    -0.049 A  
HETATM   36  C   UNL     1      -7.672   5.378  69.441  1.00  0.00    -0.085 A  
HETATM   37  C   UNL     1      -6.855   5.158  68.346  1.00  0.00    -0.056 A  
ENDBRANCH  17  19
ENDBRANCH   7  15
BRANCH   6  38
HETATM   38  C   UNL     1      -8.345  14.231  69.720  1.00  0.00     0.776 C  
HETATM   39  F   UNL     1      -7.287  12.159  70.246  1.00  0.00     0.674 F  
HETATM   40  F   UNL     1      -5.981  13.773  69.580  1.00  0.00    -0.089 F  
HETATM   41  C   UNL     1      -7.201  13.231  69.414  1.00  0.00     0.230 C  
HETATM   42  F   UNL     1      -7.265  12.721  68.154  1.00  0.00    -0.081 F  
ENDBRANCH   6  38
TORSDOF 4
ENDMDL
MODEL      129
REMARK 921   NORMALIZED FREE ENERGY PREDICTED BY IDOCK:    7.67 KCAL/MOL
REMARK 922        TOTAL FREE ENERGY PREDICTED BY IDOCK:    7.87 KCAL/MOL
REMARK 923 INTER-LIGAND FREE ENERGY PREDICTED BY IDOCK:    7.60 KCAL/MOL
REMARK 924 INTRA-LIGAND FREE ENERGY PREDICTED BY IDOCK:    0.27 KCAL/MOL
REMARK 927      BINDING AFFINITY PREDICTED BY RF-SCORE:    0.00 PKD
ROOT
HETATM    1  C   UNL     1     -10.592  12.971  71.202  1.00  0.00     5.320 C  
HETATM    2  C   UNL     1     -11.389  12.949  69.890  1.00  0.00     0.039 C  
HETATM    3  C   UNL     1     -12.242  11.653  69.767  1.00  0.00    -0.285 C  
HETATM    4  C   UNL     1     -13.143  11.779  68.522  1.00  0.00     3.401 C  
HETATM    5  O   UNL     1     -10.978  13.958  66.496  1.00  0.00    -0.296 OA 
HETATM    6  N   UNL     1     -10.652  13.216  68.640  1.00  0.00    -0.252 N  
HETATM    7  C   UNL     1     -12.384  12.121  67.239  1.00  0.00     0.786 C  
HETATM    8  C   UNL     1     -11.366  13.262  67.434  1.00  0.00    -0.303 C  
ENDROOT
BRANCH   3   9
HETATM    9  C   UNL     1     -11.477  10.332  69.845  1.00  0.00    -0.340 A  
HETATM   10  C   UNL     1     -11.466   7.948  70.348  1.00  0.00    -0.154 A  
HETATM   11  C   UNL     1     -12.154   9.159  70.206  1.00  0.00     0.210 A  
HETATM   12  C   UNL     1     -10.099  10.231  69.608  1.00  0.00    -0.257 A  
HETATM   13  C   UNL     1      -9.406   9.030  69.761  1.00  0.00    -0.176 A  
HETATM   14  C   UNL     1     -10.091   7.885  70.129  1.00  0.00    -0.194 A  
ENDBRANCH   3   9
BRANCH   7  15
HETATM   15  N   UNL     1     -11.598  11.006  66.705  1.00  0.00     0.180 N  
HETATM   16  H   UNL     1     -11.697  10.094  67.152  1.00  0.00     0.000 HD 
HETATM   17  C   UNL     1     -10.735  11.111  65.641  1.00  0.00    -0.185 C  
HETATM   18  O   UNL     1     -10.512  12.164  65.057  1.00  0.00    -0.271 OA 
BRANCH  17  19
HETATM   19  C   UNL     1     -10.068   9.851  65.204  1.00  0.00    -0.177 A  
HETATM   20  N   UNL     1      -9.067   8.597  63.363  1.00  0.00     0.495 NA 
HETATM   21  C   UNL     1      -9.656   9.717  63.879  1.00  0.00     0.113 A  
HETATM   22  C   UNL     1      -8.952   7.562  64.210  1.00  0.00     1.051 A  
HETATM   23  C   UNL     1      -8.305   6.251  63.856  1.00  0.00     0.104 C  
HETATM   24  C   UNL     1      -8.654   5.355  65.065  1.00  0.00    -0.142 C  
HETATM   25  C   UNL     1      -9.280   6.238  66.174  1.00  0.00    -0.143 C  
HETATM   26  C   UNL     1      -7.384   4.674  65.636  1.00  0.00    -0.077 C  
HETATM   27  O   UNL     1      -6.396   5.232  66.078  1.00  0.00    -0.033 OA 
HETATM   28  C   UNL     1      -9.388   7.577  65.518  1.00  0.00     0.375 A  
HETATM   29  N   UNL     1      -7.581   3.309  65.587  1.00  0.00    -0.076 N  
HETATM   30  C   UNL     1      -8.791   2.990  65.014  1.00  0.00    -0.125 A  
HETATM   31  C   UNL     1      -9.901   8.749  66.050  1.00  0.00    -0.234 A  
HETATM   32  H   UNL     1      -6.912   2.621  65.932  1.00  0.00     0.000 HD 
HETATM   33  N   UNL     1      -9.209   1.743  64.790  1.00  0.00    -0.129 NA 
HETATM   34  C   UNL     1     -10.407   1.658  64.167  1.00  0.00     0.161 A  
HETATM   35  C   UNL     1     -11.178   2.759  63.785  1.00  0.00     0.396 A  
HETATM   36  C   UNL     1     -10.706   4.045  64.051  1.00  0.00    -0.166 A  
HETATM   37  C   UNL     1      -9.480   4.150  64.684  1.00  0.00    -0.168 A  
ENDBRANCH  17  19
ENDBRANCH   7  15
BRANCH   6  38
HETATM   38  C   UNL     1      -9.275  13.756  68.594  1.00  0.00    -0.069 C  
HETATM   39  F   UNL     1      -8.800  16.006  67.963  1.00  0.00    -0.171 F  
HETATM   40  F   UNL     1      -8.244  15.430  69.991  1.00  0.00    -0.187 F  
HETATM   41  C   UNL     1      -9.162  15.240  69.026  1.00  0.00    -0.223 C  
HETATM   42  F   UNL     1     -10.342  15.756  69.464  1.00  0.00    -0.201 F  
ENDBRANCH   6  38
TORSDOF 4
ENDMDL
MODEL      130
REMARK 921   NORMALIZED FREE ENERGY PREDICTED BY IDOCK:    8.86 KCAL/MOL
REMARK 922        TOTAL FREE ENERGY PREDICTED BY IDOCK:    9.34 KCAL/MOL
REMARK 923 INTER-LIGAND FREE ENERGY PREDICTED BY IDOCK:    5.65 KCAL/MOL
REMARK 924 INTRA-LIGAND FREE ENERGY PREDICTED BY IDOCK:    3.69 KCAL/MOL
REMARK 927      BINDING AFFINITY PREDICTED BY RF-SCORE:    0.00 PKD
ROOT
HETATM    1  C   UNL     1     -11.282  14.789  70.855  1.00  0.00    -0.131 C  
HETATM    2  C   UNL     1     -10.785  14.727  69.404  1.00  0.00    -0.239 C  
HETATM    3  C   UNL     1     -11.817  14.015  68.482  1.00  0.00    -0.399 C  
HETATM    4  C   UNL     1     -11.337  14.145  67.022  1.00  0.00    -0.346 C  
HETATM    5  O   UNL     1      -7.713  14.293  67.646  1.00  0.00    -0.147 OA 
HETATM    6  N   UNL     1      -9.424  14.207  69.171  1.00  0.00     0.074 N  
HETATM    7  C   UNL     1      -9.901  13.667  66.796  1.00  0.00    -0.271 C  
HETATM    8  C   UNL     1      -8.922  14.196  67.862  1.00  0.00    -0.185 C  
ENDROOT
BRANCH   3   9
HETATM    9  C   UNL     1     -12.208  12.593  68.879  1.00  0.00    -0.001 A  
HETATM   10  C   UNL     1     -12.842  11.005  70.615  1.00  0.00    -0.305 A  
HETATM   11  C   UNL     1     -12.542  12.311  70.210  1.00  0.00    -0.033 A  
HETATM   12  C   UNL     1     -12.214  11.520  67.976  1.00  0.00     0.286 A  
HETATM   13  C   UNL     1     -12.498  10.215  68.376  1.00  0.00     2.513 A  
HETATM   14  C   UNL     1     -12.815   9.956  69.698  1.00  0.00     1.017 A  
ENDBRANCH   3   9
BRANCH   7  15
HETATM   15  N   UNL     1      -9.753  12.210  66.842  1.00  0.00    -0.202 N  
HETATM   16  H   UNL     1      -9.457  11.787  67.721  1.00  0.00     0.000 HD 
HETATM   17  C   UNL     1      -9.986  11.377  65.774  1.00  0.00    -0.230 C  
HETATM   18  O   UNL     1     -10.307  11.782  64.663  1.00  0.00    -0.262 OA 
BRANCH  17  19
HETATM   19  C   UNL     1      -9.839   9.916  66.030  1.00  0.00    -0.330 A  
HETATM   20  N   UNL     1      -9.640   8.139  67.693  1.00  0.00    -0.148 NA 
HETATM   21  C   UNL     1      -9.805   9.450  67.343  1.00  0.00    -0.172 A  
HETATM   22  C   UNL     1      -9.441   7.289  66.673  1.00  0.00    -0.177 A  
HETATM   23  C   UNL     1      -9.271   5.804  66.835  1.00  0.00    -0.124 C  
HETATM   24  C   UNL     1      -8.836   5.348  65.425  1.00  0.00    -0.144 C  
HETATM   25  C   UNL     1      -8.997   6.539  64.447  1.00  0.00     0.792 C  
HETATM   26  C   UNL     1      -9.716   4.175  64.923  1.00  0.00    -0.191 C  
HETATM   27  O   UNL     1     -10.923   4.188  64.766  1.00  0.00    -0.255 OA 
HETATM   28  C   UNL     1      -9.394   7.665  65.348  1.00  0.00     0.496 A  
HETATM   29  N   UNL     1      -8.880   3.111  64.651  1.00  0.00    -0.111 N  
HETATM   30  C   UNL     1      -7.569   3.402  64.952  1.00  0.00    -0.077 A  
HETATM   31  C   UNL     1      -9.651   8.982  65.004  1.00  0.00     0.219 A  
HETATM   32  H   UNL     1      -9.196   2.217  64.274  1.00  0.00     0.000 HD 
HETATM   33  N   UNL     1      -6.563   2.533  64.840  1.00  0.00    -0.033 NA 
HETATM   34  C   UNL     1      -5.363   3.012  65.240  1.00  0.00    -0.009 A  
HETATM   35  C   UNL     1      -5.151   4.305  65.725  1.00  0.00    -0.009 A  
HETATM   36  C   UNL     1      -6.232   5.184  65.813  1.00  0.00    -0.034 A  
HETATM   37  C   UNL     1      -7.468   4.709  65.412  1.00  0.00    -0.081 A  
ENDBRANCH  17  19
ENDBRANCH   7  15
BRANCH   6  38
HETATM   38  C   UNL     1      -8.427  13.996  70.244  1.00  0.00     2.408 C  
HETATM   39  F   UNL     1      -7.457  11.863  70.693  1.00  0.00     1.633 F  
HETATM   40  F   UNL     1      -6.086  13.439  70.066  1.00  0.00    -0.119 F  
HETATM   41  C   UNL     1      -7.331  12.957  69.895  1.00  0.00     1.081 C  
HETATM   42  F   UNL     1      -7.428  12.492  68.620  1.00  0.00    -0.101 F  
ENDBRANCH   6  38
TORSDOF 4
ENDMDL
MODEL      131
REMARK 921   NORMALIZED FREE ENERGY PREDICTED BY IDOCK:    9.60 KCAL/MOL
REMARK 922        TOTAL FREE ENERGY PREDICTED BY IDOCK:   10.25 KCAL/MOL
REMARK 923 INTER-LIGAND FREE ENERGY PREDICTED BY IDOCK:    3.93 KCAL/MOL
REMARK 924 INTRA-LIGAND FREE ENERGY PREDICTED BY IDOCK:    6.32 KCAL/MOL
REMARK 927      BINDING AFFINITY PREDICTED BY RF-SCORE:    0.00 PKD
ROOT
HETATM    1  C   UNL     1      -9.114  16.663  67.596  1.00  0.00    -0.207 C  
HETATM    2  C   UNL     1      -9.562  15.672  68.680  1.00  0.00    -0.202 C  
HETATM    3  C   UNL     1      -8.348  14.916  69.293  1.00  0.00    -0.114 C  
HETATM    4  C   UNL     1      -8.848  14.076  70.485  1.00  0.00     3.424 C  
HETATM    5  O   UNL     1     -12.284  13.460  69.319  1.00  0.00    -0.284 OA 
HETATM    6  N   UNL     1     -10.650  14.735  68.340  1.00  0.00    -0.237 N  
HETATM    7  C   UNL     1     -10.020  13.153  70.146  1.00  0.00     2.858 C  
HETATM    8  C   UNL     1     -11.120  13.861  69.329  1.00  0.00    -0.218 C  
ENDROOT
BRANCH   3   9
HETATM    9  C   UNL     1      -7.474  14.137  68.312  1.00  0.00    -0.125 A  
HETATM   10  C   UNL     1      -7.302  12.646  66.392  1.00  0.00     1.136 A  
HETATM   11  C   UNL     1      -8.073  13.421  67.267  1.00  0.00    -0.147 A  
HETATM   12  C   UNL     1      -6.078  14.062  68.422  1.00  0.00    -0.100 A  
HETATM   13  C   UNL     1      -5.306  13.282  67.563  1.00  0.00     0.033 A  
HETATM   14  C   UNL     1      -5.918  12.573  66.544  1.00  0.00     1.168 A  
ENDBRANCH   3   9
BRANCH   7  15
HETATM   15  N   UNL     1      -9.639  11.994  69.334  1.00  0.00     0.065 N  
HETATM   16  H   UNL     1      -8.811  11.467  69.611  1.00  0.00     0.000 HD 
HETATM   17  C   UNL     1     -10.327  11.573  68.221  1.00  0.00    -0.197 C  
HETATM   18  O   UNL     1     -11.309  12.154  67.778  1.00  0.00    -0.264 OA 
BRANCH  17  19
HETATM   19  C   UNL     1      -9.821  10.337  67.559  1.00  0.00    -0.204 A  
HETATM   20  N   UNL     1     -10.313   8.461  66.075  1.00  0.00     0.381 NA 
HETATM   21  C   UNL     1     -10.660   9.623  66.706  1.00  0.00    -0.139 A  
HETATM   22  C   UNL     1      -9.094   7.983  66.373  1.00  0.00    -0.183 A  
HETATM   23  C   UNL     1      -8.505   6.740  65.765  1.00  0.00    -0.150 C  
HETATM   24  C   UNL     1      -7.233   6.510  66.611  1.00  0.00    -0.073 C  
HETATM   25  C   UNL     1      -7.007   7.749  67.515  1.00  0.00    -0.078 C  
HETATM   26  C   UNL     1      -5.988   6.327  65.706  1.00  0.00    -0.025 C  
HETATM   27  O   UNL     1      -5.552   7.129  64.901  1.00  0.00    -0.031 OA 
HETATM   28  C   UNL     1      -8.219   8.584  67.253  1.00  0.00    -0.108 A  
HETATM   29  N   UNL     1      -5.435   5.096  65.996  1.00  0.00    -0.013 N  
HETATM   30  C   UNL     1      -6.174   4.416  66.938  1.00  0.00    -0.036 A  
HETATM   31  C   UNL     1      -8.551   9.806  67.815  1.00  0.00    -0.125 A  
HETATM   32  H   UNL     1      -4.585   4.735  65.566  1.00  0.00     0.000 HD 
HETATM   33  N   UNL     1      -5.897   3.180  67.358  1.00  0.00    -0.022 NA 
HETATM   34  C   UNL     1      -6.784   2.680  68.248  1.00  0.00    -0.040 A  
HETATM   35  C   UNL     1      -7.902   3.371  68.721  1.00  0.00    -0.056 A  
HETATM   36  C   UNL     1      -8.145   4.667  68.263  1.00  0.00    -0.084 A  
HETATM   37  C   UNL     1      -7.250   5.193  67.349  1.00  0.00    -0.074 A  
ENDBRANCH  17  19
ENDBRANCH   7  15
BRANCH   6  38
HETATM   38  C   UNL     1     -11.502  14.863  67.136  1.00  0.00    -0.335 C  
HETATM   39  F   UNL     1     -10.595  15.065  64.939  1.00  0.00    -0.370 F  
HETATM   40  F   UNL     1     -11.824  13.305  65.322  1.00  0.00    -0.329 F  
HETATM   41  C   UNL     1     -10.937  14.148  65.882  1.00  0.00    -0.297 C  
HETATM   42  F   UNL     1      -9.799  13.447  66.139  1.00  0.00    -0.268 F  
ENDBRANCH   6  38
TORSDOF 4
ENDMDL
MODEL      132
REMARK 921   NORMALIZED FREE ENERGY PREDICTED BY IDOCK:    9.74 KCAL/MOL
REMARK 922        TOTAL FREE ENERGY PREDICTED BY IDOCK:   10.42 KCAL/MOL
REMARK 923 INTER-LIGAND FREE ENERGY PREDICTED BY IDOCK:   11.56 KCAL/MOL
REMARK 924 INTRA-LIGAND FREE ENERGY PREDICTED BY IDOCK:   -1.14 KCAL/MOL
REMARK 927      BINDING AFFINITY PREDICTED BY RF-SCORE:    0.00 PKD
ROOT
HETATM    1  C   UNL     1      -8.677  18.985  69.506  1.00  0.00     0.366 C  
HETATM    2  C   UNL     1      -8.708  17.627  70.223  1.00  0.00     3.140 C  
HETATM    3  C   UNL     1      -7.356  16.873  70.066  1.00  0.00     1.095 C  
HETATM    4  C   UNL     1      -7.397  15.611  70.950  1.00  0.00     1.963 C  
HETATM    5  O   UNL     1     -11.023  14.991  70.855  1.00  0.00    -0.237 OA 
HETATM    6  N   UNL     1      -9.847  16.733  69.940  1.00  0.00     0.278 N  
HETATM    7  C   UNL     1      -8.614  14.717  70.702  1.00  0.00     2.041 C  
HETATM    8  C   UNL     1      -9.932  15.513  70.626  1.00  0.00     0.591 C  
ENDROOT
BRANCH   3   9
HETATM    9  C   UNL     1      -6.893  16.609  68.635  1.00  0.00    -0.168 A  
HETATM   10  C   UNL     1      -5.416  15.427  67.098  1.00  0.00     0.500 A  
HETATM   11  C   UNL     1      -5.905  15.644  68.392  1.00  0.00    -0.107 A  
HETATM   12  C   UNL     1      -7.380  17.320  67.529  1.00  0.00    -0.183 A  
HETATM   13  C   UNL     1      -6.887  17.117  66.240  1.00  0.00    -0.237 A  
HETATM   14  C   UNL     1      -5.904  16.167  66.023  1.00  0.00     2.531 A  
ENDBRANCH   3   9
BRANCH   7  15
HETATM   15  N   UNL     1      -8.551  13.977  69.439  1.00  0.00    -0.148 N  
HETATM   16  H   UNL     1      -9.138  14.296  68.668  1.00  0.00     0.000 HD 
HETATM   17  C   UNL     1      -7.752  12.879  69.228  1.00  0.00     0.465 C  
HETATM   18  O   UNL     1      -7.039  12.390  70.095  1.00  0.00     0.532 OA 
BRANCH  17  19
HETATM   19  C   UNL     1      -7.780  12.295  67.856  1.00  0.00    -0.133 A  
HETATM   20  N   UNL     1      -9.002  12.060  65.756  1.00  0.00     0.008 NA 
HETATM   21  C   UNL     1      -8.857  12.568  67.016  1.00  0.00    -0.212 A  
HETATM   22  C   UNL     1      -8.050  11.197  65.367  1.00  0.00     0.206 A  
HETATM   23  C   UNL     1      -8.001  10.550  64.011  1.00  0.00     0.003 C  
HETATM   24  C   UNL     1      -6.886   9.494  64.170  1.00  0.00    -0.102 C  
HETATM   25  C   UNL     1      -6.173   9.725  65.526  1.00  0.00    -0.074 C  
HETATM   26  C   UNL     1      -5.838   9.616  63.035  1.00  0.00    -0.100 C  
HETATM   27  O   UNL     1      -5.156  10.591  62.778  1.00  0.00    -0.109 OA 
HETATM   28  C   UNL     1      -6.982  10.816  66.151  1.00  0.00    -0.124 A  
HETATM   29  N   UNL     1      -5.788   8.403  62.377  1.00  0.00    -0.082 N  
HETATM   30  C   UNL     1      -6.697   7.507  62.891  1.00  0.00    -0.066 A  
HETATM   31  C   UNL     1      -6.802  11.408  67.391  1.00  0.00    -0.101 A  
HETATM   32  H   UNL     1      -5.155   8.197  61.605  1.00  0.00     0.000 HD 
HETATM   33  N   UNL     1      -6.900   6.282  62.404  1.00  0.00    -0.037 NA 
HETATM   34  C   UNL     1      -7.880   5.587  63.026  1.00  0.00    -0.089 A  
HETATM   35  C   UNL     1      -8.631   6.073  64.100  1.00  0.00     0.200 A  
HETATM   36  C   UNL     1      -8.376   7.357  64.584  1.00  0.00     0.033 A  
HETATM   37  C   UNL     1      -7.380   8.083  63.956  1.00  0.00    -0.097 A  
ENDBRANCH  17  19
ENDBRANCH   7  15
BRANCH   6  38
HETATM   38  C   UNL     1     -11.073  17.159  69.229  1.00  0.00     0.265 C  
HETATM   39  F   UNL     1     -11.018  18.175  67.072  1.00  0.00    -0.341 F  
HETATM   40  F   UNL     1     -12.061  16.265  67.217  1.00  0.00     0.488 F  
HETATM   41  C   UNL     1     -11.014  16.965  67.692  1.00  0.00    -0.165 C  
HETATM   42  F   UNL     1      -9.874  16.347  67.279  1.00  0.00    -0.231 F  
ENDBRANCH   6  38
TORSDOF 4
ENDMDL
MODEL      133
REMARK 921   NORMALIZED FREE ENERGY PREDICTED BY IDOCK:   10.10 KCAL/MOL
REMARK 922        TOTAL FREE ENERGY PREDICTED BY IDOCK:   10.87 KCAL/MOL
REMARK 923 INTER-LIGAND FREE ENERGY PREDICTED BY IDOCK:    1.90 KCAL/MOL
REMARK 924 INTRA-LIGAND FREE ENERGY PREDICTED BY IDOCK:    8.97 KCAL/MOL
REMARK 927      BINDING AFFINITY PREDICTED BY RF-SCORE:    0.00 PKD
ROOT
HETATM    1  C   UNL     1      -9.789  19.856  67.503  1.00  0.00    -0.538 C  
HETATM    2  C   UNL     1     -10.241  18.912  68.626  1.00  0.00    -0.311 C  
HETATM    3  C   UNL     1      -9.089  18.645  69.638  1.00  0.00     0.685 C  
HETATM    4  C   UNL     1      -9.659  17.839  70.823  1.00  0.00     4.022 C  
HETATM    5  O   UNL     1     -12.344  16.063  69.039  1.00  0.00    -0.092 OA 
HETATM    6  N   UNL     1     -10.901  17.653  68.234  1.00  0.00    -0.272 N  
HETATM    7  C   UNL     1     -10.402  16.567  70.409  1.00  0.00     0.502 C  
HETATM    8  C   UNL     1     -11.378  16.800  69.239  1.00  0.00     0.112 C  
ENDROOT
BRANCH   3   9
HETATM    9  C   UNL     1      -7.802  18.060  69.057  1.00  0.00    -0.097 A  
HETATM   10  C   UNL     1      -6.513  17.366  67.109  1.00  0.00    -0.191 A  
HETATM   11  C   UNL     1      -7.654  17.957  67.667  1.00  0.00    -0.215 A  
HETATM   12  C   UNL     1      -6.755  17.574  69.852  1.00  0.00     0.280 A  
HETATM   13  C   UNL     1      -5.623  16.973  69.302  1.00  0.00    -0.161 A  
HETATM   14  C   UNL     1      -5.500  16.871  67.927  1.00  0.00    -0.129 A  
ENDBRANCH   3   9
BRANCH   7  15
HETATM   15  N   UNL     1      -9.517  15.493  69.950  1.00  0.00    -0.343 N  
HETATM   16  H   UNL     1      -9.006  14.961  70.653  1.00  0.00     0.000 HD 
HETATM   17  C   UNL     1      -9.332  15.159  68.630  1.00  0.00    -0.199 C  
HETATM   18  O   UNL     1      -9.865  15.758  67.703  1.00  0.00    -0.229 OA 
BRANCH  17  19
HETATM   19  C   UNL     1      -8.437  13.998  68.360  1.00  0.00    -0.166 A  
HETATM   20  N   UNL     1      -6.491  13.150  67.155  1.00  0.00    -0.167 NA 
HETATM   21  C   UNL     1      -7.353  14.153  67.498  1.00  0.00    -0.175 A  
HETATM   22  C   UNL     1      -6.781  11.939  67.658  1.00  0.00    -0.105 A  
HETATM   23  C   UNL     1      -5.945  10.710  67.431  1.00  0.00    -0.052 C  
HETATM   24  C   UNL     1      -6.830   9.579  68.000  1.00  0.00    -0.074 C  
HETATM   25  C   UNL     1      -8.032  10.215  68.742  1.00  0.00    -0.104 C  
HETATM   26  C   UNL     1      -6.038   8.704  69.004  1.00  0.00    -0.043 C  
HETATM   27  O   UNL     1      -5.506   9.079  70.033  1.00  0.00    -0.028 OA 
HETATM   28  C   UNL     1      -7.866  11.675  68.466  1.00  0.00    -0.140 A  
HETATM   29  N   UNL     1      -6.066   7.404  68.541  1.00  0.00    -0.027 N  
HETATM   30  C   UNL     1      -6.728   7.306  67.339  1.00  0.00    -0.068 A  
HETATM   31  C   UNL     1      -8.679  12.719  68.876  1.00  0.00     0.326 A  
HETATM   32  H   UNL     1      -5.647   6.613  69.030  1.00  0.00     0.000 HD 
HETATM   33  N   UNL     1      -6.852   6.176  66.641  1.00  0.00    -0.060 NA 
HETATM   34  C   UNL     1      -7.496   6.315  65.459  1.00  0.00    -0.083 A  
HETATM   35  C   UNL     1      -8.012   7.522  64.980  1.00  0.00    -0.132 A  
HETATM   36  C   UNL     1      -7.869   8.677  65.750  1.00  0.00    -0.100 A  
HETATM   37  C   UNL     1      -7.210   8.553  66.959  1.00  0.00    -0.079 A  
ENDBRANCH  17  19
ENDBRANCH   7  15
BRANCH   6  38
HETATM   38  C   UNL     1     -11.387  17.368  66.865  1.00  0.00     0.798 C  
HETATM   39  F   UNL     1     -10.425  18.373  64.927  1.00  0.00     0.350 F  
HETATM   40  F   UNL     1     -10.283  16.201  65.065  1.00  0.00    -0.338 F  
HETATM   41  C   UNL     1     -10.270  17.334  65.791  1.00  0.00    -0.198 C  
HETATM   42  F   UNL     1      -9.024  17.480  66.317  1.00  0.00    -0.264 F  
ENDBRANCH   6  38
TORSDOF 4
ENDMDL
MODEL      134
REMARK 921   NORMALIZED FREE ENERGY PREDICTED BY IDOCK:   11.94 KCAL/MOL
REMARK 922        TOTAL FREE ENERGY PREDICTED BY IDOCK:   13.14 KCAL/MOL
REMARK 923 INTER-LIGAND FREE ENERGY PREDICTED BY IDOCK:    7.67 KCAL/MOL
REMARK 924 INTRA-LIGAND FREE ENERGY PREDICTED BY IDOCK:    5.47 KCAL/MOL
REMARK 927      BINDING AFFINITY PREDICTED BY RF-SCORE:    0.00 PKD
ROOT
HETATM    1  C   UNL     1      -9.997  15.331  66.999  1.00  0.00    -0.235 C  
HETATM    2  C   UNL     1     -11.130  14.373  67.394  1.00  0.00    -0.308 C  
HETATM    3  C   UNL     1     -10.893  13.769  68.809  1.00  0.00    -0.281 C  
HETATM    4  C   UNL     1     -12.145  12.963  69.209  1.00  0.00    -0.234 C  
HETATM    5  O   UNL     1     -13.259  11.969  65.846  1.00  0.00     2.031 OA 
HETATM    6  N   UNL     1     -11.503  13.323  66.427  1.00  0.00    -0.316 N  
HETATM    7  C   UNL     1     -12.569  11.919  68.175  1.00  0.00     1.541 C  
HETATM    8  C   UNL     1     -12.574  12.473  66.736  1.00  0.00     1.092 C  
ENDROOT
BRANCH   3   9
HETATM    9  C   UNL     1      -9.582  13.012  69.008  1.00  0.00     0.371 A  
HETATM   10  C   UNL     1      -8.201  11.545  70.379  1.00  0.00     3.510 A  
HETATM   11  C   UNL     1      -9.415  12.199  70.138  1.00  0.00     3.592 A  
HETATM   12  C   UNL     1      -8.496  13.116  68.127  1.00  0.00    -0.173 A  
HETATM   13  C   UNL     1      -7.280  12.478  68.369  1.00  0.00    -0.111 A  
HETATM   14  C   UNL     1      -7.132  11.688  69.496  1.00  0.00     0.055 A  
ENDBRANCH   3   9
BRANCH   7  15
HETATM   15  N   UNL     1     -11.687  10.751  68.123  1.00  0.00    -0.401 N  
HETATM   16  H   UNL     1     -11.963   9.919  68.644  1.00  0.00     0.000 HD 
HETATM   17  C   UNL     1     -10.509  10.706  67.416  1.00  0.00    -0.235 C  
HETATM   18  O   UNL     1     -10.064  11.659  66.789  1.00  0.00    -0.208 OA 
BRANCH  17  19
HETATM   19  C   UNL     1      -9.775   9.408  67.435  1.00  0.00    -0.205 A  
HETATM   20  N   UNL     1      -9.203   7.362  66.232  1.00  0.00    -0.161 NA 
HETATM   21  C   UNL     1      -9.809   8.584  66.311  1.00  0.00    -0.215 A  
HETATM   22  C   UNL     1      -8.598   6.942  67.354  1.00  0.00    -0.121 A  
HETATM   23  C   UNL     1      -7.845   5.645  67.471  1.00  0.00    -0.101 C  
HETATM   24  C   UNL     1      -7.575   5.537  68.988  1.00  0.00    -0.087 C  
HETATM   25  C   UNL     1      -7.968   6.877  69.659  1.00  0.00    -0.125 C  
HETATM   26  C   UNL     1      -6.074   5.268  69.268  1.00  0.00    -0.025 C  
HETATM   27  O   UNL     1      -5.137   5.975  68.946  1.00  0.00    -0.003 OA 
HETATM   28  C   UNL     1      -8.567   7.656  68.532  1.00  0.00    -0.129 A  
HETATM   29  N   UNL     1      -5.985   4.089  69.980  1.00  0.00    -0.018 N  
HETATM   30  C   UNL     1      -7.220   3.513  70.169  1.00  0.00    -0.041 A  
HETATM   31  C   UNL     1      -9.109   8.931  68.570  1.00  0.00    -0.137 A  
HETATM   32  H   UNL     1      -5.110   3.693  70.324  1.00  0.00     0.000 HD 
HETATM   33  N   UNL     1      -7.417   2.341  70.774  1.00  0.00    -0.033 NA 
HETATM   34  C   UNL     1      -8.707   1.935  70.804  1.00  0.00    -0.056 A  
HETATM   35  C   UNL     1      -9.774   2.661  70.268  1.00  0.00    -0.017 A  
HETATM   36  C   UNL     1      -9.523   3.889  69.655  1.00  0.00    -0.263 A  
HETATM   37  C   UNL     1      -8.208   4.316  69.611  1.00  0.00    -0.066 A  
ENDBRANCH  17  19
ENDBRANCH   7  15
BRANCH   6  38
HETATM   38  C   UNL     1     -11.046  13.298  65.020  1.00  0.00    -0.309 C  
HETATM   39  F   UNL     1     -12.546  13.543  63.181  1.00  0.00    -0.484 F  
HETATM   40  F   UNL     1     -11.014  15.080  63.393  1.00  0.00     1.189 F  
HETATM   41  C   UNL     1     -11.825  14.258  64.084  1.00  0.00    -0.312 C  
HETATM   42  F   UNL     1     -12.731  15.026  64.749  1.00  0.00    -0.307 F  
ENDBRANCH   6  38
TORSDOF 4
ENDMDL
MODEL      135
REMARK 921   NORMALIZED FREE ENERGY PREDICTED BY IDOCK:   12.82 KCAL/MOL
REMARK 922        TOTAL FREE ENERGY PREDICTED BY IDOCK:   14.22 KCAL/MOL
REMARK 923 INTER-LIGAND FREE ENERGY PREDICTED BY IDOCK:   11.85 KCAL/MOL
REMARK 924 INTRA-LIGAND FREE ENERGY PREDICTED BY IDOCK:    2.36 KCAL/MOL
REMARK 927      BINDING AFFINITY PREDICTED BY RF-SCORE:    0.00 PKD
ROOT
HETATM    1  C   UNL     1     -10.923   4.783  70.542  1.00  0.00     0.854 C  
HETATM    2  C   UNL     1      -9.486   5.036  70.063  1.00  0.00    -0.166 C  
HETATM    3  C   UNL     1      -8.799   6.155  70.900  1.00  0.00    -0.136 C  
HETATM    4  C   UNL     1      -7.316   6.232  70.485  1.00  0.00    -0.085 C  
HETATM    5  O   UNL     1      -7.659   5.093  67.002  1.00  0.00    -0.086 OA 
HETATM    6  N   UNL     1      -9.276   5.253  68.619  1.00  0.00    -0.113 N  
HETATM    7  C   UNL     1      -7.100   6.391  68.979  1.00  0.00    -0.081 C  
HETATM    8  C   UNL     1      -7.968   5.426  68.147  1.00  0.00    -0.095 C  
ENDROOT
BRANCH   3   9
HETATM    9  C   UNL     1      -9.505   7.510  70.922  1.00  0.00    -0.165 A  
HETATM   10  C   UNL     1     -11.028   9.093  69.867  1.00  0.00    -0.218 A  
HETATM   11  C   UNL     1     -10.415   7.835  69.907  1.00  0.00    -0.232 A  
HETATM   12  C   UNL     1      -9.260   8.485  71.899  1.00  0.00    -0.326 A  
HETATM   13  C   UNL     1      -9.856   9.744  71.858  1.00  0.00     1.749 A  
HETATM   14  C   UNL     1     -10.744  10.050  70.840  1.00  0.00    -0.203 A  
ENDBRANCH   3   9
BRANCH   7  15
HETATM   15  N   UNL     1      -7.434   7.725  68.474  1.00  0.00    -0.101 N  
HETATM   16  H   UNL     1      -8.421   7.965  68.375  1.00  0.00     0.000 HD 
HETATM   17  C   UNL     1      -6.503   8.674  68.126  1.00  0.00    -0.060 C  
HETATM   18  O   UNL     1      -5.295   8.477  68.168  1.00  0.00    -0.033 OA 
BRANCH  17  19
HETATM   19  C   UNL     1      -7.037   9.995  67.689  1.00  0.00    -0.087 A  
HETATM   20  N   UNL     1      -7.856  11.361  65.838  1.00  0.00     0.109 NA 
HETATM   21  C   UNL     1      -7.390  10.185  66.354  1.00  0.00    -0.108 A  
HETATM   22  C   UNL     1      -7.903  12.391  66.698  1.00  0.00     0.200 A  
HETATM   23  C   UNL     1      -8.414  13.761  66.345  1.00  0.00     0.485 C  
HETATM   24  C   UNL     1      -8.025  14.605  67.578  1.00  0.00    -0.208 C  
HETATM   25  C   UNL     1      -7.520  13.653  68.692  1.00  0.00    -0.113 C  
HETATM   26  C   UNL     1      -9.245  15.393  68.120  1.00  0.00    -0.186 C  
HETATM   27  O   UNL     1     -10.294  14.923  68.521  1.00  0.00    -0.225 OA 
HETATM   28  C   UNL     1      -7.514  12.318  68.018  1.00  0.00    -0.115 A  
HETATM   29  N   UNL     1      -8.921  16.734  68.099  1.00  0.00    -0.218 N  
HETATM   30  C   UNL     1      -7.668  16.948  67.571  1.00  0.00    -0.169 A  
HETATM   31  C   UNL     1      -7.129  11.097  68.547  1.00  0.00    -0.080 A  
HETATM   32  H   UNL     1      -9.534  17.477  68.434  1.00  0.00     0.000 HD 
HETATM   33  N   UNL     1      -7.130  18.153  67.380  1.00  0.00    -0.196 NA 
HETATM   34  C   UNL     1      -5.909  18.135  66.797  1.00  0.00    -0.149 A  
HETATM   35  C   UNL     1      -5.231  16.973  66.422  1.00  0.00    -0.044 A  
HETATM   36  C   UNL     1      -5.828  15.732  66.652  1.00  0.00     1.151 A  
HETATM   37  C   UNL     1      -7.078  15.733  67.243  1.00  0.00    -0.245 A  
ENDBRANCH  17  19
ENDBRANCH   7  15
BRANCH   6  38
HETATM   38  C   UNL     1     -10.303   4.984  67.588  1.00  0.00    -0.068 C  
HETATM   39  F   UNL     1     -12.605   4.662  68.123  1.00  0.00     9.047 F  
HETATM   40  F   UNL     1     -12.135   6.374  66.857  1.00  0.00     0.495 F  
HETATM   41  C   UNL     1     -11.681   5.630  67.882  1.00  0.00     2.470 C  
HETATM   42  F   UNL     1     -11.673   6.412  68.996  1.00  0.00    -0.397 F  
ENDBRANCH   6  38
TORSDOF 4
ENDMDL
MODEL      136
REMARK 921   NORMALIZED FREE ENERGY PREDICTED BY IDOCK:   13.40 KCAL/MOL
REMARK 922        TOTAL FREE ENERGY PREDICTED BY IDOCK:   14.94 KCAL/MOL
REMARK 923 INTER-LIGAND FREE ENERGY PREDICTED BY IDOCK:   14.26 KCAL/MOL
REMARK 924 INTRA-LIGAND FREE ENERGY PREDICTED BY IDOCK:    0.68 KCAL/MOL
REMARK 927      BINDING AFFINITY PREDICTED BY RF-SCORE:    0.00 PKD
ROOT
HETATM    1  C   UNL     1     -11.953  19.934  68.715  1.00  0.00     4.435 C  
HETATM    2  C   UNL     1     -10.420  20.013  68.757  1.00  0.00    -0.056 C  
HETATM    3  C   UNL     1      -9.797  19.637  67.381  1.00  0.00    -0.489 C  
HETATM    4  C   UNL     1      -8.280  19.907  67.444  1.00  0.00    -0.356 C  
HETATM    5  O   UNL     1      -7.770  19.340  71.044  1.00  0.00     2.094 OA 
HETATM    6  N   UNL     1      -9.731  19.313  69.857  1.00  0.00     0.308 N  
HETATM    7  C   UNL     1      -7.578  19.233  68.624  1.00  0.00    -0.350 C  
HETATM    8  C   UNL     1      -8.337  19.418  69.954  1.00  0.00     0.830 C  
ENDROOT
BRANCH   3   9
HETATM    9  C   UNL     1     -10.156  18.258  66.832  1.00  0.00    -0.377 A  
HETATM   10  C   UNL     1     -10.614  16.823  64.916  1.00  0.00     0.073 A  
HETATM   11  C   UNL     1     -10.224  18.059  65.446  1.00  0.00     0.448 A  
HETATM   12  C   UNL     1     -10.468  17.164  67.652  1.00  0.00    -0.355 A  
HETATM   13  C   UNL     1     -10.869  15.935  67.131  1.00  0.00    -0.267 A  
HETATM   14  C   UNL     1     -10.941  15.762  65.759  1.00  0.00    -0.216 A  
ENDBRANCH   3   9
BRANCH   7  15
HETATM   15  N   UNL     1      -7.435  17.783  68.474  1.00  0.00    -0.263 N  
HETATM   16  H   UNL     1      -8.259  17.202  68.631  1.00  0.00     0.000 HD 
HETATM   17  C   UNL     1      -6.261  17.154  68.134  1.00  0.00    -0.135 C  
HETATM   18  O   UNL     1      -5.205  17.750  67.961  1.00  0.00    -0.141 OA 
BRANCH  17  19
HETATM   19  C   UNL     1      -6.327  15.674  67.970  1.00  0.00    -0.147 A  
HETATM   20  N   UNL     1      -5.435  13.698  66.848  1.00  0.00     0.550 NA 
HETATM   21  C   UNL     1      -5.441  15.041  67.100  1.00  0.00     0.757 A  
HETATM   22  C   UNL     1      -6.401  12.990  67.455  1.00  0.00    -0.149 A  
HETATM   23  C   UNL     1      -6.553  11.499  67.340  1.00  0.00    -0.101 C  
HETATM   24  C   UNL     1      -7.922  11.237  68.004  1.00  0.00    -0.119 C  
HETATM   25  C   UNL     1      -8.401  12.543  68.686  1.00  0.00     0.021 C  
HETATM   26  C   UNL     1      -7.814  10.129  69.083  1.00  0.00    -0.120 C  
HETATM   27  O   UNL     1      -7.110  10.148  70.076  1.00  0.00    -0.124 OA 
HETATM   28  C   UNL     1      -7.359  13.537  68.282  1.00  0.00    -0.116 A  
HETATM   29  N   UNL     1      -8.689   9.119  68.737  1.00  0.00    -0.131 N  
HETATM   30  C   UNL     1      -9.327   9.384  67.547  1.00  0.00    -0.127 A  
HETATM   31  C   UNL     1      -7.298  14.884  68.597  1.00  0.00    -0.120 A  
HETATM   32  H   UNL     1      -8.843   8.279  69.294  1.00  0.00     0.000 HD 
HETATM   33  N   UNL     1     -10.180   8.549  66.951  1.00  0.00    -0.290 NA 
HETATM   34  C   UNL     1     -10.652   8.986  65.761  1.00  0.00     1.270 A  
HETATM   35  C   UNL     1     -10.308  10.207  65.176  1.00  0.00    -0.109 A  
HETATM   36  C   UNL     1      -9.420  11.054  65.841  1.00  0.00    -0.244 A  
HETATM   37  C   UNL     1      -8.925  10.621  67.058  1.00  0.00    -0.145 A  
ENDBRANCH  17  19
ENDBRANCH   7  15
BRANCH   6  38
HETATM   38  C   UNL     1     -10.420  18.773  71.051  1.00  0.00     2.644 C  
HETATM   39  F   UNL     1     -12.534  17.675  70.924  1.00  0.00     4.398 F  
HETATM   40  F   UNL     1     -10.863  16.479  71.651  1.00  0.00     0.162 F  
HETATM   41  C   UNL     1     -11.199  17.458  70.791  1.00  0.00     1.608 C  
HETATM   42  F   UNL     1     -11.030  16.982  69.528  1.00  0.00    -0.297 F  
ENDBRANCH   6  38
TORSDOF 4
ENDMDL
MODEL      137
REMARK 921   NORMALIZED FREE ENERGY PREDICTED BY IDOCK:   14.10 KCAL/MOL
REMARK 922        TOTAL FREE ENERGY PREDICTED BY IDOCK:   15.80 KCAL/MOL
REMARK 923 INTER-LIGAND FREE ENERGY PREDICTED BY IDOCK:   13.50 KCAL/MOL
REMARK 924 INTRA-LIGAND FREE ENERGY PREDICTED BY IDOCK:    2.31 KCAL/MOL
REMARK 927      BINDING AFFINITY PREDICTED BY RF-SCORE:    0.00 PKD
ROOT
HETATM    1  C   UNL     1     -10.499   8.271  64.810  1.00  0.00     5.419 C  
HETATM    2  C   UNL     1     -10.436   8.436  66.335  1.00  0.00     0.187 C  
HETATM    3  C   UNL     1     -11.335   9.613  66.814  1.00  0.00     1.020 C  
HETATM    4  C   UNL     1     -11.362   9.609  68.356  1.00  0.00     0.109 C  
HETATM    5  O   UNL     1      -8.042   8.141  68.960  1.00  0.00    -0.112 OA 
HETATM    6  N   UNL     1      -9.101   8.504  66.959  1.00  0.00    -0.139 N  
HETATM    7  C   UNL     1      -9.975   9.612  69.001  1.00  0.00    -0.185 C  
HETATM    8  C   UNL     1      -9.014   8.594  68.356  1.00  0.00    -0.142 C  
ENDROOT
BRANCH   3   9
HETATM    9  C   UNL     1     -11.034  10.982  66.206  1.00  0.00    -0.184 A  
HETATM   10  C   UNL     1     -10.293  13.285  66.500  1.00  0.00    -0.285 A  
HETATM   11  C   UNL     1     -10.517  12.003  67.015  1.00  0.00    -0.248 A  
HETATM   12  C   UNL     1     -11.288  11.296  64.863  1.00  0.00    -0.023 A  
HETATM   13  C   UNL     1     -11.080  12.574  64.347  1.00  0.00    -0.383 A  
HETATM   14  C   UNL     1     -10.579  13.572  65.166  1.00  0.00    -0.364 A  
ENDBRANCH   3   9
BRANCH   7  15
HETATM   15  N   UNL     1      -9.281  10.899  68.897  1.00  0.00    -0.264 N  
HETATM   16  H   UNL     1      -9.822  11.711  68.601  1.00  0.00     0.000 HD 
HETATM   17  C   UNL     1      -7.947  11.080  69.174  1.00  0.00    -0.078 C  
HETATM   18  O   UNL     1      -7.198  10.167  69.500  1.00  0.00    -0.086 OA 
BRANCH  17  19
HETATM   19  C   UNL     1      -7.433  12.475  69.068  1.00  0.00     0.088 A  
HETATM   20  N   UNL     1      -5.492  13.923  68.758  1.00  0.00    -0.079 NA 
HETATM   21  C   UNL     1      -6.075  12.690  68.838  1.00  0.00    -0.079 A  
HETATM   22  C   UNL     1      -6.308  14.965  68.981  1.00  0.00    -0.099 A  
HETATM   23  C   UNL     1      -5.878  16.404  68.907  1.00  0.00    -0.132 C  
HETATM   24  C   UNL     1      -7.098  17.161  69.477  1.00  0.00     0.028 C  
HETATM   25  C   UNL     1      -8.271  16.162  69.637  1.00  0.00     0.221 C  
HETATM   26  C   UNL     1      -7.544  18.296  68.521  1.00  0.00    -0.300 C  
HETATM   27  O   UNL     1      -7.907  18.172  67.366  1.00  0.00    -0.215 OA 
HETATM   28  C   UNL     1      -7.649  14.850  69.279  1.00  0.00    -0.170 A  
HETATM   29  N   UNL     1      -7.490  19.483  69.224  1.00  0.00    -0.315 N  
HETATM   30  C   UNL     1      -7.020  19.295  70.504  1.00  0.00     0.714 A  
HETATM   31  C   UNL     1      -8.244  13.599  69.269  1.00  0.00     0.525 A  
HETATM   32  H   UNL     1      -7.764  20.387  68.841  1.00  0.00     0.000 HD 
HETATM   33  N   UNL     1      -6.813  20.281  71.378  1.00  0.00    -0.099 NA 
HETATM   34  C   UNL     1      -6.296  19.880  72.563  1.00  0.00     1.129 A  
HETATM   35  C   UNL     1      -6.002  18.552  72.885  1.00  0.00     3.523 A  
HETATM   36  C   UNL     1      -6.246  17.552  71.943  1.00  0.00     2.837 A  
HETATM   37  C   UNL     1      -6.771  17.946  70.725  1.00  0.00     2.071 A  
ENDBRANCH  17  19
ENDBRANCH   7  15
BRANCH   6  38
HETATM   38  C   UNL     1      -7.844   8.162  66.257  1.00  0.00    -0.095 C  
HETATM   39  F   UNL     1      -6.459   6.337  66.922  1.00  0.00    -0.039 F  
HETATM   40  F   UNL     1      -7.320   6.222  64.922  1.00  0.00    -0.062 F  
HETATM   41  C   UNL     1      -7.556   6.641  66.179  1.00  0.00    -0.086 C  
HETATM   42  F   UNL     1      -8.564   5.883  66.690  1.00  0.00    -0.114 F  
ENDBRANCH   6  38
TORSDOF 4
ENDMDL
MODEL      138
REMARK 921   NORMALIZED FREE ENERGY PREDICTED BY IDOCK:   14.97 KCAL/MOL
REMARK 922        TOTAL FREE ENERGY PREDICTED BY IDOCK:   16.87 KCAL/MOL
REMARK 923 INTER-LIGAND FREE ENERGY PREDICTED BY IDOCK:    6.69 KCAL/MOL
REMARK 924 INTRA-LIGAND FREE ENERGY PREDICTED BY IDOCK:   10.18 KCAL/MOL
REMARK 927      BINDING AFFINITY PREDICTED BY RF-SCORE:    0.00 PKD
ROOT
HETATM    1  C   UNL     1     -10.213   6.118  71.760  1.00  0.00    -0.236 C  
HETATM    2  C   UNL     1     -10.468   5.911  70.260  1.00  0.00    -0.261 C  
HETATM    3  C   UNL     1      -9.132   5.814  69.467  1.00  0.00    -0.143 C  
HETATM    4  C   UNL     1      -9.458   5.433  68.009  1.00  0.00    -0.138 C  
HETATM    5  O   UNL     1     -12.798   6.961  67.774  1.00  0.00     5.851 OA 
HETATM    6  N   UNL     1     -11.411   6.830  69.595  1.00  0.00    -0.267 N  
HETATM    7  C   UNL     1     -10.487   6.349  67.342  1.00  0.00    -0.252 C  
HETATM    8  C   UNL     1     -11.708   6.626  68.240  1.00  0.00     0.857 C  
ENDROOT
BRANCH   3   9
HETATM    9  C   UNL     1      -8.184   7.005  69.596  1.00  0.00    -0.131 A  
HETATM   10  C   UNL     1      -7.622   9.127  70.655  1.00  0.00    -0.143 A  
HETATM   11  C   UNL     1      -8.437   7.993  70.557  1.00  0.00    -0.125 A  
HETATM   12  C   UNL     1      -7.071   7.191  68.763  1.00  0.00    -0.088 A  
HETATM   13  C   UNL     1      -6.263   8.324  68.846  1.00  0.00    -0.044 A  
HETATM   14  C   UNL     1      -6.537   9.295  69.796  1.00  0.00    -0.043 A  
ENDBRANCH   3   9
BRANCH   7  15
HETATM   15  N   UNL     1      -9.962   7.674  67.004  1.00  0.00    -0.215 N  
HETATM   16  H   UNL     1     -10.629   8.400  66.743  1.00  0.00     0.000 HD 
HETATM   17  C   UNL     1      -8.627   8.001  67.017  1.00  0.00    -0.127 C  
HETATM   18  O   UNL     1      -7.740   7.197  67.278  1.00  0.00    -0.105 OA 
BRANCH  17  19
HETATM   19  C   UNL     1      -8.290   9.419  66.701  1.00  0.00    -0.119 A  
HETATM   20  N   UNL     1      -6.721  10.963  65.647  1.00  0.00    -0.020 NA 
HETATM   21  C   UNL     1      -7.142   9.703  65.963  1.00  0.00    -0.097 A  
HETATM   22  C   UNL     1      -7.459  11.964  66.151  1.00  0.00     0.575 A  
HETATM   23  C   UNL     1      -7.190  13.422  65.897  1.00  0.00     4.676 C  
HETATM   24  C   UNL     1      -8.147  14.128  66.881  1.00  0.00     0.079 C  
HETATM   25  C   UNL     1      -9.098  13.070  67.495  1.00  0.00    -0.191 C  
HETATM   26  C   UNL     1      -9.003  15.197  66.154  1.00  0.00    -0.166 C  
HETATM   27  O   UNL     1      -9.771  15.006  65.229  1.00  0.00    -0.283 OA 
HETATM   28  C   UNL     1      -8.572  11.784  66.944  1.00  0.00    -0.177 A  
HETATM   29  N   UNL     1      -8.766  16.412  66.765  1.00  0.00    -0.204 N  
HETATM   30  C   UNL     1      -7.830  16.303  67.768  1.00  0.00    -0.142 A  
HETATM   31  C   UNL     1      -9.037  10.500  67.182  1.00  0.00    -0.154 A  
HETATM   32  H   UNL     1      -9.227  17.283  66.504  1.00  0.00     0.000 HD 
HETATM   33  N   UNL     1      -7.372  17.333  68.481  1.00  0.00    -0.224 NA 
HETATM   34  C   UNL     1      -6.415  17.010  69.381  1.00  0.00    -0.236 A  
HETATM   35  C   UNL     1      -5.929  15.716  69.584  1.00  0.00    -0.137 A  
HETATM   36  C   UNL     1      -6.446  14.667  68.823  1.00  0.00    -0.088 A  
HETATM   37  C   UNL     1      -7.423  14.981  67.895  1.00  0.00    -0.150 A  
ENDBRANCH  17  19
ENDBRANCH   7  15
BRANCH   6  38
HETATM   38  C   UNL     1     -12.313   7.753  70.320  1.00  0.00     0.535 C  
HETATM   39  F   UNL     1     -11.586   9.060  72.178  1.00  0.00    -0.405 F  
HETATM   40  F   UNL     1     -12.269  10.162  70.425  1.00  0.00    -0.308 F  
HETATM   41  C   UNL     1     -11.625   9.049  70.819  1.00  0.00    -0.265 C  
HETATM   42  F   UNL     1     -10.329   9.150  70.416  1.00  0.00    -0.199 F  
ENDBRANCH   6  38
TORSDOF 4
ENDMDL
MODEL      139
REMARK 921   NORMALIZED FREE ENERGY PREDICTED BY IDOCK:   17.34 KCAL/MOL
REMARK 922        TOTAL FREE ENERGY PREDICTED BY IDOCK:   19.80 KCAL/MOL
REMARK 923 INTER-LIGAND FREE ENERGY PREDICTED BY IDOCK:   17.75 KCAL/MOL
REMARK 924 INTRA-LIGAND FREE ENERGY PREDICTED BY IDOCK:    2.05 KCAL/MOL
REMARK 927      BINDING AFFINITY PREDICTED BY RF-SCORE:    0.00 PKD
ROOT
HETATM    1  C   UNL     1     -10.509   8.269  64.807  1.00  0.00     5.419 C  
HETATM    2  C   UNL     1     -10.532   8.405  66.336  1.00  0.00     0.187 C  
HETATM    3  C   UNL     1     -11.469   9.564  66.787  1.00  0.00     1.705 C  
HETATM    4  C   UNL     1     -11.581   9.529  68.324  1.00  0.00     0.707 C  
HETATM    5  O   UNL     1      -8.283   8.084  69.084  1.00  0.00    -0.126 OA 
HETATM    6  N   UNL     1      -9.234   8.474  67.035  1.00  0.00    -0.146 N  
HETATM    7  C   UNL     1     -10.232   9.534  69.046  1.00  0.00    -0.200 C  
HETATM    8  C   UNL     1      -9.226   8.539  68.435  1.00  0.00    -0.135 C  
ENDROOT
BRANCH   3   9
HETATM    9  C   UNL     1     -11.151  10.947  66.222  1.00  0.00    -0.038 A  
HETATM   10  C   UNL     1     -10.449  13.250  66.599  1.00  0.00    -0.279 A  
HETATM   11  C   UNL     1     -10.687  11.956  67.077  1.00  0.00    -0.280 A  
HETATM   12  C   UNL     1     -11.337  11.285  64.874  1.00  0.00    -0.023 A  
HETATM   13  C   UNL     1     -11.115  12.575  64.394  1.00  0.00    -0.383 A  
HETATM   14  C   UNL     1     -10.668  13.561  65.258  1.00  0.00    -0.328 A  
ENDBRANCH   3   9
BRANCH   7  15
HETATM   15  N   UNL     1      -9.548  10.829  69.004  1.00  0.00    -0.268 N  
HETATM   16  H   UNL     1      -9.081  11.096  68.138  1.00  0.00     0.000 HD 
HETATM   17  C   UNL     1      -9.495  11.708  70.060  1.00  0.00     2.339 C  
HETATM   18  O   UNL     1      -9.987  11.471  71.157  1.00  0.00     4.721 OA 
BRANCH  17  19
HETATM   19  C   UNL     1      -8.803  13.004  69.809  1.00  0.00     2.398 A  
HETATM   20  N   UNL     1      -7.663  14.936  70.772  1.00  0.00     1.184 NA 
HETATM   21  C   UNL     1      -8.284  13.724  70.884  1.00  0.00     5.133 A  
HETATM   22  C   UNL     1      -7.625  15.455  69.535  1.00  0.00    -0.212 A  
HETATM   23  C   UNL     1      -6.960  16.759  69.189  1.00  0.00    -0.231 C  
HETATM   24  C   UNL     1      -7.412  17.002  67.732  1.00  0.00    -0.177 C  
HETATM   25  C   UNL     1      -8.121  15.726  67.213  1.00  0.00    -0.217 C  
HETATM   26  C   UNL     1      -6.198  17.299  66.815  1.00  0.00    -0.200 C  
HETATM   27  O   UNL     1      -5.246  16.568  66.611  1.00  0.00    -0.351 OA 
HETATM   28  C   UNL     1      -8.166  14.849  68.422  1.00  0.00    -0.151 A  
HETATM   29  N   UNL     1      -6.400  18.536  66.238  1.00  0.00    -0.181 N  
HETATM   30  C   UNL     1      -7.561  19.124  66.686  1.00  0.00    -0.242 A  
HETATM   31  C   UNL     1      -8.714  13.581  68.537  1.00  0.00    -0.082 A  
HETATM   32  H   UNL     1      -5.766  18.963  65.563  1.00  0.00     0.000 HD 
HETATM   33  N   UNL     1      -7.967  20.345  66.336  1.00  0.00    -0.183 NA 
HETATM   34  C   UNL     1      -9.111  20.748  66.936  1.00  0.00    -0.071 A  
HETATM   35  C   UNL     1      -9.840  19.976  67.844  1.00  0.00    -0.538 A  
HETATM   36  C   UNL     1      -9.383  18.698  68.172  1.00  0.00    -0.347 A  
HETATM   37  C   UNL     1      -8.213  18.272  67.570  1.00  0.00    -0.240 A  
ENDBRANCH  17  19
ENDBRANCH   7  15
BRANCH   6  38
HETATM   38  C   UNL     1      -7.937   8.159  66.397  1.00  0.00    -0.104 C  
HETATM   39  F   UNL     1      -6.569   6.337  67.104  1.00  0.00    -0.049 F  
HETATM   40  F   UNL     1      -7.318   6.249  65.058  1.00  0.00    -0.065 F  
HETATM   41  C   UNL     1      -7.627   6.642  66.308  1.00  0.00    -0.090 C  
HETATM   42  F   UNL     1      -8.653   5.865  66.749  1.00  0.00    -0.112 F  
ENDBRANCH   6  38
TORSDOF 4
ENDMDL
MODEL      140
REMARK 921   NORMALIZED FREE ENERGY PREDICTED BY IDOCK:   20.04 KCAL/MOL
REMARK 922        TOTAL FREE ENERGY PREDICTED BY IDOCK:   23.14 KCAL/MOL
REMARK 923 INTER-LIGAND FREE ENERGY PREDICTED BY IDOCK:   12.41 KCAL/MOL
REMARK 924 INTRA-LIGAND FREE ENERGY PREDICTED BY IDOCK:   10.73 KCAL/MOL
REMARK 927      BINDING AFFINITY PREDICTED BY RF-SCORE:    0.00 PKD
ROOT
HETATM    1  C   UNL     1     -12.996   8.964  70.111  1.00  0.00     1.390 C  
HETATM    2  C   UNL     1     -11.513   8.880  70.501  1.00  0.00    -0.200 C  
HETATM    3  C   UNL     1     -11.208   9.748  71.757  1.00  0.00     0.030 C  
HETATM    4  C   UNL     1      -9.754   9.479  72.193  1.00  0.00     1.400 C  
HETATM    5  O   UNL     1      -8.336   8.650  68.900  1.00  0.00    -0.121 OA 
HETATM    6  N   UNL     1     -10.515   9.117  69.441  1.00  0.00    -0.216 N  
HETATM    7  C   UNL     1      -8.726   9.660  71.075  1.00  0.00     0.408 C  
HETATM    8  C   UNL     1      -9.155   8.987  69.756  1.00  0.00    -0.159 C  
ENDROOT
BRANCH   3   9
HETATM    9  C   UNL     1     -11.557  11.232  71.652  1.00  0.00     1.725 A  
HETATM   10  C   UNL     1     -11.588  13.286  70.341  1.00  0.00    -0.018 A  
HETATM   11  C   UNL     1     -11.338  11.912  70.446  1.00  0.00     0.349 A  
HETATM   12  C   UNL     1     -12.056  11.979  72.728  1.00  0.00     4.597 A  
HETATM   13  C   UNL     1     -12.294  13.349  72.634  1.00  0.00     0.665 A  
HETATM   14  C   UNL     1     -12.061  14.005  71.437  1.00  0.00    -0.252 A  
ENDBRANCH   3   9
BRANCH   7  15
HETATM   15  N   UNL     1      -8.487  11.061  70.718  1.00  0.00     2.879 N  
HETATM   16  H   UNL     1      -8.293  11.720  71.472  1.00  0.00     0.000 HD 
HETATM   17  C   UNL     1      -8.508  11.543  69.431  1.00  0.00     0.566 C  
HETATM   18  O   UNL     1      -8.768  10.849  68.457  1.00  0.00    -0.139 OA 
BRANCH  17  19
HETATM   19  C   UNL     1      -8.182  12.988  69.261  1.00  0.00     0.739 A  
HETATM   20  N   UNL     1      -7.583  15.093  70.345  1.00  0.00     0.437 NA 
HETATM   21  C   UNL     1      -7.863  13.756  70.380  1.00  0.00     2.390 A  
HETATM   22  C   UNL     1      -7.691  15.675  69.140  1.00  0.00    -0.212 A  
HETATM   23  C   UNL     1      -7.395  17.125  68.875  1.00  0.00    -0.241 C  
HETATM   24  C   UNL     1      -7.905  17.325  67.431  1.00  0.00    -0.198 C  
HETATM   25  C   UNL     1      -8.257  15.940  66.832  1.00  0.00    -0.283 C  
HETATM   26  C   UNL     1      -6.818  17.983  66.543  1.00  0.00    -0.219 C  
HETATM   27  O   UNL     1      -5.709  17.541  66.305  1.00  0.00    -0.186 OA 
HETATM   28  C   UNL     1      -8.062  15.013  67.989  1.00  0.00    -0.132 A  
HETATM   29  N   UNL     1      -7.342  19.155  66.037  1.00  0.00    -0.270 N  
HETATM   30  C   UNL     1      -8.613  19.390  66.508  1.00  0.00    -0.343 A  
HETATM   31  C   UNL     1      -8.256  13.642  68.026  1.00  0.00    -0.162 A  
HETATM   32  H   UNL     1      -6.847  19.772  65.393  1.00  0.00     0.000 HD 
HETATM   33  N   UNL     1      -9.329  20.480  66.225  1.00  0.00    -0.115 NA 
HETATM   34  C   UNL     1     -10.534  20.533  66.838  1.00  0.00     0.131 A  
HETATM   35  C   UNL     1     -11.028  19.545  67.693  1.00  0.00    -0.340 A  
HETATM   36  C   UNL     1     -10.249  18.416  67.951  1.00  0.00    -0.404 A  
HETATM   37  C   UNL     1      -9.012  18.347  67.336  1.00  0.00    -0.265 A  
ENDBRANCH  17  19
ENDBRANCH   7  15
BRANCH   6  38
HETATM   38  C   UNL     1     -10.840   9.165  67.998  1.00  0.00    -0.075 C  
HETATM   39  F   UNL     1      -9.215   9.697  66.335  1.00  0.00    -0.159 F  
HETATM   40  F   UNL     1     -10.107   7.711  66.218  1.00  0.00    -0.261 F  
HETATM   41  C   UNL     1      -9.699   8.665  67.075  1.00  0.00    -0.201 C  
HETATM   42  F   UNL     1      -8.633   8.179  67.766  1.00  0.00    -0.126 F  
ENDBRANCH   6  38
TORSDOF 4
ENDMDL
MODEL      141
REMARK 921   NORMALIZED FREE ENERGY PREDICTED BY IDOCK:   20.23 KCAL/MOL
REMARK 922        TOTAL FREE ENERGY PREDICTED BY IDOCK:   23.36 KCAL/MOL
REMARK 923 INTER-LIGAND FREE ENERGY PREDICTED BY IDOCK:   22.15 KCAL/MOL
REMARK 924 INTRA-LIGAND FREE ENERGY PREDICTED BY IDOCK:    1.22 KCAL/MOL
REMARK 927      BINDING AFFINITY PREDICTED BY RF-SCORE:    0.00 PKD
ROOT
HETATM    1  C   UNL     1     -10.151  16.403  72.649  1.00  0.00     6.545 C  
HETATM    2  C   UNL     1     -10.338  16.909  71.212  1.00  0.00     2.585 C  
HETATM    3  C   UNL     1     -11.556  16.226  70.525  1.00  0.00    -0.223 C  
HETATM    4  C   UNL     1     -11.790  16.906  69.161  1.00  0.00     1.010 C  
HETATM    5  O   UNL     1      -8.324  17.915  68.447  1.00  0.00    -0.288 OA 
HETATM    6  N   UNL     1      -9.159  16.899  70.326  1.00  0.00     1.986 N  
HETATM    7  C   UNL     1     -10.548  16.953  68.269  1.00  0.00    -0.363 C  
HETATM    8  C   UNL     1      -9.287  17.413  69.028  1.00  0.00    -0.101 C  
ENDROOT
BRANCH   3   9
HETATM    9  C   UNL     1     -11.524  14.700  70.457  1.00  0.00    -0.273 A  
HETATM   10  C   UNL     1     -12.682  12.571  70.703  1.00  0.00    -0.132 A  
HETATM   11  C   UNL     1     -12.697  13.970  70.695  1.00  0.00    -0.373 A  
HETATM   12  C   UNL     1     -10.354  13.970  70.204  1.00  0.00     1.013 A  
HETATM   13  C   UNL     1     -10.331  12.576  70.224  1.00  0.00     2.705 A  
HETATM   14  C   UNL     1     -11.498  11.873  70.472  1.00  0.00     0.315 A  
ENDBRANCH   3   9
BRANCH   7  15
HETATM   15  N   UNL     1     -10.186  15.654  67.696  1.00  0.00    -0.256 N  
HETATM   16  H   UNL     1     -10.812  14.866  67.864  1.00  0.00     0.000 HD 
HETATM   17  C   UNL     1      -9.057  15.431  66.945  1.00  0.00    -0.242 C  
HETATM   18  O   UNL     1      -8.220  16.295  66.715  1.00  0.00    -0.203 OA 
BRANCH  17  19
HETATM   19  C   UNL     1      -8.889  14.055  66.396  1.00  0.00     0.057 A  
HETATM   20  N   UNL     1      -9.980  12.003  65.647  1.00  0.00    -0.242 NA 
HETATM   21  C   UNL     1     -10.018  13.285  66.119  1.00  0.00    -0.293 A  
HETATM   22  C   UNL     1      -8.755  11.470  65.515  1.00  0.00     0.105 A  
HETATM   23  C   UNL     1      -8.489  10.089  64.982  1.00  0.00    -0.167 C  
HETATM   24  C   UNL     1      -6.984   9.891  65.268  1.00  0.00    -0.122 C  
HETATM   25  C   UNL     1      -6.386  11.242  65.734  1.00  0.00     0.246 C  
HETATM   26  C   UNL     1      -6.232   9.434  63.992  1.00  0.00    -0.092 C  
HETATM   27  O   UNL     1      -6.159  10.035  62.937  1.00  0.00    -0.112 OA 
HETATM   28  C   UNL     1      -7.585  12.130  65.825  1.00  0.00     1.564 A  
HETATM   29  N   UNL     1      -5.625   8.226  64.273  1.00  0.00    -0.054 N  
HETATM   30  C   UNL     1      -5.914   7.796  65.548  1.00  0.00    -0.038 A  
HETATM   31  C   UNL     1      -7.636  13.458  66.217  1.00  0.00     2.092 A  
HETATM   32  H   UNL     1      -5.036   7.715  63.616  1.00  0.00     0.000 HD 
HETATM   33  N   UNL     1      -5.505   6.633  66.058  1.00  0.00    -0.017 NA 
HETATM   34  C   UNL     1      -5.948   6.384  67.312  1.00  0.00    -0.020 A  
HETATM   35  C   UNL     1      -6.757   7.252  68.049  1.00  0.00    -0.058 A  
HETATM   36  C   UNL     1      -7.151   8.464  67.479  1.00  0.00    -0.083 A  
HETATM   37  C   UNL     1      -6.711   8.732  66.196  1.00  0.00    -0.073 A  
ENDBRANCH  17  19
ENDBRANCH   7  15
BRANCH   6  38
HETATM   38  C   UNL     1      -7.773  16.687  70.800  1.00  0.00     3.917 C  
HETATM   39  F   UNL     1      -7.071  14.661  71.845  1.00  0.00     0.883 F  
HETATM   40  F   UNL     1      -6.089  15.173  69.967  1.00  0.00    -0.118 F  
HETATM   41  C   UNL     1      -7.260  15.234  70.627  1.00  0.00     0.849 C  
HETATM   42  F   UNL     1      -8.149  14.432  69.979  1.00  0.00     0.219 F  
ENDBRANCH   6  38
TORSDOF 4
ENDMDL
MODEL      142
REMARK 921   NORMALIZED FREE ENERGY PREDICTED BY IDOCK:   21.77 KCAL/MOL
REMARK 922        TOTAL FREE ENERGY PREDICTED BY IDOCK:   25.27 KCAL/MOL
REMARK 923 INTER-LIGAND FREE ENERGY PREDICTED BY IDOCK:   22.65 KCAL/MOL
REMARK 924 INTRA-LIGAND FREE ENERGY PREDICTED BY IDOCK:    2.62 KCAL/MOL
REMARK 927      BINDING AFFINITY PREDICTED BY RF-SCORE:    0.00 PKD
ROOT
HETATM    1  C   UNL     1      -7.462   9.103  72.030  1.00  0.00     0.329 C  
HETATM    2  C   UNL     1      -7.830   9.100  70.539  1.00  0.00    -0.142 C  
HETATM    3  C   UNL     1      -6.736   9.807  69.686  1.00  0.00    -0.055 C  
HETATM    4  C   UNL     1      -7.081   9.612  68.196  1.00  0.00    -0.079 C  
HETATM    5  O   UNL     1     -10.741   9.388  68.502  1.00  0.00    -0.214 OA 
HETATM    6  N   UNL     1      -9.177   9.573  70.168  1.00  0.00    -0.229 N  
HETATM    7  C   UNL     1      -8.502  10.043  67.825  1.00  0.00    -0.114 C  
HETATM    8  C   UNL     1      -9.560   9.525  68.820  1.00  0.00    -0.157 C  
ENDROOT
BRANCH   3   9
HETATM    9  C   UNL     1      -6.417  11.253  70.062  1.00  0.00    -0.114 A  
HETATM   10  C   UNL     1      -5.961  13.543  69.367  1.00  0.00    -0.097 A  
HETATM   11  C   UNL     1      -6.316  12.225  69.058  1.00  0.00    -0.088 A  
HETATM   12  C   UNL     1      -6.174  11.665  71.380  1.00  0.00     1.519 A  
HETATM   13  C   UNL     1      -5.807  12.973  71.693  1.00  0.00     0.547 A  
HETATM   14  C   UNL     1      -5.702  13.916  70.685  1.00  0.00    -0.180 A  
ENDBRANCH   3   9
BRANCH   7  15
HETATM   15  N   UNL     1      -8.689  11.495  67.803  1.00  0.00    -0.138 N  
HETATM   16  H   UNL     1      -9.000  11.951  68.661  1.00  0.00     0.000 HD 
HETATM   17  C   UNL     1      -8.473  12.284  66.698  1.00  0.00    -0.056 C  
HETATM   18  O   UNL     1      -8.138  11.837  65.609  1.00  0.00     0.377 OA 
BRANCH  17  19
HETATM   19  C   UNL     1      -8.660  13.751  66.886  1.00  0.00    -0.128 A  
HETATM   20  N   UNL     1      -9.649  15.533  68.231  1.00  0.00    -0.199 NA 
HETATM   21  C   UNL     1      -9.388  14.215  67.980  1.00  0.00    -0.203 A  
HETATM   22  C   UNL     1      -9.208  16.397  67.303  1.00  0.00    -0.215 A  
HETATM   23  C   UNL     1      -9.361  17.889  67.400  1.00  0.00    -0.257 C  
HETATM   24  C   UNL     1      -8.921  18.375  66.002  1.00  0.00     0.025 C  
HETATM   25  C   UNL     1      -8.310  17.179  65.230  1.00  0.00     2.068 C  
HETATM   26  C   UNL     1      -7.850  19.490  66.111  1.00  0.00    -0.316 C  
HETATM   27  O   UNL     1      -6.759  19.400  66.644  1.00  0.00    -0.192 OA 
HETATM   28  C   UNL     1      -8.536  16.028  66.157  1.00  0.00    -0.315 A  
HETATM   29  N   UNL     1      -8.339  20.607  65.465  1.00  0.00    -0.065 N  
HETATM   30  C   UNL     1      -9.612  20.401  64.983  1.00  0.00     1.297 A  
HETATM   31  C   UNL     1      -8.202  14.698  65.963  1.00  0.00     1.484 A  
HETATM   32  H   UNL     1      -7.821  21.479  65.358  1.00  0.00     0.000 HD 
HETATM   33  N   UNL     1     -10.342  21.333  64.369  1.00  0.00     2.761 NA 
HETATM   34  C   UNL     1     -11.587  20.932  64.024  1.00  0.00     4.088 A  
HETATM   35  C   UNL     1     -12.099  19.654  64.263  1.00  0.00     7.804 A  
HETATM   36  C   UNL     1     -11.294  18.707  64.898  1.00  0.00     2.484 A  
HETATM   37  C   UNL     1     -10.019  19.102  65.262  1.00  0.00     1.094 A  
ENDBRANCH  17  19
ENDBRANCH   7  15
BRANCH   6  38
HETATM   38  C   UNL     1     -10.270   9.795  71.140  1.00  0.00     0.063 C  
HETATM   39  F   UNL     1     -11.328  11.914  71.419  1.00  0.00     0.952 F  
HETATM   40  F   UNL     1     -12.599  10.279  70.735  1.00  0.00    -0.353 F  
HETATM   41  C   UNL     1     -11.356  10.790  70.656  1.00  0.00    -0.110 C  
HETATM   42  F   UNL     1     -11.157  11.211  69.378  1.00  0.00    -0.231 F  
ENDBRANCH   6  38
TORSDOF 4
ENDMDL
MODEL      143
REMARK 921   NORMALIZED FREE ENERGY PREDICTED BY IDOCK:   21.93 KCAL/MOL
REMARK 922        TOTAL FREE ENERGY PREDICTED BY IDOCK:   25.47 KCAL/MOL
REMARK 923 INTER-LIGAND FREE ENERGY PREDICTED BY IDOCK:   25.15 KCAL/MOL
REMARK 924 INTRA-LIGAND FREE ENERGY PREDICTED BY IDOCK:    0.32 KCAL/MOL
REMARK 927      BINDING AFFINITY PREDICTED BY RF-SCORE:    0.00 PKD
ROOT
HETATM    1  C   UNL     1      -7.218   7.524  65.993  1.00  0.00    -0.070 C  
HETATM    2  C   UNL     1      -8.665   8.037  65.990  1.00  0.00    -0.157 C  
HETATM    3  C   UNL     1      -8.778   9.409  65.263  1.00  0.00    -0.204 C  
HETATM    4  C   UNL     1     -10.271   9.775  65.142  1.00  0.00     0.120 C  
HETATM    5  O   UNL     1     -11.507   8.040  68.143  1.00  0.00     0.721 OA 
HETATM    6  N   UNL     1      -9.384   8.062  67.278  1.00  0.00    -0.140 N  
HETATM    7  C   UNL     1     -11.029   9.736  66.470  1.00  0.00     0.269 C  
HETATM    8  C   UNL     1     -10.725   8.468  67.293  1.00  0.00    -0.149 C  
ENDROOT
BRANCH   3   9
HETATM    9  C   UNL     1      -7.908  10.537  65.814  1.00  0.00    -0.154 A  
HETATM   10  C   UNL     1      -5.825  11.255  66.856  1.00  0.00    -0.108 A  
HETATM   11  C   UNL     1      -6.620  10.252  66.287  1.00  0.00    -0.100 A  
HETATM   12  C   UNL     1      -8.348  11.865  65.913  1.00  0.00     0.370 A  
HETATM   13  C   UNL     1      -7.568  12.865  66.492  1.00  0.00     0.872 A  
HETATM   14  C   UNL     1      -6.302  12.560  66.963  1.00  0.00     0.085 A  
ENDBRANCH   3   9
BRANCH   7  15
HETATM   15  N   UNL     1     -10.705  10.850  67.365  1.00  0.00    -0.239 N  
HETATM   16  H   UNL     1      -9.856  10.780  67.928  1.00  0.00     0.000 HD 
HETATM   17  C   UNL     1     -11.471  11.983  67.496  1.00  0.00    -0.333 C  
HETATM   18  O   UNL     1     -12.527  12.152  66.899  1.00  0.00    -0.129 OA 
BRANCH  17  19
HETATM   19  C   UNL     1     -10.947  13.034  68.414  1.00  0.00    -0.288 A  
HETATM   20  N   UNL     1      -9.392  13.592  70.211  1.00  0.00     3.238 NA 
HETATM   21  C   UNL     1      -9.923  12.718  69.304  1.00  0.00     0.594 A  
HETATM   22  C   UNL     1      -9.966  14.804  70.251  1.00  0.00     0.521 A  
HETATM   23  C   UNL     1      -9.514  15.922  71.151  1.00  0.00     2.909 C  
HETATM   24  C   UNL     1     -10.634  16.973  70.987  1.00  0.00     1.508 C  
HETATM   25  C   UNL     1     -11.564  16.532  69.829  1.00  0.00     0.163 C  
HETATM   26  C   UNL     1     -10.044  18.365  70.642  1.00  0.00     2.358 C  
HETATM   27  O   UNL     1      -9.362  18.645  69.674  1.00  0.00     0.325 OA 
HETATM   28  C   UNL     1     -11.025  15.188  69.456  1.00  0.00    -0.279 A  
HETATM   29  N   UNL     1     -10.457  19.249  71.618  1.00  0.00     1.479 N  
HETATM   30  C   UNL     1     -11.201  18.622  72.592  1.00  0.00     3.667 A  
HETATM   31  C   UNL     1     -11.493  14.321  68.482  1.00  0.00    -0.329 A  
HETATM   32  H   UNL     1     -10.237  20.245  71.618  1.00  0.00     0.000 HD 
HETATM   33  N   UNL     1     -11.675  19.229  73.681  1.00  0.00     5.389 NA 
HETATM   34  C   UNL     1     -12.335  18.413  74.535  1.00  0.00     3.093 A  
HETATM   35  C   UNL     1     -12.533  17.046  74.324  1.00  0.00     0.101 A  
HETATM   36  C   UNL     1     -12.030  16.456  73.164  1.00  0.00    -0.536 A  
HETATM   37  C   UNL     1     -11.349  17.275  72.282  1.00  0.00     1.311 A  
ENDBRANCH  17  19
ENDBRANCH   7  15
BRANCH   6  38
HETATM   38  C   UNL     1      -8.901   7.389  68.504  1.00  0.00    -0.126 C  
HETATM   39  F   UNL     1     -10.310   6.019  69.855  1.00  0.00    -0.210 F  
HETATM   40  F   UNL     1      -8.595   5.035  68.935  1.00  0.00    -0.086 F  
HETATM   41  C   UNL     1      -9.524   5.990  68.747  1.00  0.00    -0.125 C  
HETATM   42  F   UNL     1     -10.337   5.590  67.732  1.00  0.00    -0.180 F  
ENDBRANCH   6  38
TORSDOF 4
ENDMDL
MODEL      144
REMARK 921   NORMALIZED FREE ENERGY PREDICTED BY IDOCK:   22.13 KCAL/MOL
REMARK 922        TOTAL FREE ENERGY PREDICTED BY IDOCK:   25.71 KCAL/MOL
REMARK 923 INTER-LIGAND FREE ENERGY PREDICTED BY IDOCK:   26.10 KCAL/MOL
REMARK 924 INTRA-LIGAND FREE ENERGY PREDICTED BY IDOCK:   -0.38 KCAL/MOL
REMARK 927      BINDING AFFINITY PREDICTED BY RF-SCORE:    0.00 PKD
ROOT
HETATM    1  C   UNL     1     -11.165   7.930  64.717  1.00  0.00    11.421 C  
HETATM    2  C   UNL     1     -10.993   8.276  66.203  1.00  0.00     2.112 C  
HETATM    3  C   UNL     1     -12.030   9.343  66.659  1.00  0.00     5.356 C  
HETATM    4  C   UNL     1     -11.916   9.510  68.188  1.00  0.00     2.277 C  
HETATM    5  O   UNL     1      -8.355   8.665  68.570  1.00  0.00    -0.120 OA 
HETATM    6  N   UNL     1      -9.637   8.625  66.670  1.00  0.00    -0.200 N  
HETATM    7  C   UNL     1     -10.497   9.806  68.676  1.00  0.00    -0.208 C  
HETATM    8  C   UNL     1      -9.441   8.886  68.033  1.00  0.00    -0.143 C  
ENDROOT
BRANCH   3   9
HETATM    9  C   UNL     1     -12.022  10.664  65.892  1.00  0.00     2.633 A  
HETATM   10  C   UNL     1     -12.112  11.847  63.763  1.00  0.00    -0.547 A  
HETATM   11  C   UNL     1     -12.180  10.658  64.499  1.00  0.00     3.599 A  
HETATM   12  C   UNL     1     -11.821  11.907  66.509  1.00  0.00    -0.132 A  
HETATM   13  C   UNL     1     -11.739  13.093  65.780  1.00  0.00    -0.415 A  
HETATM   14  C   UNL     1     -11.886  13.064  64.404  1.00  0.00    -0.443 A  
ENDBRANCH   3   9
BRANCH   7  15
HETATM   15  N   UNL     1     -10.043  11.166  68.373  1.00  0.00    -0.178 N  
HETATM   16  H   UNL     1      -9.734  11.366  67.422  1.00  0.00     0.000 HD 
HETATM   17  C   UNL     1     -10.006  12.189  69.290  1.00  0.00     0.475 C  
HETATM   18  O   UNL     1     -10.317  12.049  70.467  1.00  0.00     2.401 OA 
BRANCH  17  19
HETATM   19  C   UNL     1      -9.570  13.520  68.780  1.00  0.00     0.009 A  
HETATM   20  N   UNL     1      -8.275  14.748  67.113  1.00  0.00    -0.212 NA 
HETATM   21  C   UNL     1      -8.761  13.587  67.647  1.00  0.00    -0.194 A  
HETATM   22  C   UNL     1      -8.573  15.866  67.793  1.00  0.00    -0.159 A  
HETATM   23  C   UNL     1      -8.167  17.249  67.362  1.00  0.00    -0.204 C  
HETATM   24  C   UNL     1      -8.533  18.116  68.587  1.00  0.00    -0.285 C  
HETATM   25  C   UNL     1      -9.349  17.251  69.581  1.00  0.00     0.646 C  
HETATM   26  C   UNL     1      -9.397  19.333  68.169  1.00  0.00    -0.342 C  
HETATM   27  O   UNL     1     -10.481  19.299  67.616  1.00  0.00    -0.405 OA 
HETATM   28  C   UNL     1      -9.311  15.893  68.957  1.00  0.00    -0.243 A  
HETATM   29  N   UNL     1      -8.732  20.476  68.564  1.00  0.00     0.404 N  
HETATM   30  C   UNL     1      -7.519  20.183  69.146  1.00  0.00     0.057 A  
HETATM   31  C   UNL     1      -9.870  14.719  69.435  1.00  0.00    -0.072 A  
HETATM   32  H   UNL     1      -9.094  21.420  68.441  1.00  0.00     0.000 HD 
HETATM   33  N   UNL     1      -6.647  21.102  69.565  1.00  0.00     0.822 NA 
HETATM   34  C   UNL     1      -5.493  20.596  70.056  1.00  0.00    -0.343 A  
HETATM   35  C   UNL     1      -5.204  19.232  70.145  1.00  0.00    -0.215 A  
HETATM   36  C   UNL     1      -6.151  18.306  69.705  1.00  0.00    -0.238 A  
HETATM   37  C   UNL     1      -7.336  18.807  69.195  1.00  0.00    -0.225 A  
ENDBRANCH  17  19
ENDBRANCH   7  15
BRANCH   6  38
HETATM   38  C   UNL     1      -8.410   8.409  65.872  1.00  0.00    -0.134 C  
HETATM   39  F   UNL     1      -7.845   9.765  63.993  1.00  0.00    -0.119 F  
HETATM   40  F   UNL     1      -6.453   9.806  65.671  1.00  0.00    -0.068 F  
HETATM   41  C   UNL     1      -7.756   9.713  65.348  1.00  0.00    -0.117 C  
HETATM   42  F   UNL     1      -8.380  10.836  65.798  1.00  0.00    -0.153 F  
ENDBRANCH   6  38
TORSDOF 4
ENDMDL
MODEL      145
REMARK 921   NORMALIZED FREE ENERGY PREDICTED BY IDOCK:   22.70 KCAL/MOL
REMARK 922        TOTAL FREE ENERGY PREDICTED BY IDOCK:   26.41 KCAL/MOL
REMARK 923 INTER-LIGAND FREE ENERGY PREDICTED BY IDOCK:   28.25 KCAL/MOL
REMARK 924 INTRA-LIGAND FREE ENERGY PREDICTED BY IDOCK:   -1.84 KCAL/MOL
REMARK 927      BINDING AFFINITY PREDICTED BY RF-SCORE:    0.00 PKD
ROOT
HETATM    1  C   UNL     1      -9.606   9.927  72.161  1.00  0.00     3.436 C  
HETATM    2  C   UNL     1     -10.850   9.967  71.262  1.00  0.00     0.113 C  
HETATM    3  C   UNL     1     -11.566   8.586  71.226  1.00  0.00    -0.332 C  
HETATM    4  C   UNL     1     -12.892   8.745  70.456  1.00  0.00     0.589 C  
HETATM    5  O   UNL     1     -11.900  11.491  68.215  1.00  0.00    -0.473 OA 
HETATM    6  N   UNL     1     -10.692  10.516  69.902  1.00  0.00    -0.266 N  
HETATM    7  C   UNL     1     -12.734   9.375  69.070  1.00  0.00     3.593 C  
HETATM    8  C   UNL     1     -11.824  10.620  69.082  1.00  0.00    -0.215 C  
ENDROOT
BRANCH   3   9
HETATM    9  C   UNL     1     -10.722   7.400  70.763  1.00  0.00    -0.245 A  
HETATM   10  C   UNL     1     -10.454   4.990  70.520  1.00  0.00    -0.230 A  
HETATM   11  C   UNL     1     -11.231   6.099  70.876  1.00  0.00    -0.365 A  
HETATM   12  C   UNL     1      -9.422   7.538  70.256  1.00  0.00    -0.165 A  
HETATM   13  C   UNL     1      -8.639   6.437  69.912  1.00  0.00    -0.138 A  
HETATM   14  C   UNL     1      -9.156   5.159  70.042  1.00  0.00    -0.163 A  
ENDBRANCH   3   9
BRANCH   7  15
HETATM   15  N   UNL     1     -12.128   8.479  68.083  1.00  0.00     2.816 N  
HETATM   16  H   UNL     1     -11.376   8.847  67.500  1.00  0.00     0.000 HD 
HETATM   17  C   UNL     1     -12.511   7.173  67.890  1.00  0.00     5.755 C  
HETATM   18  O   UNL     1     -13.427   6.643  68.506  1.00  0.00     8.932 OA 
BRANCH  17  19
HETATM   19  C   UNL     1     -11.736   6.399  66.878  1.00  0.00     1.077 A  
HETATM   20  N   UNL     1     -11.732   4.559  65.273  1.00  0.00     0.654 NA 
HETATM   21  C   UNL     1     -12.354   5.354  66.194  1.00  0.00     4.738 A  
HETATM   22  C   UNL     1     -10.423   4.799  65.092  1.00  0.00     0.081 A  
HETATM   23  C   UNL     1      -9.560   4.064  64.104  1.00  0.00    -0.163 C  
HETATM   24  C   UNL     1      -8.136   4.538  64.467  1.00  0.00    -0.102 C  
HETATM   25  C   UNL     1      -8.245   5.701  65.485  1.00  0.00    -0.129 C  
HETATM   26  C   UNL     1      -7.384   5.051  63.212  1.00  0.00    -0.049 C  
HETATM   27  O   UNL     1      -7.722   5.968  62.487  1.00  0.00    -0.067 OA 
HETATM   28  C   UNL     1      -9.712   5.767  65.768  1.00  0.00     0.101 A  
HETATM   29  N   UNL     1      -6.234   4.300  63.077  1.00  0.00    -0.018 N  
HETATM   30  C   UNL     1      -6.145   3.325  64.044  1.00  0.00    -0.018 A  
HETATM   31  C   UNL     1     -10.376   6.622  66.632  1.00  0.00    -0.215 A  
HETATM   32  H   UNL     1      -5.536   4.450  62.348  1.00  0.00     0.000 HD 
HETATM   33  N   UNL     1      -5.165   2.422  64.111  1.00  0.00    -0.008 NA 
HETATM   34  C   UNL     1      -5.302   1.521  65.110  1.00  0.00    -0.005 A  
HETATM   35  C   UNL     1      -6.359   1.510  66.023  1.00  0.00    -0.023 A  
HETATM   36  C   UNL     1      -7.356   2.481  65.922  1.00  0.00    -0.067 A  
HETATM   37  C   UNL     1      -7.234   3.408  64.903  1.00  0.00    -0.066 A  
ENDBRANCH  17  19
ENDBRANCH   7  15
BRANCH   6  38
HETATM   38  C   UNL     1      -9.497  11.261  69.447  1.00  0.00     0.357 C  
HETATM   39  F   UNL     1      -7.479  10.171  68.791  1.00  0.00    -0.075 F  
HETATM   40  F   UNL     1      -8.491  11.342  67.256  1.00  0.00    -0.132 F  
HETATM   41  C   UNL     1      -8.698  10.551  68.324  1.00  0.00    -0.135 C  
HETATM   42  F   UNL     1      -9.295   9.408  67.890  1.00  0.00    -0.129 F  
ENDBRANCH   6  38
TORSDOF 4
ENDMDL
MODEL      146
REMARK 921   NORMALIZED FREE ENERGY PREDICTED BY IDOCK:   23.44 KCAL/MOL
REMARK 922        TOTAL FREE ENERGY PREDICTED BY IDOCK:   27.32 KCAL/MOL
REMARK 923 INTER-LIGAND FREE ENERGY PREDICTED BY IDOCK:   24.47 KCAL/MOL
REMARK 924 INTRA-LIGAND FREE ENERGY PREDICTED BY IDOCK:    2.85 KCAL/MOL
REMARK 927      BINDING AFFINITY PREDICTED BY RF-SCORE:    0.00 PKD
ROOT
HETATM    1  C   UNL     1      -8.771   8.848  72.147  1.00  0.00     0.022 C  
HETATM    2  C   UNL     1      -9.976   8.672  71.211  1.00  0.00    -0.246 C  
HETATM    3  C   UNL     1      -9.521   8.336  69.761  1.00  0.00    -0.163 C  
HETATM    4  C   UNL     1     -10.772   8.001  68.924  1.00  0.00    -0.091 C  
HETATM    5  O   UNL     1     -13.214  10.083  70.726  1.00  0.00    -0.348 OA 
HETATM    6  N   UNL     1     -11.000   9.733  71.211  1.00  0.00    -0.326 N  
HETATM    7  C   UNL     1     -11.862   9.074  68.978  1.00  0.00     1.359 C  
HETATM    8  C   UNL     1     -12.140   9.569  70.411  1.00  0.00    -0.004 C  
ENDROOT
BRANCH   3   9
HETATM    9  C   UNL     1      -8.587   9.345  69.096  1.00  0.00    -0.140 A  
HETATM   10  C   UNL     1      -6.821  11.012  69.302  1.00  0.00    -0.110 A  
HETATM   11  C   UNL     1      -7.646  10.035  69.873  1.00  0.00    -0.177 A  
HETATM   12  C   UNL     1      -8.643   9.658  67.730  1.00  0.00    -0.125 A  
HETATM   13  C   UNL     1      -7.834  10.638  67.159  1.00  0.00    -0.117 A  
HETATM   14  C   UNL     1      -6.918  11.317  67.945  1.00  0.00    -0.073 A  
ENDBRANCH   3   9
BRANCH   7  15
HETATM   15  N   UNL     1     -11.532  10.284  68.221  1.00  0.00    -0.525 N  
HETATM   16  H   UNL     1     -10.554  10.568  68.174  1.00  0.00     0.000 HD 
HETATM   17  C   UNL     1     -12.460  11.063  67.571  1.00  0.00     2.588 C  
HETATM   18  O   UNL     1     -13.663  10.837  67.595  1.00  0.00     9.344 OA 
BRANCH  17  19
HETATM   19  C   UNL     1     -11.926  12.224  66.803  1.00  0.00    -0.230 A  
HETATM   20  N   UNL     1     -10.368  13.006  65.094  1.00  0.00    -0.302 NA 
HETATM   21  C   UNL     1     -10.950  12.013  65.831  1.00  0.00    -0.298 A  
HETATM   22  C   UNL     1     -10.749  14.255  65.402  1.00  0.00    -0.343 A  
HETATM   23  C   UNL     1     -10.257  15.486  64.692  1.00  0.00     0.370 C  
HETATM   24  C   UNL     1     -10.795  16.634  65.575  1.00  0.00    -0.170 C  
HETATM   25  C   UNL     1     -11.770  16.040  66.623  1.00  0.00     0.764 C  
HETATM   26  C   UNL     1     -11.563  17.678  64.724  1.00  0.00     2.292 C  
HETATM   27  O   UNL     1     -12.548  17.473  64.039  1.00  0.00     4.409 OA 
HETATM   28  C   UNL     1     -11.659  14.567  66.390  1.00  0.00    -0.370 A  
HETATM   29  N   UNL     1     -10.948  18.900  64.905  1.00  0.00     1.167 N  
HETATM   30  C   UNL     1      -9.845  18.801  65.722  1.00  0.00     0.160 A  
HETATM   31  C   UNL     1     -12.305  13.545  67.067  1.00  0.00    -0.260 A  
HETATM   32  H   UNL     1     -11.271  19.771  64.484  1.00  0.00     0.000 HD 
HETATM   33  N   UNL     1      -9.035  19.818  66.016  1.00  0.00    -0.371 NA 
HETATM   34  C   UNL     1      -7.979  19.487  66.795  1.00  0.00    -0.287 A  
HETATM   35  C   UNL     1      -7.731  18.201  67.281  1.00  0.00    -0.226 A  
HETATM   36  C   UNL     1      -8.614  17.169  66.958  1.00  0.00    -0.239 A  
HETATM   37  C   UNL     1      -9.696  17.490  66.159  1.00  0.00    -0.225 A  
ENDBRANCH  17  19
ENDBRANCH   7  15
BRANCH   6  38
HETATM   38  C   UNL     1     -11.076  10.807  72.227  1.00  0.00     5.019 C  
HETATM   39  F   UNL     1     -11.183  13.118  71.646  1.00  0.00     1.681 F  
HETATM   40  F   UNL     1     -12.895  12.310  72.727  1.00  0.00    -0.047 F  
HETATM   41  C   UNL     1     -11.957  12.013  71.810  1.00  0.00     1.489 C  
HETATM   42  F   UNL     1     -12.582  11.824  70.616  1.00  0.00    -0.378 F  
ENDBRANCH   6  38
TORSDOF 4
ENDMDL
MODEL      147
REMARK 921   NORMALIZED FREE ENERGY PREDICTED BY IDOCK:   24.35 KCAL/MOL
REMARK 922        TOTAL FREE ENERGY PREDICTED BY IDOCK:   28.45 KCAL/MOL
REMARK 923 INTER-LIGAND FREE ENERGY PREDICTED BY IDOCK:   28.47 KCAL/MOL
REMARK 924 INTRA-LIGAND FREE ENERGY PREDICTED BY IDOCK:   -0.02 KCAL/MOL
REMARK 927      BINDING AFFINITY PREDICTED BY RF-SCORE:    0.00 PKD
ROOT
HETATM    1  C   UNL     1     -10.134  10.496  72.341  1.00  0.00     8.018 C  
HETATM    2  C   UNL     1     -11.358   9.569  72.338  1.00  0.00     0.885 C  
HETATM    3  C   UNL     1     -10.971   8.120  72.754  1.00  0.00    -0.401 C  
HETATM    4  C   UNL     1     -12.265   7.293  72.899  1.00  0.00     0.422 C  
HETATM    5  O   UNL     1     -14.342   9.087  70.447  1.00  0.00     0.578 OA 
HETATM    6  N   UNL     1     -12.205   9.563  71.130  1.00  0.00    -0.323 N  
HETATM    7  C   UNL     1     -13.175   7.342  71.670  1.00  0.00    -0.366 C  
HETATM    8  C   UNL     1     -13.362   8.771  71.123  1.00  0.00    -0.047 C  
ENDROOT
BRANCH   3   9
HETATM    9  C   UNL     1      -9.896   7.439  71.908  1.00  0.00    -0.187 A  
HETATM   10  C   UNL     1      -8.014   5.898  71.761  1.00  0.00    -0.111 A  
HETATM   11  C   UNL     1      -9.049   6.489  72.495  1.00  0.00    -0.137 A  
HETATM   12  C   UNL     1      -9.676   7.746  70.558  1.00  0.00    -0.175 A  
HETATM   13  C   UNL     1      -8.639   7.170  69.825  1.00  0.00    -0.141 A  
HETATM   14  C   UNL     1      -7.807   6.242  70.427  1.00  0.00    -0.107 A  
ENDBRANCH   3   9
BRANCH   7  15
HETATM   15  N   UNL     1     -12.667   6.571  70.532  1.00  0.00    -0.037 N  
HETATM   16  H   UNL     1     -12.892   6.899  69.593  1.00  0.00     0.000 HD 
HETATM   17  C   UNL     1     -11.908   5.431  70.651  1.00  0.00     1.854 C  
HETATM   18  O   UNL     1     -11.614   4.928  71.728  1.00  0.00     0.497 OA 
BRANCH  17  19
HETATM   19  C   UNL     1     -11.434   4.817  69.378  1.00  0.00     4.131 A  
HETATM   20  N   UNL     1     -10.687   2.793  68.235  1.00  0.00     3.606 NA 
HETATM   21  C   UNL     1     -11.158   3.451  69.336  1.00  0.00     5.981 A  
HETATM   22  C   UNL     1     -10.431   3.562  67.165  1.00  0.00     1.856 A  
HETATM   23  C   UNL     1      -9.940   3.034  65.846  1.00  0.00     0.499 C  
HETATM   24  C   UNL     1      -9.580   4.321  65.070  1.00  0.00    -0.179 C  
HETATM   25  C   UNL     1     -10.093   5.543  65.872  1.00  0.00     0.011 C  
HETATM   26  C   UNL     1     -10.248   4.333  63.672  1.00  0.00     0.042 C  
HETATM   27  O   UNL     1     -11.441   4.285  63.436  1.00  0.00     0.283 OA 
HETATM   28  C   UNL     1     -10.611   4.928  67.132  1.00  0.00    -0.041 A  
HETATM   29  N   UNL     1      -9.246   4.442  62.729  1.00  0.00    -0.130 N  
HETATM   30  C   UNL     1      -7.998   4.453  63.310  1.00  0.00    -0.082 A  
HETATM   31  C   UNL     1     -11.172   5.568  68.226  1.00  0.00     0.645 A  
HETATM   32  H   UNL     1      -9.410   4.505  61.724  1.00  0.00     0.000 HD 
HETATM   33  N   UNL     1      -6.853   4.491  62.627  1.00  0.00    -0.030 NA 
HETATM   34  C   UNL     1      -5.741   4.441  63.396  1.00  0.00    -0.017 A  
HETATM   35  C   UNL     1      -5.749   4.367  64.791  1.00  0.00    -0.014 A  
HETATM   36  C   UNL     1      -6.972   4.342  65.464  1.00  0.00    -0.059 A  
HETATM   37  C   UNL     1      -8.119   4.388  64.693  1.00  0.00    -0.099 A  
ENDBRANCH  17  19
ENDBRANCH   7  15
BRANCH   6  38
HETATM   38  C   UNL     1     -12.107  10.568  70.049  1.00  0.00    -0.274 C  
HETATM   39  F   UNL     1     -10.547  10.373  68.254  1.00  0.00    -0.188 F  
HETATM   40  F   UNL     1     -12.659  10.354  67.710  1.00  0.00     1.404 F  
HETATM   41  C   UNL     1     -11.782   9.970  68.656  1.00  0.00     0.307 C  
HETATM   42  F   UNL     1     -11.739   8.610  68.660  1.00  0.00     0.596 F  
ENDBRANCH   6  38
TORSDOF 4
ENDMDL
MODEL      148
REMARK 921   NORMALIZED FREE ENERGY PREDICTED BY IDOCK:   24.37 KCAL/MOL
REMARK 922        TOTAL FREE ENERGY PREDICTED BY IDOCK:   28.47 KCAL/MOL
REMARK 923 INTER-LIGAND FREE ENERGY PREDICTED BY IDOCK:   25.98 KCAL/MOL
REMARK 924 INTRA-LIGAND FREE ENERGY PREDICTED BY IDOCK:    2.49 KCAL/MOL
REMARK 927      BINDING AFFINITY PREDICTED BY RF-SCORE:    0.00 PKD
ROOT
HETATM    1  C   UNL     1     -12.014  19.997  69.653  1.00  0.00     6.667 C  
HETATM    2  C   UNL     1     -10.495  19.946  69.440  1.00  0.00     0.249 C  
HETATM    3  C   UNL     1     -10.138  19.870  67.926  1.00  0.00    -0.571 C  
HETATM    4  C   UNL     1      -8.609  19.999  67.779  1.00  0.00    -0.347 C  
HETATM    5  O   UNL     1      -7.620  18.537  71.008  1.00  0.00     3.510 OA 
HETATM    6  N   UNL     1      -9.730  18.949  70.213  1.00  0.00     1.176 N  
HETATM    7  C   UNL     1      -7.816  19.007  68.633  1.00  0.00    -0.348 C  
HETATM    8  C   UNL     1      -8.335  18.921  70.082  1.00  0.00     1.704 C  
ENDROOT
BRANCH   3   9
HETATM    9  C   UNL     1     -10.736  18.697  67.151  1.00  0.00    -0.433 A  
HETATM   10  C   UNL     1     -11.711  16.463  67.159  1.00  0.00     0.810 A  
HETATM   11  C   UNL     1     -11.218  17.579  67.846  1.00  0.00     0.190 A  
HETATM   12  C   UNL     1     -10.795  18.655  65.751  1.00  0.00    -0.093 A  
HETATM   13  C   UNL     1     -11.272  17.542  65.061  1.00  0.00     0.775 A  
HETATM   14  C   UNL     1     -11.734  16.443  65.766  1.00  0.00     1.111 A  
ENDBRANCH   3   9
BRANCH   7  15
HETATM   15  N   UNL     1      -7.868  17.631  68.134  1.00  0.00    -0.248 N  
HETATM   16  H   UNL     1      -8.728  17.317  67.684  1.00  0.00     0.000 HD 
HETATM   17  C   UNL     1      -6.831  16.735  68.236  1.00  0.00    -0.155 C  
HETATM   18  O   UNL     1      -5.770  16.993  68.791  1.00  0.00    -0.138 OA 
BRANCH  17  19
HETATM   19  C   UNL     1      -7.050  15.396  67.616  1.00  0.00    -0.204 A  
HETATM   20  N   UNL     1      -8.563  13.942  66.368  1.00  0.00     0.207 NA 
HETATM   21  C   UNL     1      -8.243  15.140  66.942  1.00  0.00    -0.199 A  
HETATM   22  C   UNL     1      -7.665  12.959  66.541  1.00  0.00     0.792 A  
HETATM   23  C   UNL     1      -7.806  11.577  65.965  1.00  0.00     0.216 C  
HETATM   24  C   UNL     1      -6.665  10.796  66.653  1.00  0.00    -0.120 C  
HETATM   25  C   UNL     1      -5.765  11.802  67.414  1.00  0.00    -0.102 C  
HETATM   26  C   UNL     1      -5.795  10.049  65.610  1.00  0.00    -0.074 C  
HETATM   27  O   UNL     1      -5.172  10.549  64.691  1.00  0.00    -0.122 OA 
HETATM   28  C   UNL     1      -6.489  13.099  67.246  1.00  0.00     0.065 A  
HETATM   29  N   UNL     1      -5.825   8.705  65.925  1.00  0.00    -0.046 N  
HETATM   30  C   UNL     1      -6.636   8.453  67.007  1.00  0.00    -0.058 A  
HETATM   31  C   UNL     1      -6.139  14.342  67.746  1.00  0.00    -0.132 A  
HETATM   32  H   UNL     1      -5.308   7.987  65.417  1.00  0.00     0.000 HD 
HETATM   33  N   UNL     1      -6.890   7.235  67.487  1.00  0.00    -0.071 NA 
HETATM   34  C   UNL     1      -7.759   7.211  68.524  1.00  0.00    -0.120 A  
HETATM   35  C   UNL     1      -8.352   8.346  69.082  1.00  0.00    -0.122 A  
HETATM   36  C   UNL     1      -8.048   9.602  68.555  1.00  0.00    -0.104 A  
HETATM   37  C   UNL     1      -7.164   9.644  67.491  1.00  0.00    -0.090 A  
ENDBRANCH  17  19
ENDBRANCH   7  15
BRANCH   6  38
HETATM   38  C   UNL     1     -10.285  18.189  71.355  1.00  0.00     3.968 C  
HETATM   39  F   UNL     1     -12.629  17.886  71.676  1.00  0.00     5.283 F  
HETATM   40  F   UNL     1     -11.452  16.078  71.362  1.00  0.00    -0.375 F  
HETATM   41  C   UNL     1     -11.559  17.373  71.014  1.00  0.00     2.342 C  
HETATM   42  F   UNL     1     -11.885  17.427  69.694  1.00  0.00     1.192 F  
ENDBRANCH   6  38
TORSDOF 4
ENDMDL
MODEL      149
REMARK 921   NORMALIZED FREE ENERGY PREDICTED BY IDOCK:   26.50 KCAL/MOL
REMARK 922        TOTAL FREE ENERGY PREDICTED BY IDOCK:   31.10 KCAL/MOL
REMARK 923 INTER-LIGAND FREE ENERGY PREDICTED BY IDOCK:   30.76 KCAL/MOL
REMARK 924 INTRA-LIGAND FREE ENERGY PREDICTED BY IDOCK:    0.34 KCAL/MOL
REMARK 927      BINDING AFFINITY PREDICTED BY RF-SCORE:    0.00 PKD
ROOT
HETATM    1  C   UNL     1      -9.698   9.687  73.464  1.00  0.00     6.523 C  
HETATM    2  C   UNL     1     -10.117  10.568  72.278  1.00  0.00     7.401 C  
HETATM    3  C   UNL     1     -11.298   9.931  71.489  1.00  0.00    -0.246 C  
HETATM    4  C   UNL     1     -11.778  10.943  70.430  1.00  0.00    -0.444 C  
HETATM    5  O   UNL     1      -8.591  12.692  69.855  1.00  0.00     2.138 OA 
HETATM    6  N   UNL     1      -9.056  11.027  71.361  1.00  0.00     6.839 N  
HETATM    7  C   UNL     1     -10.664  11.469  69.522  1.00  0.00    -0.000 C  
HETATM    8  C   UNL     1      -9.402  11.882  70.306  1.00  0.00     4.063 C  
ENDROOT
BRANCH   3   9
HETATM    9  C   UNL     1     -11.060   8.526  70.936  1.00  0.00    -0.295 A  
HETATM   10  C   UNL     1     -11.188   6.962  69.072  1.00  0.00    -0.131 A  
HETATM   11  C   UNL     1     -11.335   8.255  69.589  1.00  0.00     0.206 A  
HETATM   12  C   UNL     1     -10.609   7.459  71.726  1.00  0.00    -0.228 A  
HETATM   13  C   UNL     1     -10.473   6.167  71.221  1.00  0.00    -0.274 A  
HETATM   14  C   UNL     1     -10.761   5.917  69.889  1.00  0.00    -0.406 A  
ENDBRANCH   3   9
BRANCH   7  15
HETATM   15  N   UNL     1     -10.191  10.487  68.543  1.00  0.00    -0.166 N  
HETATM   16  H   UNL     1     -10.637   9.570  68.532  1.00  0.00     0.000 HD 
HETATM   17  C   UNL     1      -9.185  10.724  67.638  1.00  0.00    -0.147 C  
HETATM   18  O   UNL     1      -8.556  11.774  67.591  1.00  0.00    -0.142 OA 
BRANCH  17  19
HETATM   19  C   UNL     1      -8.883   9.621  66.681  1.00  0.00    -0.153 A  
HETATM   20  N   UNL     1      -9.746   8.084  64.992  1.00  0.00     1.359 NA 
HETATM   21  C   UNL     1      -9.902   9.114  65.877  1.00  0.00    -0.235 A  
HETATM   22  C   UNL     1      -8.530   7.516  64.972  1.00  0.00     0.005 A  
HETATM   23  C   UNL     1      -8.138   6.394  64.051  1.00  0.00    -0.043 C  
HETATM   24  C   UNL     1      -6.759   5.963  64.598  1.00  0.00    -0.046 C  
HETATM   25  C   UNL     1      -6.300   6.996  65.657  1.00  0.00    -0.046 C  
HETATM   26  C   UNL     1      -5.702   5.915  63.465  1.00  0.00    -0.021 C  
HETATM   27  O   UNL     1      -5.356   6.841  62.755  1.00  0.00    -0.030 OA 
HETATM   28  C   UNL     1      -7.479   7.907  65.775  1.00  0.00    -0.078 A  
HETATM   29  N   UNL     1      -5.192   4.633  63.421  1.00  0.00    -0.009 N  
HETATM   30  C   UNL     1      -5.803   3.810  64.339  1.00  0.00    -0.014 A  
HETATM   31  C   UNL     1      -7.627   9.008  66.602  1.00  0.00    -0.089 A  
HETATM   32  H   UNL     1      -4.453   4.333  62.785  1.00  0.00     0.000 HD 
HETATM   33  N   UNL     1      -5.543   2.508  64.468  1.00  0.00    -0.009 NA 
HETATM   34  C   UNL     1      -6.298   1.876  65.397  1.00  0.00    -0.023 A  
HETATM   35  C   UNL     1      -7.269   2.501  66.183  1.00  0.00    -0.065 A  
HETATM   36  C   UNL     1      -7.499   3.869  66.021  1.00  0.00    -0.084 A  
HETATM   37  C   UNL     1      -6.739   4.529  65.072  1.00  0.00    -0.048 A  
ENDBRANCH  17  19
ENDBRANCH   7  15
BRANCH   6  38
HETATM   38  C   UNL     1      -7.610  10.917  71.654  1.00  0.00     5.753 C  
HETATM   39  F   UNL     1      -6.503   8.817  71.883  1.00  0.00    -0.064 F  
HETATM   40  F   UNL     1      -5.827  10.095  70.251  1.00  0.00    -0.043 F  
HETATM   41  C   UNL     1      -6.911   9.722  70.955  1.00  0.00     0.110 C  
HETATM   42  F   UNL     1      -7.739   9.040  70.118  1.00  0.00    -0.060 F  
ENDBRANCH   6  38
TORSDOF 4
ENDMDL
MODEL      150
REMARK 921   NORMALIZED FREE ENERGY PREDICTED BY IDOCK:   26.95 KCAL/MOL
REMARK 922        TOTAL FREE ENERGY PREDICTED BY IDOCK:   31.66 KCAL/MOL
REMARK 923 INTER-LIGAND FREE ENERGY PREDICTED BY IDOCK:   26.44 KCAL/MOL
REMARK 924 INTRA-LIGAND FREE ENERGY PREDICTED BY IDOCK:    5.22 KCAL/MOL
REMARK 927      BINDING AFFINITY PREDICTED BY RF-SCORE:    0.00 PKD
ROOT
HETATM    1  C   UNL     1     -12.431   5.212  67.617  1.00  0.00    10.319 C  
HETATM    2  C   UNL     1     -11.038   5.397  68.236  1.00  0.00     0.602 C  
HETATM    3  C   UNL     1     -11.133   5.779  69.741  1.00  0.00    -0.318 C  
HETATM    4  C   UNL     1      -9.711   5.775  70.336  1.00  0.00    -0.224 C  
HETATM    5  O   UNL     1      -7.840   6.661  67.293  1.00  0.00    -0.109 OA 
HETATM    6  N   UNL     1     -10.088   6.276  67.527  1.00  0.00    -0.139 N  
HETATM    7  C   UNL     1      -8.711   6.636  69.561  1.00  0.00    -0.135 C  
HETATM    8  C   UNL     1      -8.790   6.415  68.037  1.00  0.00    -0.113 C  
ENDROOT
BRANCH   3   9
HETATM    9  C   UNL     1     -11.935   7.037  70.068  1.00  0.00    -0.053 A  
HETATM   10  C   UNL     1     -12.422   9.383  69.621  1.00  0.00     1.229 A  
HETATM   11  C   UNL     1     -11.749   8.197  69.303  1.00  0.00     1.077 A  
HETATM   12  C   UNL     1     -12.838   7.113  71.138  1.00  0.00    -0.340 A  
HETATM   13  C   UNL     1     -13.502   8.295  71.467  1.00  0.00    -0.320 A  
HETATM   14  C   UNL     1     -13.296   9.433  70.706  1.00  0.00     0.052 A  
ENDBRANCH   3   9
BRANCH   7  15
HETATM   15  N   UNL     1      -8.912   8.076  69.741  1.00  0.00    -0.144 N  
HETATM   16  H   UNL     1      -9.038   8.426  70.691  1.00  0.00     0.000 HD 
HETATM   17  C   UNL     1      -8.942   8.985  68.711  1.00  0.00    -0.137 C  
HETATM   18  O   UNL     1      -8.840   8.669  67.532  1.00  0.00    -0.133 OA 
BRANCH  17  19
HETATM   19  C   UNL     1      -9.098  10.417  69.096  1.00  0.00    -0.197 A  
HETATM   20  N   UNL     1      -7.990  12.502  69.717  1.00  0.00     1.433 NA 
HETATM   21  C   UNL     1      -7.963  11.193  69.327  1.00  0.00     0.025 A  
HETATM   22  C   UNL     1      -9.211  13.015  69.938  1.00  0.00     2.876 A  
HETATM   23  C   UNL     1      -9.465  14.442  70.340  1.00  0.00     1.816 C  
HETATM   24  C   UNL     1     -10.968  14.438  70.698  1.00  0.00     0.297 C  
HETATM   25  C   UNL     1     -11.578  13.081  70.267  1.00  0.00    -0.060 C  
HETATM   26  C   UNL     1     -11.719  15.573  69.955  1.00  0.00    -0.346 C  
HETATM   27  O   UNL     1     -11.800  15.723  68.750  1.00  0.00    -0.387 OA 
HETATM   28  C   UNL     1     -10.386  12.308  69.799  1.00  0.00     1.077 A  
HETATM   29  N   UNL     1     -12.314  16.376  70.907  1.00  0.00    -0.290 N  
HETATM   30  C   UNL     1     -12.019  15.956  72.184  1.00  0.00    -0.518 A  
HETATM   31  C   UNL     1     -10.346  11.010  69.318  1.00  0.00    -0.181 A  
HETATM   32  H   UNL     1     -12.900  17.182  70.691  1.00  0.00     0.000 HD 
HETATM   33  N   UNL     1     -12.416  16.584  73.291  1.00  0.00    -0.362 NA 
HETATM   34  C   UNL     1     -11.969  16.030  74.442  1.00  0.00    -0.110 A  
HETATM   35  C   UNL     1     -11.165  14.889  74.507  1.00  0.00     2.693 A  
HETATM   36  C   UNL     1     -10.784  14.257  73.322  1.00  0.00     4.141 A  
HETATM   37  C   UNL     1     -11.229  14.813  72.137  1.00  0.00     0.370 A  
ENDBRANCH  17  19
ENDBRANCH   7  15
BRANCH   6  38
HETATM   38  C   UNL     1     -10.294   6.771  66.148  1.00  0.00     0.480 C  
HETATM   39  F   UNL     1      -8.782   6.279  64.370  1.00  0.00    -0.014 F  
HETATM   40  F   UNL     1     -10.819   5.533  64.144  1.00  0.00     1.735 F  
HETATM   41  C   UNL     1      -9.849   5.776  65.045  1.00  0.00     0.989 C  
HETATM   42  F   UNL     1      -9.434   4.581  65.546  1.00  0.00    -0.139 F  
ENDBRANCH   6  38
TORSDOF 4
ENDMDL
MODEL      151
REMARK 921   NORMALIZED FREE ENERGY PREDICTED BY IDOCK:   26.98 KCAL/MOL
REMARK 922        TOTAL FREE ENERGY PREDICTED BY IDOCK:   31.69 KCAL/MOL
REMARK 923 INTER-LIGAND FREE ENERGY PREDICTED BY IDOCK:   26.30 KCAL/MOL
REMARK 924 INTRA-LIGAND FREE ENERGY PREDICTED BY IDOCK:    5.39 KCAL/MOL
REMARK 927      BINDING AFFINITY PREDICTED BY RF-SCORE:    0.00 PKD
ROOT
HETATM    1  C   UNL     1     -12.711   9.065  70.509  1.00  0.00     0.406 C  
HETATM    2  C   UNL     1     -11.215   9.169  70.837  1.00  0.00    -0.295 C  
HETATM    3  C   UNL     1     -10.963  10.137  72.030  1.00  0.00     1.879 C  
HETATM    4  C   UNL     1      -9.472  10.058  72.415  1.00  0.00     5.276 C  
HETATM    5  O   UNL     1      -8.096   9.203  69.111  1.00  0.00    -0.100 OA 
HETATM    6  N   UNL     1     -10.291   9.454  69.723  1.00  0.00    -0.209 N  
HETATM    7  C   UNL     1      -8.515  10.288  71.244  1.00  0.00     2.935 C  
HETATM    8  C   UNL     1      -8.914   9.495  69.983  1.00  0.00    -0.223 C  
ENDROOT
BRANCH   3   9
HETATM    9  C   UNL     1     -11.482  11.564  71.862  1.00  0.00     3.533 A  
HETATM   10  C   UNL     1     -11.938  13.467  70.409  1.00  0.00    -0.358 A  
HETATM   11  C   UNL     1     -11.528  12.140  70.585  1.00  0.00     0.660 A  
HETATM   12  C   UNL     1     -11.887  12.364  72.940  1.00  0.00     6.057 A  
HETATM   13  C   UNL     1     -12.283  13.690  72.773  1.00  0.00     0.705 A  
HETATM   14  C   UNL     1     -12.311  14.243  71.504  1.00  0.00    -0.417 A  
ENDBRANCH   3   9
BRANCH   7  15
HETATM   15  N   UNL     1      -8.450  11.683  70.803  1.00  0.00     5.063 N  
HETATM   16  H   UNL     1      -9.329  12.169  70.621  1.00  0.00     0.000 HD 
HETATM   17  C   UNL     1      -7.280  12.380  70.617  1.00  0.00     3.154 C  
HETATM   18  O   UNL     1      -6.171  11.883  70.768  1.00  0.00    -0.261 OA 
BRANCH  17  19
HETATM   19  C   UNL     1      -7.418  13.811  70.222  1.00  0.00     1.353 A  
HETATM   20  N   UNL     1      -8.921  15.611  69.542  1.00  0.00    -0.270 NA 
HETATM   21  C   UNL     1      -8.683  14.327  69.945  1.00  0.00     1.137 A  
HETATM   22  C   UNL     1      -7.830  16.371  69.357  1.00  0.00    -0.047 A  
HETATM   23  C   UNL     1      -7.871  17.818  68.949  1.00  0.00    -0.186 C  
HETATM   24  C   UNL     1      -6.390  18.133  68.642  1.00  0.00    -0.209 C  
HETATM   25  C   UNL     1      -5.521  16.938  69.108  1.00  0.00    -0.139 C  
HETATM   26  C   UNL     1      -5.924  19.404  69.398  1.00  0.00    -0.263 C  
HETATM   27  O   UNL     1      -5.920  19.572  70.603  1.00  0.00    -0.231 OA 
HETATM   28  C   UNL     1      -6.537  15.931  69.543  1.00  0.00    -0.191 A  
HETATM   29  N   UNL     1      -5.480  20.312  68.457  1.00  0.00    -0.229 N  
HETATM   30  C   UNL     1      -5.634  19.835  67.176  1.00  0.00    -0.170 A  
HETATM   31  C   UNL     1      -6.317  14.655  70.036  1.00  0.00    -0.165 A  
HETATM   32  H   UNL     1      -5.086  21.225  68.685  1.00  0.00     0.000 HD 
HETATM   33  N   UNL     1      -5.340  20.530  66.076  1.00  0.00    -0.175 NA 
HETATM   34  C   UNL     1      -5.619  19.890  64.917  1.00  0.00    -0.180 A  
HETATM   35  C   UNL     1      -6.158  18.603  64.837  1.00  0.00    -0.216 A  
HETATM   36  C   UNL     1      -6.439  17.908  66.015  1.00  0.00    -0.299 A  
HETATM   37  C   UNL     1      -6.164  18.550  67.209  1.00  0.00    -0.181 A  
ENDBRANCH  17  19
ENDBRANCH   7  15
BRANCH   6  38
HETATM   38  C   UNL     1     -10.674   9.382  68.295  1.00  0.00    -0.171 C  
HETATM   39  F   UNL     1      -9.287  10.233  66.551  1.00  0.00    -0.170 F  
HETATM   40  F   UNL     1      -9.688   8.090  66.512  1.00  0.00    -0.240 F  
HETATM   41  C   UNL     1      -9.485   9.138  67.332  1.00  0.00    -0.143 C  
HETATM   42  F   UNL     1      -8.307   8.937  67.984  1.00  0.00    -0.116 F  
ENDBRANCH   6  38
TORSDOF 4
ENDMDL
MODEL      152
REMARK 921   NORMALIZED FREE ENERGY PREDICTED BY IDOCK:   30.11 KCAL/MOL
REMARK 922        TOTAL FREE ENERGY PREDICTED BY IDOCK:   35.55 KCAL/MOL
REMARK 923 INTER-LIGAND FREE ENERGY PREDICTED BY IDOCK:   31.62 KCAL/MOL
REMARK 924 INTRA-LIGAND FREE ENERGY PREDICTED BY IDOCK:    3.93 KCAL/MOL
REMARK 927      BINDING AFFINITY PREDICTED BY RF-SCORE:    0.00 PKD
ROOT
HETATM    1  C   UNL     1     -10.376  18.999  64.005  1.00  0.00     8.488 C  
HETATM    2  C   UNL     1     -11.121  18.643  65.299  1.00  0.00     0.931 C  
HETATM    3  C   UNL     1     -10.286  19.024  66.557  1.00  0.00    -0.512 C  
HETATM    4  C   UNL     1     -11.161  18.804  67.807  1.00  0.00     0.226 C  
HETATM    5  O   UNL     1     -13.284  16.086  66.523  1.00  0.00     3.774 OA 
HETATM    6  N   UNL     1     -11.664  17.277  65.420  1.00  0.00     1.587 N  
HETATM    7  C   UNL     1     -11.777  17.406  67.897  1.00  0.00     1.142 C  
HETATM    8  C   UNL     1     -12.401  16.943  66.565  1.00  0.00     3.882 C  
ENDROOT
BRANCH   3   9
HETATM    9  C   UNL     1      -8.896  18.398  66.658  1.00  0.00    -0.297 A  
HETATM   10  C   UNL     1      -7.366  16.872  67.784  1.00  0.00    -0.169 A  
HETATM   11  C   UNL     1      -8.647  17.416  67.626  1.00  0.00    -0.217 A  
HETATM   12  C   UNL     1      -7.821  18.785  65.846  1.00  0.00    -0.101 A  
HETATM   13  C   UNL     1      -6.541  18.257  66.007  1.00  0.00    -0.290 A  
HETATM   14  C   UNL     1      -6.312  17.296  66.977  1.00  0.00    -0.209 A  
ENDBRANCH   3   9
BRANCH   7  15
HETATM   15  N   UNL     1     -10.811  16.360  68.241  1.00  0.00    -0.334 N  
HETATM   16  H   UNL     1     -10.025  16.207  67.609  1.00  0.00     0.000 HD 
HETATM   17  C   UNL     1     -10.897  15.569  69.362  1.00  0.00    -0.261 C  
HETATM   18  O   UNL     1     -11.818  15.641  70.166  1.00  0.00    -0.320 OA 
BRANCH  17  19
HETATM   19  C   UNL     1      -9.787  14.598  69.573  1.00  0.00     0.072 A  
HETATM   20  N   UNL     1      -7.428  14.076  69.219  1.00  0.00    -0.009 NA 
HETATM   21  C   UNL     1      -8.508  14.906  69.110  1.00  0.00    -0.152 A  
HETATM   22  C   UNL     1      -7.674  12.873  69.761  1.00  0.00     1.381 A  
HETATM   23  C   UNL     1      -6.621  11.826  70.001  1.00  0.00     0.071 C  
HETATM   24  C   UNL     1      -7.451  10.584  70.394  1.00  0.00     0.482 C  
HETATM   25  C   UNL     1      -8.926  11.016  70.595  1.00  0.00     3.607 C  
HETATM   26  C   UNL     1      -6.934   9.965  71.717  1.00  0.00     1.132 C  
HETATM   27  O   UNL     1      -6.872  10.515  72.801  1.00  0.00     2.518 OA 
HETATM   28  C   UNL     1      -8.915  12.454  70.188  1.00  0.00     4.180 A  
HETATM   29  N   UNL     1      -6.582   8.656  71.459  1.00  0.00    -0.070 N  
HETATM   30  C   UNL     1      -6.749   8.336  70.131  1.00  0.00    -0.036 A  
HETATM   31  C   UNL     1      -9.981  13.338  70.153  1.00  0.00     2.677 A  
HETATM   32  H   UNL     1      -6.239   8.005  72.165  1.00  0.00     0.000 HD 
HETATM   33  N   UNL     1      -6.429   7.156  69.597  1.00  0.00    -0.039 NA 
HETATM   34  C   UNL     1      -6.625   7.074  68.261  1.00  0.00    -0.059 A  
HETATM   35  C   UNL     1      -7.129   8.111  67.473  1.00  0.00    -0.083 A  
HETATM   36  C   UNL     1      -7.461   9.325  68.076  1.00  0.00    -0.083 A  
HETATM   37  C   UNL     1      -7.263   9.428  69.441  1.00  0.00    -0.066 A  
ENDBRANCH  17  19
ENDBRANCH   7  15
BRANCH   6  38
HETATM   38  C   UNL     1     -11.767  16.327  64.290  1.00  0.00     0.121 C  
HETATM   39  F   UNL     1     -10.417  14.366  64.134  1.00  0.00    -0.217 F  
HETATM   40  F   UNL     1     -12.571  14.053  64.274  1.00  0.00    -0.402 F  
HETATM   41  C   UNL     1     -11.564  14.843  64.688  1.00  0.00    -0.395 C  
HETATM   42  F   UNL     1     -11.420  14.670  66.031  1.00  0.00    -0.330 F  
ENDBRANCH   6  38
TORSDOF 4
ENDMDL
MODEL      153
REMARK 921   NORMALIZED FREE ENERGY PREDICTED BY IDOCK:   31.19 KCAL/MOL
REMARK 922        TOTAL FREE ENERGY PREDICTED BY IDOCK:   36.89 KCAL/MOL
REMARK 923 INTER-LIGAND FREE ENERGY PREDICTED BY IDOCK:   34.34 KCAL/MOL
REMARK 924 INTRA-LIGAND FREE ENERGY PREDICTED BY IDOCK:    2.55 KCAL/MOL
REMARK 927      BINDING AFFINITY PREDICTED BY RF-SCORE:    0.00 PKD
ROOT
HETATM    1  C   UNL     1     -13.056   4.897  67.407  1.00  0.00    18.275 C  
HETATM    2  C   UNL     1     -11.655   4.689  68.001  1.00  0.00     5.650 C  
HETATM    3  C   UNL     1     -11.626   5.037  69.517  1.00  0.00     3.685 C  
HETATM    4  C   UNL     1     -10.247   4.640  70.081  1.00  0.00    -0.197 C  
HETATM    5  O   UNL     1      -8.251   5.093  67.024  1.00  0.00    -0.107 OA 
HETATM    6  N   UNL     1     -10.517   5.308  67.295  1.00  0.00    -0.200 N  
HETATM    7  C   UNL     1      -9.066   5.230  69.308  1.00  0.00    -0.108 C  
HETATM    8  C   UNL     1      -9.221   5.084  67.781  1.00  0.00    -0.118 C  
ENDROOT
BRANCH   3   9
HETATM    9  C   UNL     1     -12.062   6.452  69.893  1.00  0.00     0.320 A  
HETATM   10  C   UNL     1     -12.107   8.834  69.378  1.00  0.00     1.598 A  
HETATM   11  C   UNL     1     -11.777   7.519  69.029  1.00  0.00     0.974 A  
HETATM   12  C   UNL     1     -12.711   6.759  71.098  1.00  0.00    -0.254 A  
HETATM   13  C   UNL     1     -13.031   8.068  71.456  1.00  0.00    -0.326 A  
HETATM   14  C   UNL     1     -12.730   9.109  70.594  1.00  0.00     0.183 A  
ENDBRANCH   3   9
BRANCH   7  15
HETATM   15  N   UNL     1      -8.877   6.665  69.529  1.00  0.00    -0.138 N  
HETATM   16  H   UNL     1      -9.082   7.038  70.457  1.00  0.00     0.000 HD 
HETATM   17  C   UNL     1      -8.440   7.543  68.566  1.00  0.00    -0.129 C  
HETATM   18  O   UNL     1      -8.203   7.210  67.411  1.00  0.00    -0.114 OA 
BRANCH  17  19
HETATM   19  C   UNL     1      -8.252   8.958  68.996  1.00  0.00    -0.116 A  
HETATM   20  N   UNL     1      -8.552  10.617  70.762  1.00  0.00     1.666 NA 
HETATM   21  C   UNL     1      -8.646   9.344  70.276  1.00  0.00    -0.221 A  
HETATM   22  C   UNL     1      -8.100  11.536  69.893  1.00  0.00     1.478 A  
HETATM   23  C   UNL     1      -7.889  12.985  70.233  1.00  0.00     3.159 C  
HETATM   24  C   UNL     1      -7.610  13.627  68.856  1.00  0.00    -0.016 C  
HETATM   25  C   UNL     1      -7.435  12.499  67.809  1.00  0.00    -0.130 C  
HETATM   26  C   UNL     1      -6.311  14.473  68.890  1.00  0.00    -0.089 C  
HETATM   27  O   UNL     1      -5.192  14.076  69.157  1.00  0.00    -0.074 OA 
HETATM   28  C   UNL     1      -7.747  11.262  68.589  1.00  0.00    -0.136 A  
HETATM   29  N   UNL     1      -6.642  15.764  68.530  1.00  0.00    -0.112 N  
HETATM   30  C   UNL     1      -7.993  15.901  68.309  1.00  0.00    -0.139 A  
HETATM   31  C   UNL     1      -7.764   9.952  68.140  1.00  0.00    -0.082 A  
HETATM   32  H   UNL     1      -5.967  16.523  68.439  1.00  0.00     0.000 HD 
HETATM   33  N   UNL     1      -8.590  17.055  68.005  1.00  0.00    -0.212 NA 
HETATM   34  C   UNL     1      -9.935  16.974  67.883  1.00  0.00    -0.281 A  
HETATM   35  C   UNL     1     -10.672  15.798  68.042  1.00  0.00    -0.296 A  
HETATM   36  C   UNL     1     -10.004  14.611  68.348  1.00  0.00    -0.227 A  
HETATM   37  C   UNL     1      -8.628  14.677  68.481  1.00  0.00    -0.170 A  
ENDBRANCH  17  19
ENDBRANCH   7  15
BRANCH   6  38
HETATM   38  C   UNL     1     -10.604   5.881  65.933  1.00  0.00     0.485 C  
HETATM   39  F   UNL     1      -9.366   5.004  64.092  1.00  0.00    -0.090 F  
HETATM   40  F   UNL     1     -11.539   4.918  63.929  1.00  0.00     0.660 F  
HETATM   41  C   UNL     1     -10.515   4.830  64.797  1.00  0.00     0.317 C  
HETATM   42  F   UNL     1     -10.468   3.551  65.261  1.00  0.00    -0.021 F  
ENDBRANCH   6  38
TORSDOF 4
ENDMDL
MODEL      154
REMARK 921   NORMALIZED FREE ENERGY PREDICTED BY IDOCK:   32.33 KCAL/MOL
REMARK 922        TOTAL FREE ENERGY PREDICTED BY IDOCK:   38.30 KCAL/MOL
REMARK 923 INTER-LIGAND FREE ENERGY PREDICTED BY IDOCK:   28.92 KCAL/MOL
REMARK 924 INTRA-LIGAND FREE ENERGY PREDICTED BY IDOCK:    9.38 KCAL/MOL
REMARK 927      BINDING AFFINITY PREDICTED BY RF-SCORE:    0.00 PKD
ROOT
HETATM    1  C   UNL     1     -10.969   5.326  67.088  1.00  0.00     0.227 C  
HETATM    2  C   UNL     1      -9.550   5.417  66.506  1.00  0.00    -0.156 C  
HETATM    3  C   UNL     1      -8.492   5.634  67.627  1.00  0.00    -0.102 C  
HETATM    4  C   UNL     1      -7.089   5.539  66.996  1.00  0.00    -0.070 C  
HETATM    5  O   UNL     1      -7.926   6.719  63.612  1.00  0.00    -0.120 OA 
HETATM    6  N   UNL     1      -9.331   6.351  65.386  1.00  0.00     0.310 N  
HETATM    7  C   UNL     1      -6.885   6.461  65.792  1.00  0.00    -0.053 C  
HETATM    8  C   UNL     1      -8.061   6.410  64.796  1.00  0.00    -0.114 C  
ENDROOT
BRANCH   3   9
HETATM    9  C   UNL     1      -8.689   6.863  68.512  1.00  0.00    -0.125 A  
HETATM   10  C   UNL     1      -9.840   8.968  68.943  1.00  0.00    -0.181 A  
HETATM   11  C   UNL     1      -9.680   7.800  68.187  1.00  0.00    -0.171 A  
HETATM   12  C   UNL     1      -7.893   7.135  69.633  1.00  0.00    -0.118 A  
HETATM   13  C   UNL     1      -8.038   8.302  70.382  1.00  0.00    -0.108 A  
HETATM   14  C   UNL     1      -9.015   9.221  70.038  1.00  0.00    -0.216 A  
ENDBRANCH   3   9
BRANCH   7  15
HETATM   15  N   UNL     1      -6.760   7.876  66.150  1.00  0.00    -0.053 N  
HETATM   16  H   UNL     1      -6.472   8.105  67.102  1.00  0.00     0.000 HD 
HETATM   17  C   UNL     1      -7.007   8.915  65.285  1.00  0.00    -0.076 C  
HETATM   18  O   UNL     1      -7.395   8.755  64.135  1.00  0.00    -0.096 OA 
BRANCH  17  19
HETATM   19  C   UNL     1      -6.768  10.288  65.815  1.00  0.00    -0.120 A  
HETATM   20  N   UNL     1      -5.144  11.897  66.673  1.00  0.00    -0.309 NA 
HETATM   21  C   UNL     1      -5.472  10.679  66.149  1.00  0.00    -0.094 A  
HETATM   22  C   UNL     1      -6.178  12.717  66.922  1.00  0.00     0.571 A  
HETATM   23  C   UNL     1      -6.035  14.112  67.465  1.00  0.00     0.076 C  
HETATM   24  C   UNL     1      -7.492  14.509  67.790  1.00  0.00    -0.182 C  
HETATM   25  C   UNL     1      -8.441  13.431  67.207  1.00  0.00    -0.205 C  
HETATM   26  C   UNL     1      -7.851  15.877  67.155  1.00  0.00    -0.214 C  
HETATM   27  O   UNL     1      -7.825  16.157  65.971  1.00  0.00    -0.015 OA 
HETATM   28  C   UNL     1      -7.497  12.396  66.686  1.00  0.00     0.324 A  
HETATM   29  N   UNL     1      -8.239  16.723  68.174  1.00  0.00    -0.193 N  
HETATM   30  C   UNL     1      -8.139  16.117  69.406  1.00  0.00    -0.097 A  
HETATM   31  C   UNL     1      -7.805  11.192  66.072  1.00  0.00    -0.020 A  
HETATM   32  H   UNL     1      -8.560  17.680  68.031  1.00  0.00     0.000 HD 
HETATM   33  N   UNL     1      -8.396  16.727  70.564  1.00  0.00     3.085 NA 
HETATM   34  C   UNL     1      -8.182  15.961  71.659  1.00  0.00     6.634 A  
HETATM   35  C   UNL     1      -7.742  14.636  71.620  1.00  0.00     3.735 A  
HETATM   36  C   UNL     1      -7.497  14.035  70.385  1.00  0.00     1.254 A  
HETATM   37  C   UNL     1      -7.707  14.805  69.255  1.00  0.00    -0.129 A  
ENDBRANCH  17  19
ENDBRANCH   7  15
BRANCH   6  38
HETATM   38  C   UNL     1     -10.425   6.997  64.625  1.00  0.00     6.438 C  
HETATM   39  F   UNL     1     -10.549   9.359  64.314  1.00  0.00     1.210 F  
HETATM   40  F   UNL     1     -10.337   8.153  62.510  1.00  0.00     3.662 F  
HETATM   41  C   UNL     1      -9.979   8.235  63.804  1.00  0.00     4.873 C  
HETATM   42  F   UNL     1      -8.637   8.450  63.856  1.00  0.00    -0.145 F  
ENDBRANCH   6  38
TORSDOF 4
ENDMDL
MODEL      155
REMARK 921   NORMALIZED FREE ENERGY PREDICTED BY IDOCK:   34.89 KCAL/MOL
REMARK 922        TOTAL FREE ENERGY PREDICTED BY IDOCK:   41.45 KCAL/MOL
REMARK 923 INTER-LIGAND FREE ENERGY PREDICTED BY IDOCK:   42.46 KCAL/MOL
REMARK 924 INTRA-LIGAND FREE ENERGY PREDICTED BY IDOCK:   -1.01 KCAL/MOL
REMARK 927      BINDING AFFINITY PREDICTED BY RF-SCORE:    0.00 PKD
ROOT
HETATM    1  C   UNL     1     -14.291  14.360  69.413  1.00  0.00     6.898 C  
HETATM    2  C   UNL     1     -12.831  14.662  69.043  1.00  0.00     0.769 C  
HETATM    3  C   UNL     1     -12.618  14.622  67.502  1.00  0.00     0.637 C  
HETATM    4  C   UNL     1     -11.186  15.103  67.195  1.00  0.00    -0.320 C  
HETATM    5  O   UNL     1      -9.564  14.025  70.317  1.00  0.00     1.637 OA 
HETATM    6  N   UNL     1     -11.779  13.900  69.741  1.00  0.00    -0.298 N  
HETATM    7  C   UNL     1     -10.100  14.355  67.971  1.00  0.00    -0.232 C  
HETATM    8  C   UNL     1     -10.437  14.198  69.467  1.00  0.00     0.115 C  
ENDROOT
BRANCH   3   9
HETATM    9  C   UNL     1     -12.993  13.315  66.803  1.00  0.00     1.330 A  
HETATM   10  C   UNL     1     -13.464  10.929  66.944  1.00  0.00    12.676 A  
HETATM   11  C   UNL     1     -13.184  12.153  67.562  1.00  0.00     5.430 A  
HETATM   12  C   UNL     1     -13.120  13.200  65.412  1.00  0.00     0.140 A  
HETATM   13  C   UNL     1     -13.385  11.982  64.789  1.00  0.00     1.465 A  
HETATM   14  C   UNL     1     -13.560  10.842  65.556  1.00  0.00    10.805 A  
ENDBRANCH   3   9
BRANCH   7  15
HETATM   15  N   UNL     1      -9.871  12.989  67.493  1.00  0.00    -0.205 N  
HETATM   16  H   UNL     1     -10.444  12.243  67.887  1.00  0.00     0.000 HD 
HETATM   17  C   UNL     1      -8.933  12.650  66.547  1.00  0.00    -0.112 C  
HETATM   18  O   UNL     1      -8.168  13.460  66.039  1.00  0.00     1.079 OA 
BRANCH  17  19
HETATM   19  C   UNL     1      -8.888  11.215  66.145  1.00  0.00    -0.195 A  
HETATM   20  N   UNL     1     -10.154   9.181  65.674  1.00  0.00    -0.006 NA 
HETATM   21  C   UNL     1     -10.080  10.505  66.004  1.00  0.00    -0.256 A  
HETATM   22  C   UNL     1      -8.977   8.550  65.546  1.00  0.00    -0.132 A  
HETATM   23  C   UNL     1      -8.834   7.104  65.156  1.00  0.00     0.233 C  
HETATM   24  C   UNL     1      -7.333   6.828  65.394  1.00  0.00    -0.080 C  
HETATM   25  C   UNL     1      -6.620   8.173  65.683  1.00  0.00    -0.049 C  
HETATM   26  C   UNL     1      -6.681   6.184  64.144  1.00  0.00    -0.038 C  
HETATM   27  O   UNL     1      -6.622   6.664  63.027  1.00  0.00    -0.037 OA 
HETATM   28  C   UNL     1      -7.750   9.151  65.729  1.00  0.00    -0.094 A  
HETATM   29  N   UNL     1      -6.144   4.972  64.528  1.00  0.00    -0.022 N  
HETATM   30  C   UNL     1      -6.394   4.701  65.854  1.00  0.00    -0.036 A  
HETATM   31  C   UNL     1      -7.690  10.513  65.976  1.00  0.00    -0.147 A  
HETATM   32  H   UNL     1      -5.626   4.353  63.905  1.00  0.00     0.000 HD 
HETATM   33  N   UNL     1      -6.040   3.571  66.468  1.00  0.00    -0.024 NA 
HETATM   34  C   UNL     1      -6.433   3.490  67.760  1.00  0.00    -0.037 A  
HETATM   35  C   UNL     1      -7.142   4.488  68.433  1.00  0.00    -0.056 A  
HETATM   36  C   UNL     1      -7.481   5.658  67.753  1.00  0.00    -0.077 A  
HETATM   37  C   UNL     1      -7.091   5.756  66.430  1.00  0.00    -0.072 A  
ENDBRANCH  17  19
ENDBRANCH   7  15
BRANCH   6  38
HETATM   38  C   UNL     1     -12.022  13.069  70.942  1.00  0.00     0.085 C  
HETATM   39  F   UNL     1     -11.168  13.645  73.094  1.00  0.00     2.335 F  
HETATM   40  F   UNL     1     -13.338  13.567  72.902  1.00  0.00    -0.588 F  
HETATM   41  C   UNL     1     -12.206  13.884  72.249  1.00  0.00     0.263 C  
HETATM   42  F   UNL     1     -12.205  15.228  72.039  1.00  0.00    -0.329 F  
ENDBRANCH   6  38
TORSDOF 4
ENDMDL
MODEL      156
REMARK 921   NORMALIZED FREE ENERGY PREDICTED BY IDOCK:   38.43 KCAL/MOL
REMARK 922        TOTAL FREE ENERGY PREDICTED BY IDOCK:   45.82 KCAL/MOL
REMARK 923 INTER-LIGAND FREE ENERGY PREDICTED BY IDOCK:   43.39 KCAL/MOL
REMARK 924 INTRA-LIGAND FREE ENERGY PREDICTED BY IDOCK:    2.43 KCAL/MOL
REMARK 927      BINDING AFFINITY PREDICTED BY RF-SCORE:    0.00 PKD
ROOT
HETATM    1  C   UNL     1      -9.888  16.625  73.481  1.00  0.00    11.247 C  
HETATM    2  C   UNL     1     -10.195  17.255  72.115  1.00  0.00     5.826 C  
HETATM    3  C   UNL     1     -11.643  16.922  71.651  1.00  0.00     0.505 C  
HETATM    4  C   UNL     1     -11.940  17.726  70.369  1.00  0.00     5.946 C  
HETATM    5  O   UNL     1      -8.512  17.941  69.048  1.00  0.00    -0.161 OA 
HETATM    6  N   UNL     1      -9.226  17.028  71.026  1.00  0.00     4.953 N  
HETATM    7  C   UNL     1     -10.898  17.540  69.264  1.00  0.00     0.309 C  
HETATM    8  C   UNL     1      -9.451  17.641  69.786  1.00  0.00     0.916 C  
ENDROOT
BRANCH   3   9
HETATM    9  C   UNL     1     -11.993  15.439  71.544  1.00  0.00    -0.443 A  
HETATM   10  C   UNL     1     -13.662  13.668  71.680  1.00  0.00    -0.324 A  
HETATM   11  C   UNL     1     -13.322  15.026  71.708  1.00  0.00    -0.478 A  
HETATM   12  C   UNL     1     -11.034  14.439  71.327  1.00  0.00     0.951 A  
HETATM   13  C   UNL     1     -11.363  13.085  71.311  1.00  0.00     2.426 A  
HETATM   14  C   UNL     1     -12.681  12.697  71.486  1.00  0.00    -0.326 A  
ENDBRANCH   3   9
BRANCH   7  15
HETATM   15  N   UNL     1     -10.967  16.233  68.605  1.00  0.00    -0.322 N  
HETATM   16  H   UNL     1     -11.621  15.544  68.976  1.00  0.00     0.000 HD 
HETATM   17  C   UNL     1     -10.206  15.877  67.517  1.00  0.00    -0.269 C  
HETATM   18  O   UNL     1      -9.364  16.612  67.016  1.00  0.00    -0.216 OA 
BRANCH  17  19
HETATM   19  C   UNL     1     -10.459  14.523  66.947  1.00  0.00    -0.269 A  
HETATM   20  N   UNL     1     -12.009  12.648  66.737  1.00  0.00    -0.519 NA 
HETATM   21  C   UNL     1     -11.684  13.899  67.180  1.00  0.00    -0.388 A  
HETATM   22  C   UNL     1     -11.034  11.992  66.089  1.00  0.00    -0.302 A  
HETATM   23  C   UNL     1     -11.193  10.621  65.491  1.00  0.00     0.452 C  
HETATM   24  C   UNL     1      -9.747  10.243  65.102  1.00  0.00    -0.364 C  
HETATM   25  C   UNL     1      -8.845  11.492  65.268  1.00  0.00     0.139 C  
HETATM   26  C   UNL     1      -9.673   9.775  63.625  1.00  0.00     0.409 C  
HETATM   27  O   UNL     1      -9.984  10.422  62.642  1.00  0.00    -0.173 OA 
HETATM   28  C   UNL     1      -9.772  12.501  65.867  1.00  0.00    -0.226 A  
HETATM   29  N   UNL     1      -9.158   8.494  63.616  1.00  0.00     0.032 N  
HETATM   30  C   UNL     1      -8.926   8.030  64.891  1.00  0.00     0.384 A  
HETATM   31  C   UNL     1      -9.487  13.803  66.245  1.00  0.00    -0.221 A  
HETATM   32  H   UNL     1      -8.973   7.958  62.769  1.00  0.00     0.000 HD 
HETATM   33  N   UNL     1      -8.486   6.803  65.173  1.00  0.00    -0.082 NA 
HETATM   34  C   UNL     1      -8.378   6.536  66.495  1.00  0.00    -0.116 A  
HETATM   35  C   UNL     1      -8.682   7.447  67.510  1.00  0.00    -0.124 A  
HETATM   36  C   UNL     1      -9.129   8.724  67.168  1.00  0.00    -0.155 A  
HETATM   37  C   UNL     1      -9.249   9.012  65.820  1.00  0.00    -0.293 A  
ENDBRANCH  17  19
ENDBRANCH   7  15
BRANCH   6  38
HETATM   38  C   UNL     1      -7.872  16.467  71.230  1.00  0.00     5.900 C  
HETATM   39  F   UNL     1      -7.425  14.742  72.817  1.00  0.00     2.184 F  
HETATM   40  F   UNL     1      -7.042  14.258  70.725  1.00  0.00     0.118 F  
HETATM   41  C   UNL     1      -7.857  14.949  71.544  1.00  0.00     3.611 C  
HETATM   42  F   UNL     1      -9.092  14.382  71.482  1.00  0.00     2.855 F  
ENDBRANCH   6  38
TORSDOF 4
ENDMDL
MODEL      157
REMARK 921   NORMALIZED FREE ENERGY PREDICTED BY IDOCK:   39.01 KCAL/MOL
REMARK 922        TOTAL FREE ENERGY PREDICTED BY IDOCK:   46.54 KCAL/MOL
REMARK 923 INTER-LIGAND FREE ENERGY PREDICTED BY IDOCK:   44.46 KCAL/MOL
REMARK 924 INTRA-LIGAND FREE ENERGY PREDICTED BY IDOCK:    2.08 KCAL/MOL
REMARK 927      BINDING AFFINITY PREDICTED BY RF-SCORE:    0.00 PKD
ROOT
HETATM    1  C   UNL     1      -9.812   8.917  74.266  1.00  0.00     4.994 C  
HETATM    2  C   UNL     1     -10.279   9.910  73.192  1.00  0.00     6.989 C  
HETATM    3  C   UNL     1     -11.512   9.365  72.415  1.00  0.00     0.470 C  
HETATM    4  C   UNL     1     -12.031  10.477  71.482  1.00  0.00    -0.231 C  
HETATM    5  O   UNL     1      -8.849  12.229  70.893  1.00  0.00     7.272 OA 
HETATM    6  N   UNL     1      -9.262  10.438  72.263  1.00  0.00     6.854 N  
HETATM    7  C   UNL     1     -10.959  11.070  70.566  1.00  0.00     0.460 C  
HETATM    8  C   UNL     1      -9.649  11.392  71.312  1.00  0.00     8.372 C  
ENDROOT
BRANCH   3   9
HETATM    9  C   UNL     1     -11.331   8.014  71.723  1.00  0.00    -0.318 A  
HETATM   10  C   UNL     1      -9.908   6.106  71.201  1.00  0.00    -0.210 A  
HETATM   11  C   UNL     1     -10.126   7.314  71.875  1.00  0.00    -0.196 A  
HETATM   12  C   UNL     1     -12.306   7.441  70.895  1.00  0.00    -0.236 A  
HETATM   13  C   UNL     1     -12.089   6.246  70.210  1.00  0.00     0.211 A  
HETATM   14  C   UNL     1     -10.888   5.574  70.365  1.00  0.00    -0.274 A  
ENDBRANCH   3   9
BRANCH   7  15
HETATM   15  N   UNL     1     -10.559  10.177  69.475  1.00  0.00    -0.228 N  
HETATM   16  H   UNL     1     -10.937   9.230  69.470  1.00  0.00     0.000 HD 
HETATM   17  C   UNL     1      -9.706  10.536  68.459  1.00  0.00    -0.165 C  
HETATM   18  O   UNL     1      -9.166  11.633  68.390  1.00  0.00    -0.182 OA 
BRANCH  17  19
HETATM   19  C   UNL     1      -9.463   9.508  67.406  1.00  0.00    -0.164 A  
HETATM   20  N   UNL     1      -9.684   8.898  65.052  1.00  0.00     0.395 NA 
HETATM   21  C   UNL     1      -9.829   9.778  66.088  1.00  0.00    -0.263 A  
HETATM   22  C   UNL     1      -9.210   7.687  65.384  1.00  0.00     0.401 A  
HETATM   23  C   UNL     1      -8.945   6.586  64.394  1.00  0.00     0.792 C  
HETATM   24  C   UNL     1      -8.659   5.368  65.299  1.00  0.00    -0.151 C  
HETATM   25  C   UNL     1      -8.536   5.855  66.764  1.00  0.00    -0.113 C  
HETATM   26  C   UNL     1      -7.331   4.676  64.897  1.00  0.00    -0.071 C  
HETATM   27  O   UNL     1      -6.224   5.181  64.885  1.00  0.00    -0.031 OA 
HETATM   28  C   UNL     1      -8.882   7.307  66.667  1.00  0.00    -0.151 A  
HETATM   29  N   UNL     1      -7.620   3.363  64.582  1.00  0.00    -0.076 N  
HETATM   30  C   UNL     1      -8.969   3.103  64.673  1.00  0.00    -0.124 A  
HETATM   31  C   UNL     1      -8.950   8.238  67.691  1.00  0.00    -0.140 A  
HETATM   32  H   UNL     1      -6.921   2.672  64.315  1.00  0.00     0.000 HD 
HETATM   33  N   UNL     1      -9.529   1.931  64.367  1.00  0.00    -0.135 NA 
HETATM   34  C   UNL     1     -10.877   1.909  64.477  1.00  0.00     1.047 A  
HETATM   35  C   UNL     1     -11.653   2.998  64.884  1.00  0.00     3.394 A  
HETATM   36  C   UNL     1     -11.023   4.201  65.205  1.00  0.00     0.188 A  
HETATM   37  C   UNL     1      -9.644   4.242  65.095  1.00  0.00    -0.185 A  
ENDBRANCH  17  19
ENDBRANCH   7  15
BRANCH   6  38
HETATM   38  C   UNL     1      -7.804  10.283  72.463  1.00  0.00     5.908 C  
HETATM   39  F   UNL     1      -6.467   8.858  71.094  1.00  0.00    -0.042 F  
HETATM   40  F   UNL     1      -5.985  10.984  71.041  1.00  0.00    -0.105 F  
HETATM   41  C   UNL     1      -7.000  10.107  71.149  1.00  0.00     0.662 C  
HETATM   42  F   UNL     1      -7.773  10.223  70.035  1.00  0.00    -0.152 F  
ENDBRANCH   6  38
TORSDOF 4
ENDMDL
MODEL      158
REMARK 921   NORMALIZED FREE ENERGY PREDICTED BY IDOCK:   41.72 KCAL/MOL
REMARK 922        TOTAL FREE ENERGY PREDICTED BY IDOCK:   49.88 KCAL/MOL
REMARK 923 INTER-LIGAND FREE ENERGY PREDICTED BY IDOCK:   26.02 KCAL/MOL
REMARK 924 INTRA-LIGAND FREE ENERGY PREDICTED BY IDOCK:   23.86 KCAL/MOL
REMARK 927      BINDING AFFINITY PREDICTED BY RF-SCORE:    0.00 PKD
ROOT
HETATM    1  C   UNL     1     -11.431  14.376  66.912  1.00  0.00    -0.379 C  
HETATM    2  C   UNL     1     -11.721  13.031  66.231  1.00  0.00    -0.387 C  
HETATM    3  C   UNL     1     -12.511  12.078  67.175  1.00  0.00     1.289 C  
HETATM    4  C   UNL     1     -12.918  10.826  66.373  1.00  0.00     8.588 C  
HETATM    5  O   UNL     1     -10.128  10.777  63.974  1.00  0.00    -0.314 OA 
HETATM    6  N   UNL     1     -10.588  12.328  65.600  1.00  0.00    -0.252 N  
HETATM    7  C   UNL     1     -11.752  10.135  65.663  1.00  0.00     3.295 C  
HETATM    8  C   UNL     1     -10.836  11.127  64.919  1.00  0.00    -0.190 C  
ENDROOT
BRANCH   3   9
HETATM    9  C   UNL     1     -11.856  11.763  68.519  1.00  0.00    -0.365 A  
HETATM   10  C   UNL     1     -11.370  12.423  70.814  1.00  0.00     1.350 A  
HETATM   11  C   UNL     1     -12.011  12.653  69.591  1.00  0.00    -0.352 A  
HETATM   12  C   UNL     1     -11.057  10.632  68.735  1.00  0.00    -0.316 A  
HETATM   13  C   UNL     1     -10.405  10.404  69.946  1.00  0.00    -0.231 A  
HETATM   14  C   UNL     1     -10.562  11.300  70.990  1.00  0.00     3.028 A  
ENDBRANCH   3   9
BRANCH   7  15
HETATM   15  N   UNL     1     -10.858   9.411  66.571  1.00  0.00     0.063 N  
HETATM   16  H   UNL     1      -9.984   9.046  66.192  1.00  0.00     0.000 HD 
HETATM   17  C   UNL     1     -11.124   9.191  67.901  1.00  0.00     0.185 C  
HETATM   18  O   UNL     1     -12.159   9.550  68.449  1.00  0.00     1.138 OA 
BRANCH  17  19
HETATM   19  C   UNL     1     -10.066   8.484  68.679  1.00  0.00    -0.207 A  
HETATM   20  N   UNL     1      -7.764   7.673  68.734  1.00  0.00    -0.115 NA 
HETATM   21  C   UNL     1      -8.796   8.331  68.126  1.00  0.00    -0.139 A  
HETATM   22  C   UNL     1      -8.057   7.100  69.912  1.00  0.00    -0.125 A  
HETATM   23  C   UNL     1      -7.061   6.358  70.760  1.00  0.00    -0.069 C  
HETATM   24  C   UNL     1      -7.946   5.708  71.846  1.00  0.00    -0.111 C  
HETATM   25  C   UNL     1      -9.379   6.285  71.729  1.00  0.00    -0.155 C  
HETATM   26  C   UNL     1      -7.404   6.019  73.265  1.00  0.00    -0.089 C  
HETATM   27  O   UNL     1      -7.255   7.121  73.760  1.00  0.00    -0.085 OA 
HETATM   28  C   UNL     1      -9.300   7.142  70.507  1.00  0.00    -0.158 A  
HETATM   29  N   UNL     1      -7.145   4.815  73.889  1.00  0.00    -0.075 N  
HETATM   30  C   UNL     1      -7.396   3.747  73.058  1.00  0.00    -0.060 A  
HETATM   31  C   UNL     1     -10.310   7.888  69.921  1.00  0.00    -0.224 A  
HETATM   32  H   UNL     1      -6.810   4.729  74.848  1.00  0.00     0.000 HD 
HETATM   33  N   UNL     1      -7.176   2.473  73.388  1.00  0.00    -0.035 NA 
HETATM   34  C   UNL     1      -7.441   1.586  72.401  1.00  0.00    -0.035 A  
HETATM   35  C   UNL     1      -7.918   1.934  71.135  1.00  0.00    -0.049 A  
HETATM   36  C   UNL     1      -8.145   3.279  70.839  1.00  0.00    -0.062 A  
HETATM   37  C   UNL     1      -7.875   4.200  71.835  1.00  0.00    -0.080 A  
ENDBRANCH  17  19
ENDBRANCH   7  15
BRANCH   6  38
HETATM   38  C   UNL     1      -9.268  12.948  65.351  1.00  0.00     0.519 C  
HETATM   39  F   UNL     1      -7.599  11.913  63.998  1.00  0.00     1.758 F  
HETATM   40  F   UNL     1      -8.358  13.834  63.300  1.00  0.00     6.925 F  
HETATM   41  C   UNL     1      -8.707  12.696  63.928  1.00  0.00     2.915 C  
HETATM   42  F   UNL     1      -9.579  12.026  63.126  1.00  0.00    -0.378 F  
ENDBRANCH   6  38
TORSDOF 4
ENDMDL
MODEL      159
REMARK 921   NORMALIZED FREE ENERGY PREDICTED BY IDOCK:   42.06 KCAL/MOL
REMARK 922        TOTAL FREE ENERGY PREDICTED BY IDOCK:   50.30 KCAL/MOL
REMARK 923 INTER-LIGAND FREE ENERGY PREDICTED BY IDOCK:   40.96 KCAL/MOL
REMARK 924 INTRA-LIGAND FREE ENERGY PREDICTED BY IDOCK:    9.33 KCAL/MOL
REMARK 927      BINDING AFFINITY PREDICTED BY RF-SCORE:    0.00 PKD
ROOT
HETATM    1  C   UNL     1      -9.366  10.405  70.501  1.00  0.00     0.993 C  
HETATM    2  C   UNL     1     -10.772  10.617  69.920  1.00  0.00    -0.204 C  
HETATM    3  C   UNL     1     -10.824  10.239  68.412  1.00  0.00    -0.288 C  
HETATM    4  C   UNL     1     -12.292  10.307  67.943  1.00  0.00     2.922 C  
HETATM    5  O   UNL     1     -13.490  12.898  70.265  1.00  0.00     0.900 OA 
HETATM    6  N   UNL     1     -11.418  11.921  70.160  1.00  0.00    -0.147 N  
HETATM    7  C   UNL     1     -12.981  11.637  68.252  1.00  0.00     3.273 C  
HETATM    8  C   UNL     1     -12.725  12.121  69.693  1.00  0.00     0.575 C  
ENDROOT
BRANCH   3   9
HETATM    9  C   UNL     1      -9.849  10.977  67.496  1.00  0.00    -0.190 A  
HETATM   10  C   UNL     1      -8.090  12.642  67.222  1.00  0.00    -0.178 A  
HETATM   11  C   UNL     1      -8.950  11.903  68.043  1.00  0.00    -0.185 A  
HETATM   12  C   UNL     1      -9.828  10.809  66.105  1.00  0.00    -0.269 A  
HETATM   13  C   UNL     1      -8.983  11.550  65.280  1.00  0.00     0.058 A  
HETATM   14  C   UNL     1      -8.110  12.468  65.839  1.00  0.00     1.297 A  
ENDBRANCH   3   9
BRANCH   7  15
HETATM   15  N   UNL     1     -12.532  12.743  67.401  1.00  0.00     0.359 N  
HETATM   16  H   UNL     1     -12.707  12.677  66.399  1.00  0.00     0.000 HD 
HETATM   17  C   UNL     1     -11.890  13.864  67.870  1.00  0.00    -0.378 C  
HETATM   18  O   UNL     1     -11.595  14.028  69.047  1.00  0.00    -0.262 OA 
BRANCH  17  19
HETATM   19  C   UNL     1     -11.563  14.910  66.859  1.00  0.00    -0.286 A  
HETATM   20  N   UNL     1     -11.222  15.441  64.500  1.00  0.00    -0.345 NA 
HETATM   21  C   UNL     1     -11.541  14.573  65.506  1.00  0.00    -0.350 A  
HETATM   22  C   UNL     1     -10.854  16.671  64.892  1.00  0.00    -0.142 A  
HETATM   23  C   UNL     1     -10.496  17.784  63.947  1.00  0.00     7.302 C  
HETATM   24  C   UNL     1      -9.925  18.868  64.888  1.00  0.00     2.776 C  
HETATM   25  C   UNL     1     -10.190  18.442  66.354  1.00  0.00    -0.431 C  
HETATM   26  C   UNL     1     -10.611  20.236  64.641  1.00  0.00     1.765 C  
HETATM   27  O   UNL     1     -11.798  20.483  64.747  1.00  0.00     1.082 OA 
HETATM   28  C   UNL     1     -10.783  17.077  66.207  1.00  0.00    -0.086 A  
HETATM   29  N   UNL     1      -9.627  21.145  64.307  1.00  0.00     1.788 N  
HETATM   30  C   UNL     1      -8.385  20.553  64.251  1.00  0.00     2.834 A  
HETATM   31  C   UNL     1     -11.195  16.214  67.209  1.00  0.00     0.008 A  
HETATM   32  H   UNL     1      -9.798  22.133  64.125  1.00  0.00     0.000 HD 
HETATM   33  N   UNL     1      -7.267  21.188  63.895  1.00  0.00     0.439 NA 
HETATM   34  C   UNL     1      -6.166  20.403  63.855  1.00  0.00    -0.200 A  
HETATM   35  C   UNL     1      -6.157  19.041  64.164  1.00  0.00     0.091 A  
HETATM   36  C   UNL     1      -7.349  18.421  64.543  1.00  0.00     3.541 A  
HETATM   37  C   UNL     1      -8.485  19.208  64.585  1.00  0.00     4.220 A  
ENDBRANCH  17  19
ENDBRANCH   7  15
BRANCH   6  38
HETATM   38  C   UNL     1     -10.921  12.923  71.130  1.00  0.00     3.816 C  
HETATM   39  F   UNL     1      -8.774  13.942  70.934  1.00  0.00     3.080 F  
HETATM   40  F   UNL     1     -10.494  15.276  70.812  1.00  0.00    -0.308 F  
HETATM   41  C   UNL     1     -10.057  14.043  70.496  1.00  0.00     2.265 C  
HETATM   42  F   UNL     1      -9.988  13.957  69.140  1.00  0.00    -0.170 F  
ENDBRANCH   6  38
TORSDOF 4
ENDMDL
MODEL      160
REMARK 921   NORMALIZED FREE ENERGY PREDICTED BY IDOCK:   43.85 KCAL/MOL
REMARK 922        TOTAL FREE ENERGY PREDICTED BY IDOCK:   52.51 KCAL/MOL
REMARK 923 INTER-LIGAND FREE ENERGY PREDICTED BY IDOCK:   52.26 KCAL/MOL
REMARK 924 INTRA-LIGAND FREE ENERGY PREDICTED BY IDOCK:    0.25 KCAL/MOL
REMARK 927      BINDING AFFINITY PREDICTED BY RF-SCORE:    0.00 PKD
ROOT
HETATM    1  C   UNL     1      -8.866   9.484  64.574  1.00  0.00    -0.249 C  
HETATM    2  C   UNL     1      -7.637  10.372  64.818  1.00  0.00    -0.058 C  
HETATM    3  C   UNL     1      -7.165  10.291  66.299  1.00  0.00    -0.117 C  
HETATM    4  C   UNL     1      -5.835  11.060  66.429  1.00  0.00    -0.140 C  
HETATM    5  O   UNL     1      -6.359  13.522  63.744  1.00  0.00    15.323 OA 
HETATM    6  N   UNL     1      -7.706  11.773  64.362  1.00  0.00     2.163 N  
HETATM    7  C   UNL     1      -5.891  12.493  65.895  1.00  0.00     3.300 C  
HETATM    8  C   UNL     1      -6.577  12.589  64.517  1.00  0.00     8.658 C  
ENDROOT
BRANCH   3   9
HETATM    9  C   UNL     1      -8.201  10.665  67.358  1.00  0.00    -0.115 A  
HETATM   10  C   UNL     1      -8.826  10.825  69.708  1.00  0.00     0.429 A  
HETATM   11  C   UNL     1      -7.876  10.551  68.717  1.00  0.00    -0.116 A  
HETATM   12  C   UNL     1      -9.500  11.089  67.043  1.00  0.00    -0.191 A  
HETATM   13  C   UNL     1     -10.454  11.351  68.025  1.00  0.00    -0.215 A  
HETATM   14  C   UNL     1     -10.117  11.221  69.361  1.00  0.00     0.071 A  
ENDBRANCH   3   9
BRANCH   7  15
HETATM   15  N   UNL     1      -6.645  13.411  66.752  1.00  0.00     0.534 N  
HETATM   16  H   UNL     1      -7.534  13.769  66.404  1.00  0.00     0.000 HD 
HETATM   17  C   UNL     1      -6.229  13.820  67.997  1.00  0.00    -0.141 C  
HETATM   18  O   UNL     1      -5.162  13.483  68.493  1.00  0.00    -0.074 OA 
BRANCH  17  19
HETATM   19  C   UNL     1      -7.160  14.712  68.745  1.00  0.00    -0.113 A  
HETATM   20  N   UNL     1      -7.404  16.494  70.397  1.00  0.00     1.496 NA 
HETATM   21  C   UNL     1      -6.643  15.652  69.635  1.00  0.00    -0.181 A  
HETATM   22  C   UNL     1      -8.732  16.328  70.292  1.00  0.00     1.778 A  
HETATM   23  C   UNL     1      -9.746  17.169  71.016  1.00  0.00     4.268 C  
HETATM   24  C   UNL     1     -11.071  16.421  70.750  1.00  0.00    -0.128 C  
HETATM   25  C   UNL     1     -10.814  15.316  69.695  1.00  0.00    -0.294 C  
HETATM   26  C   UNL     1     -12.153  17.385  70.201  1.00  0.00     4.607 C  
HETATM   27  O   UNL     1     -12.087  18.046  69.180  1.00  0.00     3.551 OA 
HETATM   28  C   UNL     1      -9.335  15.383  69.489  1.00  0.00    -0.252 A  
HETATM   29  N   UNL     1     -13.231  17.341  71.062  1.00  0.00     7.149 N  
HETATM   30  C   UNL     1     -12.991  16.515  72.136  1.00  0.00     1.023 A  
HETATM   31  C   UNL     1      -8.553  14.598  68.658  1.00  0.00    -0.172 A  
HETATM   32  H   UNL     1     -14.099  17.857  70.919  1.00  0.00     0.000 HD 
HETATM   33  N   UNL     1     -13.841  16.335  73.148  1.00  0.00    -0.335 NA 
HETATM   34  C   UNL     1     -13.382  15.521  74.127  1.00  0.00     0.863 A  
HETATM   35  C   UNL     1     -12.134  14.894  74.110  1.00  0.00    -0.393 A  
HETATM   36  C   UNL     1     -11.282  15.101  73.024  1.00  0.00     0.368 A  
HETATM   37  C   UNL     1     -11.734  15.934  72.016  1.00  0.00    -0.588 A  
ENDBRANCH  17  19
ENDBRANCH   7  15
BRANCH   6  38
HETATM   38  C   UNL     1      -8.760  12.297  63.464  1.00  0.00     1.864 C  
HETATM   39  F   UNL     1     -11.023  11.549  63.570  1.00  0.00    -0.401 F  
HETATM   40  F   UNL     1     -10.679  13.660  63.994  1.00  0.00    -0.377 F  
HETATM   41  C   UNL     1     -10.153  12.429  64.132  1.00  0.00    -0.295 C  
HETATM   42  F   UNL     1     -10.135  12.127  65.459  1.00  0.00    -0.242 F  
ENDBRANCH   6  38
TORSDOF 4
ENDMDL
MODEL      161
REMARK 921   NORMALIZED FREE ENERGY PREDICTED BY IDOCK:   48.18 KCAL/MOL
REMARK 922        TOTAL FREE ENERGY PREDICTED BY IDOCK:   57.85 KCAL/MOL
REMARK 923 INTER-LIGAND FREE ENERGY PREDICTED BY IDOCK:   49.56 KCAL/MOL
REMARK 924 INTRA-LIGAND FREE ENERGY PREDICTED BY IDOCK:    8.29 KCAL/MOL
REMARK 927      BINDING AFFINITY PREDICTED BY RF-SCORE:    0.00 PKD
ROOT
HETATM    1  C   UNL     1      -9.954   5.261  64.119  1.00  0.00     1.145 C  
HETATM    2  C   UNL     1      -9.535   6.533  63.368  1.00  0.00     2.515 C  
HETATM    3  C   UNL     1      -8.037   6.871  63.619  1.00  0.00     0.005 C  
HETATM    4  C   UNL     1      -7.643   8.047  62.702  1.00  0.00    -0.118 C  
HETATM    5  O   UNL     1     -10.928   9.690  62.472  1.00  0.00     3.442 OA 
HETATM    6  N   UNL     1     -10.381   7.730  63.529  1.00  0.00     8.049 N  
HETATM    7  C   UNL     1      -8.562   9.264  62.823  1.00  0.00    -0.222 C  
HETATM    8  C   UNL     1     -10.056   8.887  62.807  1.00  0.00     3.819 C  
ENDROOT
BRANCH   3   9
HETATM    9  C   UNL     1      -7.624   7.061  65.078  1.00  0.00    -0.104 A  
HETATM   10  C   UNL     1      -8.177   6.902  67.446  1.00  0.00    -0.119 A  
HETATM   11  C   UNL     1      -8.502   6.681  66.102  1.00  0.00    -0.135 A  
HETATM   12  C   UNL     1      -6.407   7.644  65.459  1.00  0.00    -0.042 A  
HETATM   13  C   UNL     1      -6.083   7.879  66.795  1.00  0.00    -0.049 A  
HETATM   14  C   UNL     1      -6.969   7.506  67.792  1.00  0.00    -0.080 A  
ENDBRANCH   3   9
BRANCH   7  15
HETATM   15  N   UNL     1      -8.379  10.016  64.067  1.00  0.00    -0.160 N  
HETATM   16  H   UNL     1      -7.583  10.650  64.130  1.00  0.00     0.000 HD 
HETATM   17  C   UNL     1      -9.214   9.922  65.154  1.00  0.00    -0.234 C  
HETATM   18  O   UNL     1     -10.176   9.164  65.200  1.00  0.00     0.482 OA 
BRANCH  17  19
HETATM   19  C   UNL     1      -8.900  10.811  66.309  1.00  0.00    -0.182 A  
HETATM   20  N   UNL     1      -9.732  11.944  68.306  1.00  0.00    -0.197 NA 
HETATM   21  C   UNL     1      -9.899  11.115  67.232  1.00  0.00    -0.175 A  
HETATM   22  C   UNL     1      -8.527  12.528  68.403  1.00  0.00    -0.125 A  
HETATM   23  C   UNL     1      -8.124  13.447  69.523  1.00  0.00     0.986 C  
HETATM   24  C   UNL     1      -6.775  14.019  69.034  1.00  0.00    -0.109 C  
HETATM   25  C   UNL     1      -6.334  13.239  67.771  1.00  0.00    -0.161 C  
HETATM   26  C   UNL     1      -5.679  13.862  70.119  1.00  0.00    -0.130 C  
HETATM   27  O   UNL     1      -5.288  12.819  70.611  1.00  0.00    -0.126 OA 
HETATM   28  C   UNL     1      -7.499  12.340  67.505  1.00  0.00    -0.149 A  
HETATM   29  N   UNL     1      -5.193  15.120  70.411  1.00  0.00    -0.116 N  
HETATM   30  C   UNL     1      -5.854  16.098  69.702  1.00  0.00    -0.163 A  
HETATM   31  C   UNL     1      -7.655  11.429  66.473  1.00  0.00    -0.080 A  
HETATM   32  H   UNL     1      -4.438  15.303  71.071  1.00  0.00     0.000 HD 
HETATM   33  N   UNL     1      -5.625  17.405  69.836  1.00  0.00    -0.222 NA 
HETATM   34  C   UNL     1      -6.425  18.194  69.083  1.00  0.00    -0.255 A  
HETATM   35  C   UNL     1      -7.412  17.717  68.216  1.00  0.00    -0.247 A  
HETATM   36  C   UNL     1      -7.608  16.340  68.099  1.00  0.00    -0.151 A  
HETATM   37  C   UNL     1      -6.801  15.520  68.866  1.00  0.00    -0.123 A  
ENDBRANCH  17  19
ENDBRANCH   7  15
BRANCH   6  38
HETATM   38  C   UNL     1     -11.727   7.712  64.144  1.00  0.00    19.848 C  
HETATM   39  F   UNL     1     -12.527   5.866  65.426  1.00  0.00     2.327 F  
HETATM   40  F   UNL     1     -12.343   7.769  66.476  1.00  0.00     3.719 F  
HETATM   41  C   UNL     1     -11.786   7.002  65.521  1.00  0.00     7.155 C  
HETATM   42  F   UNL     1     -10.562   6.604  65.964  1.00  0.00     0.043 F  
ENDBRANCH   6  38
TORSDOF 4
ENDMDL
MODEL      162
REMARK 921   NORMALIZED FREE ENERGY PREDICTED BY IDOCK:   48.75 KCAL/MOL
REMARK 922        TOTAL FREE ENERGY PREDICTED BY IDOCK:   58.55 KCAL/MOL
REMARK 923 INTER-LIGAND FREE ENERGY PREDICTED BY IDOCK:   36.51 KCAL/MOL
REMARK 924 INTRA-LIGAND FREE ENERGY PREDICTED BY IDOCK:   22.04 KCAL/MOL
REMARK 927      BINDING AFFINITY PREDICTED BY RF-SCORE:    0.00 PKD
ROOT
HETATM    1  C   UNL     1     -10.415   7.243  64.750  1.00  0.00     6.131 C  
HETATM    2  C   UNL     1      -9.566   7.476  66.007  1.00  0.00     0.112 C  
HETATM    3  C   UNL     1     -10.398   8.153  67.135  1.00  0.00    -0.391 C  
HETATM    4  C   UNL     1      -9.540   8.195  68.415  1.00  0.00    -0.155 C  
HETATM    5  O   UNL     1      -6.216   8.364  66.845  1.00  0.00    -0.053 OA 
HETATM    6  N   UNL     1      -8.264   8.148  65.837  1.00  0.00    -0.114 N  
HETATM    7  C   UNL     1      -8.163   8.833  68.221  1.00  0.00    -0.118 C  
HETATM    8  C   UNL     1      -7.441   8.319  66.959  1.00  0.00    -0.088 C  
ENDROOT
BRANCH   3   9
HETATM    9  C   UNL     1     -11.047   9.491  66.783  1.00  0.00     0.355 A  
HETATM   10  C   UNL     1     -10.827  11.889  66.413  1.00  0.00    -0.318 A  
HETATM   11  C   UNL     1     -10.252  10.639  66.670  1.00  0.00    -0.284 A  
HETATM   12  C   UNL     1     -12.429   9.647  66.603  1.00  0.00     9.023 A  
HETATM   13  C   UNL     1     -13.009  10.891  66.360  1.00  0.00     7.945 A  
HETATM   14  C   UNL     1     -12.207  12.016  66.262  1.00  0.00     0.383 A  
ENDBRANCH   3   9
BRANCH   7  15
HETATM   15  N   UNL     1      -8.208  10.288  68.059  1.00  0.00    -0.112 N  
HETATM   16  H   UNL     1      -7.342  10.769  67.815  1.00  0.00     0.000 HD 
HETATM   17  C   UNL     1      -9.343  11.047  68.217  1.00  0.00    -0.172 C  
HETATM   18  O   UNL     1     -10.425  10.578  68.547  1.00  0.00    -0.169 OA 
BRANCH  17  19
HETATM   19  C   UNL     1      -9.204  12.508  67.953  1.00  0.00    -0.200 A  
HETATM   20  N   UNL     1     -10.285  14.564  67.200  1.00  0.00    -0.258 NA 
HETATM   21  C   UNL     1     -10.307  13.232  67.505  1.00  0.00    -0.229 A  
HETATM   22  C   UNL     1      -9.085  15.159  67.296  1.00  0.00    -0.198 A  
HETATM   23  C   UNL     1      -8.847  16.621  67.038  1.00  0.00    -0.220 C  
HETATM   24  C   UNL     1      -7.306  16.727  67.040  1.00  0.00    -0.238 C  
HETATM   25  C   UNL     1      -6.717  15.380  67.530  1.00  0.00    -0.211 C  
HETATM   26  C   UNL     1      -6.827  17.850  67.994  1.00  0.00    -0.197 C  
HETATM   27  O   UNL     1      -7.034  17.925  69.191  1.00  0.00    -0.258 OA 
HETATM   28  C   UNL     1      -7.926  14.512  67.667  1.00  0.00    -0.190 A  
HETATM   29  N   UNL     1      -6.088  18.747  67.249  1.00  0.00    -0.170 N  
HETATM   30  C   UNL     1      -6.053  18.397  65.918  1.00  0.00    -0.212 A  
HETATM   31  C   UNL     1      -7.983  13.184  68.058  1.00  0.00    -0.156 A  
HETATM   32  H   UNL     1      -5.625  19.569  67.637  1.00  0.00     0.000 HD 
HETATM   33  N   UNL     1      -5.458  19.120  64.968  1.00  0.00    -0.180 NA 
HETATM   34  C   UNL     1      -5.591  18.619  63.718  1.00  0.00     0.171 A  
HETATM   35  C   UNL     1      -6.275  17.440  63.409  1.00  0.00     7.947 A  
HETATM   36  C   UNL     1      -6.872  16.710  64.438  1.00  0.00     9.662 A  
HETATM   37  C   UNL     1      -6.750  17.211  65.722  1.00  0.00     0.380 A  
ENDBRANCH  17  19
ENDBRANCH   7  15
BRANCH   6  38
HETATM   38  C   UNL     1      -7.616   8.369  64.524  1.00  0.00    -0.106 C  
HETATM   39  F   UNL     1      -8.605   9.707  62.815  1.00  0.00    -0.147 F  
HETATM   40  F   UNL     1      -6.692  10.397  63.600  1.00  0.00    -0.138 F  
HETATM   41  C   UNL     1      -7.842   9.786  63.937  1.00  0.00    -0.144 C  
HETATM   42  F   UNL     1      -8.521  10.608  64.783  1.00  0.00    -0.171 F  
ENDBRANCH   6  38
TORSDOF 4
ENDMDL
MODEL      163
REMARK 921   NORMALIZED FREE ENERGY PREDICTED BY IDOCK:   59.24 KCAL/MOL
REMARK 922        TOTAL FREE ENERGY PREDICTED BY IDOCK:   71.50 KCAL/MOL
REMARK 923 INTER-LIGAND FREE ENERGY PREDICTED BY IDOCK:   66.76 KCAL/MOL
REMARK 924 INTRA-LIGAND FREE ENERGY PREDICTED BY IDOCK:    4.74 KCAL/MOL
REMARK 927      BINDING AFFINITY PREDICTED BY RF-SCORE:    0.00 PKD
ROOT
HETATM    1  C   UNL     1     -12.764   8.958  67.687  1.00  0.00    10.288 C  
HETATM    2  C   UNL     1     -11.351   9.168  68.250  1.00  0.00     0.550 C  
HETATM    3  C   UNL     1     -11.387   9.955  69.592  1.00  0.00    -0.212 C  
HETATM    4  C   UNL     1      -9.964   9.973  70.185  1.00  0.00    -0.239 C  
HETATM    5  O   UNL     1      -8.058   9.803  67.041  1.00  0.00    -0.112 OA 
HETATM    6  N   UNL     1     -10.329   9.721  67.341  1.00  0.00    -0.223 N  
HETATM    7  C   UNL     1      -8.895  10.486  69.217  1.00  0.00    -0.122 C  
HETATM    8  C   UNL     1      -9.017   9.865  67.811  1.00  0.00    -0.131 C  
ENDROOT
BRANCH   3   9
HETATM    9  C   UNL     1     -12.056  11.328  69.551  1.00  0.00    -0.386 A  
HETATM   10  C   UNL     1     -12.709  13.372  70.705  1.00  0.00    -0.301 A  
HETATM   11  C   UNL     1     -12.048  12.138  70.695  1.00  0.00    -0.344 A  
HETATM   12  C   UNL     1     -12.728  11.818  68.423  1.00  0.00     1.741 A  
HETATM   13  C   UNL     1     -13.399  13.040  68.431  1.00  0.00     4.562 A  
HETATM   14  C   UNL     1     -13.388  13.821  69.574  1.00  0.00     2.031 A  
ENDBRANCH   3   9
BRANCH   7  15
HETATM   15  N   UNL     1      -8.950  11.933  68.993  1.00  0.00    -0.363 N  
HETATM   16  H   UNL     1      -9.722  12.453  69.412  1.00  0.00     0.000 HD 
HETATM   17  C   UNL     1      -8.028  12.634  68.254  1.00  0.00    -0.153 C  
HETATM   18  O   UNL     1      -7.087  12.105  67.676  1.00  0.00    -0.101 OA 
BRANCH  17  19
HETATM   19  C   UNL     1      -8.219  14.111  68.188  1.00  0.00    -0.149 A  
HETATM   20  N   UNL     1      -7.165  16.314  68.197  1.00  0.00    -0.139 NA 
HETATM   21  C   UNL     1      -7.105  14.949  68.217  1.00  0.00    -0.112 A  
HETATM   22  C   UNL     1      -8.400  16.839  68.210  1.00  0.00    -0.213 A  
HETATM   23  C   UNL     1      -8.690  18.314  68.157  1.00  0.00    -0.293 C  
HETATM   24  C   UNL     1     -10.206  18.380  68.445  1.00  0.00    -0.407 C  
HETATM   25  C   UNL     1     -10.780  16.941  68.418  1.00  0.00    -0.368 C  
HETATM   26  C   UNL     1     -10.940  19.223  67.370  1.00  0.00    -0.337 C  
HETATM   27  O   UNL     1     -10.971  19.005  66.173  1.00  0.00    -0.224 OA 
HETATM   28  C   UNL     1      -9.560  16.094  68.246  1.00  0.00    -0.216 A  
HETATM   29  N   UNL     1     -11.585  20.258  68.016  1.00  0.00     1.186 N  
HETATM   30  C   UNL     1     -11.338  20.245  69.370  1.00  0.00     2.613 A  
HETATM   31  C   UNL     1      -9.483  14.713  68.177  1.00  0.00    -0.212 A  
HETATM   32  H   UNL     1     -12.171  20.948  67.548  1.00  0.00     0.000 HD 
HETATM   33  N   UNL     1     -11.790  21.165  70.224  1.00  0.00     4.520 NA 
HETATM   34  C   UNL     1     -11.384  20.991  71.502  1.00  0.00    10.948 A  
HETATM   35  C   UNL     1     -10.569  19.941  71.935  1.00  0.00     4.326 A  
HETATM   36  C   UNL     1     -10.130  18.994  71.008  1.00  0.00     2.522 A  
HETATM   37  C   UNL     1     -10.532  19.160  69.695  1.00  0.00     0.742 A  
ENDBRANCH  17  19
ENDBRANCH   7  15
BRANCH   6  38
HETATM   38  C   UNL     1     -10.505   9.837  65.876  1.00  0.00     0.043 C  
HETATM   39  F   UNL     1     -12.232   8.690  64.697  1.00  0.00    11.226 F  
HETATM   40  F   UNL     1     -12.294  10.868  64.630  1.00  0.00     0.722 F  
HETATM   41  C   UNL     1     -11.984   9.819  65.412  1.00  0.00     6.853 C  
HETATM   42  F   UNL     1     -12.864   9.795  66.450  1.00  0.00     7.247 F  
ENDBRANCH   6  38
TORSDOF 4
ENDMDL
MODEL      164
REMARK 921   NORMALIZED FREE ENERGY PREDICTED BY IDOCK:   59.63 KCAL/MOL
REMARK 922        TOTAL FREE ENERGY PREDICTED BY IDOCK:   71.98 KCAL/MOL
REMARK 923 INTER-LIGAND FREE ENERGY PREDICTED BY IDOCK:   64.82 KCAL/MOL
REMARK 924 INTRA-LIGAND FREE ENERGY PREDICTED BY IDOCK:    7.17 KCAL/MOL
REMARK 927      BINDING AFFINITY PREDICTED BY RF-SCORE:    0.00 PKD
ROOT
HETATM    1  C   UNL     1      -8.398   8.233  64.180  1.00  0.00    -0.050 C  
HETATM    2  C   UNL     1      -9.119   7.498  65.319  1.00  0.00     0.406 C  
HETATM    3  C   UNL     1     -10.587   7.990  65.471  1.00  0.00     3.271 C  
HETATM    4  C   UNL     1     -11.297   7.094  66.505  1.00  0.00     1.321 C  
HETATM    5  O   UNL     1      -8.375   6.199  68.554  1.00  0.00    -0.113 OA 
HETATM    6  N   UNL     1      -8.443   7.442  66.629  1.00  0.00    -0.119 N  
HETATM    7  C   UNL     1     -10.560   6.984  67.841  1.00  0.00    -0.218 C  
HETATM    8  C   UNL     1      -9.050   6.725  67.670  1.00  0.00    -0.117 C  
ENDROOT
BRANCH   3   9
HETATM    9  C   UNL     1     -10.775   9.486  65.719  1.00  0.00     0.778 A  
HETATM   10  C   UNL     1     -12.263  11.409  65.886  1.00  0.00     1.585 A  
HETATM   11  C   UNL     1     -12.066  10.032  65.726  1.00  0.00     5.822 A  
HETATM   12  C   UNL     1      -9.704  10.372  65.904  1.00  0.00    -0.272 A  
HETATM   13  C   UNL     1      -9.893  11.745  66.051  1.00  0.00    -0.258 A  
HETATM   14  C   UNL     1     -11.176  12.266  66.044  1.00  0.00    -0.375 A  
ENDBRANCH   3   9
BRANCH   7  15
HETATM   15  N   UNL     1     -10.642   8.197  68.659  1.00  0.00    -0.367 N  
HETATM   16  H   UNL     1     -11.553   8.463  69.031  1.00  0.00     0.000 HD 
HETATM   17  C   UNL     1      -9.566   9.000  68.956  1.00  0.00    -0.160 C  
HETATM   18  O   UNL     1      -8.437   8.796  68.529  1.00  0.00    -0.127 OA 
BRANCH  17  19
HETATM   19  C   UNL     1      -9.835  10.160  69.852  1.00  0.00    -0.223 A  
HETATM   20  N   UNL     1     -10.592  10.920  72.046  1.00  0.00     4.998 NA 
HETATM   21  C   UNL     1     -10.283   9.933  71.152  1.00  0.00     0.284 A  
HETATM   22  C   UNL     1     -10.500  12.174  71.577  1.00  0.00     8.465 A  
HETATM   23  C   UNL     1     -10.762  13.404  72.402  1.00  0.00     7.919 C  
HETATM   24  C   UNL     1     -10.763  14.534  71.350  1.00  0.00     1.339 C  
HETATM   25  C   UNL     1     -10.269  13.956  70.000  1.00  0.00     1.114 C  
HETATM   26  C   UNL     1      -9.812  15.685  71.769  1.00  0.00     3.263 C  
HETATM   27  O   UNL     1      -8.615  15.600  71.973  1.00  0.00     5.682 OA 
HETATM   28  C   UNL     1     -10.128  12.496  70.289  1.00  0.00     3.330 A  
HETATM   29  N   UNL     1     -10.561  16.842  71.842  1.00  0.00     2.455 N  
HETATM   30  C   UNL     1     -11.890  16.606  71.576  1.00  0.00     0.220 A  
HETATM   31  C   UNL     1      -9.733  11.489  69.424  1.00  0.00     0.426 A  
HETATM   32  H   UNL     1     -10.176  17.759  72.066  1.00  0.00     0.000 HD 
HETATM   33  N   UNL     1     -12.844  17.538  71.634  1.00  0.00     6.731 NA 
HETATM   34  C   UNL     1     -14.092  17.078  71.387  1.00  0.00     8.545 A  
HETATM   35  C   UNL     1     -14.396  15.749  71.081  1.00  0.00     0.449 A  
HETATM   36  C   UNL     1     -13.365  14.811  71.019  1.00  0.00    -0.427 A  
HETATM   37  C   UNL     1     -12.083  15.264  71.273  1.00  0.00    -0.407 A  
ENDBRANCH  17  19
ENDBRANCH   7  15
BRANCH   6  38
HETATM   38  C   UNL     1      -7.025   7.809  66.842  1.00  0.00    -0.073 C  
HETATM   39  F   UNL     1      -5.852   9.291  65.387  1.00  0.00    -0.054 F  
HETATM   40  F   UNL     1      -6.076   9.940  67.457  1.00  0.00    -0.055 F  
HETATM   41  C   UNL     1      -6.686   9.273  66.460  1.00  0.00    -0.072 C  
HETATM   42  F   UNL     1      -7.780   9.990  66.085  1.00  0.00    -0.097 F  
ENDBRANCH   6  38
TORSDOF 4
ENDMDL
MODEL      165
REMARK 921   NORMALIZED FREE ENERGY PREDICTED BY IDOCK:   60.35 KCAL/MOL
REMARK 922        TOTAL FREE ENERGY PREDICTED BY IDOCK:   72.87 KCAL/MOL
REMARK 923 INTER-LIGAND FREE ENERGY PREDICTED BY IDOCK:   68.52 KCAL/MOL
REMARK 924 INTRA-LIGAND FREE ENERGY PREDICTED BY IDOCK:    4.35 KCAL/MOL
REMARK 927      BINDING AFFINITY PREDICTED BY RF-SCORE:    0.00 PKD
ROOT
HETATM    1  C   UNL     1      -9.815  14.007  72.280  1.00  0.00     8.149 C  
HETATM    2  C   UNL     1      -9.559  15.104  71.237  1.00  0.00     2.431 C  
HETATM    3  C   UNL     1     -10.795  15.305  70.312  1.00  0.00    -0.303 C  
HETATM    4  C   UNL     1     -10.536  16.531  69.413  1.00  0.00    -0.329 C  
HETATM    5  O   UNL     1      -6.866  16.324  69.245  1.00  0.00    -0.189 OA 
HETATM    6  N   UNL     1      -8.317  15.017  70.446  1.00  0.00     0.805 N  
HETATM    7  C   UNL     1      -9.215  16.469  68.644  1.00  0.00    -0.238 C  
HETATM    8  C   UNL     1      -8.029  16.038  69.530  1.00  0.00    -0.043 C  
ENDROOT
BRANCH   3   9
HETATM    9  C   UNL     1     -11.275  14.071  69.550  1.00  0.00    -0.249 A  
HETATM   10  C   UNL     1     -13.019  12.952  68.267  1.00  0.00     2.430 A  
HETATM   11  C   UNL     1     -12.526  14.090  68.917  1.00  0.00     0.106 A  
HETATM   12  C   UNL     1     -10.538  12.881  69.478  1.00  0.00     0.383 A  
HETATM   13  C   UNL     1     -11.029  11.741  68.844  1.00  0.00    -0.288 A  
HETATM   14  C   UNL     1     -12.272  11.776  68.234  1.00  0.00     0.174 A  
ENDBRANCH   3   9
BRANCH   7  15
HETATM   15  N   UNL     1      -9.224  15.509  67.537  1.00  0.00    -0.196 N  
HETATM   16  H   UNL     1      -8.330  15.127  67.228  1.00  0.00     0.000 HD 
HETATM   17  C   UNL     1     -10.361  15.091  66.888  1.00  0.00    -0.266 C  
HETATM   18  O   UNL     1     -11.480  15.514  67.152  1.00  0.00    -0.223 OA 
BRANCH  17  19
HETATM   19  C   UNL     1     -10.175  14.063  65.825  1.00  0.00    -0.343 A  
HETATM   20  N   UNL     1     -10.804  13.286  63.597  1.00  0.00    -0.024 NA 
HETATM   21  C   UNL     1     -10.871  14.185  64.624  1.00  0.00    -0.386 A  
HETATM   22  C   UNL     1     -10.051  12.199  63.829  1.00  0.00    -0.379 A  
HETATM   23  C   UNL     1      -9.816  11.107  62.822  1.00  0.00    -0.261 C  
HETATM   24  C   UNL     1      -9.113  10.013  63.656  1.00  0.00    -0.301 C  
HETATM   25  C   UNL     1      -8.756  10.600  65.045  1.00  0.00    -0.186 C  
HETATM   26  C   UNL     1      -7.805   9.544  62.969  1.00  0.00    -0.126 C  
HETATM   27  O   UNL     1      -6.842  10.235  62.691  1.00  0.00    -0.130 OA 
HETATM   28  C   UNL     1      -9.378  11.959  65.007  1.00  0.00     0.068 A  
HETATM   29  N   UNL     1      -7.909   8.185  62.751  1.00  0.00    -0.133 N  
HETATM   30  C   UNL     1      -9.130   7.696  63.157  1.00  0.00     1.494 A  
HETATM   31  C   UNL     1      -9.385  12.921  66.004  1.00  0.00    -0.036 A  
HETATM   32  H   UNL     1      -7.172   7.613  62.340  1.00  0.00     0.000 HD 
HETATM   33  N   UNL     1      -9.517   6.428  63.008  1.00  0.00     1.774 NA 
HETATM   34  C   UNL     1     -10.778   6.175  63.428  1.00  0.00     6.927 A  
HETATM   35  C   UNL     1     -11.631   7.131  63.986  1.00  0.00    18.304 A  
HETATM   36  C   UNL     1     -11.179   8.443  64.133  1.00  0.00    13.734 A  
HETATM   37  C   UNL     1      -9.893   8.720  63.705  1.00  0.00     2.983 A  
ENDBRANCH  17  19
ENDBRANCH   7  15
BRANCH   6  38
HETATM   38  C   UNL     1      -7.195  14.107  70.770  1.00  0.00     1.372 C  
HETATM   39  F   UNL     1      -7.522  11.995  71.827  1.00  0.00     5.870 F  
HETATM   40  F   UNL     1      -6.655  11.953  69.827  1.00  0.00    -0.117 F  
HETATM   41  C   UNL     1      -7.534  12.603  70.612  1.00  0.00     3.995 C  
HETATM   42  F   UNL     1      -8.781  12.390  70.110  1.00  0.00     2.266 F  
ENDBRANCH   6  38
TORSDOF 4
ENDMDL
MODEL      166
REMARK 921   NORMALIZED FREE ENERGY PREDICTED BY IDOCK:   65.37 KCAL/MOL
REMARK 922        TOTAL FREE ENERGY PREDICTED BY IDOCK:   79.06 KCAL/MOL
REMARK 923 INTER-LIGAND FREE ENERGY PREDICTED BY IDOCK:   57.88 KCAL/MOL
REMARK 924 INTRA-LIGAND FREE ENERGY PREDICTED BY IDOCK:   21.18 KCAL/MOL
REMARK 927      BINDING AFFINITY PREDICTED BY RF-SCORE:    0.00 PKD
ROOT
HETATM    1  C   UNL     1     -10.158  14.692  73.469  1.00  0.00     6.083 C  
HETATM    2  C   UNL     1     -10.581  14.815  71.998  1.00  0.00     1.859 C  
HETATM    3  C   UNL     1     -11.753  13.846  71.663  1.00  0.00     0.677 C  
HETATM    4  C   UNL     1     -12.239  14.147  70.231  1.00  0.00    -0.416 C  
HETATM    5  O   UNL     1      -9.068  15.365  68.817  1.00  0.00    -0.183 OA 
HETATM    6  N   UNL     1      -9.522  14.735  70.975  1.00  0.00     2.043 N  
HETATM    7  C   UNL     1     -11.127  14.129  69.181  1.00  0.00    -0.262 C  
HETATM    8  C   UNL     1      -9.872  14.904  69.628  1.00  0.00     0.006 C  
ENDROOT
BRANCH   3   9
HETATM    9  C   UNL     1     -11.499  12.363  71.930  1.00  0.00     4.090 A  
HETATM   10  C   UNL     1      -9.950  10.483  71.987  1.00  0.00     6.345 A  
HETATM   11  C   UNL     1     -10.201  11.849  71.811  1.00  0.00    11.247 A  
HETATM   12  C   UNL     1     -12.519  11.458  72.256  1.00  0.00     0.929 A  
HETATM   13  C   UNL     1     -12.278  10.095  72.419  1.00  0.00     0.713 A  
HETATM   14  C   UNL     1     -10.990   9.605  72.286  1.00  0.00     1.144 A  
ENDBRANCH   3   9
BRANCH   7  15
HETATM   15  N   UNL     1     -10.642  12.784  68.862  1.00  0.00    -0.401 N  
HETATM   16  H   UNL     1     -10.950  12.358  67.987  1.00  0.00     0.000 HD 
HETATM   17  C   UNL     1      -9.797  12.058  69.668  1.00  0.00     1.285 C  
HETATM   18  O   UNL     1      -9.398  12.456  70.755  1.00  0.00     6.333 OA 
BRANCH  17  19
HETATM   19  C   UNL     1      -9.364  10.730  69.146  1.00  0.00    -0.141 A  
HETATM   20  N   UNL     1      -8.846   9.371  67.185  1.00  0.00    -0.127 NA 
HETATM   21  C   UNL     1      -9.204  10.551  67.773  1.00  0.00    -0.145 A  
HETATM   22  C   UNL     1      -8.707   8.328  68.018  1.00  0.00    -0.135 A  
HETATM   23  C   UNL     1      -8.287   6.951  67.583  1.00  0.00    -0.123 C  
HETATM   24  C   UNL     1      -8.523   6.100  68.850  1.00  0.00    -0.118 C  
HETATM   25  C   UNL     1      -8.843   7.048  70.033  1.00  0.00    -0.142 C  
HETATM   26  C   UNL     1      -7.261   5.274  69.208  1.00  0.00    -0.057 C  
HETATM   27  O   UNL     1      -6.155   5.712  69.464  1.00  0.00    -0.022 OA 
HETATM   28  C   UNL     1      -8.907   8.392  69.381  1.00  0.00    -0.142 A  
HETATM   29  N   UNL     1      -7.620   3.941  69.218  1.00  0.00    -0.053 N  
HETATM   30  C   UNL     1      -8.939   3.767  68.866  1.00  0.00    -0.123 A  
HETATM   31  C   UNL     1      -9.183   9.614  69.972  1.00  0.00    -0.275 A  
HETATM   32  H   UNL     1      -6.986   3.180  69.456  1.00  0.00     0.000 HD 
HETATM   33  N   UNL     1      -9.530   2.578  68.739  1.00  0.00    -0.163 NA 
HETATM   34  C   UNL     1     -10.819   2.634  68.332  1.00  0.00     5.285 A  
HETATM   35  C   UNL     1     -11.512   3.818  68.068  1.00  0.00     8.474 A  
HETATM   36  C   UNL     1     -10.856   5.040  68.226  1.00  0.00     0.489 A  
HETATM   37  C   UNL     1      -9.536   5.001  68.637  1.00  0.00    -0.204 A  
ENDBRANCH  17  19
ENDBRANCH   7  15
BRANCH   6  38
HETATM   38  C   UNL     1      -8.075  14.810  71.278  1.00  0.00     3.421 C  
HETATM   39  F   UNL     1      -6.409  14.870  69.572  1.00  0.00    -0.100 F  
HETATM   40  F   UNL     1      -6.523  16.613  70.877  1.00  0.00     0.526 F  
HETATM   41  C   UNL     1      -7.261  15.664  70.272  1.00  0.00     0.499 C  
HETATM   42  F   UNL     1      -8.042  16.273  69.340  1.00  0.00    -0.235 F  
ENDBRANCH   6  38
TORSDOF 4
ENDMDL
MODEL      167
REMARK 921   NORMALIZED FREE ENERGY PREDICTED BY IDOCK:   69.27 KCAL/MOL
REMARK 922        TOTAL FREE ENERGY PREDICTED BY IDOCK:   83.88 KCAL/MOL
REMARK 923 INTER-LIGAND FREE ENERGY PREDICTED BY IDOCK:   80.48 KCAL/MOL
REMARK 924 INTRA-LIGAND FREE ENERGY PREDICTED BY IDOCK:    3.39 KCAL/MOL
REMARK 927      BINDING AFFINITY PREDICTED BY RF-SCORE:    0.00 PKD
ROOT
HETATM    1  C   UNL     1      -7.873  19.782  63.803  1.00  0.00     5.095 C  
HETATM    2  C   UNL     1      -7.640  19.695  65.318  1.00  0.00     0.293 C  
HETATM    3  C   UNL     1      -6.779  18.452  65.688  1.00  0.00    -0.304 C  
HETATM    4  C   UNL     1      -6.439  18.525  67.190  1.00  0.00    -0.195 C  
HETATM    5  O   UNL     1      -9.410  20.367  68.339  1.00  0.00    -0.045 OA 
HETATM    6  N   UNL     1      -8.820  19.800  66.197  1.00  0.00    -0.369 N  
HETATM    7  C   UNL     1      -7.659  18.701  68.096  1.00  0.00    -0.271 C  
HETATM    8  C   UNL     1      -8.629  19.785  67.586  1.00  0.00    -0.326 C  
ENDROOT
BRANCH   3   9
HETATM    9  C   UNL     1      -7.326  17.097  65.244  1.00  0.00     2.118 A  
HETATM   10  C   UNL     1      -9.002  15.342  65.470  1.00  0.00     0.604 A  
HETATM   11  C   UNL     1      -8.512  16.609  65.810  1.00  0.00     0.227 A  
HETATM   12  C   UNL     1      -6.675  16.276  64.313  1.00  0.00    13.165 A  
HETATM   13  C   UNL     1      -7.151  15.008  63.980  1.00  0.00    21.698 A  
HETATM   14  C   UNL     1      -8.319  14.540  64.558  1.00  0.00     8.699 A  
ENDBRANCH   3   9
BRANCH   7  15
HETATM   15  N   UNL     1      -8.479  17.493  68.218  1.00  0.00    -0.258 N  
HETATM   16  H   UNL     1      -8.533  16.868  67.413  1.00  0.00     0.000 HD 
HETATM   17  C   UNL     1      -9.180  17.148  69.348  1.00  0.00     0.236 C  
HETATM   18  O   UNL     1      -9.217  17.844  70.355  1.00  0.00     2.411 OA 
BRANCH  17  19
HETATM   19  C   UNL     1      -9.911  15.849  69.303  1.00  0.00    -0.259 A  
HETATM   20  N   UNL     1     -12.074  14.718  69.242  1.00  0.00    -0.289 NA 
HETATM   21  C   UNL     1     -11.304  15.847  69.252  1.00  0.00    -0.355 A  
HETATM   22  C   UNL     1     -11.405  13.560  69.350  1.00  0.00    -0.233 A  
HETATM   23  C   UNL     1     -12.056  12.205  69.325  1.00  0.00    -0.234 C  
HETATM   24  C   UNL     1     -10.902  11.259  69.725  1.00  0.00    -0.089 C  
HETATM   25  C   UNL     1      -9.579  12.065  69.735  1.00  0.00     1.848 C  
HETATM   26  C   UNL     1     -10.762  10.094  68.712  1.00  0.00    -0.220 C  
HETATM   27  O   UNL     1     -10.537  10.191  67.520  1.00  0.00    -0.234 OA 
HETATM   28  C   UNL     1     -10.035  13.464  69.469  1.00  0.00     0.852 A  
HETATM   29  N   UNL     1     -10.905   8.911  69.409  1.00  0.00    -0.376 N  
HETATM   30  C   UNL     1     -11.171   9.134  70.741  1.00  0.00    -0.277 A  
HETATM   31  C   UNL     1      -9.263  14.612  69.388  1.00  0.00     0.113 A  
HETATM   32  H   UNL     1     -10.824   7.986  68.989  1.00  0.00     0.000 HD 
HETATM   33  N   UNL     1     -11.412   8.169  71.629  1.00  0.00    -0.262 NA 
HETATM   34  C   UNL     1     -11.704   8.613  72.874  1.00  0.00     0.288 A  
HETATM   35  C   UNL     1     -11.748   9.961  73.240  1.00  0.00     5.391 A  
HETATM   36  C   UNL     1     -11.478  10.936  72.279  1.00  0.00     3.815 A  
HETATM   37  C   UNL     1     -11.181  10.499  71.000  1.00  0.00     0.067 A  
ENDBRANCH  17  19
ENDBRANCH   7  15
BRANCH   6  38
HETATM   38  C   UNL     1     -10.155  20.242  65.735  1.00  0.00    -0.152 C  
HETATM   39  F   UNL     1     -10.564  20.971  63.501  1.00  0.00     2.425 F  
HETATM   40  F   UNL     1     -11.647  19.195  64.155  1.00  0.00     2.339 F  
HETATM   41  C   UNL     1     -10.479  19.853  64.270  1.00  0.00     4.584 C  
HETATM   42  F   UNL     1      -9.510  19.088  63.698  1.00  0.00     8.961 F  
ENDBRANCH   6  38
TORSDOF 4
ENDMDL
MODEL      168
REMARK 921   NORMALIZED FREE ENERGY PREDICTED BY IDOCK:   70.16 KCAL/MOL
REMARK 922        TOTAL FREE ENERGY PREDICTED BY IDOCK:   84.97 KCAL/MOL
REMARK 923 INTER-LIGAND FREE ENERGY PREDICTED BY IDOCK:   79.76 KCAL/MOL
REMARK 924 INTRA-LIGAND FREE ENERGY PREDICTED BY IDOCK:    5.21 KCAL/MOL
REMARK 927      BINDING AFFINITY PREDICTED BY RF-SCORE:    0.00 PKD
ROOT
HETATM    1  C   UNL     1      -6.713   8.718  65.785  1.00  0.00    -0.068 C  
HETATM    2  C   UNL     1      -8.135   9.295  65.732  1.00  0.00    -0.115 C  
HETATM    3  C   UNL     1      -8.116  10.820  65.420  1.00  0.00    -0.050 C  
HETATM    4  C   UNL     1      -9.569  11.291  65.208  1.00  0.00    -0.265 C  
HETATM    5  O   UNL     1     -11.261   8.857  67.389  1.00  0.00     0.175 OA 
HETATM    6  N   UNL     1      -9.034   8.999  66.863  1.00  0.00    -0.121 N  
HETATM    7  C   UNL     1     -10.515  10.924  66.353  1.00  0.00    -0.250 C  
HETATM    8  C   UNL     1     -10.356   9.461  66.812  1.00  0.00    -0.233 C  
ENDROOT
BRANCH   3   9
HETATM    9  C   UNL     1      -7.318  11.695  66.384  1.00  0.00     0.126 A  
HETATM   10  C   UNL     1      -7.215  13.645  67.843  1.00  0.00    -0.150 A  
HETATM   11  C   UNL     1      -7.939  12.787  67.006  1.00  0.00    -0.045 A  
HETATM   12  C   UNL     1      -5.959  11.490  66.659  1.00  0.00    -0.135 A  
HETATM   13  C   UNL     1      -5.229  12.347  67.481  1.00  0.00    -0.105 A  
HETATM   14  C   UNL     1      -5.859  13.427  68.077  1.00  0.00    -0.124 A  
ENDBRANCH   3   9
BRANCH   7  15
HETATM   15  N   UNL     1     -10.306  11.721  67.565  1.00  0.00    -0.194 N  
HETATM   16  H   UNL     1     -10.006  11.236  68.410  1.00  0.00     0.000 HD 
HETATM   17  C   UNL     1     -10.490  13.081  67.634  1.00  0.00    -0.225 C  
HETATM   18  O   UNL     1     -10.886  13.755  66.691  1.00  0.00    -0.285 OA 
BRANCH  17  19
HETATM   19  C   UNL     1     -10.171  13.726  68.940  1.00  0.00    -0.111 A  
HETATM   20  N   UNL     1     -11.013  14.526  71.088  1.00  0.00     0.364 NA 
HETATM   21  C   UNL     1     -11.185  13.916  69.877  1.00  0.00    -0.032 A  
HETATM   22  C   UNL     1      -9.783  15.010  71.322  1.00  0.00     2.286 A  
HETATM   23  C   UNL     1      -9.372  15.684  72.602  1.00  0.00     8.244 C  
HETATM   24  C   UNL     1      -7.978  16.254  72.261  1.00  0.00    11.727 C  
HETATM   25  C   UNL     1      -7.533  15.691  70.888  1.00  0.00     2.135 C  
HETATM   26  C   UNL     1      -6.931  15.837  73.327  1.00  0.00     7.132 C  
HETATM   27  O   UNL     1      -6.616  14.701  73.629  1.00  0.00     0.975 OA 
HETATM   28  C   UNL     1      -8.734  14.927  70.432  1.00  0.00     1.230 A  
HETATM   29  N   UNL     1      -6.390  16.991  73.857  1.00  0.00     5.511 N  
HETATM   30  C   UNL     1      -6.970  18.118  73.323  1.00  0.00     7.849 A  
HETATM   31  C   UNL     1      -8.901  14.229  69.246  1.00  0.00     0.277 A  
HETATM   32  H   UNL     1      -5.650  17.005  74.559  1.00  0.00     0.000 HD 
HETATM   33  N   UNL     1      -6.676  19.364  73.700  1.00  0.00     4.813 NA 
HETATM   34  C   UNL     1      -7.405  20.322  73.083  1.00  0.00     4.813 A  
HETATM   35  C   UNL     1      -8.384  20.071  72.118  1.00  0.00     2.749 A  
HETATM   36  C   UNL     1      -8.649  18.752  71.746  1.00  0.00     8.707 A  
HETATM   37  C   UNL     1      -7.916  17.759  72.370  1.00  0.00    13.836 A  
ENDBRANCH  17  19
ENDBRANCH   7  15
BRANCH   6  38
HETATM   38  C   UNL     1      -8.747   7.981  67.900  1.00  0.00    -0.128 C  
HETATM   39  F   UNL     1     -10.258   6.206  68.406  1.00  0.00    -0.137 F  
HETATM   40  F   UNL     1      -8.300   5.625  67.643  1.00  0.00    -0.101 F  
HETATM   41  C   UNL     1      -9.262   6.561  67.552  1.00  0.00    -0.113 C  
HETATM   42  F   UNL     1      -9.804   6.484  66.306  1.00  0.00    -0.202 F  
ENDBRANCH   6  38
TORSDOF 4
ENDMDL
MODEL      169
REMARK 921   NORMALIZED FREE ENERGY PREDICTED BY IDOCK:   71.82 KCAL/MOL
REMARK 922        TOTAL FREE ENERGY PREDICTED BY IDOCK:   87.02 KCAL/MOL
REMARK 923 INTER-LIGAND FREE ENERGY PREDICTED BY IDOCK:   85.54 KCAL/MOL
REMARK 924 INTRA-LIGAND FREE ENERGY PREDICTED BY IDOCK:    1.48 KCAL/MOL
REMARK 927      BINDING AFFINITY PREDICTED BY RF-SCORE:    0.00 PKD
ROOT
HETATM    1  C   UNL     1      -7.828   9.177  72.034  1.00  0.00     0.411 C  
HETATM    2  C   UNL     1      -9.303   9.064  71.624  1.00  0.00    -0.183 C  
HETATM    3  C   UNL     1      -9.448   8.494  70.182  1.00  0.00    -0.169 C  
HETATM    4  C   UNL     1     -10.944   8.244  69.906  1.00  0.00    -0.166 C  
HETATM    5  O   UNL     1     -12.351  10.855  72.084  1.00  0.00     0.159 OA 
HETATM    6  N   UNL     1     -10.156  10.253  71.809  1.00  0.00     2.719 N  
HETATM    7  C   UNL     1     -11.836   9.460  70.162  1.00  0.00     0.064 C  
HETATM    8  C   UNL     1     -11.520  10.159  71.500  1.00  0.00    -0.022 C  
ENDROOT
BRANCH   3   9
HETATM    9  C   UNL     1      -8.738   9.272  69.076  1.00  0.00    -0.135 A  
HETATM   10  C   UNL     1      -8.445   9.736  66.701  1.00  0.00    -0.126 A  
HETATM   11  C   UNL     1      -9.121   9.085  67.741  1.00  0.00    -0.143 A  
HETATM   12  C   UNL     1      -7.674  10.152  69.320  1.00  0.00    -0.126 A  
HETATM   13  C   UNL     1      -6.988  10.792  68.288  1.00  0.00    -0.069 A  
HETATM   14  C   UNL     1      -7.375  10.585  66.975  1.00  0.00    -0.099 A  
ENDBRANCH   3   9
BRANCH   7  15
HETATM   15  N   UNL     1     -11.702  10.511  69.151  1.00  0.00    -0.471 N  
HETATM   16  H   UNL     1     -11.498  11.459  69.469  1.00  0.00     0.000 HD 
HETATM   17  C   UNL     1     -11.834  10.301  67.799  1.00  0.00     1.119 C  
HETATM   18  O   UNL     1     -12.116   9.214  67.312  1.00  0.00     3.214 OA 
BRANCH  17  19
HETATM   19  C   UNL     1     -11.604  11.484  66.920  1.00  0.00    -0.166 A  
HETATM   20  N   UNL     1     -10.060  12.668  65.446  1.00  0.00    -0.279 NA 
HETATM   21  C   UNL     1     -10.390  11.612  66.247  1.00  0.00    -0.235 A  
HETATM   22  C   UNL     1     -10.972  13.652  65.380  1.00  0.00    -0.298 A  
HETATM   23  C   UNL     1     -10.822  14.884  64.532  1.00  0.00    -0.162 C  
HETATM   24  C   UNL     1     -11.993  15.774  65.003  1.00  0.00     0.352 C  
HETATM   25  C   UNL     1     -12.912  14.936  65.928  1.00  0.00     0.731 C  
HETATM   26  C   UNL     1     -12.832  16.273  63.798  1.00  0.00     2.932 C  
HETATM   27  O   UNL     1     -13.418  15.583  62.985  1.00  0.00     2.086 OA 
HETATM   28  C   UNL     1     -12.171  13.644  66.059  1.00  0.00    -0.492 A  
HETATM   29  N   UNL     1     -12.825  17.653  63.826  1.00  0.00     9.276 N  
HETATM   30  C   UNL     1     -12.054  18.139  64.857  1.00  0.00     5.895 A  
HETATM   31  C   UNL     1     -12.528  12.527  66.796  1.00  0.00     0.619 A  
HETATM   32  H   UNL     1     -13.329  18.241  63.162  1.00  0.00     0.000 HD 
HETATM   33  N   UNL     1     -11.828  19.434  65.079  1.00  0.00     2.360 NA 
HETATM   34  C   UNL     1     -10.997  19.688  66.116  1.00  0.00    -0.184 A  
HETATM   35  C   UNL     1     -10.414  18.704  66.919  1.00  0.00    -0.449 A  
HETATM   36  C   UNL     1     -10.689  17.361  66.657  1.00  0.00    -0.084 A  
HETATM   37  C   UNL     1     -11.534  17.084  65.597  1.00  0.00     1.021 A  
ENDBRANCH  17  19
ENDBRANCH   7  15
BRANCH   6  38
HETATM   38  C   UNL     1      -9.755  11.441  72.597  1.00  0.00    18.060 C  
HETATM   39  F   UNL     1      -7.693  12.583  72.234  1.00  0.00     9.142 F  
HETATM   40  F   UNL     1      -9.512  13.733  71.886  1.00  0.00     6.294 F  
HETATM   41  C   UNL     1      -8.973  12.504  71.784  1.00  0.00    19.474 C  
HETATM   42  F   UNL     1      -8.878  12.197  70.462  1.00  0.00     3.669 F  
ENDBRANCH   6  38
TORSDOF 4
ENDMDL
MODEL      170
REMARK 921   NORMALIZED FREE ENERGY PREDICTED BY IDOCK:   81.59 KCAL/MOL
REMARK 922        TOTAL FREE ENERGY PREDICTED BY IDOCK:   99.08 KCAL/MOL
REMARK 923 INTER-LIGAND FREE ENERGY PREDICTED BY IDOCK:   76.08 KCAL/MOL
REMARK 924 INTRA-LIGAND FREE ENERGY PREDICTED BY IDOCK:   23.00 KCAL/MOL
REMARK 927      BINDING AFFINITY PREDICTED BY RF-SCORE:    0.00 PKD
ROOT
HETATM    1  C   UNL     1      -9.413  11.557  71.785  1.00  0.00    13.344 C  
HETATM    2  C   UNL     1      -9.662  10.375  72.733  1.00  0.00     9.799 C  
HETATM    3  C   UNL     1      -8.481   9.362  72.697  1.00  0.00     1.920 C  
HETATM    4  C   UNL     1      -8.715   8.303  73.793  1.00  0.00    -0.221 C  
HETATM    5  O   UNL     1     -12.393   8.379  73.857  1.00  0.00     2.366 OA 
HETATM    6  N   UNL     1     -10.958   9.679  72.630  1.00  0.00     1.885 N  
HETATM    7  C   UNL     1     -10.086   7.629  73.724  1.00  0.00    -0.088 C  
HETATM    8  C   UNL     1     -11.236   8.636  73.524  1.00  0.00     2.488 C  
ENDROOT
BRANCH   3   9
HETATM    9  C   UNL     1      -8.142   8.770  71.330  1.00  0.00    -0.189 A  
HETATM   10  C   UNL     1      -8.733   8.437  68.990  1.00  0.00    -0.142 A  
HETATM   11  C   UNL     1      -8.985   9.019  70.238  1.00  0.00    -0.221 A  
HETATM   12  C   UNL     1      -7.033   7.941  71.108  1.00  0.00    -0.049 A  
HETATM   13  C   UNL     1      -6.785   7.348  69.871  1.00  0.00    -0.047 A  
HETATM   14  C   UNL     1      -7.636   7.598  68.808  1.00  0.00    -0.102 A  
ENDBRANCH   3   9
BRANCH   7  15
HETATM   15  N   UNL     1     -10.220   6.683  72.614  1.00  0.00    -0.182 N  
HETATM   16  H   UNL     1     -10.983   6.006  72.651  1.00  0.00     0.000 HD 
HETATM   17  C   UNL     1      -9.383   6.648  71.525  1.00  0.00    -0.153 C  
HETATM   18  O   UNL     1      -8.414   7.387  71.398  1.00  0.00    -0.112 OA 
BRANCH  17  19
HETATM   19  C   UNL     1      -9.714   5.652  70.467  1.00  0.00    -0.233 A  
HETATM   20  N   UNL     1      -9.360   3.400  69.592  1.00  0.00    -0.163 NA 
HETATM   21  C   UNL     1      -9.153   4.377  70.524  1.00  0.00    -0.113 A  
HETATM   22  C   UNL     1     -10.113   3.755  68.539  1.00  0.00     0.488 A  
HETATM   23  C   UNL     1     -10.489   2.823  67.420  1.00  0.00     3.012 C  
HETATM   24  C   UNL     1     -11.126   3.771  66.379  1.00  0.00     3.129 C  
HETATM   25  C   UNL     1     -11.309   5.167  67.026  1.00  0.00     1.553 C  
HETATM   26  C   UNL     1     -12.515   3.250  65.929  1.00  0.00    13.528 C  
HETATM   27  O   UNL     1     -13.482   3.054  66.641  1.00  0.00    20.285 OA 
HETATM   28  C   UNL     1     -10.657   5.008  68.362  1.00  0.00     0.098 A  
HETATM   29  N   UNL     1     -12.474   3.075  64.561  1.00  0.00     5.893 N  
HETATM   30  C   UNL     1     -11.230   3.362  64.047  1.00  0.00     0.452 A  
HETATM   31  C   UNL     1     -10.512   5.960  69.359  1.00  0.00    -0.343 A  
HETATM   32  H   UNL     1     -13.269   2.770  63.999  1.00  0.00     0.000 HD 
HETATM   33  N   UNL     1     -10.898   3.222  62.763  1.00  0.00    -0.178 NA 
HETATM   34  C   UNL     1      -9.606   3.509  62.484  1.00  0.00    -0.097 A  
HETATM   35  C   UNL     1      -8.670   3.933  63.431  1.00  0.00    -0.102 A  
HETATM   36  C   UNL     1      -9.065   4.078  64.762  1.00  0.00    -0.141 A  
HETATM   37  C   UNL     1     -10.383   3.783  65.065  1.00  0.00    -0.043 A  
ENDBRANCH  17  19
ENDBRANCH   7  15
BRANCH   6  38
HETATM   38  C   UNL     1     -12.116  10.201  71.870  1.00  0.00    -0.018 C  
HETATM   39  F   UNL     1     -12.003  12.198  70.570  1.00  0.00    -0.403 F  
HETATM   40  F   UNL     1     -12.432  10.357  69.483  1.00  0.00    -0.255 F  
HETATM   41  C   UNL     1     -11.741  10.865  70.520  1.00  0.00    -0.342 C  
HETATM   42  F   UNL     1     -10.415  10.763  70.230  1.00  0.00    -0.221 F  
ENDBRANCH   6  38
TORSDOF 4
ENDMDL
MODEL      171
REMARK 921   NORMALIZED FREE ENERGY PREDICTED BY IDOCK:   84.32 KCAL/MOL
REMARK 922        TOTAL FREE ENERGY PREDICTED BY IDOCK:  102.45 KCAL/MOL
REMARK 923 INTER-LIGAND FREE ENERGY PREDICTED BY IDOCK:   96.45 KCAL/MOL
REMARK 924 INTRA-LIGAND FREE ENERGY PREDICTED BY IDOCK:    5.99 KCAL/MOL
REMARK 927      BINDING AFFINITY PREDICTED BY RF-SCORE:    0.00 PKD
ROOT
HETATM    1  C   UNL     1     -10.578   7.272  64.960  1.00  0.00     5.601 C  
HETATM    2  C   UNL     1      -9.265   7.508  65.720  1.00  0.00     0.100 C  
HETATM    3  C   UNL     1      -9.360   6.998  67.187  1.00  0.00    -0.166 C  
HETATM    4  C   UNL     1      -7.963   7.105  67.831  1.00  0.00    -0.115 C  
HETATM    5  O   UNL     1      -6.678   9.956  65.892  1.00  0.00    -0.086 OA 
HETATM    6  N   UNL     1      -8.681   8.862  65.668  1.00  0.00    -0.171 N  
HETATM    7  C   UNL     1      -7.331   8.493  67.719  1.00  0.00    -0.093 C  
HETATM    8  C   UNL     1      -7.451   9.090  66.302  1.00  0.00    -0.092 C  
ENDROOT
BRANCH   3   9
HETATM    9  C   UNL     1     -10.479   7.597  68.038  1.00  0.00    -0.247 A  
HETATM   10  C   UNL     1     -11.433   8.026  70.239  1.00  0.00    -0.078 A  
HETATM   11  C   UNL     1     -10.393   7.544  69.436  1.00  0.00    -0.213 A  
HETATM   12  C   UNL     1     -11.632   8.176  67.489  1.00  0.00     1.942 A  
HETATM   13  C   UNL     1     -12.677   8.646  68.282  1.00  0.00     8.206 A  
HETATM   14  C   UNL     1     -12.577   8.574  69.662  1.00  0.00     2.402 A  
ENDBRANCH   3   9
BRANCH   7  15
HETATM   15  N   UNL     1      -7.944   9.491  68.598  1.00  0.00    -0.091 N  
HETATM   16  H   UNL     1      -7.912  10.469  68.309  1.00  0.00     0.000 HD 
HETATM   17  C   UNL     1      -8.561   9.194  69.790  1.00  0.00    -0.142 C  
HETATM   18  O   UNL     1      -8.623   8.061  70.251  1.00  0.00    -0.129 OA 
BRANCH  17  19
HETATM   19  C   UNL     1      -9.180  10.338  70.518  1.00  0.00     0.770 A  
HETATM   20  N   UNL     1     -10.775  11.059  72.220  1.00  0.00     6.373 NA 
HETATM   21  C   UNL     1     -10.122  10.088  71.515  1.00  0.00     1.522 A  
HETATM   22  C   UNL     1     -10.504  12.322  71.854  1.00  0.00    10.991 A  
HETATM   23  C   UNL     1     -11.088  13.537  72.521  1.00  0.00     5.377 C  
HETATM   24  C   UNL     1     -10.661  14.687  71.583  1.00  0.00     1.637 C  
HETATM   25  C   UNL     1      -9.653  14.132  70.545  1.00  0.00     2.646 C  
HETATM   26  C   UNL     1      -9.972  15.826  72.377  1.00  0.00     4.769 C  
HETATM   27  O   UNL     1      -8.964  15.733  73.054  1.00  0.00     9.481 OA 
HETATM   28  C   UNL     1      -9.637  12.666  70.839  1.00  0.00     8.888 A  
HETATM   29  N   UNL     1     -10.689  16.984  72.157  1.00  0.00     2.370 N  
HETATM   30  C   UNL     1     -11.790  16.758  71.363  1.00  0.00     0.597 A  
HETATM   31  C   UNL     1      -8.917  11.674  70.194  1.00  0.00     3.074 A  
HETATM   32  H   UNL     1     -10.435  17.896  72.537  1.00  0.00     0.000 HD 
HETATM   33  N   UNL     1     -12.688  17.692  71.042  1.00  0.00     8.444 NA 
HETATM   34  C   UNL     1     -13.722  17.241  70.295  1.00  0.00    12.110 A  
HETATM   35  C   UNL     1     -13.868  15.919  69.866  1.00  0.00     2.511 A  
HETATM   36  C   UNL     1     -12.897  14.979  70.216  1.00  0.00    -0.270 A  
HETATM   37  C   UNL     1     -11.835  15.422  70.984  1.00  0.00    -0.406 A  
ENDBRANCH  17  19
ENDBRANCH   7  15
BRANCH   6  38
HETATM   38  C   UNL     1      -9.128   9.918  64.732  1.00  0.00    -0.237 C  
HETATM   39  F   UNL     1     -11.375  10.715  64.677  1.00  0.00    -0.017 F  
HETATM   40  F   UNL     1      -9.841  12.173  65.203  1.00  0.00    -0.256 F  
HETATM   41  C   UNL     1     -10.190  10.879  65.323  1.00  0.00    -0.288 C  
HETATM   42  F   UNL     1     -10.453  10.636  66.636  1.00  0.00    -0.264 F  
ENDBRANCH   6  38
TORSDOF 4
ENDMDL
MODEL      172
REMARK 921   NORMALIZED FREE ENERGY PREDICTED BY IDOCK:   86.24 KCAL/MOL
REMARK 922        TOTAL FREE ENERGY PREDICTED BY IDOCK:  104.82 KCAL/MOL
REMARK 923 INTER-LIGAND FREE ENERGY PREDICTED BY IDOCK:   98.58 KCAL/MOL
REMARK 924 INTRA-LIGAND FREE ENERGY PREDICTED BY IDOCK:    6.23 KCAL/MOL
REMARK 927      BINDING AFFINITY PREDICTED BY RF-SCORE:    0.00 PKD
ROOT
HETATM    1  C   UNL     1      -8.537   6.203  71.550  1.00  0.00    -0.131 C  
HETATM    2  C   UNL     1      -7.354   7.017  71.008  1.00  0.00    -0.077 C  
HETATM    3  C   UNL     1      -6.652   7.821  72.142  1.00  0.00    -0.057 C  
HETATM    4  C   UNL     1      -5.378   8.468  71.563  1.00  0.00    -0.035 C  
HETATM    5  O   UNL     1      -6.493   8.857  68.078  1.00  0.00    -0.055 OA 
HETATM    6  N   UNL     1      -7.596   7.871  69.829  1.00  0.00    -0.088 N  
HETATM    7  C   UNL     1      -5.622   9.299  70.302  1.00  0.00    -0.031 C  
HETATM    8  C   UNL     1      -6.519   8.578  69.277  1.00  0.00    -0.042 C  
ENDROOT
BRANCH   3   9
HETATM    9  C   UNL     1      -7.535   8.789  72.928  1.00  0.00     0.157 A  
HETATM   10  C   UNL     1      -9.328   9.148  74.538  1.00  0.00     5.284 A  
HETATM   11  C   UNL     1      -8.462   8.288  73.851  1.00  0.00    -0.247 A  
HETATM   12  C   UNL     1      -7.498  10.179  72.746  1.00  0.00     4.380 A  
HETATM   13  C   UNL     1      -8.366  11.039  73.416  1.00  0.00    15.836 A  
HETATM   14  C   UNL     1      -9.283  10.523  74.316  1.00  0.00    13.995 A  
ENDBRANCH   3   9
BRANCH   7  15
HETATM   15  N   UNL     1      -6.298  10.574  70.559  1.00  0.00    -0.120 N  
HETATM   16  H   UNL     1      -6.867  10.652  71.402  1.00  0.00     0.000 HD 
HETATM   17  C   UNL     1      -6.214  11.671  69.736  1.00  0.00    -0.139 C  
HETATM   18  O   UNL     1      -5.591  11.674  68.681  1.00  0.00    -0.046 OA 
BRANCH  17  19
HETATM   19  C   UNL     1      -6.924  12.898  70.195  1.00  0.00     0.896 A  
HETATM   20  N   UNL     1      -7.793  14.174  72.087  1.00  0.00     5.071 NA 
HETATM   21  C   UNL     1      -7.126  13.104  71.558  1.00  0.00     4.929 A  
HETATM   22  C   UNL     1      -8.322  15.024  71.194  1.00  0.00     3.152 A  
HETATM   23  C   UNL     1      -9.064  16.279  71.562  1.00  0.00     6.352 C  
HETATM   24  C   UNL     1      -9.659  16.740  70.213  1.00  0.00     1.622 C  
HETATM   25  C   UNL     1      -9.049  15.875  69.081  1.00  0.00    -0.255 C  
HETATM   26  C   UNL     1      -9.320  18.226  69.934  1.00  0.00     1.265 C  
HETATM   27  O   UNL     1      -8.208  18.713  69.840  1.00  0.00     0.811 OA 
HETATM   28  C   UNL     1      -8.231  14.870  69.827  1.00  0.00     0.141 A  
HETATM   29  N   UNL     1     -10.511  18.906  69.778  1.00  0.00     0.135 N  
HETATM   30  C   UNL     1     -11.597  18.081  69.964  1.00  0.00     4.383 A  
HETATM   31  C   UNL     1      -7.477  13.830  69.308  1.00  0.00     0.142 A  
HETATM   32  H   UNL     1     -10.578  19.898  69.552  1.00  0.00     0.000 HD 
HETATM   33  N   UNL     1     -12.865  18.492  69.928  1.00  0.00    15.543 NA 
HETATM   34  C   UNL     1     -13.774  17.525  70.191  1.00  0.00    14.874 A  
HETATM   35  C   UNL     1     -13.452  16.194  70.470  1.00  0.00     1.941 A  
HETATM   36  C   UNL     1     -12.111  15.807  70.485  1.00  0.00    -0.407 A  
HETATM   37  C   UNL     1     -11.168  16.785  70.222  1.00  0.00     0.181 A  
ENDBRANCH  17  19
ENDBRANCH   7  15
BRANCH   6  38
HETATM   38  C   UNL     1      -8.812   7.791  68.990  1.00  0.00    -0.138 C  
HETATM   39  F   UNL     1      -9.660   5.724  68.154  1.00  0.00    -0.111 F  
HETATM   40  F   UNL     1     -10.964   6.831  69.507  1.00  0.00    -0.240 F  
HETATM   41  C   UNL     1      -9.678   6.531  69.247  1.00  0.00    -0.144 C  
HETATM   42  F   UNL     1      -9.211   5.768  70.272  1.00  0.00    -0.144 F  
ENDBRANCH   6  38
TORSDOF 4
ENDMDL
MODEL      173
REMARK 921   NORMALIZED FREE ENERGY PREDICTED BY IDOCK:   93.37 KCAL/MOL
REMARK 922        TOTAL FREE ENERGY PREDICTED BY IDOCK:  113.61 KCAL/MOL
REMARK 923 INTER-LIGAND FREE ENERGY PREDICTED BY IDOCK:  111.19 KCAL/MOL
REMARK 924 INTRA-LIGAND FREE ENERGY PREDICTED BY IDOCK:    2.42 KCAL/MOL
REMARK 927      BINDING AFFINITY PREDICTED BY RF-SCORE:    0.00 PKD
ROOT
HETATM    1  C   UNL     1      -9.991  12.514  70.857  1.00  0.00     7.358 C  
HETATM    2  C   UNL     1     -11.227  12.687  69.963  1.00  0.00     0.302 C  
HETATM    3  C   UNL     1     -12.126  11.417  69.988  1.00  0.00    -0.417 C  
HETATM    4  C   UNL     1     -13.426  11.725  69.217  1.00  0.00     3.705 C  
HETATM    5  O   UNL     1     -12.090  14.215  66.860  1.00  0.00    -0.430 OA 
HETATM    6  N   UNL     1     -11.009  13.153  68.580  1.00  0.00    -0.257 N  
HETATM    7  C   UNL     1     -13.197  12.271  67.806  1.00  0.00     5.159 C  
HETATM    8  C   UNL     1     -12.125  13.378  67.762  1.00  0.00    -0.259 C  
ENDROOT
BRANCH   3   9
HETATM    9  C   UNL     1     -11.457  10.109  69.570  1.00  0.00    -0.227 A  
HETATM   10  C   UNL     1      -9.965   8.258  70.107  1.00  0.00    -0.187 A  
HETATM   11  C   UNL     1     -10.642   9.425  70.483  1.00  0.00    -0.331 A  
HETATM   12  C   UNL     1     -11.581   9.561  68.286  1.00  0.00     0.707 A  
HETATM   13  C   UNL     1     -10.898   8.407  67.901  1.00  0.00    -0.037 A  
HETATM   14  C   UNL     1     -10.089   7.752  68.814  1.00  0.00    -0.205 A  
ENDBRANCH   3   9
BRANCH   7  15
HETATM   15  N   UNL     1     -12.730  11.260  66.854  1.00  0.00     3.515 N  
HETATM   16  H   UNL     1     -12.745  10.283  67.147  1.00  0.00     0.000 HD 
HETATM   17  C   UNL     1     -12.271  11.545  65.590  1.00  0.00     1.251 C  
HETATM   18  O   UNL     1     -12.174  12.685  65.151  1.00  0.00    -0.441 OA 
BRANCH  17  19
HETATM   19  C   UNL     1     -11.894  10.377  64.744  1.00  0.00     3.565 A  
HETATM   20  N   UNL     1     -12.127   9.249  62.591  1.00  0.00    11.557 NA 
HETATM   21  C   UNL     1     -12.380  10.289  63.440  1.00  0.00     5.999 A  
HETATM   22  C   UNL     1     -11.409   8.240  63.109  1.00  0.00    16.847 A  
HETATM   23  C   UNL     1     -10.992   7.019  62.337  1.00  0.00     9.315 C  
HETATM   24  C   UNL     1     -10.423   6.093  63.434  1.00  0.00     5.691 C  
HETATM   25  C   UNL     1     -10.314   6.896  64.755  1.00  0.00     4.944 C  
HETATM   26  C   UNL     1      -9.012   5.579  63.052  1.00  0.00     0.283 C  
HETATM   27  O   UNL     1      -8.026   6.258  62.833  1.00  0.00    -0.099 OA 
HETATM   28  C   UNL     1     -10.940   8.208  64.405  1.00  0.00    11.294 A  
HETATM   29  N   UNL     1      -9.058   4.199  63.034  1.00  0.00    -0.116 N  
HETATM   30  C   UNL     1     -10.322   3.728  63.305  1.00  0.00    -0.214 A  
HETATM   31  C   UNL     1     -11.129   9.308  65.225  1.00  0.00     4.047 A  
HETATM   32  H   UNL     1      -8.253   3.603  62.843  1.00  0.00     0.000 HD 
HETATM   33  N   UNL     1     -10.660   2.438  63.294  1.00  0.00    -0.188 NA 
HETATM   34  C   UNL     1     -11.970   2.200  63.535  1.00  0.00     2.160 A  
HETATM   35  C   UNL     1     -12.918   3.194  63.790  1.00  0.00    10.933 A  
HETATM   36  C   UNL     1     -12.517   4.531  63.803  1.00  0.00     5.092 A  
HETATM   37  C   UNL     1     -11.181   4.792  63.554  1.00  0.00     1.536 A  
ENDBRANCH  17  19
ENDBRANCH   7  15
BRANCH   6  38
HETATM   38  C   UNL     1      -9.728  13.708  68.089  1.00  0.00    -0.229 C  
HETATM   39  F   UNL     1      -7.632  12.643  68.490  1.00  0.00    -0.113 F  
HETATM   40  F   UNL     1      -8.235  12.841  66.404  1.00  0.00     0.003 F  
HETATM   41  C   UNL     1      -8.700  12.634  67.650  1.00  0.00    -0.179 C  
HETATM   42  F   UNL     1      -9.198  11.369  67.705  1.00  0.00    -0.148 F  
ENDBRANCH   6  38
TORSDOF 4
ENDMDL
MODEL      174
REMARK 921   NORMALIZED FREE ENERGY PREDICTED BY IDOCK:   94.22 KCAL/MOL
REMARK 922        TOTAL FREE ENERGY PREDICTED BY IDOCK:  114.65 KCAL/MOL
REMARK 923 INTER-LIGAND FREE ENERGY PREDICTED BY IDOCK:   97.06 KCAL/MOL
REMARK 924 INTRA-LIGAND FREE ENERGY PREDICTED BY IDOCK:   17.59 KCAL/MOL
REMARK 927      BINDING AFFINITY PREDICTED BY RF-SCORE:    0.00 PKD
ROOT
HETATM    1  C   UNL     1     -13.517  14.374  69.977  1.00  0.00     0.940 C  
HETATM    2  C   UNL     1     -12.063  14.297  69.490  1.00  0.00    -0.330 C  
HETATM    3  C   UNL     1     -11.992  14.080  67.951  1.00  0.00    -0.387 C  
HETATM    4  C   UNL     1     -10.518  14.189  67.511  1.00  0.00    -0.249 C  
HETATM    5  O   UNL     1      -8.929  13.028  70.620  1.00  0.00     5.574 OA 
HETATM    6  N   UNL     1     -11.155  13.373  70.196  1.00  0.00     0.296 N  
HETATM    7  C   UNL     1      -9.568  13.277  68.290  1.00  0.00    -0.221 C  
HETATM    8  C   UNL     1      -9.808  13.327  69.812  1.00  0.00     1.693 C  
ENDROOT
BRANCH   3   9
HETATM    9  C   UNL     1     -12.707  12.843  67.410  1.00  0.00     1.348 A  
HETATM   10  C   UNL     1     -13.700  10.656  67.819  1.00  0.00    12.799 A  
HETATM   11  C   UNL     1     -13.101  11.829  68.294  1.00  0.00     3.912 A  
HETATM   12  C   UNL     1     -12.963  12.641  66.047  1.00  0.00     1.291 A  
HETATM   13  C   UNL     1     -13.546  11.469  65.567  1.00  0.00     7.175 A  
HETATM   14  C   UNL     1     -13.919  10.474  66.455  1.00  0.00    20.170 A  
ENDBRANCH   3   9
BRANCH   7  15
HETATM   15  N   UNL     1      -9.693  11.861  67.938  1.00  0.00    -0.186 N  
HETATM   16  H   UNL     1      -9.075  11.196  68.402  1.00  0.00     0.000 HD 
HETATM   17  C   UNL     1     -10.592  11.371  67.020  1.00  0.00    -0.248 C  
HETATM   18  O   UNL     1     -11.352  12.084  66.377  1.00  0.00    -0.325 OA 
BRANCH  17  19
HETATM   19  C   UNL     1     -10.611   9.891  66.839  1.00  0.00    -0.248 A  
HETATM   20  N   UNL     1     -11.050   7.711  67.847  1.00  0.00     0.115 NA 
HETATM   21  C   UNL     1     -11.025   9.077  67.892  1.00  0.00     0.066 A  
HETATM   22  C   UNL     1     -10.580   7.160  66.717  1.00  0.00    -0.221 A  
HETATM   23  C   UNL     1     -10.550   5.681  66.449  1.00  0.00    -0.254 C  
HETATM   24  C   UNL     1      -9.710   5.579  65.157  1.00  0.00     0.436 C  
HETATM   25  C   UNL     1      -9.487   7.006  64.597  1.00  0.00     1.963 C  
HETATM   26  C   UNL     1     -10.443   4.737  64.082  1.00  0.00     0.672 C  
HETATM   27  O   UNL     1     -11.534   4.971  63.595  1.00  0.00     1.698 OA 
HETATM   28  C   UNL     1     -10.091   7.880  65.648  1.00  0.00     1.233 A  
HETATM   29  N   UNL     1      -9.622   3.679  63.745  1.00  0.00    -0.141 N  
HETATM   30  C   UNL     1      -8.463   3.678  64.488  1.00  0.00    -0.097 A  
HETATM   31  C   UNL     1     -10.155   9.264  65.674  1.00  0.00     0.025 A  
HETATM   32  H   UNL     1      -9.847   2.984  63.034  1.00  0.00     0.000 HD 
HETATM   33  N   UNL     1      -7.522   2.736  64.406  1.00  0.00    -0.069 NA 
HETATM   34  C   UNL     1      -6.490   2.901  65.265  1.00  0.00    -0.035 A  
HETATM   35  C   UNL     1      -6.377   3.961  66.168  1.00  0.00    -0.033 A  
HETATM   36  C   UNL     1      -7.380   4.930  66.210  1.00  0.00    -0.078 A  
HETATM   37  C   UNL     1      -8.445   4.774  65.341  1.00  0.00    -0.129 A  
ENDBRANCH  17  19
ENDBRANCH   7  15
BRANCH   6  38
HETATM   38  C   UNL     1     -11.479  12.724  71.486  1.00  0.00     2.855 C  
HETATM   39  F   UNL     1     -10.830  10.486  71.996  1.00  0.00     1.116 F  
HETATM   40  F   UNL     1     -10.001  12.050  73.270  1.00  0.00    16.102 F  
HETATM   41  C   UNL     1     -10.377  11.768  72.009  1.00  0.00    11.859 C  
HETATM   42  F   UNL     1      -9.261  11.769  71.229  1.00  0.00     6.973 F  
ENDBRANCH   6  38
TORSDOF 4
ENDMDL
MODEL      175
REMARK 921   NORMALIZED FREE ENERGY PREDICTED BY IDOCK:   96.39 KCAL/MOL
REMARK 922        TOTAL FREE ENERGY PREDICTED BY IDOCK:  117.33 KCAL/MOL
REMARK 923 INTER-LIGAND FREE ENERGY PREDICTED BY IDOCK:  108.30 KCAL/MOL
REMARK 924 INTRA-LIGAND FREE ENERGY PREDICTED BY IDOCK:    9.03 KCAL/MOL
REMARK 927      BINDING AFFINITY PREDICTED BY RF-SCORE:    0.00 PKD
ROOT
HETATM    1  C   UNL     1      -7.311  20.133  69.393  1.00  0.00     0.042 C  
HETATM    2  C   UNL     1      -8.637  19.814  70.100  1.00  0.00     1.211 C  
HETATM    3  C   UNL     1      -8.461  18.673  71.144  1.00  0.00     6.237 C  
HETATM    4  C   UNL     1      -9.778  18.528  71.933  1.00  0.00     6.646 C  
HETATM    5  O   UNL     1     -12.112  19.655  69.320  1.00  0.00     5.197 OA 
HETATM    6  N   UNL     1      -9.821  19.577  69.253  1.00  0.00    -0.376 N  
HETATM    7  C   UNL     1     -11.015  18.349  71.050  1.00  0.00     3.212 C  
HETATM    8  C   UNL     1     -11.057  19.344  69.873  1.00  0.00     2.916 C  
ENDROOT
BRANCH   3   9
HETATM    9  C   UNL     1      -7.912  17.350  70.611  1.00  0.00     4.511 A  
HETATM   10  C   UNL     1      -8.091  15.489  69.048  1.00  0.00    -0.220 A  
HETATM   11  C   UNL     1      -8.532  16.732  69.516  1.00  0.00     0.412 A  
HETATM   12  C   UNL     1      -6.824  16.683  71.191  1.00  0.00     3.260 A  
HETATM   13  C   UNL     1      -6.388  15.439  70.739  1.00  0.00     0.334 A  
HETATM   14  C   UNL     1      -7.021  14.840  69.663  1.00  0.00    -0.172 A  
ENDBRANCH   3   9
BRANCH   7  15
HETATM   15  N   UNL     1     -11.104  17.027  70.425  1.00  0.00    -0.199 N  
HETATM   16  H   UNL     1     -11.631  16.943  69.556  1.00  0.00     0.000 HD 
HETATM   17  C   UNL     1     -10.522  15.891  70.936  1.00  0.00     0.428 C  
HETATM   18  O   UNL     1      -9.901  15.871  71.992  1.00  0.00     3.161 OA 
BRANCH  17  19
HETATM   19  C   UNL     1     -10.673  14.649  70.126  1.00  0.00     0.024 A  
HETATM   20  N   UNL     1      -9.557  12.853  68.905  1.00  0.00     0.121 NA 
HETATM   21  C   UNL     1      -9.535  13.979  69.680  1.00  0.00     0.922 A  
HETATM   22  C   UNL     1     -10.775  12.437  68.523  1.00  0.00    -0.238 A  
HETATM   23  C   UNL     1     -11.023  11.204  67.698  1.00  0.00    -0.323 C  
HETATM   24  C   UNL     1     -12.522  11.322  67.343  1.00  0.00     2.174 C  
HETATM   25  C   UNL     1     -13.138  12.482  68.165  1.00  0.00     3.626 C  
HETATM   26  C   UNL     1     -13.280  10.015  67.691  1.00  0.00    11.174 C  
HETATM   27  O   UNL     1     -13.374   9.501  68.790  1.00  0.00     4.595 OA 
HETATM   28  C   UNL     1     -11.952  13.069  68.861  1.00  0.00    -0.303 A  
HETATM   29  N   UNL     1     -13.864   9.547  66.532  1.00  0.00    21.223 N  
HETATM   30  C   UNL     1     -13.555  10.339  65.450  1.00  0.00    14.964 A  
HETATM   31  C   UNL     1     -11.918  14.156  69.719  1.00  0.00    -0.396 A  
HETATM   32  H   UNL     1     -14.452   8.715  66.483  1.00  0.00     0.000 HD 
HETATM   33  N   UNL     1     -13.940  10.084  64.198  1.00  0.00     9.046 NA 
HETATM   34  C   UNL     1     -13.480  10.964  63.280  1.00  0.00     3.743 A  
HETATM   35  C   UNL     1     -12.677  12.068  63.579  1.00  0.00    -0.567 A  
HETATM   36  C   UNL     1     -12.309  12.303  64.904  1.00  0.00    -0.376 A  
HETATM   37  C   UNL     1     -12.767  11.410  65.856  1.00  0.00     3.759 A  
ENDBRANCH  17  19
ENDBRANCH   7  15
BRANCH   6  38
HETATM   38  C   UNL     1      -9.875  19.883  67.806  1.00  0.00    -0.402 C  
HETATM   39  F   UNL     1      -9.585  18.211  66.130  1.00  0.00    -0.295 F  
HETATM   40  F   UNL     1     -11.516  19.223  66.166  1.00  0.00     0.016 F  
HETATM   41  C   UNL     1     -10.520  18.766  66.946  1.00  0.00    -0.414 C  
HETATM   42  F   UNL     1     -11.009  17.739  67.693  1.00  0.00    -0.373 F  
ENDBRANCH   6  38
TORSDOF 4
ENDMDL
MODEL      176
REMARK 921   NORMALIZED FREE ENERGY PREDICTED BY IDOCK:   96.92 KCAL/MOL
REMARK 922        TOTAL FREE ENERGY PREDICTED BY IDOCK:  117.99 KCAL/MOL
REMARK 923 INTER-LIGAND FREE ENERGY PREDICTED BY IDOCK:  119.02 KCAL/MOL
REMARK 924 INTRA-LIGAND FREE ENERGY PREDICTED BY IDOCK:   -1.03 KCAL/MOL
REMARK 927      BINDING AFFINITY PREDICTED BY RF-SCORE:    0.00 PKD
ROOT
HETATM    1  C   UNL     1     -11.942   7.796  63.008  1.00  0.00    22.133 C  
HETATM    2  C   UNL     1     -11.997   8.087  64.514  1.00  0.00    18.670 C  
HETATM    3  C   UNL     1     -13.162   9.059  64.861  1.00  0.00    21.993 C  
HETATM    4  C   UNL     1     -13.268   9.166  66.395  1.00  0.00    19.486 C  
HETATM    5  O   UNL     1      -9.738   8.548  67.234  1.00  0.00    -0.159 OA 
HETATM    6  N   UNL     1     -10.746   8.506  65.175  1.00  0.00     3.995 N  
HETATM    7  C   UNL     1     -11.953   9.536  67.084  1.00  0.00     4.215 C  
HETATM    8  C   UNL     1     -10.755   8.719  66.560  1.00  0.00     0.240 C  
ENDROOT
BRANCH   3   9
HETATM    9  C   UNL     1     -13.147  10.411  64.148  1.00  0.00     7.494 A  
HETATM   10  C   UNL     1     -11.960  12.040  62.779  1.00  0.00     0.511 A  
HETATM   11  C   UNL     1     -12.028  10.782  63.389  1.00  0.00     2.066 A  
HETATM   12  C   UNL     1     -14.194  11.338  64.242  1.00  0.00     5.228 A  
HETATM   13  C   UNL     1     -14.127  12.597  63.648  1.00  0.00     3.977 A  
HETATM   14  C   UNL     1     -13.008  12.950  62.912  1.00  0.00     0.961 A  
ENDBRANCH   3   9
BRANCH   7  15
HETATM   15  N   UNL     1     -11.563  10.935  66.894  1.00  0.00     0.198 N  
HETATM   16  H   UNL     1     -11.173  11.205  65.990  1.00  0.00     0.000 HD 
HETATM   17  C   UNL     1     -11.689  11.909  67.856  1.00  0.00    -0.298 C  
HETATM   18  O   UNL     1     -12.108  11.688  68.985  1.00  0.00    -0.313 OA 
BRANCH  17  19
HETATM   19  C   UNL     1     -11.293  13.289  67.456  1.00  0.00    -0.329 A  
HETATM   20  N   UNL     1     -11.681  15.177  65.956  1.00  0.00    -0.094 NA 
HETATM   21  C   UNL     1     -11.981  13.929  66.426  1.00  0.00    -0.438 A  
HETATM   22  C   UNL     1     -10.609  15.762  66.512  1.00  0.00    -0.306 A  
HETATM   23  C   UNL     1     -10.128  17.144  66.165  1.00  0.00    -0.317 C  
HETATM   24  C   UNL     1      -8.763  17.227  66.882  1.00  0.00    -0.261 C  
HETATM   25  C   UNL     1      -8.611  15.992  67.806  1.00  0.00    -0.168 C  
HETATM   26  C   UNL     1      -8.668  18.507  67.752  1.00  0.00    -0.275 C  
HETATM   27  O   UNL     1      -9.400  18.813  68.676  1.00  0.00    -0.337 OA 
HETATM   28  C   UNL     1      -9.829  15.183  67.490  1.00  0.00    -0.220 A  
HETATM   29  N   UNL     1      -7.579  19.233  67.314  1.00  0.00    -0.231 N  
HETATM   30  C   UNL     1      -6.967  18.632  66.238  1.00  0.00    -0.236 A  
HETATM   31  C   UNL     1     -10.198  13.956  68.017  1.00  0.00    -0.246 A  
HETATM   32  H   UNL     1      -7.268  20.107  67.736  1.00  0.00     0.000 HD 
HETATM   33  N   UNL     1      -5.927  19.150  65.582  1.00  0.00    -0.178 NA 
HETATM   34  C   UNL     1      -5.515  18.420  64.520  1.00  0.00    -0.024 A  
HETATM   35  C   UNL     1      -6.096  17.214  64.119  1.00  0.00     6.085 A  
HETATM   36  C   UNL     1      -7.174  16.704  64.843  1.00  0.00     5.926 A  
HETATM   37  C   UNL     1      -7.611  17.440  65.929  1.00  0.00    -0.106 A  
ENDBRANCH  17  19
ENDBRANCH   7  15
BRANCH   6  38
HETATM   38  C   UNL     1      -9.410   8.409  64.547  1.00  0.00     1.105 C  
HETATM   39  F   UNL     1      -8.769   9.748  62.680  1.00  0.00    -0.155 F  
HETATM   40  F   UNL     1      -7.618  10.024  64.511  1.00  0.00    -0.124 F  
HETATM   41  C   UNL     1      -8.850   9.761  64.037  1.00  0.00    -0.231 C  
HETATM   42  F   UNL     1      -9.652  10.817  64.345  1.00  0.00    -0.223 F  
ENDBRANCH   6  38
TORSDOF 4
ENDMDL
MODEL      177
REMARK 921   NORMALIZED FREE ENERGY PREDICTED BY IDOCK:  103.53 KCAL/MOL
REMARK 922        TOTAL FREE ENERGY PREDICTED BY IDOCK:  126.15 KCAL/MOL
REMARK 923 INTER-LIGAND FREE ENERGY PREDICTED BY IDOCK:  110.16 KCAL/MOL
REMARK 924 INTRA-LIGAND FREE ENERGY PREDICTED BY IDOCK:   15.99 KCAL/MOL
REMARK 927      BINDING AFFINITY PREDICTED BY RF-SCORE:    0.00 PKD
ROOT
HETATM    1  C   UNL     1     -10.072   5.374  64.155  1.00  0.00     1.609 C  
HETATM    2  C   UNL     1      -9.933   6.744  63.475  1.00  0.00     5.325 C  
HETATM    3  C   UNL     1      -8.632   7.469  63.926  1.00  0.00     0.440 C  
HETATM    4  C   UNL     1      -8.468   8.747  63.079  1.00  0.00    -0.143 C  
HETATM    5  O   UNL     1     -12.024   9.434  62.428  1.00  0.00     8.066 OA 
HETATM    6  N   UNL     1     -11.092   7.655  63.533  1.00  0.00    15.551 N  
HETATM    7  C   UNL     1      -9.696   9.659  63.087  1.00  0.00     0.730 C  
HETATM    8  C   UNL     1     -11.013   8.887  62.869  1.00  0.00     9.574 C  
ENDROOT
BRANCH   3   9
HETATM    9  C   UNL     1      -8.474   7.700  65.428  1.00  0.00    -0.110 A  
HETATM   10  C   UNL     1      -8.108   6.787  67.658  1.00  0.00    -0.116 A  
HETATM   11  C   UNL     1      -8.194   6.616  66.271  1.00  0.00    -0.120 A  
HETATM   12  C   UNL     1      -8.636   8.956  66.031  1.00  0.00    -0.162 A  
HETATM   13  C   UNL     1      -8.565   9.131  67.412  1.00  0.00    -0.115 A  
HETATM   14  C   UNL     1      -8.299   8.044  68.229  1.00  0.00    -0.123 A  
ENDBRANCH   3   9
BRANCH   7  15
HETATM   15  N   UNL     1      -9.888  10.376  64.349  1.00  0.00    -0.328 N  
HETATM   16  H   UNL     1      -9.452  11.293  64.450  1.00  0.00     0.000 HD 
HETATM   17  C   UNL     1     -10.619   9.892  65.408  1.00  0.00     0.475 C  
HETATM   18  O   UNL     1     -11.151   8.789  65.409  1.00  0.00     3.488 OA 
BRANCH  17  19
HETATM   19  C   UNL     1     -10.750  10.793  66.589  1.00  0.00    -0.268 A  
HETATM   20  N   UNL     1     -11.853  11.221  68.724  1.00  0.00    -0.430 NA 
HETATM   21  C   UNL     1     -11.629  10.454  67.616  1.00  0.00     0.353 A  
HETATM   22  C   UNL     1     -11.207  12.397  68.754  1.00  0.00    -0.273 A  
HETATM   23  C   UNL     1     -11.287  13.374  69.895  1.00  0.00    -0.082 C  
HETATM   24  C   UNL     1     -10.584  14.627  69.329  1.00  0.00    -0.236 C  
HETATM   25  C   UNL     1      -9.918  14.256  67.980  1.00  0.00    -0.220 C  
HETATM   26  C   UNL     1      -9.485  15.134  70.298  1.00  0.00     0.524 C  
HETATM   27  O   UNL     1      -8.511  14.512  70.680  1.00  0.00     1.589 OA 
HETATM   28  C   UNL     1     -10.368  12.848  67.757  1.00  0.00    -0.223 A  
HETATM   29  N   UNL     1      -9.788  16.438  70.631  1.00  0.00     1.384 N  
HETATM   30  C   UNL     1     -10.967  16.851  70.054  1.00  0.00     0.156 A  
HETATM   31  C   UNL     1     -10.083  12.020  66.683  1.00  0.00    -0.220 A  
HETATM   32  H   UNL     1      -9.210  17.024  71.232  1.00  0.00     0.000 HD 
HETATM   33  N   UNL     1     -11.524  18.046  70.256  1.00  0.00     3.166 NA 
HETATM   34  C   UNL     1     -12.711  18.224  69.633  1.00  0.00    13.732 A  
HETATM   35  C   UNL     1     -13.330  17.265  68.826  1.00  0.00     7.613 A  
HETATM   36  C   UNL     1     -12.705  16.032  68.633  1.00  0.00     1.478 A  
HETATM   37  C   UNL     1     -11.492  15.832  69.267  1.00  0.00    -0.368 A  
ENDBRANCH  17  19
ENDBRANCH   7  15
BRANCH   6  38
HETATM   38  C   UNL     1     -12.446   7.240  63.963  1.00  0.00    20.892 C  
HETATM   39  F   UNL     1     -13.330   5.073  63.503  1.00  0.00     5.504 F  
HETATM   40  F   UNL     1     -13.089   5.596  65.607  1.00  0.00     3.507 F  
HETATM   41  C   UNL     1     -12.549   5.752  64.384  1.00  0.00     7.841 C  
HETATM   42  F   UNL     1     -11.347   5.114  64.374  1.00  0.00     0.698 F  
ENDBRANCH   6  38
TORSDOF 4
ENDMDL
MODEL      178
REMARK 921   NORMALIZED FREE ENERGY PREDICTED BY IDOCK:  109.65 KCAL/MOL
REMARK 922        TOTAL FREE ENERGY PREDICTED BY IDOCK:  133.69 KCAL/MOL
REMARK 923 INTER-LIGAND FREE ENERGY PREDICTED BY IDOCK:  134.35 KCAL/MOL
REMARK 924 INTRA-LIGAND FREE ENERGY PREDICTED BY IDOCK:   -0.66 KCAL/MOL
REMARK 927      BINDING AFFINITY PREDICTED BY RF-SCORE:    0.00 PKD
ROOT
HETATM    1  C   UNL     1      -8.859  10.269  65.229  1.00  0.00    -0.200 C  
HETATM    2  C   UNL     1      -7.480  10.742  65.710  1.00  0.00    -0.067 C  
HETATM    3  C   UNL     1      -7.189  10.257  67.160  1.00  0.00    -0.090 C  
HETATM    4  C   UNL     1      -5.731  10.615  67.509  1.00  0.00    -0.044 C  
HETATM    5  O   UNL     1      -5.371  13.599  65.386  1.00  0.00     7.694 OA 
HETATM    6  N   UNL     1      -7.160  12.174  65.558  1.00  0.00     2.346 N  
HETATM    7  C   UNL     1      -5.382  12.088  67.289  1.00  0.00    -0.119 C  
HETATM    8  C   UNL     1      -5.886  12.623  65.933  1.00  0.00     3.754 C  
ENDROOT
BRANCH   3   9
HETATM    9  C   UNL     1      -8.200  10.676  68.226  1.00  0.00    -0.120 A  
HETATM   10  C   UNL     1      -9.023  10.496  70.513  1.00  0.00     1.504 A  
HETATM   11  C   UNL     1      -8.076  10.181  69.532  1.00  0.00    -0.176 A  
HETATM   12  C   UNL     1      -9.292  11.513  67.960  1.00  0.00    -0.175 A  
HETATM   13  C   UNL     1     -10.247  11.820  68.928  1.00  0.00    -0.119 A  
HETATM   14  C   UNL     1     -10.112  11.312  70.210  1.00  0.00     1.636 A  
ENDBRANCH   3   9
BRANCH   7  15
HETATM   15  N   UNL     1      -5.968  12.986  68.287  1.00  0.00    -0.077 N  
HETATM   16  H   UNL     1      -6.371  13.865  67.961  1.00  0.00     0.000 HD 
HETATM   17  C   UNL     1      -6.008  12.721  69.634  1.00  0.00    -0.121 C  
HETATM   18  O   UNL     1      -5.519  11.716  70.136  1.00  0.00    -0.086 OA 
BRANCH  17  19
HETATM   19  C   UNL     1      -6.699  13.729  70.487  1.00  0.00     0.436 A  
HETATM   20  N   UNL     1      -7.598  14.275  72.691  1.00  0.00     4.390 NA 
HETATM   21  C   UNL     1      -6.944  13.441  71.829  1.00  0.00     4.318 A  
HETATM   22  C   UNL     1      -8.070  15.410  72.151  1.00  0.00     6.969 A  
HETATM   23  C   UNL     1      -8.788  16.479  72.929  1.00  0.00    15.981 C  
HETATM   24  C   UNL     1      -9.320  17.415  71.822  1.00  0.00     9.805 C  
HETATM   25  C   UNL     1      -8.695  16.990  70.469  1.00  0.00     3.848 C  
HETATM   26  C   UNL     1      -8.928  18.888  72.104  1.00  0.00     8.557 C  
HETATM   27  O   UNL     1      -7.800  19.331  72.217  1.00  0.00     4.160 OA 
HETATM   28  C   UNL     1      -7.933  15.753  70.823  1.00  0.00     2.482 A  
HETATM   29  N   UNL     1     -10.092  19.626  72.175  1.00  0.00     1.988 N  
HETATM   30  C   UNL     1     -11.208  18.833  72.026  1.00  0.00     4.657 A  
HETATM   31  C   UNL     1      -7.192  14.938  69.983  1.00  0.00     0.009 A  
HETATM   32  H   UNL     1     -10.122  20.635  72.319  1.00  0.00     0.000 HD 
HETATM   33  N   UNL     1     -12.462  19.280  72.111  1.00  0.00    14.572 NA 
HETATM   34  C   UNL     1     -13.407  18.320  71.988  1.00  0.00    17.303 A  
HETATM   35  C   UNL     1     -13.134  16.966  71.777  1.00  0.00     4.125 A  
HETATM   36  C   UNL     1     -11.806  16.546  71.683  1.00  0.00    -0.155 A  
HETATM   37  C   UNL     1     -10.826  17.514  71.811  1.00  0.00     2.405 A  
ENDBRANCH  17  19
ENDBRANCH   7  15
BRANCH   6  38
HETATM   38  C   UNL     1      -7.961  13.117  64.745  1.00  0.00     6.796 C  
HETATM   39  F   UNL     1      -9.721  14.434  65.672  1.00  0.00    -0.321 F  
HETATM   40  F   UNL     1      -8.032  15.527  64.830  1.00  0.00     3.448 F  
HETATM   41  C   UNL     1      -8.373  14.409  65.497  1.00  0.00     3.203 C  
HETATM   42  F   UNL     1      -7.841  14.488  66.747  1.00  0.00    -0.169 F  
ENDBRANCH   6  38
TORSDOF 4
ENDMDL
MODEL      179
REMARK 921   NORMALIZED FREE ENERGY PREDICTED BY IDOCK:  110.05 KCAL/MOL
REMARK 922        TOTAL FREE ENERGY PREDICTED BY IDOCK:  134.19 KCAL/MOL
REMARK 923 INTER-LIGAND FREE ENERGY PREDICTED BY IDOCK:  125.74 KCAL/MOL
REMARK 924 INTRA-LIGAND FREE ENERGY PREDICTED BY IDOCK:    8.45 KCAL/MOL
REMARK 927      BINDING AFFINITY PREDICTED BY RF-SCORE:    0.00 PKD
ROOT
HETATM    1  C   UNL     1      -8.990  15.182  74.154  1.00  0.00    12.560 C  
HETATM    2  C   UNL     1     -10.143  15.432  73.171  1.00  0.00     5.524 C  
HETATM    3  C   UNL     1     -11.272  14.375  73.344  1.00  0.00     1.756 C  
HETATM    4  C   UNL     1     -12.464  14.787  72.457  1.00  0.00    -0.414 C  
HETATM    5  O   UNL     1     -10.603  16.552  69.818  1.00  0.00    -0.311 OA 
HETATM    6  N   UNL     1      -9.800  15.610  71.748  1.00  0.00     2.633 N  
HETATM    7  C   UNL     1     -12.094  15.036  70.994  1.00  0.00    -0.324 C  
HETATM    8  C   UNL     1     -10.826  15.899  70.838  1.00  0.00    -0.063 C  
ENDROOT
BRANCH   3   9
HETATM    9  C   UNL     1     -10.858  12.913  73.181  1.00  0.00    12.389 A  
HETATM   10  C   UNL     1     -11.492  10.567  73.004  1.00  0.00     6.877 A  
HETATM   11  C   UNL     1     -11.843  11.919  73.089  1.00  0.00     8.474 A  
HETATM   12  C   UNL     1      -9.521  12.494  73.157  1.00  0.00    23.658 A  
HETATM   13  C   UNL     1      -9.165  11.148  73.086  1.00  0.00    18.916 A  
HETATM   14  C   UNL     1     -10.153  10.181  73.007  1.00  0.00     8.329 A  
ENDBRANCH   3   9
BRANCH   7  15
HETATM   15  N   UNL     1     -11.806  13.810  70.244  1.00  0.00    -0.437 N  
HETATM   16  H   UNL     1     -11.201  13.881  69.426  1.00  0.00     0.000 HD 
HETATM   17  C   UNL     1     -12.300  12.571  70.574  1.00  0.00    -0.262 C  
HETATM   18  O   UNL     1     -13.064  12.379  71.511  1.00  0.00    -0.378 OA 
BRANCH  17  19
HETATM   19  C   UNL     1     -11.847  11.431  69.725  1.00  0.00    -0.435 A  
HETATM   20  N   UNL     1     -12.210  10.117  67.701  1.00  0.00     1.990 NA 
HETATM   21  C   UNL     1     -12.517  11.154  68.535  1.00  0.00     0.749 A  
HETATM   22  C   UNL     1     -11.230   9.303  68.125  1.00  0.00     0.280 A  
HETATM   23  C   UNL     1     -10.716   8.125  67.344  1.00  0.00    -0.247 C  
HETATM   24  C   UNL     1      -9.800   7.408  68.361  1.00  0.00    -0.165 C  
HETATM   25  C   UNL     1      -9.632   8.318  69.604  1.00  0.00    -0.167 C  
HETATM   26  C   UNL     1      -8.400   7.139  67.754  1.00  0.00    -0.118 C  
HETATM   27  O   UNL     1      -7.618   7.971  67.332  1.00  0.00    -0.094 OA 
HETATM   28  C   UNL     1     -10.554   9.459  69.315  1.00  0.00    -0.239 A  
HETATM   29  N   UNL     1      -8.175   5.778  67.805  1.00  0.00    -0.102 N  
HETATM   30  C   UNL     1      -9.258   5.102  68.318  1.00  0.00    -0.117 A  
HETATM   31  C   UNL     1     -10.816  10.565  70.107  1.00  0.00    -0.291 A  
HETATM   32  H   UNL     1      -7.312   5.329  67.499  1.00  0.00     0.000 HD 
HETATM   33  N   UNL     1      -9.332   3.774  68.424  1.00  0.00    -0.161 NA 
HETATM   34  C   UNL     1     -10.510   3.315  68.907  1.00  0.00     2.205 A  
HETATM   35  C   UNL     1     -11.579   4.132  69.284  1.00  0.00     8.170 A  
HETATM   36  C   UNL     1     -11.452   5.517  69.167  1.00  0.00     1.233 A  
HETATM   37  C   UNL     1     -10.256   6.003  68.671  1.00  0.00    -0.233 A  
ENDBRANCH  17  19
ENDBRANCH   7  15
BRANCH   6  38
HETATM   38  C   UNL     1      -8.422  15.825  71.253  1.00  0.00     4.528 C  
HETATM   39  F   UNL     1      -6.494  15.263  72.540  1.00  0.00     1.169 F  
HETATM   40  F   UNL     1      -6.743  14.198  70.654  1.00  0.00    -0.095 F  
HETATM   41  C   UNL     1      -7.413  14.732  71.691  1.00  0.00     3.097 C  
HETATM   42  F   UNL     1      -8.000  13.715  72.379  1.00  0.00     5.856 F  
ENDBRANCH   6  38
TORSDOF 4
ENDMDL
