MODEL        1
REMARK 921   NORMALIZED FREE ENERGY PREDICTED BY IDOCK:   -7.68 KCAL/MOL
REMARK 922        TOTAL FREE ENERGY PREDICTED BY IDOCK:  -14.86 KCAL/MOL
REMARK 923 INTER-LIGAND FREE ENERGY PREDICTED BY IDOCK:  -12.63 KCAL/MOL
REMARK 924 INTRA-LIGAND FREE ENERGY PREDICTED BY IDOCK:   -2.23 KCAL/MOL
REMARK 927      BINDING AFFINITY PREDICTED BY RF-SCORE:    0.00 PKD
ROOT
HETATM    1  C   UNL     1     -12.435  12.078  63.473  1.00  0.00    -0.654 C  
HETATM    2  C   UNL     1     -12.448  12.571  64.908  1.00  0.00    -0.524 C  
ENDROOT
BRANCH   2   3
HETATM    3  C   UNL     1     -12.555  14.084  65.001  1.00  0.00    -0.390 C  
BRANCH   3   4
HETATM    4  O   UNL     1     -12.228  14.574  66.315  1.00  0.00    -0.359 OA 
BRANCH   4   5
HETATM    5  C   UNL     1     -10.878  14.788  66.529  1.00  0.00    -0.319 A  
HETATM    6  C   UNL     1     -10.257  14.280  67.697  1.00  0.00    -0.237 A  
HETATM    7  C   UNL     1      -8.891  14.567  67.936  1.00  0.00    -0.176 A  
HETATM    8  C   UNL     1     -10.110  15.538  65.628  1.00  0.00    -0.406 A  
HETATM    9  C   UNL     1      -8.171  15.364  67.036  1.00  0.00    -0.236 A  
HETATM   10  C   UNL     1      -8.791  15.855  65.898  1.00  0.00    -0.168 A  
BRANCH   6  11
HETATM   11  C   UNL     1     -11.006  13.454  68.727  1.00  0.00    -0.257 C  
HETATM   12  C   UNL     1     -11.436  11.330  69.631  1.00  0.00    -0.309 C  
HETATM   13  N   UNL     1     -10.811  12.159  68.711  1.00  0.00    -0.227 N  
HETATM   14  H   UNL     1     -10.191  11.754  68.011  1.00  0.00     0.000 HD 
HETATM   15  N   UNL     1     -11.850  14.121  69.602  1.00  0.00    -0.303 NA 
HETATM   16  N   UNL     1     -13.655  12.560  72.269  1.00  0.00    -0.476 NA 
HETATM   17  C   UNL     1     -13.333  13.677  71.595  1.00  0.00    -0.346 A  
HETATM   18  C   UNL     1     -12.262  12.029  70.563  1.00  0.00    -0.325 A  
HETATM   19  O   UNL     1     -11.296  10.112  69.640  1.00  0.00    -0.246 OA 
HETATM   20  C   UNL     1     -13.082  10.219  72.112  1.00  0.00    -0.343 C  
HETATM   21  C   UNL     1     -12.460  13.377  70.535  1.00  0.00    -0.279 A  
HETATM   22  N   UNL     1     -12.983  11.573  71.624  1.00  0.00    -0.437 NA 
BRANCH  17  23
HETATM   23  C   UNL     1     -13.896  14.990  72.024  1.00  0.00    -0.578 C  
BRANCH  23  24
HETATM   24  C   UNL     1     -12.887  15.910  72.714  1.00  0.00    -0.572 C  
HETATM   25  C   UNL     1     -12.643  15.561  74.177  1.00  0.00    -0.743 C  
ENDBRANCH  23  24
ENDBRANCH  17  23
ENDBRANCH   6  11
BRANCH   9  26
HETATM   26  S   UNL     1      -6.486  15.842  67.347  1.00  0.00    -0.142 S  
HETATM   27  O   UNL     1      -6.140  16.851  66.373  1.00  0.00    -0.286 OA 
HETATM   28  O   UNL     1      -5.727  14.625  67.518  1.00  0.00    -0.337 OA 
BRANCH  26  29
HETATM   29  N   UNL     1      -6.576  16.644  68.855  1.00  0.00    -0.166 N  
HETATM   30  H   UNL     1      -6.867  16.158  69.703  1.00  0.00     0.000 HD 
BRANCH  29  31
HETATM   31  C   UNL     1      -6.212  18.075  68.867  1.00  0.00    -0.215 C  
BRANCH  31  32
HETATM   32  C   UNL     1      -7.423  18.975  69.088  1.00  0.00    -0.270 C  
BRANCH  32  33
HETATM   33  C   UNL     1      -8.469  18.733  67.983  1.00  0.00    -0.292 C  
HETATM   34  C   UNL     1      -9.859  18.426  68.538  1.00  0.00    -0.402 C  
HETATM   35  C   UNL     1     -10.768  18.787  67.387  1.00  0.00    -0.487 C  
HETATM   36  C   UNL     1      -7.803  19.942  65.972  1.00  0.00    -0.323 C  
HETATM   37  N   UNL     1      -8.670  19.929  67.146  1.00  0.00    -0.316 NA 
HETATM   38  C   UNL     1     -10.093  19.999  66.771  1.00  0.00    -0.476 C  
ENDBRANCH  32  33
ENDBRANCH  31  32
ENDBRANCH  29  31
ENDBRANCH  26  29
ENDBRANCH   9  26
ENDBRANCH   4   5
ENDBRANCH   3   4
ENDBRANCH   2   3
TORSDOF 11
ENDMDL
MODEL        2
REMARK 921   NORMALIZED FREE ENERGY PREDICTED BY IDOCK:   -7.47 KCAL/MOL
REMARK 922        TOTAL FREE ENERGY PREDICTED BY IDOCK:  -14.50 KCAL/MOL
REMARK 923 INTER-LIGAND FREE ENERGY PREDICTED BY IDOCK:  -11.91 KCAL/MOL
REMARK 924 INTRA-LIGAND FREE ENERGY PREDICTED BY IDOCK:   -2.59 KCAL/MOL
REMARK 927      BINDING AFFINITY PREDICTED BY RF-SCORE:    0.00 PKD
ROOT
HETATM    1  C   UNL     1     -12.041  16.140  72.497  1.00  0.00    -0.644 C  
HETATM    2  C   UNL     1     -13.429  15.652  72.865  1.00  0.00    -0.657 C  
ENDROOT
BRANCH   2   3
HETATM    3  C   UNL     1     -13.579  14.148  72.699  1.00  0.00    -0.515 C  
BRANCH   3   4
HETATM    4  O   UNL     1     -13.369  13.727  71.339  1.00  0.00    -0.326 OA 
BRANCH   4   5
HETATM    5  C   UNL     1     -12.826  12.461  71.207  1.00  0.00    -0.240 A  
HETATM    6  C   UNL     1     -11.860  12.206  70.203  1.00  0.00    -0.368 A  
HETATM    7  C   UNL     1     -11.365  10.890  70.035  1.00  0.00    -0.386 A  
HETATM    8  C   UNL     1     -13.242  11.403  72.027  1.00  0.00    -0.432 A  
HETATM    9  C   UNL     1     -11.844   9.850  70.842  1.00  0.00    -0.356 A  
HETATM   10  C   UNL     1     -12.790  10.112  71.820  1.00  0.00    -0.554 A  
BRANCH   6  11
HETATM   11  C   UNL     1     -11.344  13.289  69.271  1.00  0.00    -0.253 C  
HETATM   12  C   UNL     1      -9.907  15.119  68.964  1.00  0.00    -0.238 C  
HETATM   13  N   UNL     1     -10.450  14.115  69.751  1.00  0.00    -0.396 N  
HETATM   14  H   UNL     1     -10.148  14.019  70.721  1.00  0.00     0.000 HD 
HETATM   15  N   UNL     1     -11.862  13.336  67.985  1.00  0.00    -0.357 NA 
HETATM   16  N   UNL     1     -10.791  15.620  65.447  1.00  0.00    -0.377 NA 
HETATM   17  C   UNL     1     -11.582  14.599  65.819  1.00  0.00    -0.328 A  
HETATM   18  C   UNL     1     -10.405  15.129  67.625  1.00  0.00    -0.248 A  
HETATM   19  O   UNL     1      -9.081  15.926  69.379  1.00  0.00    -0.250 OA 
HETATM   20  C   UNL     1      -9.094  16.971  66.511  1.00  0.00    -0.264 C  
HETATM   21  C   UNL     1     -11.355  14.267  67.166  1.00  0.00    -0.337 A  
HETATM   22  N   UNL     1     -10.080  15.918  66.564  1.00  0.00    -0.270 NA 
BRANCH  17  23
HETATM   23  C   UNL     1     -12.524  13.994  64.833  1.00  0.00    -0.419 C  
BRANCH  23  24
HETATM   24  C   UNL     1     -11.861  13.041  63.836  1.00  0.00    -0.542 C  
HETATM   25  C   UNL     1     -12.731  11.848  63.460  1.00  0.00    -0.530 C  
ENDBRANCH  23  24
ENDBRANCH  17  23
ENDBRANCH   6  11
BRANCH   9  26
HETATM   26  S   UNL     1     -11.335   8.162  70.598  1.00  0.00    -0.213 S  
HETATM   27  O   UNL     1     -12.515   7.338  70.714  1.00  0.00    -0.259 OA 
HETATM   28  O   UNL     1     -10.154   7.958  71.404  1.00  0.00    -0.174 OA 
BRANCH  26  29
HETATM   29  N   UNL     1     -10.883   8.122  68.948  1.00  0.00    -0.425 N  
HETATM   30  H   UNL     1     -11.489   8.497  68.218  1.00  0.00     0.000 HD 
BRANCH  29  31
HETATM   31  C   UNL     1      -9.572   7.518  68.636  1.00  0.00    -0.151 C  
BRANCH  31  32
HETATM   32  C   UNL     1      -8.452   8.553  68.622  1.00  0.00    -0.131 C  
BRANCH  32  33
HETATM   33  C   UNL     1      -8.470   9.335  67.294  1.00  0.00    -0.125 C  
HETATM   34  C   UNL     1      -9.204   8.593  66.179  1.00  0.00    -0.271 C  
HETATM   35  C   UNL     1      -9.586   9.705  65.231  1.00  0.00    -0.347 C  
HETATM   36  C   UNL     1      -8.318  11.722  67.770  1.00  0.00    -0.146 C  
HETATM   37  N   UNL     1      -9.197  10.610  67.419  1.00  0.00    -0.143 NA 
HETATM   38  C   UNL     1      -9.913  10.862  66.157  1.00  0.00    -0.233 C  
ENDBRANCH  32  33
ENDBRANCH  31  32
ENDBRANCH  29  31
ENDBRANCH  26  29
ENDBRANCH   9  26
ENDBRANCH   4   5
ENDBRANCH   3   4
ENDBRANCH   2   3
TORSDOF 11
ENDMDL
MODEL        3
REMARK 921   NORMALIZED FREE ENERGY PREDICTED BY IDOCK:   -7.34 KCAL/MOL
REMARK 922        TOTAL FREE ENERGY PREDICTED BY IDOCK:  -14.29 KCAL/MOL
REMARK 923 INTER-LIGAND FREE ENERGY PREDICTED BY IDOCK:  -12.76 KCAL/MOL
REMARK 924 INTRA-LIGAND FREE ENERGY PREDICTED BY IDOCK:   -1.53 KCAL/MOL
REMARK 927      BINDING AFFINITY PREDICTED BY RF-SCORE:    0.00 PKD
ROOT
HETATM    1  C   UNL     1     -12.778  11.926  63.388  1.00  0.00    -0.496 C  
HETATM    2  C   UNL     1     -11.371  11.635  63.876  1.00  0.00    -0.457 C  
ENDROOT
BRANCH   2   3
HETATM    3  C   UNL     1     -10.720  12.845  64.526  1.00  0.00    -0.371 C  
BRANCH   3   4
HETATM    4  O   UNL     1     -11.501  13.363  65.618  1.00  0.00    -0.308 OA 
BRANCH   4   5
HETATM    5  C   UNL     1     -11.090  14.599  66.083  1.00  0.00    -0.334 A  
HETATM    6  C   UNL     1     -11.130  14.883  67.470  1.00  0.00    -0.319 A  
HETATM    7  C   UNL     1     -10.773  16.177  67.924  1.00  0.00    -0.321 A  
HETATM    8  C   UNL     1     -10.666  15.602  65.201  1.00  0.00    -0.463 A  
HETATM    9  C   UNL     1     -10.403  17.168  67.004  1.00  0.00    -0.308 A  
HETATM   10  C   UNL     1     -10.368  16.877  65.650  1.00  0.00    -0.254 A  
BRANCH   6  11
HETATM   11  C   UNL     1     -11.570  13.860  68.502  1.00  0.00    -0.332 C  
HETATM   12  C   UNL     1     -11.594  11.612  69.178  1.00  0.00    -0.314 C  
HETATM   13  N   UNL     1     -11.253  12.610  68.277  1.00  0.00    -0.252 N  
HETATM   14  H   UNL     1     -10.747  12.366  67.426  1.00  0.00     0.000 HD 
HETATM   15  N   UNL     1     -12.286  14.314  69.600  1.00  0.00    -0.335 NA 
HETATM   16  N   UNL     1     -13.354  12.253  72.323  1.00  0.00    -0.431 NA 
HETATM   17  C   UNL     1     -13.288  13.470  71.756  1.00  0.00    -0.397 A  
HETATM   18  C   UNL     1     -12.283  12.094  70.332  1.00  0.00    -0.294 A  
HETATM   19  O   UNL     1     -11.332  10.427  68.998  1.00  0.00    -0.242 OA 
HETATM   20  C   UNL     1     -12.590  10.034  71.751  1.00  0.00    -0.409 C  
HETATM   21  C   UNL     1     -12.619  13.401  70.521  1.00  0.00    -0.211 A  
HETATM   22  N   UNL     1     -12.728  11.436  71.438  1.00  0.00    -0.403 NA 
BRANCH  17  23
HETATM   23  C   UNL     1     -13.885  14.646  72.453  1.00  0.00    -0.580 C  
BRANCH  23  24
HETATM   24  C   UNL     1     -12.868  15.715  72.860  1.00  0.00    -0.576 C  
HETATM   25  C   UNL     1     -12.421  15.611  74.313  1.00  0.00    -0.804 C  
ENDBRANCH  23  24
ENDBRANCH  17  23
ENDBRANCH   6  11
BRANCH   9  26
HETATM   26  S   UNL     1     -10.050  18.836  67.514  1.00  0.00    -0.383 S  
HETATM   27  O   UNL     1      -9.760  18.799  68.928  1.00  0.00    -0.372 OA 
HETATM   28  O   UNL     1     -11.079  19.676  66.946  1.00  0.00    -0.396 OA 
BRANCH  26  29
HETATM   29  N   UNL     1      -8.570  19.182  66.730  1.00  0.00    -0.296 N  
HETATM   30  H   UNL     1      -8.401  20.080  66.277  1.00  0.00     0.000 HD 
BRANCH  29  31
HETATM   31  C   UNL     1      -7.548  18.115  66.743  1.00  0.00    -0.223 C  
BRANCH  31  32
HETATM   32  C   UNL     1      -6.140  18.666  66.546  1.00  0.00    -0.182 C  
BRANCH  32  33
HETATM   33  C   UNL     1      -5.571  19.154  67.892  1.00  0.00    -0.191 C  
HETATM   34  C   UNL     1      -5.535  20.677  68.004  1.00  0.00    -0.282 C  
HETATM   35  C   UNL     1      -5.509  20.904  69.497  1.00  0.00    -0.409 C  
HETATM   36  C   UNL     1      -5.972  17.454  69.594  1.00  0.00    -0.248 C  
HETATM   37  N   UNL     1      -6.406  18.727  69.028  1.00  0.00    -0.245 NA 
HETATM   38  C   UNL     1      -6.400  19.800  70.037  1.00  0.00    -0.323 C  
ENDBRANCH  32  33
ENDBRANCH  31  32
ENDBRANCH  29  31
ENDBRANCH  26  29
ENDBRANCH   9  26
ENDBRANCH   4   5
ENDBRANCH   3   4
ENDBRANCH   2   3
TORSDOF 11
ENDMDL
MODEL        4
REMARK 921   NORMALIZED FREE ENERGY PREDICTED BY IDOCK:   -7.29 KCAL/MOL
REMARK 922        TOTAL FREE ENERGY PREDICTED BY IDOCK:  -14.20 KCAL/MOL
REMARK 923 INTER-LIGAND FREE ENERGY PREDICTED BY IDOCK:  -12.26 KCAL/MOL
REMARK 924 INTRA-LIGAND FREE ENERGY PREDICTED BY IDOCK:   -1.94 KCAL/MOL
REMARK 927      BINDING AFFINITY PREDICTED BY RF-SCORE:    0.00 PKD
ROOT
HETATM    1  C   UNL     1     -11.615   6.791  70.654  1.00  0.00    -0.422 C  
HETATM    2  C   UNL     1     -12.393   7.254  71.872  1.00  0.00    -0.346 C  
ENDROOT
BRANCH   2   3
HETATM    3  C   UNL     1     -12.443   8.768  71.989  1.00  0.00    -0.386 C  
BRANCH   3   4
HETATM    4  O   UNL     1     -12.082   9.422  70.758  1.00  0.00    -0.276 OA 
BRANCH   4   5
HETATM    5  C   UNL     1     -12.260  10.794  70.761  1.00  0.00    -0.381 A  
HETATM    6  C   UNL     1     -11.688  11.585  69.736  1.00  0.00    -0.426 A  
HETATM    7  C   UNL     1     -11.820  12.994  69.791  1.00  0.00    -0.381 A  
HETATM    8  C   UNL     1     -12.969  11.431  71.789  1.00  0.00    -0.519 A  
HETATM    9  C   UNL     1     -12.493  13.596  70.864  1.00  0.00    -0.371 A  
HETATM   10  C   UNL     1     -13.048  12.810  71.861  1.00  0.00    -0.474 A  
BRANCH   6  11
HETATM   11  C   UNL     1     -10.908  10.985  68.579  1.00  0.00    -0.213 C  
HETATM   12  C   UNL     1      -9.343   9.390  67.861  1.00  0.00    -0.129 C  
HETATM   13  N   UNL     1     -10.079  10.012  68.858  1.00  0.00    -0.180 N  
HETATM   14  H   UNL     1      -9.972   9.706  69.825  1.00  0.00     0.000 HD 
HETATM   15  N   UNL     1     -11.116  11.515  67.314  1.00  0.00    -0.277 NA 
HETATM   16  N   UNL     1      -9.602  10.276  64.319  1.00  0.00    -0.301 NA 
HETATM   17  C   UNL     1     -10.429  11.151  64.914  1.00  0.00    -0.308 A  
HETATM   18  C   UNL     1      -9.602   9.905  66.554  1.00  0.00    -0.190 A  
HETATM   19  O   UNL     1      -8.542   8.487  68.081  1.00  0.00    -0.136 OA 
HETATM   20  C   UNL     1      -8.204   8.446  65.048  1.00  0.00    -0.153 C  
HETATM   21  C   UNL     1     -10.455  10.937  66.303  1.00  0.00    -0.245 A  
HETATM   22  N   UNL     1      -9.118   9.524  65.340  1.00  0.00    -0.206 NA 
BRANCH  17  23
HETATM   23  C   UNL     1     -11.158  12.160  64.091  1.00  0.00    -0.424 C  
BRANCH  23  24
HETATM   24  C   UNL     1     -10.756  13.609  64.376  1.00  0.00    -0.369 C  
HETATM   25  C   UNL     1     -11.942  14.554  64.522  1.00  0.00    -0.482 C  
ENDBRANCH  23  24
ENDBRANCH  17  23
ENDBRANCH   6  11
BRANCH   9  26
HETATM   26  S   UNL     1     -12.592  15.364  71.035  1.00  0.00    -0.462 S  
HETATM   27  O   UNL     1     -11.469  15.779  71.842  1.00  0.00    -0.407 OA 
HETATM   28  O   UNL     1     -13.960  15.679  71.376  1.00  0.00    -0.540 OA 
BRANCH  26  29
HETATM   29  N   UNL     1     -12.280  15.931  69.452  1.00  0.00    -0.448 N  
HETATM   30  H   UNL     1     -12.974  15.853  68.709  1.00  0.00     0.000 HD 
BRANCH  29  31
HETATM   31  C   UNL     1     -10.955  16.541  69.216  1.00  0.00    -0.302 C  
BRANCH  31  32
HETATM   32  C   UNL     1     -10.573  16.530  67.740  1.00  0.00    -0.332 C  
BRANCH  32  33
HETATM   33  C   UNL     1      -9.713  17.765  67.407  1.00  0.00    -0.284 C  
HETATM   34  C   UNL     1     -10.517  19.063  67.401  1.00  0.00    -0.539 C  
HETATM   35  C   UNL     1      -9.458  20.116  67.627  1.00  0.00    -0.514 C  
HETATM   36  C   UNL     1      -7.407  17.338  68.078  1.00  0.00    -0.192 C  
HETATM   37  N   UNL     1      -8.667  17.992  68.419  1.00  0.00    -0.289 NA 
HETATM   38  C   UNL     1      -8.494  19.445  68.589  1.00  0.00    -0.359 C  
ENDBRANCH  32  33
ENDBRANCH  31  32
ENDBRANCH  29  31
ENDBRANCH  26  29
ENDBRANCH   9  26
ENDBRANCH   4   5
ENDBRANCH   3   4
ENDBRANCH   2   3
TORSDOF 11
ENDMDL
MODEL        5
REMARK 921   NORMALIZED FREE ENERGY PREDICTED BY IDOCK:   -7.27 KCAL/MOL
REMARK 922        TOTAL FREE ENERGY PREDICTED BY IDOCK:  -14.18 KCAL/MOL
REMARK 923 INTER-LIGAND FREE ENERGY PREDICTED BY IDOCK:  -12.03 KCAL/MOL
REMARK 924 INTRA-LIGAND FREE ENERGY PREDICTED BY IDOCK:   -2.15 KCAL/MOL
REMARK 927      BINDING AFFINITY PREDICTED BY RF-SCORE:    0.00 PKD
ROOT
HETATM    1  C   UNL     1     -12.417  15.994  74.512  1.00  0.00    -0.687 C  
HETATM    2  C   UNL     1     -12.498  15.945  72.998  1.00  0.00    -0.599 C  
ENDROOT
BRANCH   2   3
HETATM    3  C   UNL     1     -13.869  15.515  72.503  1.00  0.00    -0.576 C  
BRANCH   3   4
HETATM    4  O   UNL     1     -13.810  14.889  71.208  1.00  0.00    -0.416 OA 
BRANCH   4   5
HETATM    5  C   UNL     1     -13.237  13.630  71.204  1.00  0.00    -0.184 A  
HETATM    6  C   UNL     1     -12.271  13.294  70.224  1.00  0.00    -0.391 A  
HETATM    7  C   UNL     1     -11.745  11.979  70.190  1.00  0.00    -0.316 A  
HETATM    8  C   UNL     1     -13.623  12.654  72.133  1.00  0.00    -0.510 A  
HETATM    9  C   UNL     1     -12.195  11.018  71.105  1.00  0.00    -0.310 A  
HETATM   10  C   UNL     1     -13.141  11.359  72.059  1.00  0.00    -0.423 A  
BRANCH   6  11
HETATM   11  C   UNL     1     -11.787  14.285  69.181  1.00  0.00    -0.330 C  
HETATM   12  C   UNL     1     -10.843  16.387  68.732  1.00  0.00    -0.338 C  
HETATM   13  N   UNL     1     -11.327  15.432  69.613  1.00  0.00    -0.282 N  
HETATM   14  H   UNL     1     -11.325  15.626  70.614  1.00  0.00     0.000 HD 
HETATM   15  N   UNL     1     -11.877  13.915  67.847  1.00  0.00    -0.363 NA 
HETATM   16  N   UNL     1     -10.695  15.891  65.107  1.00  0.00    -0.479 NA 
HETATM   17  C   UNL     1     -11.273  14.761  65.547  1.00  0.00    -0.346 A  
HETATM   18  C   UNL     1     -10.889  15.978  67.364  1.00  0.00    -0.277 A  
HETATM   19  O   UNL     1     -10.420  17.480  69.092  1.00  0.00    -0.347 OA 
HETATM   20  C   UNL     1      -9.814  17.895  66.130  1.00  0.00    -0.249 C  
HETATM   21  C   UNL     1     -11.397  14.785  66.948  1.00  0.00    -0.355 A  
HETATM   22  N   UNL     1     -10.465  16.611  66.235  1.00  0.00    -0.296 NA 
BRANCH  17  23
HETATM   23  C   UNL     1     -11.678  13.707  64.572  1.00  0.00    -0.429 C  
BRANCH  23  24
HETATM   24  C   UNL     1     -10.951  12.372  64.755  1.00  0.00    -0.340 C  
HETATM   25  C   UNL     1     -10.404  11.792  63.457  1.00  0.00    -0.490 C  
ENDBRANCH  23  24
ENDBRANCH  17  23
ENDBRANCH   6  11
BRANCH   9  26
HETATM   26  S   UNL     1     -11.646   9.326  71.034  1.00  0.00    -0.336 S  
HETATM   27  O   UNL     1     -12.764   8.497  71.420  1.00  0.00    -0.312 OA 
HETATM   28  O   UNL     1     -10.364   9.271  71.697  1.00  0.00    -0.340 OA 
BRANCH  26  29
HETATM   29  N   UNL     1     -11.407   9.060  69.362  1.00  0.00    -0.423 N  
HETATM   30  H   UNL     1     -12.192   8.965  68.717  1.00  0.00     0.000 HD 
BRANCH  29  31
HETATM   31  C   UNL     1     -10.007   8.976  68.898  1.00  0.00    -0.189 C  
BRANCH  31  32
HETATM   32  C   UNL     1      -9.809   7.873  67.864  1.00  0.00    -0.201 C  
BRANCH  32  33
HETATM   33  C   UNL     1      -9.097   6.668  68.507  1.00  0.00    -0.128 C  
HETATM   34  C   UNL     1      -7.582   6.845  68.583  1.00  0.00    -0.105 C  
HETATM   35  C   UNL     1      -7.187   5.898  69.692  1.00  0.00    -0.070 C  
HETATM   36  C   UNL     1     -10.635   5.551  70.035  1.00  0.00    -0.314 C  
HETATM   37  N   UNL     1      -9.508   6.470  69.907  1.00  0.00    -0.155 NA 
HETATM   38  C   UNL     1      -8.340   6.006  70.674  1.00  0.00    -0.125 C  
ENDBRANCH  32  33
ENDBRANCH  31  32
ENDBRANCH  29  31
ENDBRANCH  26  29
ENDBRANCH   9  26
ENDBRANCH   4   5
ENDBRANCH   3   4
ENDBRANCH   2   3
TORSDOF 11
ENDMDL
MODEL        6
REMARK 921   NORMALIZED FREE ENERGY PREDICTED BY IDOCK:   -7.08 KCAL/MOL
REMARK 922        TOTAL FREE ENERGY PREDICTED BY IDOCK:  -13.86 KCAL/MOL
REMARK 923 INTER-LIGAND FREE ENERGY PREDICTED BY IDOCK:  -12.01 KCAL/MOL
REMARK 924 INTRA-LIGAND FREE ENERGY PREDICTED BY IDOCK:   -1.86 KCAL/MOL
REMARK 927      BINDING AFFINITY PREDICTED BY RF-SCORE:    0.00 PKD
ROOT
HETATM    1  C   UNL     1     -12.063  16.089  73.223  1.00  0.00    -0.605 C  
HETATM    2  C   UNL     1     -13.511  15.776  72.894  1.00  0.00    -0.666 C  
ENDROOT
BRANCH   2   3
HETATM    3  C   UNL     1     -13.683  15.241  71.482  1.00  0.00    -0.520 C  
BRANCH   3   4
HETATM    4  O   UNL     1     -12.645  14.311  71.121  1.00  0.00    -0.317 OA 
BRANCH   4   5
HETATM    5  C   UNL     1     -12.130  14.489  69.850  1.00  0.00    -0.336 A  
HETATM    6  C   UNL     1     -11.652  13.376  69.117  1.00  0.00    -0.365 A  
HETATM    7  C   UNL     1     -11.063  13.584  67.845  1.00  0.00    -0.288 A  
HETATM    8  C   UNL     1     -12.032  15.766  69.279  1.00  0.00    -0.305 A  
HETATM    9  C   UNL     1     -10.938  14.882  67.332  1.00  0.00    -0.314 A  
HETATM   10  C   UNL     1     -11.409  15.963  68.060  1.00  0.00    -0.284 A  
BRANCH   6  11
HETATM   11  C   UNL     1     -11.719  11.956  69.650  1.00  0.00    -0.343 C  
HETATM   12  C   UNL     1     -12.699  10.453  71.163  1.00  0.00    -0.415 C  
HETATM   13  N   UNL     1     -12.555  11.725  70.631  1.00  0.00    -0.247 N  
HETATM   14  H   UNL     1     -13.109  12.492  71.009  1.00  0.00     0.000 HD 
HETATM   15  N   UNL     1     -10.886  11.008  69.074  1.00  0.00    -0.214 NA 
HETATM   16  N   UNL     1     -10.865   7.534  69.930  1.00  0.00    -0.250 NA 
HETATM   17  C   UNL     1     -10.381   8.539  69.180  1.00  0.00    -0.217 A  
HETATM   18  C   UNL     1     -11.877   9.470  70.530  1.00  0.00    -0.183 A  
HETATM   19  O   UNL     1     -13.456  10.195  72.093  1.00  0.00    -0.411 OA 
HETATM   20  C   UNL     1     -12.527   7.319  71.671  1.00  0.00    -0.359 C  
HETATM   21  C   UNL     1     -11.000   9.752  69.526  1.00  0.00    -0.227 A  
HETATM   22  N   UNL     1     -11.780   8.129  70.738  1.00  0.00    -0.247 NA 
BRANCH  17  23
HETATM   23  C   UNL     1      -9.332   8.261  68.157  1.00  0.00    -0.140 C  
BRANCH  23  24
HETATM   24  C   UNL     1      -9.874   8.082  66.737  1.00  0.00    -0.327 C  
HETATM   25  C   UNL     1      -9.857   9.362  65.911  1.00  0.00    -0.362 C  
ENDBRANCH  23  24
ENDBRANCH  17  23
ENDBRANCH   6  11
BRANCH   9  26
HETATM   26  S   UNL     1     -10.110  15.205  65.790  1.00  0.00    -0.372 S  
HETATM   27  O   UNL     1     -10.437  16.557  65.403  1.00  0.00    -0.543 OA 
HETATM   28  O   UNL     1     -10.350  14.065  64.936  1.00  0.00    -0.404 OA 
BRANCH  26  29
HETATM   29  N   UNL     1      -8.456  15.220  66.228  1.00  0.00    -0.394 N  
HETATM   30  H   UNL     1      -7.908  14.361  66.275  1.00  0.00     0.000 HD 
BRANCH  29  31
HETATM   31  C   UNL     1      -7.863  16.537  66.532  1.00  0.00    -0.303 C  
BRANCH  31  32
HETATM   32  C   UNL     1      -7.865  16.837  68.027  1.00  0.00    -0.178 C  
BRANCH  32  33
HETATM   33  C   UNL     1      -7.865  18.360  68.261  1.00  0.00    -0.298 C  
HETATM   34  C   UNL     1      -6.564  19.028  67.823  1.00  0.00    -0.223 C  
HETATM   35  C   UNL     1      -6.979  20.464  67.604  1.00  0.00    -0.342 C  
HETATM   36  C   UNL     1     -10.162  19.179  68.195  1.00  0.00    -0.403 C  
HETATM   37  N   UNL     1      -8.904  19.037  67.466  1.00  0.00    -0.287 NA 
HETATM   38  C   UNL     1      -8.380  20.342  67.031  1.00  0.00    -0.315 C  
ENDBRANCH  32  33
ENDBRANCH  31  32
ENDBRANCH  29  31
ENDBRANCH  26  29
ENDBRANCH   9  26
ENDBRANCH   4   5
ENDBRANCH   3   4
ENDBRANCH   2   3
TORSDOF 11
ENDMDL
MODEL        7
REMARK 921   NORMALIZED FREE ENERGY PREDICTED BY IDOCK:   -7.01 KCAL/MOL
REMARK 922        TOTAL FREE ENERGY PREDICTED BY IDOCK:  -13.75 KCAL/MOL
REMARK 923 INTER-LIGAND FREE ENERGY PREDICTED BY IDOCK:  -11.00 KCAL/MOL
REMARK 924 INTRA-LIGAND FREE ENERGY PREDICTED BY IDOCK:   -2.76 KCAL/MOL
REMARK 927      BINDING AFFINITY PREDICTED BY RF-SCORE:    0.00 PKD
ROOT
HETATM    1  C   UNL     1     -13.881  13.956  72.416  1.00  0.00    -0.668 C  
HETATM    2  C   UNL     1     -13.519  15.325  71.871  1.00  0.00    -0.547 C  
ENDROOT
BRANCH   2   3
HETATM    3  C   UNL     1     -12.168  15.335  71.176  1.00  0.00    -0.350 C  
BRANCH   3   4
HETATM    4  O   UNL     1     -11.812  14.040  70.658  1.00  0.00    -0.298 OA 
BRANCH   4   5
HETATM    5  C   UNL     1     -11.851  13.942  69.278  1.00  0.00    -0.348 A  
HETATM    6  C   UNL     1     -11.777  12.672  68.656  1.00  0.00    -0.364 A  
HETATM    7  C   UNL     1     -11.747  12.593  67.242  1.00  0.00    -0.435 A  
HETATM    8  C   UNL     1     -11.922  15.086  68.471  1.00  0.00    -0.257 A  
HETATM    9  C   UNL     1     -11.770  13.763  66.471  1.00  0.00    -0.385 A  
HETATM   10  C   UNL     1     -11.841  15.000  67.093  1.00  0.00    -0.141 A  
BRANCH   6  11
HETATM   11  C   UNL     1     -11.701  11.378  69.446  1.00  0.00    -0.338 C  
HETATM   12  C   UNL     1     -12.443  10.142  71.299  1.00  0.00    -0.406 C  
HETATM   13  N   UNL     1     -12.433  11.295  70.529  1.00  0.00    -0.321 N  
HETATM   14  H   UNL     1     -13.004  12.091  70.811  1.00  0.00     0.000 HD 
HETATM   15  N   UNL     1     -10.857  10.382  68.978  1.00  0.00    -0.220 NA 
HETATM   16  N   UNL     1     -10.524   7.140  70.456  1.00  0.00    -0.210 NA 
HETATM   17  C   UNL     1     -10.176   8.007  69.490  1.00  0.00    -0.209 A  
HETATM   18  C   UNL     1     -11.613   9.100  70.781  1.00  0.00    -0.276 A  
HETATM   19  O   UNL     1     -13.099  10.027  72.329  1.00  0.00    -0.413 OA 
HETATM   20  C   UNL     1     -12.014   7.175  72.357  1.00  0.00    -0.142 C  
HETATM   21  C   UNL     1     -10.846   9.231  69.663  1.00  0.00    -0.212 A  
HETATM   22  N   UNL     1     -11.406   7.830  71.224  1.00  0.00    -0.259 NA 
BRANCH  17  23
HETATM   23  C   UNL     1      -9.201   7.594  68.440  1.00  0.00    -0.140 C  
BRANCH  23  24
HETATM   24  C   UNL     1      -9.817   7.407  67.051  1.00  0.00    -0.273 C  
HETATM   25  C   UNL     1     -10.882   6.317  66.998  1.00  0.00    -0.458 C  
ENDBRANCH  23  24
ENDBRANCH  17  23
ENDBRANCH   6  11
BRANCH   9  26
HETATM   26  S   UNL     1     -11.625  13.722  64.698  1.00  0.00    -0.396 S  
HETATM   27  O   UNL     1     -10.247  14.006  64.374  1.00  0.00    -0.310 OA 
HETATM   28  O   UNL     1     -12.730  14.487  64.168  1.00  0.00    -0.711 OA 
BRANCH  26  29
HETATM   29  N   UNL     1     -11.875  12.072  64.322  1.00  0.00    -0.360 N  
HETATM   30  H   UNL     1     -12.781  11.623  64.458  1.00  0.00     0.000 HD 
BRANCH  29  31
HETATM   31  C   UNL     1     -10.714  11.331  63.789  1.00  0.00    -0.379 C  
BRANCH  31  32
HETATM   32  C   UNL     1     -10.123  10.372  64.817  1.00  0.00    -0.387 C  
BRANCH  32  33
HETATM   33  C   UNL     1      -8.708  10.832  65.217  1.00  0.00    -0.173 C  
HETATM   34  C   UNL     1      -8.568  11.087  66.716  1.00  0.00    -0.152 C  
HETATM   35  C   UNL     1      -7.081  10.956  66.942  1.00  0.00    -0.120 C  
HETATM   36  C   UNL     1      -7.098   9.959  63.606  1.00  0.00    -0.121 C  
HETATM   37  N   UNL     1      -7.695   9.802  64.929  1.00  0.00    -0.121 NA 
HETATM   38  C   UNL     1      -6.676   9.843  65.991  1.00  0.00    -0.094 C  
ENDBRANCH  32  33
ENDBRANCH  31  32
ENDBRANCH  29  31
ENDBRANCH  26  29
ENDBRANCH   9  26
ENDBRANCH   4   5
ENDBRANCH   3   4
ENDBRANCH   2   3
TORSDOF 11
ENDMDL
MODEL        8
REMARK 921   NORMALIZED FREE ENERGY PREDICTED BY IDOCK:   -6.96 KCAL/MOL
REMARK 922        TOTAL FREE ENERGY PREDICTED BY IDOCK:  -13.66 KCAL/MOL
REMARK 923 INTER-LIGAND FREE ENERGY PREDICTED BY IDOCK:  -11.49 KCAL/MOL
REMARK 924 INTRA-LIGAND FREE ENERGY PREDICTED BY IDOCK:   -2.18 KCAL/MOL
REMARK 927      BINDING AFFINITY PREDICTED BY RF-SCORE:    0.00 PKD
ROOT
HETATM    1  C   UNL     1     -12.398  12.262  63.603  1.00  0.00    -0.664 C  
HETATM    2  C   UNL     1     -12.224  12.516  65.089  1.00  0.00    -0.509 C  
ENDROOT
BRANCH   2   3
HETATM    3  C   UNL     1     -12.781  13.864  65.516  1.00  0.00    -0.499 C  
BRANCH   3   4
HETATM    4  O   UNL     1     -12.378  14.221  66.851  1.00  0.00    -0.408 OA 
BRANCH   4   5
HETATM    5  C   UNL     1     -11.034  14.520  66.986  1.00  0.00    -0.312 A  
HETATM    6  C   UNL     1     -10.264  13.883  67.990  1.00  0.00    -0.246 A  
HETATM    7  C   UNL     1      -8.907  14.251  68.161  1.00  0.00    -0.183 A  
HETATM    8  C   UNL     1     -10.418  15.478  66.169  1.00  0.00    -0.323 A  
HETATM    9  C   UNL     1      -8.342  15.250  67.357  1.00  0.00    -0.181 A  
HETATM   10  C   UNL     1      -9.107  15.866  66.379  1.00  0.00    -0.355 A  
BRANCH   6  11
HETATM   11  C   UNL     1     -10.842  12.830  68.919  1.00  0.00    -0.196 C  
HETATM   12  C   UNL     1     -12.329  12.330  70.665  1.00  0.00    -0.286 C  
HETATM   13  N   UNL     1     -11.732  13.228  69.793  1.00  0.00    -0.409 N  
HETATM   14  H   UNL     1     -11.990  14.213  69.834  1.00  0.00     0.000 HD 
HETATM   15  N   UNL     1     -10.381  11.528  68.788  1.00  0.00    -0.207 NA 
HETATM   16  N   UNL     1     -11.608   8.741  70.667  1.00  0.00    -0.247 NA 
HETATM   17  C   UNL     1     -10.782   9.219  69.721  1.00  0.00    -0.231 A  
HETATM   18  C   UNL     1     -11.890  10.983  70.489  1.00  0.00    -0.367 A  
HETATM   19  O   UNL     1     -13.153  12.663  71.511  1.00  0.00    -0.373 OA 
HETATM   20  C   UNL     1     -13.286   9.677  72.132  1.00  0.00    -0.444 C  
HETATM   21  C   UNL     1     -10.943  10.609  69.584  1.00  0.00    -0.278 A  
HETATM   22  N   UNL     1     -12.277   9.836  71.112  1.00  0.00    -0.338 NA 
BRANCH  17  23
HETATM   23  C   UNL     1      -9.870   8.288  68.994  1.00  0.00    -0.176 C  
BRANCH  23  24
HETATM   24  C   UNL     1     -10.216   8.101  67.515  1.00  0.00    -0.309 C  
HETATM   25  C   UNL     1     -10.921   6.784  67.214  1.00  0.00    -0.433 C  
ENDBRANCH  23  24
ENDBRANCH  17  23
ENDBRANCH   6  11
BRANCH   9  26
HETATM   26  S   UNL     1      -6.676  15.823  67.604  1.00  0.00    -0.186 S  
HETATM   27  O   UNL     1      -5.793  14.732  67.263  1.00  0.00    -0.303 OA 
HETATM   28  O   UNL     1      -6.645  16.485  68.888  1.00  0.00    -0.152 OA 
BRANCH  26  29
HETATM   29  N   UNL     1      -6.478  17.000  66.379  1.00  0.00    -0.203 N  
HETATM   30  H   UNL     1      -6.531  16.757  65.390  1.00  0.00     0.000 HD 
BRANCH  29  31
HETATM   31  C   UNL     1      -6.229  18.385  66.825  1.00  0.00    -0.173 C  
BRANCH  31  32
HETATM   32  C   UNL     1      -7.082  19.396  66.067  1.00  0.00    -0.291 C  
BRANCH  32  33
HETATM   33  C   UNL     1      -8.281  19.830  66.932  1.00  0.00    -0.307 C  
HETATM   34  C   UNL     1      -9.627  19.517  66.282  1.00  0.00    -0.466 C  
HETATM   35  C   UNL     1     -10.570  19.481  67.461  1.00  0.00    -0.599 C  
HETATM   36  C   UNL     1      -7.620  19.818  69.279  1.00  0.00    -0.123 C  
HETATM   37  N   UNL     1      -8.322  19.108  68.215  1.00  0.00    -0.322 NA 
HETATM   38  C   UNL     1      -9.731  18.863  68.565  1.00  0.00    -0.387 C  
ENDBRANCH  32  33
ENDBRANCH  31  32
ENDBRANCH  29  31
ENDBRANCH  26  29
ENDBRANCH   9  26
ENDBRANCH   4   5
ENDBRANCH   3   4
ENDBRANCH   2   3
TORSDOF 11
ENDMDL
MODEL        9
REMARK 921   NORMALIZED FREE ENERGY PREDICTED BY IDOCK:   -6.95 KCAL/MOL
REMARK 922        TOTAL FREE ENERGY PREDICTED BY IDOCK:  -13.66 KCAL/MOL
REMARK 923 INTER-LIGAND FREE ENERGY PREDICTED BY IDOCK:  -11.66 KCAL/MOL
REMARK 924 INTRA-LIGAND FREE ENERGY PREDICTED BY IDOCK:   -2.00 KCAL/MOL
REMARK 927      BINDING AFFINITY PREDICTED BY RF-SCORE:    0.00 PKD
ROOT
HETATM    1  C   UNL     1     -12.413  16.150  74.359  1.00  0.00    -0.655 C  
HETATM    2  C   UNL     1     -12.572  15.832  72.884  1.00  0.00    -0.571 C  
ENDROOT
BRANCH   2   3
HETATM    3  C   UNL     1     -13.750  14.910  72.613  1.00  0.00    -0.450 C  
BRANCH   3   4
HETATM    4  O   UNL     1     -13.713  14.355  71.285  1.00  0.00    -0.358 OA 
BRANCH   4   5
HETATM    5  C   UNL     1     -13.147  13.096  71.203  1.00  0.00    -0.122 A  
HETATM    6  C   UNL     1     -12.203  12.808  70.188  1.00  0.00    -0.320 A  
HETATM    7  C   UNL     1     -11.685  11.494  70.074  1.00  0.00    -0.414 A  
HETATM    8  C   UNL     1     -13.520  12.074  72.087  1.00  0.00    -0.338 A  
HETATM    9  C   UNL     1     -12.122  10.488  70.946  1.00  0.00    -0.383 A  
HETATM   10  C   UNL     1     -13.048  10.782  71.935  1.00  0.00    -0.557 A  
BRANCH   6  11
HETATM   11  C   UNL     1     -11.734  13.850  69.188  1.00  0.00    -0.338 C  
HETATM   12  C   UNL     1     -10.601  15.872  68.819  1.00  0.00    -0.245 C  
HETATM   13  N   UNL     1     -11.086  14.884  69.662  1.00  0.00    -0.267 N  
HETATM   14  H   UNL     1     -10.936  14.964  70.667  1.00  0.00     0.000 HD 
HETATM   15  N   UNL     1     -12.033  13.643  67.849  1.00  0.00    -0.363 NA 
HETATM   16  N   UNL     1     -10.967  15.771  65.178  1.00  0.00    -0.394 NA 
HETATM   17  C   UNL     1     -11.621  14.669  65.582  1.00  0.00    -0.328 A  
HETATM   18  C   UNL     1     -10.866  15.627  67.437  1.00  0.00    -0.315 A  
HETATM   19  O   UNL     1     -10.005  16.866  69.222  1.00  0.00    -0.250 OA 
HETATM   20  C   UNL     1      -9.725  17.540  66.258  1.00  0.00    -0.258 C  
HETATM   21  C   UNL     1     -11.566  14.550  66.981  1.00  0.00    -0.386 A  
HETATM   22  N   UNL     1     -10.511  16.331  66.327  1.00  0.00    -0.318 NA 
BRANCH  17  23
HETATM   23  C   UNL     1     -12.270  13.782  64.574  1.00  0.00    -0.441 C  
BRANCH  23  24
HETATM   24  C   UNL     1     -11.291  12.912  63.782  1.00  0.00    -0.490 C  
HETATM   25  C   UNL     1     -10.629  11.822  64.615  1.00  0.00    -0.359 C  
ENDBRANCH  23  24
ENDBRANCH  17  23
ENDBRANCH   6  11
BRANCH   9  26
HETATM   26  S   UNL     1     -11.585   8.800  70.776  1.00  0.00    -0.211 S  
HETATM   27  O   UNL     1     -10.777   8.727  69.581  1.00  0.00    -0.231 OA 
HETATM   28  O   UNL     1     -12.744   7.965  70.991  1.00  0.00    -0.198 OA 
BRANCH  26  29
HETATM   29  N   UNL     1     -10.513   8.593  72.092  1.00  0.00    -0.342 N  
HETATM   30  H   UNL     1      -9.644   9.123  72.163  1.00  0.00     0.000 HD 
BRANCH  29  31
HETATM   31  C   UNL     1     -10.908   7.610  73.121  1.00  0.00    -0.382 C  
BRANCH  31  32
HETATM   32  C   UNL     1      -9.702   6.986  73.814  1.00  0.00    -0.311 C  
BRANCH  32  33
HETATM   33  C   UNL     1      -9.340   5.648  73.141  1.00  0.00    -0.139 C  
HETATM   34  C   UNL     1     -10.314   4.525  73.491  1.00  0.00    -0.244 C  
HETATM   35  C   UNL     1     -10.130   3.552  72.350  1.00  0.00    -0.232 C  
HETATM   36  C   UNL     1      -8.119   6.094  71.078  1.00  0.00    -0.121 C  
HETATM   37  N   UNL     1      -9.403   5.737  71.672  1.00  0.00    -0.146 NA 
HETATM   38  C   UNL     1      -9.905   4.455  71.150  1.00  0.00    -0.188 C  
ENDBRANCH  32  33
ENDBRANCH  31  32
ENDBRANCH  29  31
ENDBRANCH  26  29
ENDBRANCH   9  26
ENDBRANCH   4   5
ENDBRANCH   3   4
ENDBRANCH   2   3
TORSDOF 11
ENDMDL
MODEL       10
REMARK 921   NORMALIZED FREE ENERGY PREDICTED BY IDOCK:   -6.91 KCAL/MOL
REMARK 922        TOTAL FREE ENERGY PREDICTED BY IDOCK:  -13.59 KCAL/MOL
REMARK 923 INTER-LIGAND FREE ENERGY PREDICTED BY IDOCK:  -11.86 KCAL/MOL
REMARK 924 INTRA-LIGAND FREE ENERGY PREDICTED BY IDOCK:   -1.72 KCAL/MOL
REMARK 927      BINDING AFFINITY PREDICTED BY RF-SCORE:    0.00 PKD
ROOT
HETATM    1  C   UNL     1     -12.153  15.439  72.906  1.00  0.00    -0.545 C  
HETATM    2  C   UNL     1     -13.580  15.095  72.521  1.00  0.00    -0.592 C  
ENDROOT
BRANCH   2   3
HETATM    3  C   UNL     1     -13.840  13.598  72.535  1.00  0.00    -0.515 C  
BRANCH   3   4
HETATM    4  O   UNL     1     -13.703  13.008  71.229  1.00  0.00     0.110 OA 
BRANCH   4   5
HETATM    5  C   UNL     1     -13.001  11.817  71.207  1.00  0.00    -0.254 A  
HETATM    6  C   UNL     1     -12.003  11.600  70.226  1.00  0.00    -0.445 A  
HETATM    7  C   UNL     1     -11.342  10.349  70.173  1.00  0.00    -0.397 A  
HETATM    8  C   UNL     1     -13.283  10.791  72.120  1.00  0.00    -0.360 A  
HETATM    9  C   UNL     1     -11.690   9.331  71.071  1.00  0.00    -0.311 A  
HETATM   10  C   UNL     1     -12.668   9.555  72.027  1.00  0.00    -0.479 A  
BRANCH   6  11
HETATM   11  C   UNL     1     -11.624  12.653  69.199  1.00  0.00    -0.320 C  
HETATM   12  C   UNL     1     -10.541  14.687  68.755  1.00  0.00    -0.248 C  
HETATM   13  N   UNL     1     -10.949  13.689  69.627  1.00  0.00    -0.461 N  
HETATM   14  H   UNL     1     -10.719  13.764  70.617  1.00  0.00     0.000 HD 
HETATM   15  N   UNL     1     -12.029  12.453  67.887  1.00  0.00    -0.440 NA 
HETATM   16  N   UNL     1     -11.198  14.607  65.154  1.00  0.00    -0.355 NA 
HETATM   17  C   UNL     1     -11.808  13.497  65.601  1.00  0.00    -0.369 A  
HETATM   18  C   UNL     1     -10.915  14.449  67.397  1.00  0.00    -0.299 A  
HETATM   19  O   UNL     1      -9.922  15.683  69.115  1.00  0.00    -0.212 OA 
HETATM   20  C   UNL     1      -9.887  16.379  66.144  1.00  0.00    -0.338 C  
HETATM   21  C   UNL     1     -11.640  13.369  66.991  1.00  0.00    -0.356 A  
HETATM   22  N   UNL     1     -10.655  15.163  66.267  1.00  0.00    -0.302 NA 
BRANCH  17  23
HETATM   23  C   UNL     1     -12.530  12.611  64.643  1.00  0.00    -0.538 C  
BRANCH  23  24
HETATM   24  C   UNL     1     -11.640  12.014  63.550  1.00  0.00    -0.553 C  
HETATM   25  C   UNL     1     -10.561  11.079  64.083  1.00  0.00    -0.412 C  
ENDBRANCH  23  24
ENDBRANCH  17  23
ENDBRANCH   6  11
BRANCH   9  26
HETATM   26  S   UNL     1     -10.966   7.708  70.976  1.00  0.00    -0.252 S  
HETATM   27  O   UNL     1     -11.429   6.965  72.124  1.00  0.00    -0.261 OA 
HETATM   28  O   UNL     1      -9.565   7.889  70.672  1.00  0.00    -0.166 OA 
BRANCH  26  29
HETATM   29  N   UNL     1     -11.734   7.014  69.614  1.00  0.00    -0.576 N  
HETATM   30  H   UNL     1     -12.688   7.265  69.352  1.00  0.00     0.000 HD 
BRANCH  29  31
HETATM   31  C   UNL     1     -10.947   6.035  68.837  1.00  0.00    -0.325 C  
BRANCH  31  32
HETATM   32  C   UNL     1     -10.977   6.332  67.342  1.00  0.00    -0.447 C  
BRANCH  32  33
HETATM   33  C   UNL     1      -9.687   5.815  66.675  1.00  0.00    -0.157 C  
HETATM   34  C   UNL     1      -8.490   5.807  67.623  1.00  0.00    -0.103 C  
HETATM   35  C   UNL     1      -7.568   4.791  66.993  1.00  0.00    -0.087 C  
HETATM   36  C   UNL     1     -10.279   4.290  64.866  1.00  0.00    -0.175 C  
HETATM   37  N   UNL     1      -9.817   4.412  66.245  1.00  0.00    -0.213 NA 
HETATM   38  C   UNL     1      -8.520   3.744  66.443  1.00  0.00    -0.110 C  
ENDBRANCH  32  33
ENDBRANCH  31  32
ENDBRANCH  29  31
ENDBRANCH  26  29
ENDBRANCH   9  26
ENDBRANCH   4   5
ENDBRANCH   3   4
ENDBRANCH   2   3
TORSDOF 11
ENDMDL
MODEL       11
REMARK 921   NORMALIZED FREE ENERGY PREDICTED BY IDOCK:   -6.90 KCAL/MOL
REMARK 922        TOTAL FREE ENERGY PREDICTED BY IDOCK:  -13.57 KCAL/MOL
REMARK 923 INTER-LIGAND FREE ENERGY PREDICTED BY IDOCK:  -11.79 KCAL/MOL
REMARK 924 INTRA-LIGAND FREE ENERGY PREDICTED BY IDOCK:   -1.79 KCAL/MOL
REMARK 927      BINDING AFFINITY PREDICTED BY RF-SCORE:    0.00 PKD
ROOT
HETATM    1  C   UNL     1      -8.052   6.431  65.102  1.00  0.00    -0.136 C  
HETATM    2  C   UNL     1      -7.327   7.322  64.111  1.00  0.00    -0.091 C  
ENDROOT
BRANCH   2   3
HETATM    3  C   UNL     1      -7.967   8.695  63.988  1.00  0.00    -0.158 C  
BRANCH   3   4
HETATM    4  O   UNL     1      -8.962   8.925  65.003  1.00  0.00    -0.189 OA 
BRANCH   4   5
HETATM    5  C   UNL     1      -9.649  10.119  64.875  1.00  0.00    -0.306 A  
HETATM    6  C   UNL     1     -10.179  10.758  66.022  1.00  0.00    -0.310 A  
HETATM    7  C   UNL     1     -10.939  11.943  65.868  1.00  0.00    -0.354 A  
HETATM    8  C   UNL     1      -9.869  10.698  63.618  1.00  0.00    -0.392 A  
HETATM    9  C   UNL     1     -11.180  12.462  64.588  1.00  0.00    -0.312 A  
HETATM   10  C   UNL     1     -10.656  11.827  63.474  1.00  0.00    -0.499 A  
BRANCH   6  11
HETATM   11  C   UNL     1      -9.988  10.209  67.425  1.00  0.00    -0.195 C  
HETATM   12  C   UNL     1      -8.563   9.153  68.962  1.00  0.00    -0.133 C  
HETATM   13  N   UNL     1      -8.832   9.659  67.700  1.00  0.00    -0.125 N  
HETATM   14  H   UNL     1      -8.119   9.602  66.974  1.00  0.00     0.000 HD 
HETATM   15  N   UNL     1     -11.050  10.314  68.311  1.00  0.00    -0.266 NA 
HETATM   16  N   UNL     1     -10.943   9.297  71.740  1.00  0.00    -0.364 NA 
HETATM   17  C   UNL     1     -11.630   9.838  70.720  1.00  0.00    -0.339 A  
HETATM   18  C   UNL     1      -9.641   9.313  69.886  1.00  0.00    -0.199 A  
HETATM   19  O   UNL     1      -7.501   8.614  69.258  1.00  0.00    -0.078 OA 
HETATM   20  C   UNL     1      -8.717   8.411  72.050  1.00  0.00    -0.202 C  
HETATM   21  C   UNL     1     -10.841   9.869  69.557  1.00  0.00    -0.246 A  
HETATM   22  N   UNL     1      -9.733   8.993  71.206  1.00  0.00    -0.289 NA 
BRANCH  17  23
HETATM   23  C   UNL     1     -13.032  10.302  70.934  1.00  0.00    -0.456 C  
BRANCH  23  24
HETATM   24  C   UNL     1     -13.146  11.608  71.723  1.00  0.00    -0.487 C  
HETATM   25  C   UNL     1     -12.555  12.812  71.000  1.00  0.00    -0.362 C  
ENDBRANCH  23  24
ENDBRANCH  17  23
ENDBRANCH   6  11
BRANCH   9  26
HETATM   26  S   UNL     1     -12.218  13.885  64.333  1.00  0.00    -0.382 S  
HETATM   27  O   UNL     1     -13.099  13.982  65.474  1.00  0.00    -0.713 OA 
HETATM   28  O   UNL     1     -12.701  13.816  62.974  1.00  0.00    -0.671 OA 
BRANCH  26  29
HETATM   29  N   UNL     1     -11.127  15.196  64.458  1.00  0.00    -0.658 N  
HETATM   30  H   UNL     1     -10.688  15.607  63.634  1.00  0.00     0.000 HD 
BRANCH  29  31
HETATM   31  C   UNL     1     -10.853  15.702  65.818  1.00  0.00    -0.306 C  
BRANCH  31  32
HETATM   32  C   UNL     1      -9.385  16.067  66.011  1.00  0.00    -0.380 C  
BRANCH  32  33
HETATM   33  C   UNL     1      -9.266  17.476  66.622  1.00  0.00    -0.262 C  
HETATM   34  C   UNL     1     -10.464  18.366  66.300  1.00  0.00    -0.421 C  
HETATM   35  C   UNL     1     -10.420  19.401  67.399  1.00  0.00    -0.581 C  
HETATM   36  C   UNL     1      -7.872  17.366  68.621  1.00  0.00    -0.274 C  
HETATM   37  N   UNL     1      -9.232  17.434  68.094  1.00  0.00    -0.263 NA 
HETATM   38  C   UNL     1      -9.954  18.610  68.609  1.00  0.00    -0.388 C  
ENDBRANCH  32  33
ENDBRANCH  31  32
ENDBRANCH  29  31
ENDBRANCH  26  29
ENDBRANCH   9  26
ENDBRANCH   4   5
ENDBRANCH   3   4
ENDBRANCH   2   3
TORSDOF 11
ENDMDL
MODEL       12
REMARK 921   NORMALIZED FREE ENERGY PREDICTED BY IDOCK:   -6.89 KCAL/MOL
REMARK 922        TOTAL FREE ENERGY PREDICTED BY IDOCK:  -13.56 KCAL/MOL
REMARK 923 INTER-LIGAND FREE ENERGY PREDICTED BY IDOCK:  -12.05 KCAL/MOL
REMARK 924 INTRA-LIGAND FREE ENERGY PREDICTED BY IDOCK:   -1.51 KCAL/MOL
REMARK 927      BINDING AFFINITY PREDICTED BY RF-SCORE:    0.00 PKD
ROOT
HETATM    1  C   UNL     1      -6.316   9.610  65.913  1.00  0.00    -0.077 C  
HETATM    2  C   UNL     1      -7.012   8.316  65.534  1.00  0.00    -0.066 C  
ENDROOT
BRANCH   2   3
HETATM    3  C   UNL     1      -8.450   8.537  65.097  1.00  0.00    -0.175 C  
BRANCH   3   4
HETATM    4  O   UNL     1      -9.252   9.127  66.137  1.00  0.00    -0.172 OA 
BRANCH   4   5
HETATM    5  C   UNL     1      -9.894  10.297  65.774  1.00  0.00    -0.257 A  
HETATM    6  C   UNL     1     -10.808  10.909  66.666  1.00  0.00    -0.258 A  
HETATM    7  C   UNL     1     -11.510  12.067  66.253  1.00  0.00    -0.408 A  
HETATM    8  C   UNL     1      -9.689  10.877  64.515  1.00  0.00    -0.334 A  
HETATM    9  C   UNL     1     -11.314  12.587  64.966  1.00  0.00    -0.313 A  
HETATM   10  C   UNL     1     -10.417  11.979  64.103  1.00  0.00    -0.393 A  
BRANCH   6  11
HETATM   11  C   UNL     1     -11.093  10.357  68.052  1.00  0.00    -0.298 C  
HETATM   12  C   UNL     1     -10.845   8.580  69.565  1.00  0.00    -0.125 C  
HETATM   13  N   UNL     1     -10.651   9.154  68.318  1.00  0.00    -0.340 N  
HETATM   14  H   UNL     1     -10.157   8.630  67.597  1.00  0.00     0.000 HD 
HETATM   15  N   UNL     1     -11.809  11.155  68.932  1.00  0.00    -0.393 NA 
HETATM   16  N   UNL     1     -12.536  10.288  72.326  1.00  0.00    -0.082 NA 
HETATM   17  C   UNL     1     -12.625  11.173  71.319  1.00  0.00    -0.398 A  
HETATM   18  C   UNL     1     -11.536   9.428  70.484  1.00  0.00    -0.262 A  
HETATM   19  O   UNL     1     -10.464   7.450  69.851  1.00  0.00    -0.219 OA 
HETATM   20  C   UNL     1     -11.560   8.099  72.625  1.00  0.00    -0.375 C  
HETATM   21  C   UNL     1     -12.003  10.667  70.164  1.00  0.00    -0.334 A  
HETATM   22  N   UNL     1     -11.862   9.238  71.792  1.00  0.00    -0.374 NA 
BRANCH  17  23
HETATM   23  C   UNL     1     -13.317  12.477  71.536  1.00  0.00    -0.180 C  
BRANCH  23  24
HETATM   24  C   UNL     1     -12.429  13.702  71.309  1.00  0.00    -0.412 C  
HETATM   25  C   UNL     1     -13.188  15.023  71.353  1.00  0.00    -0.497 C  
ENDBRANCH  23  24
ENDBRANCH  17  23
ENDBRANCH   6  11
BRANCH   9  26
HETATM   26  S   UNL     1     -12.251  13.975  64.362  1.00  0.00    -0.388 S  
HETATM   27  O   UNL     1     -13.231  14.301  65.370  1.00  0.00    -0.688 OA 
HETATM   28  O   UNL     1     -12.603  13.681  62.992  1.00  0.00    -0.729 OA 
BRANCH  26  29
HETATM   29  N   UNL     1     -11.112  15.251  64.370  1.00  0.00    -0.685 N  
HETATM   30  H   UNL     1     -11.090  15.953  63.630  1.00  0.00     0.000 HD 
BRANCH  29  31
HETATM   31  C   UNL     1     -10.165  15.286  65.502  1.00  0.00    -0.388 C  
BRANCH  31  32
HETATM   32  C   UNL     1     -10.635  16.214  66.617  1.00  0.00    -0.274 C  
BRANCH  32  33
HETATM   33  C   UNL     1      -9.720  17.451  66.696  1.00  0.00    -0.290 C  
HETATM   34  C   UNL     1     -10.399  18.725  66.198  1.00  0.00    -0.494 C  
HETATM   35  C   UNL     1      -9.600  19.817  66.869  1.00  0.00    -0.494 C  
HETATM   36  C   UNL     1      -8.087  17.125  68.479  1.00  0.00    -0.260 C  
HETATM   37  N   UNL     1      -9.339  17.764  68.085  1.00  0.00    -0.273 NA 
HETATM   38  C   UNL     1      -9.270  19.228  68.229  1.00  0.00    -0.341 C  
ENDBRANCH  32  33
ENDBRANCH  31  32
ENDBRANCH  29  31
ENDBRANCH  26  29
ENDBRANCH   9  26
ENDBRANCH   4   5
ENDBRANCH   3   4
ENDBRANCH   2   3
TORSDOF 11
ENDMDL
MODEL       13
REMARK 921   NORMALIZED FREE ENERGY PREDICTED BY IDOCK:   -6.89 KCAL/MOL
REMARK 922        TOTAL FREE ENERGY PREDICTED BY IDOCK:  -13.55 KCAL/MOL
REMARK 923 INTER-LIGAND FREE ENERGY PREDICTED BY IDOCK:  -11.53 KCAL/MOL
REMARK 924 INTRA-LIGAND FREE ENERGY PREDICTED BY IDOCK:   -2.02 KCAL/MOL
REMARK 927      BINDING AFFINITY PREDICTED BY RF-SCORE:    0.00 PKD
ROOT
HETATM    1  C   UNL     1     -12.898  13.860  65.260  1.00  0.00    -0.437 C  
HETATM    2  C   UNL     1     -12.282  13.894  63.874  1.00  0.00    -0.375 C  
ENDROOT
BRANCH   2   3
HETATM    3  C   UNL     1     -11.452  12.655  63.577  1.00  0.00    -0.491 C  
BRANCH   3   4
HETATM    4  O   UNL     1     -10.172  12.687  64.233  1.00  0.00    -0.355 OA 
BRANCH   4   5
HETATM    5  C   UNL     1      -9.993  11.705  65.191  1.00  0.00    -0.259 A  
HETATM    6  C   UNL     1      -9.838  12.063  66.553  1.00  0.00    -0.225 A  
HETATM    7  C   UNL     1      -9.585  11.052  67.512  1.00  0.00    -0.178 A  
HETATM    8  C   UNL     1      -9.921  10.351  64.838  1.00  0.00    -0.409 A  
HETATM    9  C   UNL     1      -9.470   9.714  67.110  1.00  0.00    -0.148 A  
HETATM   10  C   UNL     1      -9.623   9.377  65.775  1.00  0.00    -0.340 A  
BRANCH   6  11
HETATM   11  C   UNL     1      -9.905  13.503  67.032  1.00  0.00    -0.251 C  
HETATM   12  C   UNL     1      -9.539  15.770  66.548  1.00  0.00    -0.265 C  
HETATM   13  N   UNL     1      -9.492  14.429  66.203  1.00  0.00    -0.450 N  
HETATM   14  H   UNL     1      -9.131  14.158  65.289  1.00  0.00     0.000 HD 
HETATM   15  N   UNL     1     -10.382  13.737  68.313  1.00  0.00    -0.241 NA 
HETATM   16  N   UNL     1     -10.849  16.982  69.745  1.00  0.00    -0.082 NA 
HETATM   17  C   UNL     1     -10.941  15.647  69.863  1.00  0.00    -0.318 A  
HETATM   18  C   UNL     1     -10.083  16.008  67.848  1.00  0.00    -0.241 A  
HETATM   19  O   UNL     1      -9.147  16.668  65.810  1.00  0.00    -0.503 OA 
HETATM   20  C   UNL     1     -10.123  18.522  68.030  1.00  0.00    -0.371 C  
HETATM   21  C   UNL     1     -10.480  15.017  68.694  1.00  0.00    -0.238 A  
HETATM   22  N   UNL     1     -10.330  17.175  68.505  1.00  0.00    -0.341 NA 
BRANCH  17  23
HETATM   23  C   UNL     1     -11.478  15.050  71.120  1.00  0.00    -0.355 C  
BRANCH  23  24
HETATM   24  C   UNL     1     -12.573  14.003  70.898  1.00  0.00    -0.431 C  
HETATM   25  C   UNL     1     -13.450  13.767  72.121  1.00  0.00    -0.596 C  
ENDBRANCH  23  24
ENDBRANCH  17  23
ENDBRANCH   6  11
BRANCH   9  26
HETATM   26  S   UNL     1      -9.047   8.423  68.259  1.00  0.00    -0.138 S  
HETATM   27  O   UNL     1      -7.960   8.914  69.073  1.00  0.00    -0.102 OA 
HETATM   28  O   UNL     1      -8.967   7.195  67.502  1.00  0.00    -0.122 OA 
BRANCH  26  29
HETATM   29  N   UNL     1     -10.414   8.344  69.283  1.00  0.00    -0.222 N  
HETATM   30  H   UNL     1     -11.063   7.558  69.250  1.00  0.00     0.000 HD 
BRANCH  29  31
HETATM   31  C   UNL     1     -10.608   9.471  70.218  1.00  0.00    -0.266 C  
BRANCH  31  32
HETATM   32  C   UNL     1     -10.463   9.041  71.674  1.00  0.00    -0.426 C  
BRANCH  32  33
HETATM   33  C   UNL     1     -11.821   8.558  72.220  1.00  0.00    -0.383 C  
HETATM   34  C   UNL     1     -12.949   9.558  71.976  1.00  0.00    -0.514 C  
HETATM   35  C   UNL     1     -14.185   8.694  72.047  1.00  0.00    -0.524 C  
HETATM   36  C   UNL     1     -11.849   6.119  72.245  1.00  0.00    -0.275 C  
HETATM   37  N   UNL     1     -12.276   7.329  71.547  1.00  0.00    -0.332 NA 
HETATM   38  C   UNL     1     -13.740   7.389  71.411  1.00  0.00    -0.323 C  
ENDBRANCH  32  33
ENDBRANCH  31  32
ENDBRANCH  29  31
ENDBRANCH  26  29
ENDBRANCH   9  26
ENDBRANCH   4   5
ENDBRANCH   3   4
ENDBRANCH   2   3
TORSDOF 11
ENDMDL
MODEL       14
REMARK 921   NORMALIZED FREE ENERGY PREDICTED BY IDOCK:   -6.86 KCAL/MOL
REMARK 922        TOTAL FREE ENERGY PREDICTED BY IDOCK:  -13.51 KCAL/MOL
REMARK 923 INTER-LIGAND FREE ENERGY PREDICTED BY IDOCK:  -11.30 KCAL/MOL
REMARK 924 INTRA-LIGAND FREE ENERGY PREDICTED BY IDOCK:   -2.21 KCAL/MOL
REMARK 927      BINDING AFFINITY PREDICTED BY RF-SCORE:    0.00 PKD
ROOT
HETATM    1  C   UNL     1     -10.746  16.634  65.621  1.00  0.00    -0.222 C  
HETATM    2  C   UNL     1     -10.928  15.380  64.786  1.00  0.00    -0.411 C  
ENDROOT
BRANCH   2   3
HETATM    3  C   UNL     1     -12.392  15.059  64.531  1.00  0.00    -0.262 C  
BRANCH   3   4
HETATM    4  O   UNL     1     -12.795  13.824  65.150  1.00  0.00    -0.695 OA 
BRANCH   4   5
HETATM    5  C   UNL     1     -11.901  12.781  64.987  1.00  0.00    -0.382 A  
HETATM    6  C   UNL     1     -11.310  12.171  66.120  1.00  0.00    -0.414 A  
HETATM    7  C   UNL     1     -10.344  11.151  65.934  1.00  0.00    -0.314 A  
HETATM    8  C   UNL     1     -11.532  12.334  63.710  1.00  0.00    -0.545 A  
HETATM    9  C   UNL     1      -9.965  10.768  64.640  1.00  0.00    -0.324 A  
HETATM   10  C   UNL     1     -10.550  11.374  63.540  1.00  0.00    -0.468 A  
BRANCH   6  11
HETATM   11  C   UNL     1     -11.650  12.583  67.541  1.00  0.00    -0.361 C  
HETATM   12  C   UNL     1     -11.971  14.332  69.073  1.00  0.00    -0.325 C  
HETATM   13  N   UNL     1     -11.650  13.865  67.808  1.00  0.00    -0.326 N  
HETATM   14  H   UNL     1     -11.409  14.530  67.073  1.00  0.00     0.000 HD 
HETATM   15  N   UNL     1     -11.922  11.579  68.459  1.00  0.00    -0.529 NA 
HETATM   16  N   UNL     1     -12.923  12.142  71.848  1.00  0.00    -0.362 NA 
HETATM   17  C   UNL     1     -12.648  11.278  70.856  1.00  0.00    -0.371 A  
HETATM   18  C   UNL     1     -12.303  13.296  69.999  1.00  0.00    -0.200 A  
HETATM   19  O   UNL     1     -11.966  15.522  69.370  1.00  0.00    -0.345 OA 
HETATM   20  C   UNL     1     -12.947  14.546  72.091  1.00  0.00    -0.346 C  
HETATM   21  C   UNL     1     -12.269  11.969  69.692  1.00  0.00    -0.139 A  
HETATM   22  N   UNL     1     -12.712  13.364  71.296  1.00  0.00    -0.362 NA 
BRANCH  17  23
HETATM   23  C   UNL     1     -12.770   9.811  71.097  1.00  0.00    -0.433 C  
BRANCH  23  24
HETATM   24  C   UNL     1     -11.527   9.173  71.723  1.00  0.00    -0.452 C  
HETATM   25  C   UNL     1     -11.759   7.758  72.236  1.00  0.00    -0.390 C  
ENDBRANCH  23  24
ENDBRANCH  17  23
ENDBRANCH   6  11
BRANCH   9  26
HETATM   26  S   UNL     1      -8.679   9.571  64.355  1.00  0.00    -0.207 S  
HETATM   27  O   UNL     1      -7.452  10.130  64.871  1.00  0.00    -0.137 OA 
HETATM   28  O   UNL     1      -8.822   9.118  62.991  1.00  0.00    -0.201 OA 
BRANCH  26  29
HETATM   29  N   UNL     1      -9.099   8.286  65.403  1.00  0.00    -0.401 N  
HETATM   30  H   UNL     1      -9.882   7.665  65.202  1.00  0.00     0.000 HD 
BRANCH  29  31
HETATM   31  C   UNL     1      -8.269   8.122  66.614  1.00  0.00    -0.103 C  
BRANCH  31  32
HETATM   32  C   UNL     1      -7.725   6.704  66.749  1.00  0.00    -0.106 C  
BRANCH  32  33
HETATM   33  C   UNL     1      -8.629   5.877  67.683  1.00  0.00    -0.102 C  
HETATM   34  C   UNL     1      -8.524   6.307  69.145  1.00  0.00    -0.120 C  
HETATM   35  C   UNL     1      -9.824   5.813  69.735  1.00  0.00    -0.232 C  
HETATM   36  C   UNL     1     -10.539   5.043  66.415  1.00  0.00    -0.261 C  
HETATM   37  N   UNL     1     -10.056   6.048  67.358  1.00  0.00    -0.146 NA 
HETATM   38  C   UNL     1     -10.824   6.027  68.613  1.00  0.00    -0.307 C  
ENDBRANCH  32  33
ENDBRANCH  31  32
ENDBRANCH  29  31
ENDBRANCH  26  29
ENDBRANCH   9  26
ENDBRANCH   4   5
ENDBRANCH   3   4
ENDBRANCH   2   3
TORSDOF 11
ENDMDL
MODEL       15
REMARK 921   NORMALIZED FREE ENERGY PREDICTED BY IDOCK:   -6.72 KCAL/MOL
REMARK 922        TOTAL FREE ENERGY PREDICTED BY IDOCK:  -13.27 KCAL/MOL
REMARK 923 INTER-LIGAND FREE ENERGY PREDICTED BY IDOCK:  -11.41 KCAL/MOL
REMARK 924 INTRA-LIGAND FREE ENERGY PREDICTED BY IDOCK:   -1.86 KCAL/MOL
REMARK 927      BINDING AFFINITY PREDICTED BY RF-SCORE:    0.00 PKD
ROOT
HETATM    1  C   UNL     1     -13.111  15.840  73.365  1.00  0.00    -0.690 C  
HETATM    2  C   UNL     1     -13.688  14.959  72.273  1.00  0.00    -0.564 C  
ENDROOT
BRANCH   2   3
HETATM    3  C   UNL     1     -13.213  13.519  72.378  1.00  0.00    -0.477 C  
BRANCH   3   4
HETATM    4  O   UNL     1     -13.393  12.794  71.147  1.00  0.00    -0.060 OA 
BRANCH   4   5
HETATM    5  C   UNL     1     -12.749  11.571  71.100  1.00  0.00    -0.356 A  
HETATM    6  C   UNL     1     -11.930  11.243  69.992  1.00  0.00    -0.447 A  
HETATM    7  C   UNL     1     -11.334   9.960  69.925  1.00  0.00    -0.273 A  
HETATM    8  C   UNL     1     -12.921  10.621  72.117  1.00  0.00    -0.328 A  
HETATM    9  C   UNL     1     -11.572   9.020  70.938  1.00  0.00    -0.290 A  
HETATM   10  C   UNL     1     -12.375   9.354  72.017  1.00  0.00    -0.418 A  
BRANCH   6  11
HETATM   11  C   UNL     1     -11.681  12.207  68.846  1.00  0.00    -0.327 C  
HETATM   12  C   UNL     1     -11.732  12.586  66.530  1.00  0.00    -0.391 C  
HETATM   13  N   UNL     1     -11.911  11.767  67.634  1.00  0.00    -0.243 N  
HETATM   14  H   UNL     1     -12.225  10.807  67.500  1.00  0.00     0.000 HD 
HETATM   15  N   UNL     1     -11.218  13.477  69.157  1.00  0.00    -0.267 NA 
HETATM   16  N   UNL     1     -10.669  16.081  66.766  1.00  0.00    -0.298 NA 
HETATM   17  C   UNL     1     -10.653  15.670  68.045  1.00  0.00    -0.271 A  
HETATM   18  C   UNL     1     -11.306  13.909  66.861  1.00  0.00    -0.328 A  
HETATM   19  O   UNL     1     -11.918  12.210  65.377  1.00  0.00    -0.410 OA 
HETATM   20  C   UNL     1     -11.237  15.092  64.636  1.00  0.00    -0.332 C  
HETATM   21  C   UNL     1     -11.054  14.325  68.133  1.00  0.00    -0.258 A  
HETATM   22  N   UNL     1     -11.078  14.992  66.067  1.00  0.00    -0.336 NA 
BRANCH  17  23
HETATM   23  C   UNL     1     -10.244  16.616  69.123  1.00  0.00    -0.309 C  
BRANCH  23  24
HETATM   24  C   UNL     1     -10.059  18.060  68.651  1.00  0.00    -0.401 C  
HETATM   25  C   UNL     1      -8.606  18.435  68.388  1.00  0.00    -0.345 C  
ENDBRANCH  23  24
ENDBRANCH  17  23
ENDBRANCH   6  11
BRANCH   9  26
HETATM   26  S   UNL     1     -10.935   7.361  70.846  1.00  0.00    -0.259 S  
HETATM   27  O   UNL     1     -11.630   6.580  71.842  1.00  0.00    -0.281 OA 
HETATM   28  O   UNL     1      -9.495   7.465  70.797  1.00  0.00    -0.166 OA 
BRANCH  26  29
HETATM   29  N   UNL     1     -11.494   6.808  69.327  1.00  0.00    -0.596 N  
HETATM   30  H   UNL     1     -12.408   7.079  68.962  1.00  0.00     0.000 HD 
BRANCH  29  31
HETATM   31  C   UNL     1     -10.588   5.920  68.571  1.00  0.00    -0.252 C  
BRANCH  31  32
HETATM   32  C   UNL     1     -10.708   6.125  67.065  1.00  0.00    -0.423 C  
BRANCH  32  33
HETATM   33  C   UNL     1      -9.760   7.251  66.608  1.00  0.00    -0.183 C  
HETATM   34  C   UNL     1     -10.393   8.637  66.709  1.00  0.00    -0.336 C  
HETATM   35  C   UNL     1      -9.192   9.551  66.777  1.00  0.00    -0.184 C  
HETATM   36  C   UNL     1      -7.452   6.540  66.946  1.00  0.00    -0.084 C  
HETATM   37  N   UNL     1      -8.561   7.338  67.459  1.00  0.00    -0.122 NA 
HETATM   38  C   UNL     1      -8.191   8.757  67.596  1.00  0.00    -0.110 C  
ENDBRANCH  32  33
ENDBRANCH  31  32
ENDBRANCH  29  31
ENDBRANCH  26  29
ENDBRANCH   9  26
ENDBRANCH   4   5
ENDBRANCH   3   4
ENDBRANCH   2   3
TORSDOF 11
ENDMDL
MODEL       16
REMARK 921   NORMALIZED FREE ENERGY PREDICTED BY IDOCK:   -6.71 KCAL/MOL
REMARK 922        TOTAL FREE ENERGY PREDICTED BY IDOCK:  -13.26 KCAL/MOL
REMARK 923 INTER-LIGAND FREE ENERGY PREDICTED BY IDOCK:  -11.52 KCAL/MOL
REMARK 924 INTRA-LIGAND FREE ENERGY PREDICTED BY IDOCK:   -1.74 KCAL/MOL
REMARK 927      BINDING AFFINITY PREDICTED BY RF-SCORE:    0.00 PKD
ROOT
HETATM    1  C   UNL     1     -12.354  15.338  73.880  1.00  0.00    -0.756 C  
HETATM    2  C   UNL     1     -13.511  15.290  72.900  1.00  0.00    -0.611 C  
ENDROOT
BRANCH   2   3
HETATM    3  C   UNL     1     -13.608  13.954  72.180  1.00  0.00    -0.506 C  
BRANCH   3   4
HETATM    4  O   UNL     1     -12.340  13.528  71.649  1.00  0.00    -0.202 OA 
BRANCH   4   5
HETATM    5  C   UNL     1     -12.237  13.610  70.272  1.00  0.00    -0.353 A  
HETATM    6  C   UNL     1     -11.992  12.442  69.509  1.00  0.00    -0.324 A  
HETATM    7  C   UNL     1     -11.819  12.552  68.108  1.00  0.00    -0.371 A  
HETATM    8  C   UNL     1     -12.332  14.841  69.609  1.00  0.00    -0.253 A  
HETATM    9  C   UNL     1     -11.871  13.808  67.489  1.00  0.00    -0.387 A  
HETATM   10  C   UNL     1     -12.111  14.943  68.247  1.00  0.00    -0.146 A  
BRANCH   6  11
HETATM   11  C   UNL     1     -11.878  11.064  70.138  1.00  0.00    -0.357 C  
HETATM   12  C   UNL     1     -12.903   9.374  71.404  1.00  0.00    -0.345 C  
HETATM   13  N   UNL     1     -12.911  10.630  70.816  1.00  0.00    -0.365 N  
HETATM   14  H   UNL     1     -13.733  11.224  70.914  1.00  0.00     0.000 HD 
HETATM   15  N   UNL     1     -10.691  10.369  69.964  1.00  0.00    -0.281 NA 
HETATM   16  N   UNL     1     -10.093   7.043  71.140  1.00  0.00    -0.188 NA 
HETATM   17  C   UNL     1      -9.651   8.130  70.485  1.00  0.00    -0.170 A  
HETATM   18  C   UNL     1     -11.698   8.642  71.175  1.00  0.00    -0.288 A  
HETATM   19  O   UNL     1     -13.841   8.935  72.063  1.00  0.00    -0.409 OA 
HETATM   20  C   UNL     1     -12.136   6.412  72.265  1.00  0.00    -0.206 C  
HETATM   21  C   UNL     1     -10.633   9.136  70.484  1.00  0.00    -0.235 A  
HETATM   22  N   UNL     1     -11.345   7.380  71.543  1.00  0.00    -0.251 NA 
BRANCH  17  23
HETATM   23  C   UNL     1      -8.284   8.132  69.889  1.00  0.00    -0.118 C  
BRANCH  23  24
HETATM   24  C   UNL     1      -7.288   9.044  70.609  1.00  0.00    -0.099 C  
HETATM   25  C   UNL     1      -6.829   8.503  71.958  1.00  0.00    -0.096 C  
ENDBRANCH  23  24
ENDBRANCH  17  23
ENDBRANCH   6  11
BRANCH   9  26
HETATM   26  S   UNL     1     -11.553  14.011  65.750  1.00  0.00    -0.350 S  
HETATM   27  O   UNL     1     -12.823  14.257  65.109  1.00  0.00    -0.659 OA 
HETATM   28  O   UNL     1     -10.670  12.937  65.355  1.00  0.00    -0.276 OA 
BRANCH  26  29
HETATM   29  N   UNL     1     -10.686  15.484  65.677  1.00  0.00    -0.348 N  
HETATM   30  H   UNL     1     -11.122  16.345  65.349  1.00  0.00     0.000 HD 
BRANCH  29  31
HETATM   31  C   UNL     1      -9.276  15.445  66.115  1.00  0.00    -0.327 C  
BRANCH  31  32
HETATM   32  C   UNL     1      -8.601  16.807  66.001  1.00  0.00    -0.213 C  
BRANCH  32  33
HETATM   33  C   UNL     1      -9.226  17.793  67.007  1.00  0.00    -0.255 C  
HETATM   34  C   UNL     1      -8.379  17.975  68.264  1.00  0.00    -0.295 C  
HETATM   35  C   UNL     1      -8.838  19.315  68.788  1.00  0.00    -0.387 C  
HETATM   36  C   UNL     1     -10.627  19.384  65.801  1.00  0.00    -0.400 C  
HETATM   37  N   UNL     1      -9.338  19.150  66.446  1.00  0.00    -0.342 NA 
HETATM   38  C   UNL     1      -9.088  20.120  67.526  1.00  0.00    -0.356 C  
ENDBRANCH  32  33
ENDBRANCH  31  32
ENDBRANCH  29  31
ENDBRANCH  26  29
ENDBRANCH   9  26
ENDBRANCH   4   5
ENDBRANCH   3   4
ENDBRANCH   2   3
TORSDOF 11
ENDMDL
MODEL       17
REMARK 921   NORMALIZED FREE ENERGY PREDICTED BY IDOCK:   -6.70 KCAL/MOL
REMARK 922        TOTAL FREE ENERGY PREDICTED BY IDOCK:  -13.24 KCAL/MOL
REMARK 923 INTER-LIGAND FREE ENERGY PREDICTED BY IDOCK:  -10.93 KCAL/MOL
REMARK 924 INTRA-LIGAND FREE ENERGY PREDICTED BY IDOCK:   -2.31 KCAL/MOL
REMARK 927      BINDING AFFINITY PREDICTED BY RF-SCORE:    0.00 PKD
ROOT
HETATM    1  C   UNL     1     -13.605  15.702  72.717  1.00  0.00    -0.678 C  
HETATM    2  C   UNL     1     -13.132  15.524  71.286  1.00  0.00    -0.581 C  
ENDROOT
BRANCH   2   3
HETATM    3  C   UNL     1     -12.174  14.354  71.132  1.00  0.00    -0.350 C  
BRANCH   3   4
HETATM    4  O   UNL     1     -11.056  14.674  70.283  1.00  0.00    -0.200 OA 
BRANCH   4   5
HETATM    5  C   UNL     1     -11.247  14.381  68.945  1.00  0.00    -0.262 A  
HETATM    6  C   UNL     1     -10.459  15.023  67.959  1.00  0.00    -0.242 A  
HETATM    7  C   UNL     1     -10.715  14.765  66.590  1.00  0.00    -0.309 A  
HETATM    8  C   UNL     1     -12.242  13.482  68.534  1.00  0.00    -0.160 A  
HETATM    9  C   UNL     1     -11.752  13.898  66.219  1.00  0.00    -0.383 A  
HETATM   10  C   UNL     1     -12.516  13.276  67.194  1.00  0.00     0.051 A  
BRANCH   6  11
HETATM   11  C   UNL     1      -9.357  16.007  68.308  1.00  0.00    -0.199 C  
HETATM   12  C   UNL     1      -7.256  16.361  69.295  1.00  0.00    -0.221 C  
HETATM   13  N   UNL     1      -8.320  15.539  68.956  1.00  0.00    -0.207 N  
HETATM   14  H   UNL     1      -8.295  14.553  69.217  1.00  0.00     0.000 HD 
HETATM   15  N   UNL     1      -9.527  17.331  67.929  1.00  0.00    -0.261 NA 
HETATM   16  N   UNL     1      -7.097  19.911  68.416  1.00  0.00    -0.296 NA 
HETATM   17  C   UNL     1      -8.300  19.535  67.951  1.00  0.00    -0.315 A  
HETATM   18  C   UNL     1      -7.414  17.711  68.855  1.00  0.00    -0.227 A  
HETATM   19  O   UNL     1      -6.275  15.968  69.917  1.00  0.00    -0.178 OA 
HETATM   20  C   UNL     1      -5.253  18.818  69.529  1.00  0.00    -0.195 C  
HETATM   21  C   UNL     1      -8.519  18.169  68.203  1.00  0.00    -0.273 A  
HETATM   22  N   UNL     1      -6.576  18.779  68.954  1.00  0.00    -0.256 NA 
BRANCH  17  23
HETATM   23  C   UNL     1      -9.181  20.534  67.280  1.00  0.00    -0.500 C  
BRANCH  23  24
HETATM   24  C   UNL     1      -9.543  20.180  65.835  1.00  0.00    -0.295 C  
HETATM   25  C   UNL     1     -10.951  19.620  65.677  1.00  0.00    -0.232 C  
ENDBRANCH  23  24
ENDBRANCH  17  23
ENDBRANCH   6  11
BRANCH   9  26
HETATM   26  S   UNL     1     -12.182  13.626  64.514  1.00  0.00    -0.385 S  
HETATM   27  O   UNL     1     -12.524  14.909  63.949  1.00  0.00    -0.806 OA 
HETATM   28  O   UNL     1     -13.076  12.491  64.482  1.00  0.00    -0.816 OA 
BRANCH  26  29
HETATM   29  N   UNL     1     -10.696  13.168  63.802  1.00  0.00    -0.504 N  
HETATM   30  H   UNL     1     -10.011  13.862  63.499  1.00  0.00     0.000 HD 
BRANCH  29  31
HETATM   31  C   UNL     1     -10.453  11.720  63.648  1.00  0.00    -0.439 C  
BRANCH  31  32
HETATM   32  C   UNL     1      -9.313  11.230  64.535  1.00  0.00    -0.149 C  
BRANCH  32  33
HETATM   33  C   UNL     1      -9.737  11.280  66.015  1.00  0.00    -0.220 C  
HETATM   34  C   UNL     1     -10.780  10.222  66.370  1.00  0.00    -0.103 C  
HETATM   35  C   UNL     1     -10.616  10.075  67.864  1.00  0.00    -0.298 C  
HETATM   36  C   UNL     1      -7.909  12.202  67.341  1.00  0.00    -0.168 C  
HETATM   37  N   UNL     1      -8.610  10.993  66.919  1.00  0.00    -0.139 NA 
HETATM   38  C   UNL     1      -9.120  10.232  68.072  1.00  0.00    -0.132 C  
ENDBRANCH  32  33
ENDBRANCH  31  32
ENDBRANCH  29  31
ENDBRANCH  26  29
ENDBRANCH   9  26
ENDBRANCH   4   5
ENDBRANCH   3   4
ENDBRANCH   2   3
TORSDOF 11
ENDMDL
MODEL       18
REMARK 921   NORMALIZED FREE ENERGY PREDICTED BY IDOCK:   -6.61 KCAL/MOL
REMARK 922        TOTAL FREE ENERGY PREDICTED BY IDOCK:  -13.09 KCAL/MOL
REMARK 923 INTER-LIGAND FREE ENERGY PREDICTED BY IDOCK:  -10.63 KCAL/MOL
REMARK 924 INTRA-LIGAND FREE ENERGY PREDICTED BY IDOCK:   -2.47 KCAL/MOL
REMARK 927      BINDING AFFINITY PREDICTED BY RF-SCORE:    0.00 PKD
ROOT
HETATM    1  C   UNL     1     -10.729  16.390  65.748  1.00  0.00    -0.245 C  
HETATM    2  C   UNL     1     -10.913  15.298  64.710  1.00  0.00    -0.403 C  
ENDROOT
BRANCH   2   3
HETATM    3  C   UNL     1     -12.374  14.931  64.505  1.00  0.00    -0.315 C  
BRANCH   3   4
HETATM    4  O   UNL     1     -12.727  13.706  65.174  1.00  0.00    -0.611 OA 
BRANCH   4   5
HETATM    5  C   UNL     1     -11.836  12.667  64.978  1.00  0.00    -0.395 A  
HETATM    6  C   UNL     1     -11.272  11.997  66.091  1.00  0.00    -0.394 A  
HETATM    7  C   UNL     1     -10.308  10.982  65.874  1.00  0.00    -0.315 A  
HETATM    8  C   UNL     1     -11.444  12.281  63.688  1.00  0.00    -0.572 A  
HETATM    9  C   UNL     1      -9.905  10.661  64.571  1.00  0.00    -0.327 A  
HETATM   10  C   UNL     1     -10.465  11.324  63.490  1.00  0.00    -0.457 A  
BRANCH   6  11
HETATM   11  C   UNL     1     -11.638  12.342  67.524  1.00  0.00    -0.353 C  
HETATM   12  C   UNL     1     -12.114  14.015  69.099  1.00  0.00    -0.337 C  
HETATM   13  N   UNL     1     -11.760  13.611  67.821  1.00  0.00    -0.341 N  
HETATM   14  H   UNL     1     -11.591  14.313  67.101  1.00  0.00     0.000 HD 
HETATM   15  N   UNL     1     -11.804  11.295  68.418  1.00  0.00    -0.552 NA 
HETATM   16  N   UNL     1     -12.826  11.679  71.826  1.00  0.00    -0.359 NA 
HETATM   17  C   UNL     1     -12.477  10.869  70.812  1.00  0.00    -0.394 A  
HETATM   18  C   UNL     1     -12.337  12.931  70.002  1.00  0.00    -0.129 A  
HETATM   19  O   UNL     1     -12.222  15.193  69.425  1.00  0.00    -0.275 OA 
HETATM   20  C   UNL     1     -13.081  14.063  72.127  1.00  0.00    -0.411 C  
HETATM   21  C   UNL     1     -12.177  11.621  69.663  1.00  0.00    -0.206 A  
HETATM   22  N   UNL     1     -12.739  12.929  71.302  1.00  0.00    -0.340 NA 
BRANCH  17  23
HETATM   23  C   UNL     1     -12.454   9.392  71.018  1.00  0.00    -0.311 C  
BRANCH  23  24
HETATM   24  C   UNL     1     -11.137   8.859  71.586  1.00  0.00    -0.420 C  
HETATM   25  C   UNL     1     -11.321   7.843  72.707  1.00  0.00    -0.453 C  
ENDBRANCH  23  24
ENDBRANCH  17  23
ENDBRANCH   6  11
BRANCH   9  26
HETATM   26  S   UNL     1      -8.622   9.471  64.252  1.00  0.00    -0.208 S  
HETATM   27  O   UNL     1      -7.382  10.041  64.725  1.00  0.00    -0.135 OA 
HETATM   28  O   UNL     1      -8.804   9.007  62.897  1.00  0.00    -0.187 OA 
BRANCH  26  29
HETATM   29  N   UNL     1      -8.998   8.190  65.322  1.00  0.00    -0.396 N  
HETATM   30  H   UNL     1      -9.958   7.998  65.611  1.00  0.00     0.000 HD 
BRANCH  29  31
HETATM   31  C   UNL     1      -7.865   7.375  65.805  1.00  0.00    -0.108 C  
BRANCH  31  32
HETATM   32  C   UNL     1      -7.728   7.425  67.323  1.00  0.00    -0.116 C  
BRANCH  32  33
HETATM   33  C   UNL     1      -7.788   8.884  67.812  1.00  0.00    -0.102 C  
HETATM   34  C   UNL     1      -8.974   9.152  68.737  1.00  0.00    -0.136 C  
HETATM   35  C   UNL     1      -8.533  10.376  69.504  1.00  0.00    -0.115 C  
HETATM   36  C   UNL     1      -5.535   9.819  67.822  1.00  0.00    -0.039 C  
HETATM   37  N   UNL     1      -6.611   9.241  68.622  1.00  0.00    -0.053 NA 
HETATM   38  C   UNL     1      -7.043  10.156  69.692  1.00  0.00    -0.115 C  
ENDBRANCH  32  33
ENDBRANCH  31  32
ENDBRANCH  29  31
ENDBRANCH  26  29
ENDBRANCH   9  26
ENDBRANCH   4   5
ENDBRANCH   3   4
ENDBRANCH   2   3
TORSDOF 11
ENDMDL
MODEL       19
REMARK 921   NORMALIZED FREE ENERGY PREDICTED BY IDOCK:   -6.61 KCAL/MOL
REMARK 922        TOTAL FREE ENERGY PREDICTED BY IDOCK:  -13.09 KCAL/MOL
REMARK 923 INTER-LIGAND FREE ENERGY PREDICTED BY IDOCK:  -11.43 KCAL/MOL
REMARK 924 INTRA-LIGAND FREE ENERGY PREDICTED BY IDOCK:   -1.66 KCAL/MOL
REMARK 927      BINDING AFFINITY PREDICTED BY RF-SCORE:    0.00 PKD
ROOT
HETATM    1  C   UNL     1     -12.998  15.989  73.574  1.00  0.00    -0.694 C  
HETATM    2  C   UNL     1     -13.610  15.181  72.445  1.00  0.00    -0.575 C  
ENDROOT
BRANCH   2   3
HETATM    3  C   UNL     1     -13.169  13.727  72.467  1.00  0.00    -0.498 C  
BRANCH   3   4
HETATM    4  O   UNL     1     -13.392  13.070  71.205  1.00  0.00    -0.187 OA 
BRANCH   4   5
HETATM    5  C   UNL     1     -12.769  11.842  71.078  1.00  0.00    -0.275 A  
HETATM    6  C   UNL     1     -11.887  11.603  69.996  1.00  0.00    -0.435 A  
HETATM    7  C   UNL     1     -11.312  10.318  69.841  1.00  0.00    -0.354 A  
HETATM    8  C   UNL     1     -13.024  10.802  71.984  1.00  0.00    -0.444 A  
HETATM    9  C   UNL     1     -11.632   9.290  70.739  1.00  0.00    -0.285 A  
HETATM   10  C   UNL     1     -12.497   9.537  71.793  1.00  0.00    -0.484 A  
BRANCH   6  11
HETATM   11  C   UNL     1     -11.547  12.668  68.969  1.00  0.00    -0.317 C  
HETATM   12  C   UNL     1     -10.512  14.725  68.517  1.00  0.00    -0.249 C  
HETATM   13  N   UNL     1     -10.885  13.715  69.390  1.00  0.00    -0.442 N  
HETATM   14  H   UNL     1     -10.640  13.790  70.377  1.00  0.00     0.000 HD 
HETATM   15  N   UNL     1     -11.970  12.466  67.663  1.00  0.00    -0.481 NA 
HETATM   16  N   UNL     1     -11.227  14.649  64.927  1.00  0.00    -0.379 NA 
HETATM   17  C   UNL     1     -11.808  13.525  65.379  1.00  0.00    -0.357 A  
HETATM   18  C   UNL     1     -10.903  14.486  67.164  1.00  0.00    -0.296 A  
HETATM   19  O   UNL     1      -9.907  15.731  68.872  1.00  0.00    -0.202 OA 
HETATM   20  C   UNL     1      -9.935  16.442  65.904  1.00  0.00    -0.332 C  
HETATM   21  C   UNL     1     -11.614  13.394  66.765  1.00  0.00    -0.365 A  
HETATM   22  N   UNL     1     -10.677  15.211  66.034  1.00  0.00    -0.319 NA 
BRANCH  17  23
HETATM   23  C   UNL     1     -12.528  12.629  64.428  1.00  0.00    -0.509 C  
BRANCH  23  24
HETATM   24  C   UNL     1     -11.607  11.818  63.513  1.00  0.00    -0.487 C  
HETATM   25  C   UNL     1     -10.497  11.086  64.256  1.00  0.00    -0.427 C  
ENDBRANCH  23  24
ENDBRANCH  17  23
ENDBRANCH   6  11
BRANCH   9  26
HETATM   26  S   UNL     1     -11.022   7.633  70.524  1.00  0.00    -0.249 S  
HETATM   27  O   UNL     1      -9.842   7.715  69.696  1.00  0.00    -0.177 OA 
HETATM   28  O   UNL     1     -12.158   6.806  70.189  1.00  0.00    -0.289 OA 
BRANCH  26  29
HETATM   29  N   UNL     1     -10.480   7.207  72.089  1.00  0.00    -0.203 N  
HETATM   30  H   UNL     1      -9.601   7.562  72.466  1.00  0.00     0.000 HD 
BRANCH  29  31
HETATM   31  C   UNL     1     -11.349   6.300  72.867  1.00  0.00    -0.152 C  
BRANCH  31  32
HETATM   32  C   UNL     1     -10.725   4.920  73.046  1.00  0.00    -0.305 C  
BRANCH  32  33
HETATM   33  C   UNL     1      -9.357   4.863  72.341  1.00  0.00    -0.133 C  
HETATM   34  C   UNL     1      -8.193   4.690  73.314  1.00  0.00    -0.100 C  
HETATM   35  C   UNL     1      -7.108   4.107  72.441  1.00  0.00    -0.056 C  
HETATM   36  C   UNL     1      -9.660   4.011  70.075  1.00  0.00    -0.204 C  
HETATM   37  N   UNL     1      -9.251   3.701  71.442  1.00  0.00    -0.117 NA 
HETATM   38  C   UNL     1      -7.869   3.198  71.493  1.00  0.00    -0.056 C  
ENDBRANCH  32  33
ENDBRANCH  31  32
ENDBRANCH  29  31
ENDBRANCH  26  29
ENDBRANCH   9  26
ENDBRANCH   4   5
ENDBRANCH   3   4
ENDBRANCH   2   3
TORSDOF 11
ENDMDL
MODEL       20
REMARK 921   NORMALIZED FREE ENERGY PREDICTED BY IDOCK:   -6.46 KCAL/MOL
REMARK 922        TOTAL FREE ENERGY PREDICTED BY IDOCK:  -12.85 KCAL/MOL
REMARK 923 INTER-LIGAND FREE ENERGY PREDICTED BY IDOCK:  -10.59 KCAL/MOL
REMARK 924 INTRA-LIGAND FREE ENERGY PREDICTED BY IDOCK:   -2.26 KCAL/MOL
REMARK 927      BINDING AFFINITY PREDICTED BY RF-SCORE:    0.00 PKD
ROOT
HETATM    1  C   UNL     1      -7.559   6.486  64.457  1.00  0.00    -0.101 C  
HETATM    2  C   UNL     1      -7.584   7.060  63.053  1.00  0.00    -0.104 C  
ENDROOT
BRANCH   2   3
HETATM    3  C   UNL     1      -8.165   8.464  63.010  1.00  0.00    -0.143 C  
BRANCH   3   4
HETATM    4  O   UNL     1      -8.357   9.014  64.326  1.00  0.00    -0.160 OA 
BRANCH   4   5
HETATM    5  C   UNL     1      -9.207  10.105  64.374  1.00  0.00    -0.258 A  
HETATM    6  C   UNL     1     -10.166  10.210  65.412  1.00  0.00    -0.281 A  
HETATM    7  C   UNL     1     -11.075  11.296  65.408  1.00  0.00    -0.138 A  
HETATM    8  C   UNL     1      -9.168  11.100  63.388  1.00  0.00    -0.225 A  
HETATM    9  C   UNL     1     -11.036  12.243  64.375  1.00  0.00    -0.330 A  
HETATM   10  C   UNL     1     -10.094  12.128  63.366  1.00  0.00    -0.383 A  
BRANCH   6  11
HETATM   11  C   UNL     1     -10.281   9.185  66.526  1.00  0.00    -0.252 C  
HETATM   12  C   UNL     1     -10.139   6.931  67.166  1.00  0.00    -0.209 C  
HETATM   13  N   UNL     1     -10.077   7.931  66.208  1.00  0.00    -0.478 N  
HETATM   14  H   UNL     1      -9.870   7.686  65.240  1.00  0.00     0.000 HD 
HETATM   15  N   UNL     1     -10.605   9.642  67.795  1.00  0.00    -0.254 NA 
HETATM   16  N   UNL     1     -10.807   7.574  70.708  1.00  0.00    -0.237 NA 
HETATM   17  C   UNL     1     -10.896   8.795  70.153  1.00  0.00    -0.227 A  
HETATM   18  C   UNL     1     -10.420   7.414  68.481  1.00  0.00    -0.186 A  
HETATM   19  O   UNL     1      -9.973   5.743  66.909  1.00  0.00    -0.142 OA 
HETATM   20  C   UNL     1     -10.310   5.346  69.916  1.00  0.00    -0.307 C  
HETATM   21  C   UNL     1     -10.651   8.726  68.771  1.00  0.00    -0.145 A  
HETATM   22  N   UNL     1     -10.509   6.754  69.668  1.00  0.00    -0.204 NA 
BRANCH  17  23
HETATM   23  C   UNL     1     -11.217   9.975  71.007  1.00  0.00    -0.387 C  
BRANCH  23  24
HETATM   24  C   UNL     1     -12.695  10.373  70.994  1.00  0.00    -0.490 C  
HETATM   25  C   UNL     1     -13.525   9.673  72.063  1.00  0.00    -0.514 C  
ENDBRANCH  23  24
ENDBRANCH  17  23
ENDBRANCH   6  11
BRANCH   9  26
HETATM   26  S   UNL     1     -12.225  13.562  64.267  1.00  0.00    -0.370 S  
HETATM   27  O   UNL     1     -13.057  13.486  65.445  1.00  0.00    -0.663 OA 
HETATM   28  O   UNL     1     -12.761  13.538  62.926  1.00  0.00    -0.569 OA 
BRANCH  26  29
HETATM   29  N   UNL     1     -11.269  14.969  64.447  1.00  0.00    -0.660 N  
HETATM   30  H   UNL     1     -11.437  15.806  63.888  1.00  0.00     0.000 HD 
BRANCH  29  31
HETATM   31  C   UNL     1     -10.188  14.911  65.451  1.00  0.00    -0.379 C  
BRANCH  31  32
HETATM   32  C   UNL     1     -10.403  15.909  66.585  1.00  0.00    -0.302 C  
BRANCH  32  33
HETATM   33  C   UNL     1     -10.505  15.165  67.930  1.00  0.00    -0.245 C  
HETATM   34  C   UNL     1     -11.946  14.846  68.324  1.00  0.00    -0.245 C  
HETATM   35  C   UNL     1     -11.784  13.693  69.286  1.00  0.00    -0.376 C  
HETATM   36  C   UNL     1      -8.448  13.910  68.309  1.00  0.00    -0.169 C  
HETATM   37  N   UNL     1      -9.843  13.850  67.882  1.00  0.00    -0.222 NA 
HETATM   38  C   UNL     1     -10.621  12.908  68.704  1.00  0.00    -0.234 C  
ENDBRANCH  32  33
ENDBRANCH  31  32
ENDBRANCH  29  31
ENDBRANCH  26  29
ENDBRANCH   9  26
ENDBRANCH   4   5
ENDBRANCH   3   4
ENDBRANCH   2   3
TORSDOF 11
ENDMDL
MODEL       21
REMARK 921   NORMALIZED FREE ENERGY PREDICTED BY IDOCK:   -6.44 KCAL/MOL
REMARK 922        TOTAL FREE ENERGY PREDICTED BY IDOCK:  -12.82 KCAL/MOL
REMARK 923 INTER-LIGAND FREE ENERGY PREDICTED BY IDOCK:  -10.57 KCAL/MOL
REMARK 924 INTRA-LIGAND FREE ENERGY PREDICTED BY IDOCK:   -2.25 KCAL/MOL
REMARK 927      BINDING AFFINITY PREDICTED BY RF-SCORE:    0.00 PKD
ROOT
HETATM    1  C   UNL     1     -13.763  15.281  71.470  1.00  0.00    -0.610 C  
HETATM    2  C   UNL     1     -12.307  15.700  71.560  1.00  0.00    -0.490 C  
ENDROOT
BRANCH   2   3
HETATM    3  C   UNL     1     -11.424  14.944  70.580  1.00  0.00    -0.266 C  
BRANCH   3   4
HETATM    4  O   UNL     1     -11.091  15.735  69.424  1.00  0.00    -0.267 OA 
BRANCH   4   5
HETATM    5  C   UNL     1     -11.277  15.091  68.214  1.00  0.00    -0.299 A  
HETATM    6  C   UNL     1     -10.644  15.581  67.046  1.00  0.00    -0.311 A  
HETATM    7  C   UNL     1     -10.901  14.954  65.803  1.00  0.00    -0.343 A  
HETATM    8  C   UNL     1     -12.120  13.976  68.108  1.00  0.00    -0.307 A  
HETATM    9  C   UNL     1     -11.790  13.872  65.730  1.00  0.00    -0.378 A  
HETATM   10  C   UNL     1     -12.403  13.403  66.881  1.00  0.00    -0.262 A  
BRANCH   6  11
HETATM   11  C   UNL     1      -9.712  16.780  67.063  1.00  0.00    -0.251 C  
HETATM   12  C   UNL     1      -9.394  19.050  66.557  1.00  0.00    -0.340 C  
HETATM   13  N   UNL     1     -10.169  17.900  66.562  1.00  0.00    -0.365 N  
HETATM   14  H   UNL     1     -11.109  17.926  66.168  1.00  0.00     0.000 HD 
HETATM   15  N   UNL     1      -8.442  16.605  67.593  1.00  0.00    -0.190 NA 
HETATM   16  N   UNL     1      -6.019  19.211  67.965  1.00  0.00    -0.209 NA 
HETATM   17  C   UNL     1      -6.359  17.921  68.131  1.00  0.00    -0.184 A  
HETATM   18  C   UNL     1      -8.108  18.876  67.153  1.00  0.00    -0.264 A  
HETATM   19  O   UNL     1      -9.776  20.114  66.082  1.00  0.00    -0.411 OA 
HETATM   20  C   UNL     1      -7.094  21.182  67.073  1.00  0.00    -0.208 C  
HETATM   21  C   UNL     1      -7.656  17.688  67.644  1.00  0.00    -0.204 A  
HETATM   22  N   UNL     1      -7.105  19.770  67.374  1.00  0.00    -0.214 NA 
BRANCH  17  23
HETATM   23  C   UNL     1      -5.393  16.976  68.763  1.00  0.00    -0.133 C  
BRANCH  23  24
HETATM   24  C   UNL     1      -6.036  15.971  69.721  1.00  0.00    -0.173 C  
HETATM   25  C   UNL     1      -6.179  14.572  69.134  1.00  0.00    -0.096 C  
ENDBRANCH  23  24
ENDBRANCH  17  23
ENDBRANCH   6  11
BRANCH   9  26
HETATM   26  S   UNL     1     -12.228  13.120  64.178  1.00  0.00    -0.387 S  
HETATM   27  O   UNL     1     -12.370  14.184  63.212  1.00  0.00    -0.680 OA 
HETATM   28  O   UNL     1     -13.277  12.166  64.454  1.00  0.00    -0.758 OA 
BRANCH  26  29
HETATM   29  N   UNL     1     -10.813  12.264  63.743  1.00  0.00    -0.402 N  
HETATM   30  H   UNL     1     -10.174  12.613  63.028  1.00  0.00     0.000 HD 
BRANCH  29  31
HETATM   31  C   UNL     1     -10.563  10.993  64.453  1.00  0.00    -0.325 C  
BRANCH  31  32
HETATM   32  C   UNL     1      -9.074  10.724  64.643  1.00  0.00    -0.223 C  
BRANCH  32  33
HETATM   33  C   UNL     1      -8.710  10.795  66.138  1.00  0.00    -0.180 C  
HETATM   34  C   UNL     1      -8.907  12.187  66.733  1.00  0.00    -0.198 C  
HETATM   35  C   UNL     1      -9.053  11.905  68.209  1.00  0.00    -0.183 C  
HETATM   36  C   UNL     1      -9.015   8.592  67.140  1.00  0.00    -0.130 C  
HETATM   37  N   UNL     1      -9.576   9.927  66.955  1.00  0.00    -0.172 NA 
HETATM   38  C   UNL     1      -9.820  10.595  68.243  1.00  0.00    -0.163 C  
ENDBRANCH  32  33
ENDBRANCH  31  32
ENDBRANCH  29  31
ENDBRANCH  26  29
ENDBRANCH   9  26
ENDBRANCH   4   5
ENDBRANCH   3   4
ENDBRANCH   2   3
TORSDOF 11
ENDMDL
MODEL       22
REMARK 921   NORMALIZED FREE ENERGY PREDICTED BY IDOCK:   -6.43 KCAL/MOL
REMARK 922        TOTAL FREE ENERGY PREDICTED BY IDOCK:  -12.80 KCAL/MOL
REMARK 923 INTER-LIGAND FREE ENERGY PREDICTED BY IDOCK:  -10.39 KCAL/MOL
REMARK 924 INTRA-LIGAND FREE ENERGY PREDICTED BY IDOCK:   -2.41 KCAL/MOL
REMARK 927      BINDING AFFINITY PREDICTED BY RF-SCORE:    0.00 PKD
ROOT
HETATM    1  C   UNL     1     -12.616  12.233  64.347  1.00  0.00    -0.447 C  
HETATM    2  C   UNL     1     -11.138  12.577  64.308  1.00  0.00    -0.403 C  
ENDROOT
BRANCH   2   3
HETATM    3  C   UNL     1     -10.880  14.055  64.550  1.00  0.00    -0.347 C  
BRANCH   3   4
HETATM    4  O   UNL     1     -11.635  14.566  65.664  1.00  0.00    -0.341 OA 
BRANCH   4   5
HETATM    5  C   UNL     1     -11.101  15.700  66.249  1.00  0.00    -0.127 A  
HETATM    6  C   UNL     1     -10.976  15.778  67.657  1.00  0.00    -0.302 A  
HETATM    7  C   UNL     1     -10.493  16.972  68.246  1.00  0.00    -0.363 A  
HETATM    8  C   UNL     1     -10.713  16.802  65.475  1.00  0.00    -0.206 A  
HETATM    9  C   UNL     1     -10.164  18.071  67.439  1.00  0.00    -0.363 A  
HETATM   10  C   UNL     1     -10.291  17.981  66.062  1.00  0.00    -0.333 A  
BRANCH   6  11
HETATM   11  C   UNL     1     -11.366  14.635  68.578  1.00  0.00    -0.284 C  
HETATM   12  C   UNL     1     -12.641  13.915  70.412  1.00  0.00    -0.282 C  
HETATM   13  N   UNL     1     -12.212  14.903  69.539  1.00  0.00    -0.498 N  
HETATM   14  H   UNL     1     -12.562  15.855  69.649  1.00  0.00     0.000 HD 
HETATM   15  N   UNL     1     -10.792  13.393  68.347  1.00  0.00    -0.256 NA 
HETATM   16  N   UNL     1     -11.572  10.422  70.180  1.00  0.00    -0.289 NA 
HETATM   17  C   UNL     1     -10.880  11.019  69.195  1.00  0.00    -0.237 A  
HETATM   18  C   UNL     1     -12.087  12.628  70.136  1.00  0.00    -0.294 A  
HETATM   19  O   UNL     1     -13.419  14.127  71.337  1.00  0.00    -0.345 OA 
HETATM   20  C   UNL     1     -13.202  11.121  71.820  1.00  0.00    -0.381 C  
HETATM   21  C   UNL     1     -11.189  12.390  69.139  1.00  0.00    -0.236 A  
HETATM   22  N   UNL     1     -12.305  11.423  70.731  1.00  0.00    -0.388 NA 
BRANCH  17  23
HETATM   23  C   UNL     1      -9.947  10.217  68.353  1.00  0.00    -0.173 C  
BRANCH  23  24
HETATM   24  C   UNL     1     -10.613   9.537  67.154  1.00  0.00    -0.295 C  
HETATM   25  C   UNL     1      -9.637   9.157  66.047  1.00  0.00    -0.342 C  
ENDBRANCH  23  24
ENDBRANCH  17  23
ENDBRANCH   6  11
BRANCH   9  26
HETATM   26  S   UNL     1      -9.656  19.627  68.136  1.00  0.00    -0.393 S  
HETATM   27  O   UNL     1     -10.386  19.802  69.370  1.00  0.00    -0.250 OA 
HETATM   28  O   UNL     1      -9.683  20.597  67.066  1.00  0.00    -0.439 OA 
BRANCH  26  29
HETATM   29  N   UNL     1      -8.028  19.348  68.578  1.00  0.00    -0.351 N  
HETATM   30  H   UNL     1      -7.774  19.027  69.512  1.00  0.00     0.000 HD 
BRANCH  29  31
HETATM   31  C   UNL     1      -7.008  19.596  67.539  1.00  0.00    -0.226 C  
BRANCH  31  32
HETATM   32  C   UNL     1      -5.991  18.464  67.450  1.00  0.00    -0.170 C  
BRANCH  32  33
HETATM   33  C   UNL     1      -6.592  17.167  68.026  1.00  0.00    -0.153 C  
HETATM   34  C   UNL     1      -7.104  16.218  66.945  1.00  0.00    -0.246 C  
HETATM   35  C   UNL     1      -7.098  14.879  67.642  1.00  0.00    -0.208 C  
HETATM   36  C   UNL     1      -5.552  16.693  70.181  1.00  0.00    -0.207 C  
HETATM   37  N   UNL     1      -5.588  16.375  68.757  1.00  0.00    -0.116 NA 
HETATM   38  C   UNL     1      -5.866  14.947  68.527  1.00  0.00    -0.097 C  
ENDBRANCH  32  33
ENDBRANCH  31  32
ENDBRANCH  29  31
ENDBRANCH  26  29
ENDBRANCH   9  26
ENDBRANCH   4   5
ENDBRANCH   3   4
ENDBRANCH   2   3
TORSDOF 11
ENDMDL
MODEL       23
REMARK 921   NORMALIZED FREE ENERGY PREDICTED BY IDOCK:   -6.39 KCAL/MOL
REMARK 922        TOTAL FREE ENERGY PREDICTED BY IDOCK:  -12.73 KCAL/MOL
REMARK 923 INTER-LIGAND FREE ENERGY PREDICTED BY IDOCK:  -10.76 KCAL/MOL
REMARK 924 INTRA-LIGAND FREE ENERGY PREDICTED BY IDOCK:   -1.97 KCAL/MOL
REMARK 927      BINDING AFFINITY PREDICTED BY RF-SCORE:    0.00 PKD
ROOT
HETATM    1  C   UNL     1     -12.377  11.998  63.556  1.00  0.00    -0.661 C  
HETATM    2  C   UNL     1     -12.154  13.284  64.332  1.00  0.00    -0.471 C  
ENDROOT
BRANCH   2   3
HETATM    3  C   UNL     1     -11.356  13.062  65.606  1.00  0.00    -0.301 C  
BRANCH   3   4
HETATM    4  O   UNL     1     -11.971  12.092  66.473  1.00  0.00    -0.616 OA 
BRANCH   4   5
HETATM    5  C   UNL     1     -11.096  11.168  67.015  1.00  0.00    -0.273 A  
HETATM    6  C   UNL     1     -10.753  11.238  68.388  1.00  0.00    -0.238 A  
HETATM    7  C   UNL     1      -9.803  10.328  68.912  1.00  0.00    -0.200 A  
HETATM    8  C   UNL     1     -10.504  10.177  66.221  1.00  0.00    -0.192 A  
HETATM    9  C   UNL     1      -9.195   9.384  68.073  1.00  0.00    -0.130 A  
HETATM   10  C   UNL     1      -9.539   9.327  66.732  1.00  0.00    -0.240 A  
BRANCH   6  11
HETATM   11  C   UNL     1     -11.347  12.273  69.327  1.00  0.00    -0.256 C  
HETATM   12  C   UNL     1     -12.763  12.716  71.146  1.00  0.00    -0.254 C  
HETATM   13  N   UNL     1     -12.191  11.845  70.232  1.00  0.00    -0.299 N  
HETATM   14  H   UNL     1     -12.431  10.854  70.264  1.00  0.00     0.000 HD 
HETATM   15  N   UNL     1     -10.967  13.596  69.156  1.00  0.00    -0.229 NA 
HETATM   16  N   UNL     1     -12.008  16.297  71.259  1.00  0.00    -0.337 NA 
HETATM   17  C   UNL     1     -11.291  15.866  70.207  1.00  0.00    -0.372 A  
HETATM   18  C   UNL     1     -12.326  14.068  70.998  1.00  0.00    -0.369 A  
HETATM   19  O   UNL     1     -13.571  12.361  71.997  1.00  0.00    -0.421 OA 
HETATM   20  C   UNL     1     -13.465  15.277  72.894  1.00  0.00    -0.512 C  
HETATM   21  C   UNL     1     -11.464  14.482  70.028  1.00  0.00    -0.258 A  
HETATM   22  N   UNL     1     -12.622  15.180  71.727  1.00  0.00    -0.323 NA 
BRANCH  17  23
HETATM   23  C   UNL     1     -10.468  16.833  69.425  1.00  0.00    -0.312 C  
BRANCH  23  24
HETATM   24  C   UNL     1     -10.849  16.927  67.946  1.00  0.00    -0.310 C  
HETATM   25  C   UNL     1     -10.607  18.303  67.338  1.00  0.00    -0.425 C  
ENDBRANCH  23  24
ENDBRANCH  17  23
ENDBRANCH   6  11
BRANCH   9  26
HETATM   26  S   UNL     1      -7.917   8.293  68.660  1.00  0.00    -0.123 S  
HETATM   27  O   UNL     1      -6.811   9.119  69.085  1.00  0.00    -0.050 OA 
HETATM   28  O   UNL     1      -7.778   7.242  67.679  1.00  0.00    -0.107 OA 
BRANCH  26  29
HETATM   29  N   UNL     1      -8.592   7.626  70.083  1.00  0.00    -0.139 N  
HETATM   30  H   UNL     1      -9.082   6.732  70.074  1.00  0.00     0.000 HD 
BRANCH  29  31
HETATM   31  C   UNL     1      -8.429   8.410  71.324  1.00  0.00    -0.149 C  
BRANCH  31  32
HETATM   32  C   UNL     1      -8.904   7.644  72.554  1.00  0.00    -0.183 C  
BRANCH  32  33
HETATM   33  C   UNL     1     -10.442   7.668  72.630  1.00  0.00    -0.287 C  
HETATM   34  C   UNL     1     -11.049   8.919  71.998  1.00  0.00    -0.421 C  
HETATM   35  C   UNL     1     -12.459   8.484  71.677  1.00  0.00    -0.370 C  
HETATM   36  C   UNL     1     -11.275   5.377  72.712  1.00  0.00    -0.300 C  
HETATM   37  N   UNL     1     -11.046   6.554  71.880  1.00  0.00    -0.249 NA 
HETATM   38  C   UNL     1     -12.295   7.033  71.262  1.00  0.00    -0.383 C  
ENDBRANCH  32  33
ENDBRANCH  31  32
ENDBRANCH  29  31
ENDBRANCH  26  29
ENDBRANCH   9  26
ENDBRANCH   4   5
ENDBRANCH   3   4
ENDBRANCH   2   3
TORSDOF 11
ENDMDL
MODEL       24
REMARK 921   NORMALIZED FREE ENERGY PREDICTED BY IDOCK:   -6.35 KCAL/MOL
REMARK 922        TOTAL FREE ENERGY PREDICTED BY IDOCK:  -12.67 KCAL/MOL
REMARK 923 INTER-LIGAND FREE ENERGY PREDICTED BY IDOCK:  -10.69 KCAL/MOL
REMARK 924 INTRA-LIGAND FREE ENERGY PREDICTED BY IDOCK:   -1.98 KCAL/MOL
REMARK 927      BINDING AFFINITY PREDICTED BY RF-SCORE:    0.00 PKD
ROOT
HETATM    1  C   UNL     1     -12.707  11.956  63.715  1.00  0.00    -0.466 C  
HETATM    2  C   UNL     1     -11.434  12.782  63.745  1.00  0.00    -0.533 C  
ENDROOT
BRANCH   2   3
HETATM    3  C   UNL     1     -10.575  12.479  64.961  1.00  0.00    -0.300 C  
BRANCH   3   4
HETATM    4  O   UNL     1     -11.311  11.797  65.993  1.00  0.00    -0.330 OA 
BRANCH   4   5
HETATM    5  C   UNL     1     -10.669  10.693  66.525  1.00  0.00    -0.151 A  
HETATM    6  C   UNL     1     -10.636  10.500  67.927  1.00  0.00    -0.271 A  
HETATM    7  C   UNL     1      -9.914   9.403  68.459  1.00  0.00    -0.190 A  
HETATM    8  C   UNL     1     -10.008   9.771  65.700  1.00  0.00    -0.352 A  
HETATM    9  C   UNL     1      -9.225   8.533  67.604  1.00  0.00    -0.134 A  
HETATM   10  C   UNL     1      -9.265   8.734  66.234  1.00  0.00    -0.261 A  
BRANCH   6  11
HETATM   11  C   UNL     1     -11.325  11.442  68.899  1.00  0.00    -0.270 C  
HETATM   12  C   UNL     1     -12.566  11.687  70.876  1.00  0.00    -0.313 C  
HETATM   13  N   UNL     1     -11.931  10.902  69.926  1.00  0.00    -0.325 N  
HETATM   14  H   UNL     1     -11.936   9.888  70.029  1.00  0.00     0.000 HD 
HETATM   15  N   UNL     1     -11.277  12.801  68.627  1.00  0.00    -0.263 NA 
HETATM   16  N   UNL     1     -12.629  15.345  70.748  1.00  0.00    -0.412 NA 
HETATM   17  C   UNL     1     -11.971  15.011  69.625  1.00  0.00    -0.321 A  
HETATM   18  C   UNL     1     -12.467  13.089  70.618  1.00  0.00    -0.268 A  
HETATM   19  O   UNL     1     -13.161  11.223  71.843  1.00  0.00    -0.493 OA 
HETATM   20  C   UNL     1     -13.604  14.145  72.605  1.00  0.00    -0.515 C  
HETATM   21  C   UNL     1     -11.848  13.615  69.524  1.00  0.00    -0.337 A  
HETATM   22  N   UNL     1     -12.913  14.156  71.337  1.00  0.00    -0.334 NA 
BRANCH  17  23
HETATM   23  C   UNL     1     -11.492  16.080  68.701  1.00  0.00    -0.377 C  
BRANCH  23  24
HETATM   24  C   UNL     1     -10.179  16.738  69.133  1.00  0.00    -0.306 C  
HETATM   25  C   UNL     1      -8.937  15.989  68.665  1.00  0.00    -0.210 C  
ENDBRANCH  23  24
ENDBRANCH  17  23
ENDBRANCH   6  11
BRANCH   9  26
HETATM   26  S   UNL     1      -8.217   7.207  68.230  1.00  0.00    -0.125 S  
HETATM   27  O   UNL     1      -7.968   7.479  69.625  1.00  0.00    -0.119 OA 
HETATM   28  O   UNL     1      -7.157   6.995  67.271  1.00  0.00    -0.078 OA 
BRANCH  26  29
HETATM   29  N   UNL     1      -9.269   5.859  68.186  1.00  0.00    -0.116 N  
HETATM   30  H   UNL     1      -9.450   5.349  67.321  1.00  0.00     0.000 HD 
BRANCH  29  31
HETATM   31  C   UNL     1      -9.901   5.470  69.463  1.00  0.00    -0.189 C  
BRANCH  31  32
HETATM   32  C   UNL     1     -11.272   6.113  69.644  1.00  0.00    -0.488 C  
BRANCH  32  33
HETATM   33  C   UNL     1     -11.532   6.390  71.137  1.00  0.00    -0.323 C  
HETATM   34  C   UNL     1     -10.254   6.383  71.974  1.00  0.00    -0.216 C  
HETATM   35  C   UNL     1     -10.641   7.198  73.185  1.00  0.00    -0.377 C  
HETATM   36  C   UNL     1     -13.560   7.726  71.362  1.00  0.00    -0.270 C  
HETATM   37  N   UNL     1     -12.100   7.731  71.356  1.00  0.00    -0.304 NA 
HETATM   38  C   UNL     1     -11.555   8.268  72.614  1.00  0.00    -0.349 C  
ENDBRANCH  32  33
ENDBRANCH  31  32
ENDBRANCH  29  31
ENDBRANCH  26  29
ENDBRANCH   9  26
ENDBRANCH   4   5
ENDBRANCH   3   4
ENDBRANCH   2   3
TORSDOF 11
ENDMDL
MODEL       25
REMARK 921   NORMALIZED FREE ENERGY PREDICTED BY IDOCK:   -6.35 KCAL/MOL
REMARK 922        TOTAL FREE ENERGY PREDICTED BY IDOCK:  -12.66 KCAL/MOL
REMARK 923 INTER-LIGAND FREE ENERGY PREDICTED BY IDOCK:   -9.73 KCAL/MOL
REMARK 924 INTRA-LIGAND FREE ENERGY PREDICTED BY IDOCK:   -2.93 KCAL/MOL
REMARK 927      BINDING AFFINITY PREDICTED BY RF-SCORE:    0.00 PKD
ROOT
HETATM    1  C   UNL     1     -10.737  14.255  66.524  1.00  0.00    -0.297 C  
HETATM    2  C   UNL     1     -12.116  14.000  67.105  1.00  0.00    -0.436 C  
ENDROOT
BRANCH   2   3
HETATM    3  C   UNL     1     -12.149  14.164  68.615  1.00  0.00    -0.285 C  
BRANCH   3   4
HETATM    4  O   UNL     1     -11.123  13.394  69.269  1.00  0.00    -0.235 OA 
BRANCH   4   5
HETATM    5  C   UNL     1     -11.582  12.269  69.930  1.00  0.00    -0.203 A  
HETATM    6  C   UNL     1     -11.063  10.993  69.601  1.00  0.00    -0.320 A  
HETATM    7  C   UNL     1     -11.593   9.843  70.237  1.00  0.00    -0.319 A  
HETATM    8  C   UNL     1     -12.588  12.358  70.902  1.00  0.00    -0.337 A  
HETATM    9  C   UNL     1     -12.634   9.970  71.166  1.00  0.00    -0.381 A  
HETATM   10  C   UNL     1     -13.134  11.224  71.479  1.00  0.00    -0.459 A  
BRANCH   6  11
HETATM   11  C   UNL     1      -9.970  10.797  68.566  1.00  0.00    -0.178 C  
HETATM   12  C   UNL     1      -7.699  10.387  68.137  1.00  0.00    -0.092 C  
HETATM   13  N   UNL     1      -8.754  10.598  69.011  1.00  0.00    -0.196 N  
HETATM   14  H   UNL     1      -8.582  10.598  70.015  1.00  0.00     0.000 HD 
HETATM   15  N   UNL     1     -10.327  10.856  67.227  1.00  0.00    -0.205 NA 
HETATM   16  N   UNL     1      -8.085  10.284  64.498  1.00  0.00    -0.162 NA 
HETATM   17  C   UNL     1      -9.326  10.564  64.930  1.00  0.00    -0.232 A  
HETATM   18  C   UNL     1      -8.083  10.395  66.761  1.00  0.00    -0.120 A  
HETATM   19  O   UNL     1      -6.543  10.214  68.510  1.00  0.00    -0.052 OA 
HETATM   20  C   UNL     1      -5.949   9.848  65.538  1.00  0.00    -0.076 C  
HETATM   21  C   UNL     1      -9.355  10.630  66.334  1.00  0.00    -0.169 A  
HETATM   22  N   UNL     1      -7.350  10.178  65.635  1.00  0.00    -0.137 NA 
BRANCH  17  23
HETATM   23  C   UNL     1     -10.428  10.755  63.943  1.00  0.00    -0.251 C  
BRANCH  23  24
HETATM   24  C   UNL     1     -10.800  12.219  63.695  1.00  0.00    -0.522 C  
HETATM   25  C   UNL     1     -12.297  12.450  63.531  1.00  0.00    -0.648 C  
ENDBRANCH  23  24
ENDBRANCH  17  23
ENDBRANCH   6  11
BRANCH   9  26
HETATM   26  S   UNL     1     -13.406   8.550  71.910  1.00  0.00    -0.384 S  
HETATM   27  O   UNL     1     -13.727   7.630  70.844  1.00  0.00    -0.066 OA 
HETATM   28  O   UNL     1     -14.393   9.046  72.841  1.00  0.00    -0.550 OA 
BRANCH  26  29
HETATM   29  N   UNL     1     -12.133   7.830  72.797  1.00  0.00    -0.602 N  
HETATM   30  H   UNL     1     -11.865   8.170  73.721  1.00  0.00     0.000 HD 
BRANCH  29  31
HETATM   31  C   UNL     1     -11.442   6.691  72.158  1.00  0.00    -0.287 C  
BRANCH  31  32
HETATM   32  C   UNL     1     -10.064   7.078  71.631  1.00  0.00    -0.194 C  
BRANCH  32  33
HETATM   33  C   UNL     1      -9.812   6.405  70.269  1.00  0.00    -0.168 C  
HETATM   34  C   UNL     1     -11.086   6.239  69.443  1.00  0.00    -0.477 C  
HETATM   35  C   UNL     1     -10.560   6.120  68.032  1.00  0.00    -0.334 C  
HETATM   36  C   UNL     1      -7.521   6.858  69.565  1.00  0.00    -0.096 C  
HETATM   37  N   UNL     1      -8.929   7.214  69.412  1.00  0.00    -0.136 NA 
HETATM   38  C   UNL     1      -9.376   7.071  68.016  1.00  0.00    -0.127 C  
ENDBRANCH  32  33
ENDBRANCH  31  32
ENDBRANCH  29  31
ENDBRANCH  26  29
ENDBRANCH   9  26
ENDBRANCH   4   5
ENDBRANCH   3   4
ENDBRANCH   2   3
TORSDOF 11
ENDMDL
MODEL       26
REMARK 921   NORMALIZED FREE ENERGY PREDICTED BY IDOCK:   -6.33 KCAL/MOL
REMARK 922        TOTAL FREE ENERGY PREDICTED BY IDOCK:  -12.64 KCAL/MOL
REMARK 923 INTER-LIGAND FREE ENERGY PREDICTED BY IDOCK:  -11.51 KCAL/MOL
REMARK 924 INTRA-LIGAND FREE ENERGY PREDICTED BY IDOCK:   -1.13 KCAL/MOL
REMARK 927      BINDING AFFINITY PREDICTED BY RF-SCORE:    0.00 PKD
ROOT
HETATM    1  C   UNL     1     -10.589   7.584  73.351  1.00  0.00    -0.409 C  
HETATM    2  C   UNL     1     -10.821   8.271  72.018  1.00  0.00    -0.370 C  
ENDROOT
BRANCH   2   3
HETATM    3  C   UNL     1     -12.167   8.974  71.954  1.00  0.00    -0.381 C  
BRANCH   3   4
HETATM    4  O   UNL     1     -12.380   9.628  70.689  1.00  0.00    -0.236 OA 
BRANCH   4   5
HETATM    5  C   UNL     1     -12.584  10.994  70.775  1.00  0.00    -0.369 A  
HETATM    6  C   UNL     1     -12.131  11.844  69.737  1.00  0.00    -0.321 A  
HETATM    7  C   UNL     1     -12.284  13.246  69.872  1.00  0.00    -0.313 A  
HETATM    8  C   UNL     1     -13.199  11.567  71.897  1.00  0.00    -0.479 A  
HETATM    9  C   UNL     1     -12.859  13.782  71.032  1.00  0.00    -0.305 A  
HETATM   10  C   UNL     1     -13.297  12.939  72.041  1.00  0.00    -0.579 A  
BRANCH   6  11
HETATM   11  C   UNL     1     -11.457  11.316  68.483  1.00  0.00    -0.306 C  
HETATM   12  C   UNL     1     -10.746  11.743  66.287  1.00  0.00    -0.270 C  
HETATM   13  N   UNL     1     -11.366  12.134  67.464  1.00  0.00    -0.303 N  
HETATM   14  H   UNL     1     -11.757  13.072  67.538  1.00  0.00     0.000 HD 
HETATM   15  N   UNL     1     -10.999  10.007  68.496  1.00  0.00    -0.228 NA 
HETATM   16  N   UNL     1      -9.219   8.451  65.811  1.00  0.00    -0.155 NA 
HETATM   17  C   UNL     1      -9.738   8.371  67.048  1.00  0.00    -0.206 A  
HETATM   18  C   UNL     1     -10.229  10.412  66.326  1.00  0.00    -0.222 A  
HETATM   19  O   UNL     1     -10.654  12.470  65.303  1.00  0.00    -0.276 OA 
HETATM   20  C   UNL     1      -9.084  10.148  64.097  1.00  0.00    -0.251 C  
HETATM   21  C   UNL     1     -10.364   9.580  67.397  1.00  0.00    -0.258 A  
HETATM   22  N   UNL     1      -9.525   9.707  65.398  1.00  0.00    -0.262 NA 
BRANCH  17  23
HETATM   23  C   UNL     1      -9.596   7.110  67.832  1.00  0.00    -0.145 C  
BRANCH  23  24
HETATM   24  C   UNL     1     -10.914   6.564  68.385  1.00  0.00    -0.358 C  
HETATM   25  C   UNL     1     -10.733   5.542  69.499  1.00  0.00    -0.332 C  
ENDBRANCH  23  24
ENDBRANCH  17  23
ENDBRANCH   6  11
BRANCH   9  26
HETATM   26  S   UNL     1     -12.975  15.538  71.296  1.00  0.00    -0.499 S  
HETATM   27  O   UNL     1     -11.945  15.898  72.242  1.00  0.00    -0.426 OA 
HETATM   28  O   UNL     1     -14.372  15.842  71.505  1.00  0.00    -0.456 OA 
BRANCH  26  29
HETATM   29  N   UNL     1     -12.493  16.195  69.792  1.00  0.00    -0.461 N  
HETATM   30  H   UNL     1     -13.146  16.283  69.012  1.00  0.00     0.000 HD 
BRANCH  29  31
HETATM   31  C   UNL     1     -11.086  16.629  69.678  1.00  0.00    -0.144 C  
BRANCH  31  32
HETATM   32  C   UNL     1     -10.448  16.174  68.371  1.00  0.00    -0.274 C  
BRANCH  32  33
HETATM   33  C   UNL     1      -9.910  17.390  67.593  1.00  0.00    -0.282 C  
HETATM   34  C   UNL     1     -10.757  18.645  67.794  1.00  0.00    -0.394 C  
HETATM   35  C   UNL     1      -9.794  19.758  67.456  1.00  0.00    -0.516 C  
HETATM   36  C   UNL     1      -7.504  17.142  67.283  1.00  0.00    -0.160 C  
HETATM   37  N   UNL     1      -8.567  17.784  68.051  1.00  0.00    -0.244 NA 
HETATM   38  C   UNL     1      -8.467  19.252  67.992  1.00  0.00    -0.317 C  
ENDBRANCH  32  33
ENDBRANCH  31  32
ENDBRANCH  29  31
ENDBRANCH  26  29
ENDBRANCH   9  26
ENDBRANCH   4   5
ENDBRANCH   3   4
ENDBRANCH   2   3
TORSDOF 11
ENDMDL
MODEL       27
REMARK 921   NORMALIZED FREE ENERGY PREDICTED BY IDOCK:   -6.31 KCAL/MOL
REMARK 922        TOTAL FREE ENERGY PREDICTED BY IDOCK:  -12.61 KCAL/MOL
REMARK 923 INTER-LIGAND FREE ENERGY PREDICTED BY IDOCK:  -10.75 KCAL/MOL
REMARK 924 INTRA-LIGAND FREE ENERGY PREDICTED BY IDOCK:   -1.86 KCAL/MOL
REMARK 927      BINDING AFFINITY PREDICTED BY RF-SCORE:    0.00 PKD
ROOT
HETATM    1  C   UNL     1     -13.576   9.156  72.091  1.00  0.00    -0.534 C  
HETATM    2  C   UNL     1     -12.197   9.629  71.669  1.00  0.00    -0.484 C  
ENDROOT
BRANCH   2   3
HETATM    3  C   UNL     1     -12.255  10.788  70.688  1.00  0.00    -0.379 C  
BRANCH   3   4
HETATM    4  O   UNL     1     -11.126  10.803  69.795  1.00  0.00    -0.256 OA 
BRANCH   4   5
HETATM    5  C   UNL     1     -11.369  11.399  68.571  1.00  0.00    -0.271 A  
HETATM    6  C   UNL     1     -11.086  10.698  67.373  1.00  0.00    -0.341 A  
HETATM    7  C   UNL     1     -11.275  11.348  66.128  1.00  0.00    -0.203 A  
HETATM    8  C   UNL     1     -11.859  12.710  68.486  1.00  0.00    -0.342 A  
HETATM    9  C   UNL     1     -11.718  12.677  66.088  1.00  0.00    -0.406 A  
HETATM   10  C   UNL     1     -11.990  13.352  67.267  1.00  0.00    -0.393 A  
BRANCH   6  11
HETATM   11  C   UNL     1     -10.558   9.275  67.364  1.00  0.00    -0.255 C  
HETATM   12  C   UNL     1     -10.629   7.130  68.315  1.00  0.00    -0.188 C  
HETATM   13  N   UNL     1     -11.037   8.454  68.264  1.00  0.00    -0.340 N  
HETATM   14  H   UNL     1     -11.721   8.794  68.940  1.00  0.00     0.000 HD 
HETATM   15  N   UNL     1      -9.601   8.945  66.416  1.00  0.00    -0.217 NA 
HETATM   16  N   UNL     1      -8.234   5.670  65.962  1.00  0.00    -0.109 NA 
HETATM   17  C   UNL     1      -8.288   6.958  65.584  1.00  0.00    -0.146 A  
HETATM   18  C   UNL     1      -9.683   6.784  67.302  1.00  0.00    -0.140 A  
HETATM   19  O   UNL     1     -11.038   6.332  69.152  1.00  0.00    -0.337 OA 
HETATM   20  C   UNL     1      -9.314   4.314  67.646  1.00  0.00    -0.161 C  
HETATM   21  C   UNL     1      -9.188   7.672  66.395  1.00  0.00    -0.175 A  
HETATM   22  N   UNL     1      -9.099   5.590  67.005  1.00  0.00    -0.112 NA 
BRANCH  17  23
HETATM   23  C   UNL     1      -7.451   7.431  64.443  1.00  0.00    -0.100 C  
BRANCH  23  24
HETATM   24  C   UNL     1      -6.175   8.164  64.863  1.00  0.00    -0.049 C  
HETATM   25  C   UNL     1      -6.330   9.678  64.922  1.00  0.00    -0.090 C  
ENDBRANCH  23  24
ENDBRANCH  17  23
ENDBRANCH   6  11
BRANCH   9  26
HETATM   26  S   UNL     1     -11.866  13.570  64.556  1.00  0.00    -0.425 S  
HETATM   27  O   UNL     1     -12.906  14.556  64.735  1.00  0.00    -0.603 OA 
HETATM   28  O   UNL     1     -11.890  12.588  63.497  1.00  0.00    -0.470 OA 
BRANCH  26  29
HETATM   29  N   UNL     1     -10.395  14.437  64.462  1.00  0.00    -0.543 N  
HETATM   30  H   UNL     1      -9.614  14.106  63.896  1.00  0.00     0.000 HD 
BRANCH  29  31
HETATM   31  C   UNL     1     -10.313  15.689  65.241  1.00  0.00    -0.375 C  
BRANCH  31  32
HETATM   32  C   UNL     1      -9.159  15.672  66.238  1.00  0.00    -0.376 C  
BRANCH  32  33
HETATM   33  C   UNL     1      -9.222  16.918  67.141  1.00  0.00    -0.229 C  
HETATM   34  C   UNL     1      -8.792  18.195  66.423  1.00  0.00    -0.255 C  
HETATM   35  C   UNL     1      -9.449  19.280  67.243  1.00  0.00    -0.380 C  
HETATM   36  C   UNL     1     -10.908  16.569  68.869  1.00  0.00    -0.336 C  
HETATM   37  N   UNL     1     -10.596  17.201  67.591  1.00  0.00    -0.356 NA 
HETATM   38  C   UNL     1     -10.774  18.661  67.650  1.00  0.00    -0.376 C  
ENDBRANCH  32  33
ENDBRANCH  31  32
ENDBRANCH  29  31
ENDBRANCH  26  29
ENDBRANCH   9  26
ENDBRANCH   4   5
ENDBRANCH   3   4
ENDBRANCH   2   3
TORSDOF 11
ENDMDL
MODEL       28
REMARK 921   NORMALIZED FREE ENERGY PREDICTED BY IDOCK:   -6.30 KCAL/MOL
REMARK 922        TOTAL FREE ENERGY PREDICTED BY IDOCK:  -12.59 KCAL/MOL
REMARK 923 INTER-LIGAND FREE ENERGY PREDICTED BY IDOCK:  -11.08 KCAL/MOL
REMARK 924 INTRA-LIGAND FREE ENERGY PREDICTED BY IDOCK:   -1.51 KCAL/MOL
REMARK 927      BINDING AFFINITY PREDICTED BY RF-SCORE:    0.00 PKD
ROOT
HETATM    1  C   UNL     1     -12.637  12.184  63.442  1.00  0.00    -0.584 C  
HETATM    2  C   UNL     1     -12.105  13.204  64.430  1.00  0.00    -0.471 C  
ENDROOT
BRANCH   2   3
HETATM    3  C   UNL     1     -10.594  13.135  64.579  1.00  0.00    -0.406 C  
BRANCH   3   4
HETATM    4  O   UNL     1     -10.194  12.767  65.913  1.00  0.00    -0.277 OA 
BRANCH   4   5
HETATM    5  C   UNL     1     -10.203  11.406  66.161  1.00  0.00    -0.239 A  
HETATM    6  C   UNL     1     -10.690  10.915  67.397  1.00  0.00    -0.305 A  
HETATM    7  C   UNL     1     -10.627   9.525  67.664  1.00  0.00    -0.329 A  
HETATM    8  C   UNL     1      -9.699  10.494  65.224  1.00  0.00    -0.328 A  
HETATM    9  C   UNL     1     -10.069   8.652  66.720  1.00  0.00    -0.296 A  
HETATM   10  C   UNL     1      -9.595   9.146  65.515  1.00  0.00    -0.239 A  
BRANCH   6  11
HETATM   11  C   UNL     1     -11.259  11.824  68.471  1.00  0.00    -0.252 C  
HETATM   12  C   UNL     1     -12.324  12.003  70.556  1.00  0.00    -0.282 C  
HETATM   13  N   UNL     1     -11.800  11.250  69.516  1.00  0.00    -0.326 N  
HETATM   14  H   UNL     1     -11.838  10.232  69.565  1.00  0.00     0.000 HD 
HETATM   15  N   UNL     1     -11.179  13.194  68.269  1.00  0.00    -0.257 NA 
HETATM   16  N   UNL     1     -12.250  15.662  70.628  1.00  0.00    -0.393 NA 
HETATM   17  C   UNL     1     -11.700  15.368  69.438  1.00  0.00    -0.351 A  
HETATM   18  C   UNL     1     -12.190  13.412  70.365  1.00  0.00    -0.345 A  
HETATM   19  O   UNL     1     -12.855  11.506  71.543  1.00  0.00    -0.410 OA 
HETATM   20  C   UNL     1     -13.117  14.395  72.493  1.00  0.00    -0.450 C  
HETATM   21  C   UNL     1     -11.642  13.976  69.253  1.00  0.00    -0.309 A  
HETATM   22  N   UNL     1     -12.532  14.452  71.175  1.00  0.00    -0.335 NA 
BRANCH  17  23
HETATM   23  C   UNL     1     -11.255  16.469  68.535  1.00  0.00    -0.296 C  
BRANCH  23  24
HETATM   24  C   UNL     1     -10.163  17.363  69.128  1.00  0.00    -0.273 C  
HETATM   25  C   UNL     1     -10.181  18.788  68.589  1.00  0.00    -0.366 C  
ENDBRANCH  23  24
ENDBRANCH  17  23
ENDBRANCH   6  11
BRANCH   9  26
HETATM   26  S   UNL     1      -9.869   6.915  67.053  1.00  0.00    -0.188 S  
HETATM   27  O   UNL     1      -8.893   6.410  66.116  1.00  0.00    -0.145 OA 
HETATM   28  O   UNL     1     -11.195   6.356  67.182  1.00  0.00    -0.370 OA 
BRANCH  26  29
HETATM   29  N   UNL     1      -9.116   6.893  68.589  1.00  0.00    -0.132 N  
HETATM   30  H   UNL     1      -8.759   7.744  69.022  1.00  0.00     0.000 HD 
BRANCH  29  31
HETATM   31  C   UNL     1      -9.009   5.579  69.255  1.00  0.00    -0.112 C  
BRANCH  31  32
HETATM   32  C   UNL     1      -9.829   5.517  70.539  1.00  0.00    -0.254 C  
BRANCH  32  33
HETATM   33  C   UNL     1     -10.488   6.883  70.811  1.00  0.00    -0.216 C  
HETATM   34  C   UNL     1     -12.012   6.834  70.726  1.00  0.00    -0.433 C  
HETATM   35  C   UNL     1     -12.434   8.030  71.545  1.00  0.00    -0.334 C  
HETATM   36  C   UNL     1      -9.028   8.202  72.252  1.00  0.00    -0.189 C  
HETATM   37  N   UNL     1     -10.218   7.359  72.178  1.00  0.00    -0.189 NA 
HETATM   38  C   UNL     1     -11.413   8.065  72.670  1.00  0.00    -0.402 C  
ENDBRANCH  32  33
ENDBRANCH  31  32
ENDBRANCH  29  31
ENDBRANCH  26  29
ENDBRANCH   9  26
ENDBRANCH   4   5
ENDBRANCH   3   4
ENDBRANCH   2   3
TORSDOF 11
ENDMDL
MODEL       29
REMARK 921   NORMALIZED FREE ENERGY PREDICTED BY IDOCK:   -6.29 KCAL/MOL
REMARK 922        TOTAL FREE ENERGY PREDICTED BY IDOCK:  -12.58 KCAL/MOL
REMARK 923 INTER-LIGAND FREE ENERGY PREDICTED BY IDOCK:  -10.46 KCAL/MOL
REMARK 924 INTRA-LIGAND FREE ENERGY PREDICTED BY IDOCK:   -2.12 KCAL/MOL
REMARK 927      BINDING AFFINITY PREDICTED BY RF-SCORE:    0.00 PKD
ROOT
HETATM    1  C   UNL     1      -9.311  14.491  67.928  1.00  0.00    -0.201 C  
HETATM    2  C   UNL     1      -9.711  14.763  69.366  1.00  0.00    -0.047 C  
ENDROOT
BRANCH   2   3
HETATM    3  C   UNL     1     -11.219  14.793  69.553  1.00  0.00    -0.278 C  
BRANCH   3   4
HETATM    4  O   UNL     1     -11.875  13.708  68.871  1.00  0.00    -0.324 OA 
BRANCH   4   5
HETATM    5  C   UNL     1     -12.028  12.561  69.628  1.00  0.00    -0.272 A  
HETATM    6  C   UNL     1     -11.589  11.314  69.121  1.00  0.00    -0.387 A  
HETATM    7  C   UNL     1     -11.815  10.138  69.878  1.00  0.00    -0.206 A  
HETATM    8  C   UNL     1     -12.650  12.598  70.883  1.00  0.00    -0.338 A  
HETATM    9  C   UNL     1     -12.487  10.211  71.106  1.00  0.00    -0.387 A  
HETATM   10  C   UNL     1     -12.912  11.438  71.591  1.00  0.00    -0.523 A  
BRANCH   6  11
HETATM   11  C   UNL     1     -10.900  11.175  67.775  1.00  0.00    -0.239 C  
HETATM   12  C   UNL     1      -9.143  10.233  66.536  1.00  0.00    -0.148 C  
HETATM   13  N   UNL     1      -9.822  10.433  67.728  1.00  0.00    -0.166 N  
HETATM   14  H   UNL     1      -9.477   9.997  68.582  1.00  0.00     0.000 HD 
HETATM   15  N   UNL     1     -11.449  11.850  66.694  1.00  0.00    -0.451 NA 
HETATM   16  N   UNL     1     -10.227  11.648  63.338  1.00  0.00    -0.409 NA 
HETATM   17  C   UNL     1     -11.125  12.137  64.209  1.00  0.00    -0.346 A  
HETATM   18  C   UNL     1      -9.744  10.887  65.417  1.00  0.00    -0.238 A  
HETATM   19  O   UNL     1      -8.121   9.561  66.450  1.00  0.00    -0.110 OA 
HETATM   20  C   UNL     1      -8.318  10.172  63.466  1.00  0.00    -0.169 C  
HETATM   21  C   UNL     1     -10.854  11.672  65.508  1.00  0.00    -0.279 A  
HETATM   22  N   UNL     1      -9.402  10.884  64.099  1.00  0.00    -0.227 NA 
BRANCH  17  23
HETATM   23  C   UNL     1     -12.211  13.038  63.726  1.00  0.00    -0.536 C  
BRANCH  23  24
HETATM   24  C   UNL     1     -12.401  14.299  64.573  1.00  0.00    -0.432 C  
HETATM   25  C   UNL     1     -11.135  15.134  64.718  1.00  0.00    -0.395 C  
ENDBRANCH  23  24
ENDBRANCH  17  23
ENDBRANCH   6  11
BRANCH   9  26
HETATM   26  S   UNL     1     -12.891   8.753  72.042  1.00  0.00    -0.418 S  
HETATM   27  O   UNL     1     -14.210   8.951  72.596  1.00  0.00    -0.563 OA 
HETATM   28  O   UNL     1     -11.739   8.440  72.854  1.00  0.00    -0.300 OA 
BRANCH  26  29
HETATM   29  N   UNL     1     -13.054   7.546  70.840  1.00  0.00    -0.589 N  
HETATM   30  H   UNL     1     -13.844   7.536  70.195  1.00  0.00     0.000 HD 
BRANCH  29  31
HETATM   31  C   UNL     1     -11.992   6.522  70.782  1.00  0.00    -0.287 C  
BRANCH  31  32
HETATM   32  C   UNL     1     -11.298   6.488  69.424  1.00  0.00    -0.395 C  
BRANCH  32  33
HETATM   33  C   UNL     1      -9.788   6.247  69.608  1.00  0.00    -0.163 C  
HETATM   34  C   UNL     1      -9.237   5.182  68.662  1.00  0.00    -0.150 C  
HETATM   35  C   UNL     1      -7.764   5.512  68.605  1.00  0.00    -0.088 C  
HETATM   36  C   UNL     1      -8.753   8.280  70.472  1.00  0.00    -0.140 C  
HETATM   37  N   UNL     1      -8.999   7.451  69.296  1.00  0.00    -0.136 NA 
HETATM   38  C   UNL     1      -7.740   7.029  68.658  1.00  0.00    -0.120 C  
ENDBRANCH  32  33
ENDBRANCH  31  32
ENDBRANCH  29  31
ENDBRANCH  26  29
ENDBRANCH   9  26
ENDBRANCH   4   5
ENDBRANCH   3   4
ENDBRANCH   2   3
TORSDOF 11
ENDMDL
MODEL       30
REMARK 921   NORMALIZED FREE ENERGY PREDICTED BY IDOCK:   -6.29 KCAL/MOL
REMARK 922        TOTAL FREE ENERGY PREDICTED BY IDOCK:  -12.56 KCAL/MOL
REMARK 923 INTER-LIGAND FREE ENERGY PREDICTED BY IDOCK:  -10.22 KCAL/MOL
REMARK 924 INTRA-LIGAND FREE ENERGY PREDICTED BY IDOCK:   -2.34 KCAL/MOL
REMARK 927      BINDING AFFINITY PREDICTED BY RF-SCORE:    0.00 PKD
ROOT
HETATM    1  C   UNL     1     -11.045  15.366  64.916  1.00  0.00    -0.435 C  
HETATM    2  C   UNL     1     -12.336  14.829  64.325  1.00  0.00    -0.345 C  
ENDROOT
BRANCH   2   3
HETATM    3  C   UNL     1     -12.371  13.310  64.292  1.00  0.00    -0.340 C  
BRANCH   3   4
HETATM    4  O   UNL     1     -12.397  12.736  65.612  1.00  0.00    -0.525 OA 
BRANCH   4   5
HETATM    5  C   UNL     1     -11.400  11.809  65.856  1.00  0.00    -0.263 A  
HETATM    6  C   UNL     1     -10.932  11.603  67.177  1.00  0.00    -0.330 A  
HETATM    7  C   UNL     1      -9.862  10.702  67.401  1.00  0.00    -0.198 A  
HETATM    8  C   UNL     1     -10.807  11.089  64.810  1.00  0.00    -0.234 A  
HETATM    9  C   UNL     1      -9.263  10.039  66.321  1.00  0.00    -0.162 A  
HETATM   10  C   UNL     1      -9.730  10.250  65.034  1.00  0.00    -0.370 A  
BRANCH   6  11
HETATM   11  C   UNL     1     -11.514  12.333  68.374  1.00  0.00    -0.307 C  
HETATM   12  C   UNL     1     -12.122  14.384  69.340  1.00  0.00    -0.297 C  
HETATM   13  N   UNL     1     -11.583  13.638  68.303  1.00  0.00    -0.316 N  
HETATM   14  H   UNL     1     -11.234  14.114  67.471  1.00  0.00     0.000 HD 
HETATM   15  N   UNL     1     -11.919  11.573  69.461  1.00  0.00    -0.331 NA 
HETATM   16  N   UNL     1     -13.488  12.895  72.393  1.00  0.00    -0.549 NA 
HETATM   17  C   UNL     1     -13.034  11.831  71.710  1.00  0.00    -0.361 A  
HETATM   18  C   UNL     1     -12.587  13.592  70.434  1.00  0.00    -0.197 A  
HETATM   19  O   UNL     1     -12.189  15.609  69.322  1.00  0.00    -0.303 OA 
HETATM   20  C   UNL     1     -13.597  15.278  72.010  1.00  0.00    -0.469 C  
HETATM   21  C   UNL     1     -12.477  12.234  70.484  1.00  0.00    -0.189 A  
HETATM   22  N   UNL     1     -13.210  13.953  71.589  1.00  0.00    -0.354 NA 
BRANCH  17  23
HETATM   23  C   UNL     1     -13.168  10.464  72.293  1.00  0.00    -0.285 C  
BRANCH  23  24
HETATM   24  C   UNL     1     -13.365   9.357  71.255  1.00  0.00    -0.356 C  
HETATM   25  C   UNL     1     -14.048   8.114  71.810  1.00  0.00    -0.516 C  
ENDBRANCH  23  24
ENDBRANCH  17  23
ENDBRANCH   6  11
BRANCH   9  26
HETATM   26  S   UNL     1      -7.848   8.981  66.539  1.00  0.00    -0.100 S  
HETATM   27  O   UNL     1      -6.675   9.822  66.497  1.00  0.00    -0.077 OA 
HETATM   28  O   UNL     1      -8.032   7.847  65.662  1.00  0.00    -0.102 OA 
BRANCH  26  29
HETATM   29  N   UNL     1      -7.999   8.449  68.157  1.00  0.00    -0.117 N  
HETATM   30  H   UNL     1      -7.707   9.032  68.942  1.00  0.00     0.000 HD 
BRANCH  29  31
HETATM   31  C   UNL     1      -8.576   7.105  68.361  1.00  0.00    -0.123 C  
BRANCH  31  32
HETATM   32  C   UNL     1     -10.101   7.126  68.352  1.00  0.00    -0.182 C  
BRANCH  32  33
HETATM   33  C   UNL     1     -10.636   7.272  69.790  1.00  0.00    -0.235 C  
HETATM   34  C   UNL     1     -11.052   5.939  70.407  1.00  0.00    -0.353 C  
HETATM   35  C   UNL     1     -10.983   6.218  71.890  1.00  0.00    -0.302 C  
HETATM   36  C   UNL     1      -9.637   9.246  70.818  1.00  0.00    -0.275 C  
HETATM   37  N   UNL     1      -9.607   7.790  70.708  1.00  0.00    -0.166 NA 
HETATM   38  C   UNL     1      -9.786   7.144  72.019  1.00  0.00    -0.158 C  
ENDBRANCH  32  33
ENDBRANCH  31  32
ENDBRANCH  29  31
ENDBRANCH  26  29
ENDBRANCH   9  26
ENDBRANCH   4   5
ENDBRANCH   3   4
ENDBRANCH   2   3
TORSDOF 11
ENDMDL
MODEL       31
REMARK 921   NORMALIZED FREE ENERGY PREDICTED BY IDOCK:   -6.27 KCAL/MOL
REMARK 922        TOTAL FREE ENERGY PREDICTED BY IDOCK:  -12.53 KCAL/MOL
REMARK 923 INTER-LIGAND FREE ENERGY PREDICTED BY IDOCK:  -10.56 KCAL/MOL
REMARK 924 INTRA-LIGAND FREE ENERGY PREDICTED BY IDOCK:   -1.97 KCAL/MOL
REMARK 927      BINDING AFFINITY PREDICTED BY RF-SCORE:    0.00 PKD
ROOT
HETATM    1  C   UNL     1      -8.628   5.673  68.567  1.00  0.00    -0.107 C  
HETATM    2  C   UNL     1      -9.832   5.616  67.644  1.00  0.00    -0.154 C  
ENDROOT
BRANCH   2   3
HETATM    3  C   UNL     1      -9.736   6.613  66.502  1.00  0.00    -0.121 C  
BRANCH   3   4
HETATM    4  O   UNL     1      -8.859   7.712  66.810  1.00  0.00    -0.126 OA 
BRANCH   4   5
HETATM    5  C   UNL     1      -9.426   8.963  66.646  1.00  0.00    -0.202 A  
HETATM    6  C   UNL     1      -9.974   9.644  67.761  1.00  0.00    -0.211 A  
HETATM    7  C   UNL     1     -10.613  10.893  67.565  1.00  0.00    -0.271 A  
HETATM    8  C   UNL     1      -9.506   9.564  65.382  1.00  0.00    -0.336 A  
HETATM    9  C   UNL     1     -10.718  11.436  66.277  1.00  0.00    -0.270 A  
HETATM   10  C   UNL     1     -10.178  10.759  65.195  1.00  0.00    -0.365 A  
BRANCH   6  11
HETATM   11  C   UNL     1      -9.930   9.076  69.168  1.00  0.00    -0.185 C  
HETATM   12  C   UNL     1      -8.700   8.775  71.145  1.00  0.00    -0.212 C  
HETATM   13  N   UNL     1      -8.821   9.240  69.844  1.00  0.00    -0.168 N  
HETATM   14  H   UNL     1      -8.033   9.718  69.408  1.00  0.00     0.000 HD 
HETATM   15  N   UNL     1     -11.056   8.414  69.635  1.00  0.00    -0.084 NA 
HETATM   16  N   UNL     1     -11.408   7.086  72.938  1.00  0.00    -0.226 NA 
HETATM   17  C   UNL     1     -11.936   7.304  71.722  1.00  0.00    -0.307 A  
HETATM   18  C   UNL     1      -9.882   8.142  71.638  1.00  0.00    -0.182 A  
HETATM   19  O   UNL     1      -7.675   8.891  71.808  1.00  0.00    -0.289 OA 
HETATM   20  C   UNL     1      -9.308   7.577  74.026  1.00  0.00    -0.199 C  
HETATM   21  C   UNL     1     -11.012   7.967  70.896  1.00  0.00    -0.243 A  
HETATM   22  N   UNL     1     -10.160   7.613  72.862  1.00  0.00    -0.258 NA 
BRANCH  17  23
HETATM   23  C   UNL     1     -13.326   6.850  71.425  1.00  0.00    -0.267 C  
BRANCH  23  24
HETATM   24  C   UNL     1     -14.408   7.868  71.791  1.00  0.00    -0.589 C  
HETATM   25  C   UNL     1     -13.854   9.200  72.281  1.00  0.00    -0.527 C  
ENDBRANCH  23  24
ENDBRANCH  17  23
ENDBRANCH   6  11
BRANCH   9  26
HETATM   26  S   UNL     1     -11.605  12.946  65.965  1.00  0.00    -0.396 S  
HETATM   27  O   UNL     1     -12.785  12.602  65.207  1.00  0.00    -0.652 OA 
HETATM   28  O   UNL     1     -10.636  13.917  65.509  1.00  0.00    -0.288 OA 
BRANCH  26  29
HETATM   29  N   UNL     1     -12.151  13.410  67.518  1.00  0.00    -0.323 N  
HETATM   30  H   UNL     1     -12.964  12.972  67.952  1.00  0.00     0.000 HD 
BRANCH  29  31
HETATM   31  C   UNL     1     -11.387  14.475  68.199  1.00  0.00    -0.298 C  
BRANCH  31  32
HETATM   32  C   UNL     1     -12.243  15.251  69.193  1.00  0.00    -0.188 C  
BRANCH  32  33
HETATM   33  C   UNL     1     -11.889  14.836  70.633  1.00  0.00    -0.305 C  
HETATM   34  C   UNL     1     -11.811  16.022  71.592  1.00  0.00    -0.582 C  
HETATM   35  C   UNL     1     -12.026  15.379  72.941  1.00  0.00    -0.556 C  
HETATM   36  C   UNL     1     -12.639  12.546  71.012  1.00  0.00    -0.256 C  
HETATM   37  N   UNL     1     -12.919  13.963  71.222  1.00  0.00    -0.342 NA 
HETATM   38  C   UNL     1     -13.040  14.286  72.653  1.00  0.00    -0.478 C  
ENDBRANCH  32  33
ENDBRANCH  31  32
ENDBRANCH  29  31
ENDBRANCH  26  29
ENDBRANCH   9  26
ENDBRANCH   4   5
ENDBRANCH   3   4
ENDBRANCH   2   3
TORSDOF 11
ENDMDL
MODEL       32
REMARK 921   NORMALIZED FREE ENERGY PREDICTED BY IDOCK:   -6.23 KCAL/MOL
REMARK 922        TOTAL FREE ENERGY PREDICTED BY IDOCK:  -12.47 KCAL/MOL
REMARK 923 INTER-LIGAND FREE ENERGY PREDICTED BY IDOCK:  -11.33 KCAL/MOL
REMARK 924 INTRA-LIGAND FREE ENERGY PREDICTED BY IDOCK:   -1.14 KCAL/MOL
REMARK 927      BINDING AFFINITY PREDICTED BY RF-SCORE:    0.00 PKD
ROOT
HETATM    1  C   UNL     1     -13.821   9.091  71.894  1.00  0.00    -0.477 C  
HETATM    2  C   UNL     1     -12.492   9.783  71.650  1.00  0.00    -0.500 C  
ENDROOT
BRANCH   2   3
HETATM    3  C   UNL     1     -12.656  11.136  70.978  1.00  0.00    -0.403 C  
BRANCH   3   4
HETATM    4  O   UNL     1     -11.437  11.591  70.364  1.00  0.00    -0.218 OA 
BRANCH   4   5
HETATM    5  C   UNL     1     -11.572  11.994  69.047  1.00  0.00    -0.313 A  
HETATM    6  C   UNL     1     -11.222  11.110  67.997  1.00  0.00    -0.359 A  
HETATM    7  C   UNL     1     -11.299  11.561  66.656  1.00  0.00    -0.285 A  
HETATM    8  C   UNL     1     -12.014  13.284  68.724  1.00  0.00    -0.335 A  
HETATM    9  C   UNL     1     -11.698  12.876  66.378  1.00  0.00    -0.395 A  
HETATM   10  C   UNL     1     -12.037  13.730  67.415  1.00  0.00    -0.378 A  
BRANCH   6  11
HETATM   11  C   UNL     1     -10.737   9.693  68.248  1.00  0.00    -0.217 C  
HETATM   12  C   UNL     1     -10.747   7.447  67.567  1.00  0.00    -0.240 C  
HETATM   13  N   UNL     1     -11.157   8.764  67.427  1.00  0.00    -0.331 N  
HETATM   14  H   UNL     1     -11.797   9.012  66.673  1.00  0.00     0.000 HD 
HETATM   15  N   UNL     1      -9.897   9.479  69.330  1.00  0.00    -0.177 NA 
HETATM   16  N   UNL     1      -8.413   6.330  70.157  1.00  0.00    -0.132 NA 
HETATM   17  C   UNL     1      -8.567   7.637  70.428  1.00  0.00    -0.138 A  
HETATM   18  C   UNL     1      -9.840   7.242  68.652  1.00  0.00    -0.161 A  
HETATM   19  O   UNL     1     -11.130   6.542  66.833  1.00  0.00    -0.399 OA 
HETATM   20  C   UNL     1      -9.240   4.800  68.479  1.00  0.00    -0.124 C  
HETATM   21  C   UNL     1      -9.442   8.230  69.501  1.00  0.00    -0.162 A  
HETATM   22  N   UNL     1      -9.193   6.118  69.066  1.00  0.00    -0.126 NA 
BRANCH  17  23
HETATM   23  C   UNL     1      -7.848   8.244  71.584  1.00  0.00    -0.139 C  
BRANCH  23  24
HETATM   24  C   UNL     1      -8.068   7.515  72.912  1.00  0.00    -0.134 C  
HETATM   25  C   UNL     1      -9.424   7.797  73.546  1.00  0.00    -0.346 C  
ENDBRANCH  23  24
ENDBRANCH  17  23
ENDBRANCH   6  11
BRANCH   9  26
HETATM   26  S   UNL     1     -11.706  13.522  64.720  1.00  0.00    -0.390 S  
HETATM   27  O   UNL     1     -12.814  14.444  64.626  1.00  0.00    -0.643 OA 
HETATM   28  O   UNL     1     -11.545  12.397  63.828  1.00  0.00    -0.391 OA 
BRANCH  26  29
HETATM   29  N   UNL     1     -10.286  14.473  64.661  1.00  0.00    -0.551 N  
HETATM   30  H   UNL     1      -9.427  14.126  64.232  1.00  0.00     0.000 HD 
BRANCH  29  31
HETATM   31  C   UNL     1     -10.365  15.820  65.261  1.00  0.00    -0.357 C  
BRANCH  31  32
HETATM   32  C   UNL     1      -9.228  16.079  66.244  1.00  0.00    -0.368 C  
BRANCH  32  33
HETATM   33  C   UNL     1      -9.232  17.556  66.679  1.00  0.00    -0.262 C  
HETATM   34  C   UNL     1     -10.543  18.268  66.353  1.00  0.00    -0.318 C  
HETATM   35  C   UNL     1     -10.547  19.427  67.321  1.00  0.00    -0.599 C  
HETATM   36  C   UNL     1      -7.707  17.839  68.562  1.00  0.00    -0.289 C  
HETATM   37  N   UNL     1      -9.097  17.698  68.139  1.00  0.00    -0.268 NA 
HETATM   38  C   UNL     1      -9.915  18.844  68.572  1.00  0.00    -0.406 C  
ENDBRANCH  32  33
ENDBRANCH  31  32
ENDBRANCH  29  31
ENDBRANCH  26  29
ENDBRANCH   9  26
ENDBRANCH   4   5
ENDBRANCH   3   4
ENDBRANCH   2   3
TORSDOF 11
ENDMDL
MODEL       33
REMARK 921   NORMALIZED FREE ENERGY PREDICTED BY IDOCK:   -6.22 KCAL/MOL
REMARK 922        TOTAL FREE ENERGY PREDICTED BY IDOCK:  -12.46 KCAL/MOL
REMARK 923 INTER-LIGAND FREE ENERGY PREDICTED BY IDOCK:  -11.26 KCAL/MOL
REMARK 924 INTRA-LIGAND FREE ENERGY PREDICTED BY IDOCK:   -1.20 KCAL/MOL
REMARK 927      BINDING AFFINITY PREDICTED BY RF-SCORE:    0.00 PKD
ROOT
HETATM    1  C   UNL     1     -12.496  11.980  63.307  1.00  0.00    -0.544 C  
HETATM    2  C   UNL     1     -12.127  13.265  64.025  1.00  0.00    -0.508 C  
ENDROOT
BRANCH   2   3
HETATM    3  C   UNL     1     -12.198  13.126  65.537  1.00  0.00    -0.461 C  
BRANCH   3   4
HETATM    4  O   UNL     1     -10.909  12.858  66.121  1.00  0.00    -0.274 OA 
BRANCH   4   5
HETATM    5  C   UNL     1     -10.755  11.573  66.609  1.00  0.00    -0.268 A  
HETATM    6  C   UNL     1     -10.921  11.317  67.992  1.00  0.00    -0.302 A  
HETATM    7  C   UNL     1     -10.691  10.010  68.487  1.00  0.00    -0.264 A  
HETATM    8  C   UNL     1     -10.396  10.514  65.764  1.00  0.00    -0.270 A  
HETATM    9  C   UNL     1     -10.284   8.989  67.618  1.00  0.00    -0.242 A  
HETATM   10  C   UNL     1     -10.125   9.254  66.267  1.00  0.00    -0.322 A  
BRANCH   6  11
HETATM   11  C   UNL     1     -11.313  12.398  68.983  1.00  0.00    -0.283 C  
HETATM   12  C   UNL     1     -12.493  12.966  70.931  1.00  0.00    -0.296 C  
HETATM   13  N   UNL     1     -12.103  12.049  69.968  1.00  0.00    -0.303 N  
HETATM   14  H   UNL     1     -12.436  11.087  70.026  1.00  0.00     0.000 HD 
HETATM   15  N   UNL     1     -10.822  13.678  68.772  1.00  0.00    -0.253 NA 
HETATM   16  N   UNL     1     -11.378  16.453  70.962  1.00  0.00    -0.295 NA 
HETATM   17  C   UNL     1     -10.814  15.961  69.846  1.00  0.00    -0.333 A  
HETATM   18  C   UNL     1     -11.941  14.269  70.739  1.00  0.00    -0.320 A  
HETATM   19  O   UNL     1     -13.245  12.686  71.859  1.00  0.00    -0.450 OA 
HETATM   20  C   UNL     1     -12.762  15.570  72.735  1.00  0.00    -0.429 C  
HETATM   21  C   UNL     1     -11.141  14.603  69.687  1.00  0.00    -0.253 A  
HETATM   22  N   UNL     1     -12.051  15.399  71.490  1.00  0.00    -0.333 NA 
BRANCH  17  23
HETATM   23  C   UNL     1      -9.980  16.848  68.984  1.00  0.00    -0.265 C  
BRANCH  23  24
HETATM   24  C   UNL     1     -10.650  17.255  67.670  1.00  0.00    -0.350 C  
HETATM   25  C   UNL     1     -10.772  18.762  67.486  1.00  0.00    -0.474 C  
ENDBRANCH  23  24
ENDBRANCH  17  23
ENDBRANCH   6  11
BRANCH   9  26
HETATM   26  S   UNL     1      -9.879   7.360  68.208  1.00  0.00    -0.165 S  
HETATM   27  O   UNL     1      -8.972   7.521  69.320  1.00  0.00    -0.136 OA 
HETATM   28  O   UNL     1      -9.562   6.559  67.048  1.00  0.00    -0.134 OA 
BRANCH  26  29
HETATM   29  N   UNL     1     -11.355   6.803  68.869  1.00  0.00    -0.561 N  
HETATM   30  H   UNL     1     -12.247   6.971  68.404  1.00  0.00     0.000 HD 
BRANCH  29  31
HETATM   31  C   UNL     1     -11.271   6.064  70.145  1.00  0.00    -0.342 C  
BRANCH  31  32
HETATM   32  C   UNL     1     -12.042   6.759  71.263  1.00  0.00    -0.421 C  
BRANCH  32  33
HETATM   33  C   UNL     1     -11.363   6.489  72.619  1.00  0.00    -0.222 C  
HETATM   34  C   UNL     1     -11.617   5.076  73.140  1.00  0.00    -0.299 C  
HETATM   35  C   UNL     1     -10.468   4.858  74.095  1.00  0.00    -0.335 C  
HETATM   36  C   UNL     1      -9.401   7.922  72.831  1.00  0.00    -0.246 C  
HETATM   37  N   UNL     1      -9.896   6.583  72.527  1.00  0.00    -0.166 NA 
HETATM   38  C   UNL     1      -9.309   5.572  73.422  1.00  0.00    -0.138 C  
ENDBRANCH  32  33
ENDBRANCH  31  32
ENDBRANCH  29  31
ENDBRANCH  26  29
ENDBRANCH   9  26
ENDBRANCH   4   5
ENDBRANCH   3   4
ENDBRANCH   2   3
TORSDOF 11
ENDMDL
MODEL       34
REMARK 921   NORMALIZED FREE ENERGY PREDICTED BY IDOCK:   -6.21 KCAL/MOL
REMARK 922        TOTAL FREE ENERGY PREDICTED BY IDOCK:  -12.44 KCAL/MOL
REMARK 923 INTER-LIGAND FREE ENERGY PREDICTED BY IDOCK:  -10.51 KCAL/MOL
REMARK 924 INTRA-LIGAND FREE ENERGY PREDICTED BY IDOCK:   -1.93 KCAL/MOL
REMARK 927      BINDING AFFINITY PREDICTED BY RF-SCORE:    0.00 PKD
ROOT
HETATM    1  C   UNL     1     -10.695   7.428  73.279  1.00  0.00    -0.441 C  
HETATM    2  C   UNL     1     -10.033   6.738  72.101  1.00  0.00    -0.176 C  
ENDROOT
BRANCH   2   3
HETATM    3  C   UNL     1     -11.029   5.984  71.235  1.00  0.00    -0.278 C  
BRANCH   3   4
HETATM    4  O   UNL     1     -11.622   6.825  70.228  1.00  0.00    -0.353 OA 
BRANCH   4   5
HETATM    5  C   UNL     1     -10.777   7.151  69.182  1.00  0.00    -0.198 A  
HETATM    6  C   UNL     1     -10.616   8.505  68.798  1.00  0.00    -0.162 A  
HETATM    7  C   UNL     1      -9.803   8.817  67.681  1.00  0.00    -0.228 A  
HETATM    8  C   UNL     1     -10.100   6.159  68.459  1.00  0.00    -0.193 A  
HETATM    9  C   UNL     1      -9.183   7.791  66.953  1.00  0.00    -0.152 A  
HETATM   10  C   UNL     1      -9.350   6.471  67.339  1.00  0.00    -0.125 A  
BRANCH   6  11
HETATM   11  C   UNL     1     -11.304   9.648  69.523  1.00  0.00    -0.040 C  
HETATM   12  C   UNL     1     -12.684  10.323  71.298  1.00  0.00    -0.421 C  
HETATM   13  N   UNL     1     -12.038   9.341  70.562  1.00  0.00    -0.478 N  
HETATM   14  H   UNL     1     -12.137   8.364  70.836  1.00  0.00     0.000 HD 
HETATM   15  N   UNL     1     -11.121  10.931  69.029  1.00  0.00    -0.225 NA 
HETATM   16  N   UNL     1     -12.431  13.896  70.543  1.00  0.00    -0.351 NA 
HETATM   17  C   UNL     1     -11.710  13.325  69.564  1.00  0.00    -0.322 A  
HETATM   18  C   UNL     1     -12.448  11.647  70.816  1.00  0.00    -0.330 A  
HETATM   19  O   UNL     1     -13.395  10.078  72.267  1.00  0.00    -0.429 OA 
HETATM   20  C   UNL     1     -13.656  13.112  72.473  1.00  0.00    -0.491 C  
HETATM   21  C   UNL     1     -11.696  11.928  69.715  1.00  0.00    -0.331 A  
HETATM   22  N   UNL     1     -12.862  12.852  71.296  1.00  0.00    -0.329 NA 
BRANCH  17  23
HETATM   23  C   UNL     1     -11.067  14.178  68.523  1.00  0.00    -0.276 C  
BRANCH  23  24
HETATM   24  C   UNL     1      -9.975  15.106  69.061  1.00  0.00    -0.239 C  
HETATM   25  C   UNL     1     -10.335  16.584  68.982  1.00  0.00    -0.296 C  
ENDBRANCH  23  24
ENDBRANCH  17  23
ENDBRANCH   6  11
BRANCH   9  26
HETATM   26  S   UNL     1      -8.242   8.123  65.481  1.00  0.00    -0.150 S  
HETATM   27  O   UNL     1      -8.185   6.895  64.723  1.00  0.00    -0.122 OA 
HETATM   28  O   UNL     1      -7.060   8.847  65.890  1.00  0.00    -0.082 OA 
BRANCH  26  29
HETATM   29  N   UNL     1      -9.253   9.184  64.598  1.00  0.00    -0.441 N  
HETATM   30  H   UNL     1     -10.122   8.864  64.172  1.00  0.00     0.000 HD 
BRANCH  29  31
HETATM   31  C   UNL     1      -8.802  10.586  64.484  1.00  0.00    -0.200 C  
BRANCH  31  32
HETATM   32  C   UNL     1      -9.669  11.536  65.304  1.00  0.00    -0.268 C  
BRANCH  32  33
HETATM   33  C   UNL     1     -10.371  12.546  64.376  1.00  0.00    -0.352 C  
HETATM   34  C   UNL     1     -11.554  11.939  63.626  1.00  0.00    -0.559 C  
HETATM   35  C   UNL     1     -12.384  13.150  63.271  1.00  0.00    -0.366 C  
HETATM   36  C   UNL     1     -10.042  14.799  65.251  1.00  0.00    -0.354 C  
HETATM   37  N   UNL     1     -10.957  13.668  65.130  1.00  0.00    -0.315 NA 
HETATM   38  C   UNL     1     -12.217  14.058  64.476  1.00  0.00    -0.434 C  
ENDBRANCH  32  33
ENDBRANCH  31  32
ENDBRANCH  29  31
ENDBRANCH  26  29
ENDBRANCH   9  26
ENDBRANCH   4   5
ENDBRANCH   3   4
ENDBRANCH   2   3
TORSDOF 11
ENDMDL
MODEL       35
REMARK 921   NORMALIZED FREE ENERGY PREDICTED BY IDOCK:   -6.16 KCAL/MOL
REMARK 922        TOTAL FREE ENERGY PREDICTED BY IDOCK:  -12.36 KCAL/MOL
REMARK 923 INTER-LIGAND FREE ENERGY PREDICTED BY IDOCK:  -10.97 KCAL/MOL
REMARK 924 INTRA-LIGAND FREE ENERGY PREDICTED BY IDOCK:   -1.39 KCAL/MOL
REMARK 927      BINDING AFFINITY PREDICTED BY RF-SCORE:    0.00 PKD
ROOT
HETATM    1  C   UNL     1      -9.907  11.142  64.975  1.00  0.00    -0.315 C  
HETATM    2  C   UNL     1     -10.215   9.857  65.721  1.00  0.00    -0.251 C  
ENDROOT
BRANCH   2   3
HETATM    3  C   UNL     1     -10.174  10.037  67.229  1.00  0.00    -0.222 C  
BRANCH   3   4
HETATM    4  O   UNL     1     -11.486  10.212  67.794  1.00  0.00    -0.287 OA 
BRANCH   4   5
HETATM    5  C   UNL     1     -11.643  11.368  68.538  1.00  0.00    -0.318 A  
HETATM    6  C   UNL     1     -11.735  11.295  69.949  1.00  0.00    -0.430 A  
HETATM    7  C   UNL     1     -11.965  12.479  70.691  1.00  0.00    -0.196 A  
HETATM    8  C   UNL     1     -11.752  12.621  67.918  1.00  0.00    -0.412 A  
HETATM    9  C   UNL     1     -12.120  13.705  70.030  1.00  0.00    -0.348 A  
HETATM   10  C   UNL     1     -12.028  13.763  68.649  1.00  0.00    -0.401 A  
BRANCH   6  11
HETATM   11  C   UNL     1     -11.624   9.985  70.709  1.00  0.00    -0.360 C  
HETATM   12  C   UNL     1     -12.669   7.999  71.397  1.00  0.00    -0.280 C  
HETATM   13  N   UNL     1     -12.688   9.223  70.746  1.00  0.00    -0.510 N  
HETATM   14  H   UNL     1     -13.544   9.535  70.289  1.00  0.00     0.000 HD 
HETATM   15  N   UNL     1     -10.413   9.692  71.320  1.00  0.00    -0.248 NA 
HETATM   16  N   UNL     1      -9.699   6.646  73.056  1.00  0.00    -0.156 NA 
HETATM   17  C   UNL     1      -9.286   7.848  72.622  1.00  0.00    -0.208 A  
HETATM   18  C   UNL     1     -11.404   7.679  71.978  1.00  0.00    -0.278 A  
HETATM   19  O   UNL     1     -13.647   7.263  71.472  1.00  0.00    -0.388 OA 
HETATM   20  C   UNL     1     -11.745   5.367  72.921  1.00  0.00    -0.162 C  
HETATM   21  C   UNL     1     -10.323   8.508  71.940  1.00  0.00    -0.308 A  
HETATM   22  N   UNL     1     -10.990   6.565  72.643  1.00  0.00    -0.245 NA 
BRANCH  17  23
HETATM   23  C   UNL     1      -7.890   8.295  72.896  1.00  0.00    -0.186 C  
BRANCH  23  24
HETATM   24  C   UNL     1      -7.452   8.125  74.352  1.00  0.00    -0.252 C  
HETATM   25  C   UNL     1      -6.014   7.645  74.506  1.00  0.00    -0.085 C  
ENDBRANCH  23  24
ENDBRANCH  17  23
ENDBRANCH   6  11
BRANCH   9  26
HETATM   26  S   UNL     1     -12.518  15.200  70.909  1.00  0.00    -0.402 S  
HETATM   27  O   UNL     1     -12.139  15.001  72.288  1.00  0.00    -0.345 OA 
HETATM   28  O   UNL     1     -13.853  15.581  70.510  1.00  0.00    -0.239 OA 
BRANCH  26  29
HETATM   29  N   UNL     1     -11.413  16.338  70.268  1.00  0.00    -0.444 N  
HETATM   30  H   UNL     1     -11.667  17.318  70.140  1.00  0.00     0.000 HD 
BRANCH  29  31
HETATM   31  C   UNL     1     -10.073  15.832  69.911  1.00  0.00    -0.228 C  
BRANCH  31  32
HETATM   32  C   UNL     1      -9.283  16.833  69.075  1.00  0.00    -0.199 C  
BRANCH  32  33
HETATM   33  C   UNL     1     -10.228  17.584  68.118  1.00  0.00    -0.359 C  
HETATM   34  C   UNL     1     -10.183  19.099  68.305  1.00  0.00    -0.486 C  
HETATM   35  C   UNL     1     -10.686  19.617  66.979  1.00  0.00    -0.575 C  
HETATM   36  C   UNL     1     -10.549  16.250  66.101  1.00  0.00    -0.267 C  
HETATM   37  N   UNL     1      -9.854  17.382  66.708  1.00  0.00    -0.283 NA 
HETATM   38  C   UNL     1     -10.113  18.633  65.975  1.00  0.00    -0.297 C  
ENDBRANCH  32  33
ENDBRANCH  31  32
ENDBRANCH  29  31
ENDBRANCH  26  29
ENDBRANCH   9  26
ENDBRANCH   4   5
ENDBRANCH   3   4
ENDBRANCH   2   3
TORSDOF 11
ENDMDL
MODEL       36
REMARK 921   NORMALIZED FREE ENERGY PREDICTED BY IDOCK:   -6.15 KCAL/MOL
REMARK 922        TOTAL FREE ENERGY PREDICTED BY IDOCK:  -12.34 KCAL/MOL
REMARK 923 INTER-LIGAND FREE ENERGY PREDICTED BY IDOCK:  -10.83 KCAL/MOL
REMARK 924 INTRA-LIGAND FREE ENERGY PREDICTED BY IDOCK:   -1.51 KCAL/MOL
REMARK 927      BINDING AFFINITY PREDICTED BY RF-SCORE:    0.00 PKD
ROOT
HETATM    1  C   UNL     1     -14.074  15.224  72.010  1.00  0.00    -0.662 C  
HETATM    2  C   UNL     1     -12.899  16.017  72.551  1.00  0.00    -0.486 C  
ENDROOT
BRANCH   2   3
HETATM    3  C   UNL     1     -11.573  15.566  71.961  1.00  0.00    -0.456 C  
BRANCH   3   4
HETATM    4  O   UNL     1     -11.487  15.829  70.549  1.00  0.00    -0.316 OA 
BRANCH   4   5
HETATM    5  C   UNL     1     -11.154  14.730  69.778  1.00  0.00    -0.258 A  
HETATM    6  C   UNL     1      -9.964  14.738  69.010  1.00  0.00    -0.218 A  
HETATM    7  C   UNL     1      -9.672  13.634  68.172  1.00  0.00    -0.229 A  
HETATM    8  C   UNL     1     -11.996  13.612  69.706  1.00  0.00    -0.404 A  
HETATM    9  C   UNL     1     -10.565  12.557  68.090  1.00  0.00    -0.226 A  
HETATM   10  C   UNL     1     -11.727  12.562  68.846  1.00  0.00    -0.367 A  
BRANCH   6  11
HETATM   11  C   UNL     1      -8.988  15.901  69.026  1.00  0.00    -0.245 C  
HETATM   12  C   UNL     1      -6.804  16.649  69.453  1.00  0.00    -0.218 C  
HETATM   13  N   UNL     1      -7.767  15.652  69.429  1.00  0.00    -0.223 N  
HETATM   14  H   UNL     1      -7.520  14.709  69.729  1.00  0.00     0.000 HD 
HETATM   15  N   UNL     1      -9.456  17.144  68.629  1.00  0.00    -0.269 NA 
HETATM   16  N   UNL     1      -7.438  20.088  68.369  1.00  0.00    -0.271 NA 
HETATM   17  C   UNL     1      -8.637  19.497  68.232  1.00  0.00    -0.340 A  
HETATM   18  C   UNL     1      -7.279  17.915  68.992  1.00  0.00    -0.209 A  
HETATM   19  O   UNL     1      -5.655  16.463  69.839  1.00  0.00    -0.163 OA 
HETATM   20  C   UNL     1      -5.233  19.384  69.060  1.00  0.00    -0.188 C  
HETATM   21  C   UNL     1      -8.565  18.143  68.603  1.00  0.00    -0.267 A  
HETATM   22  N   UNL     1      -6.628  19.099  68.826  1.00  0.00    -0.263 NA 
BRANCH  17  23
HETATM   23  C   UNL     1      -9.802  20.290  67.741  1.00  0.00    -0.534 C  
BRANCH  23  24
HETATM   24  C   UNL     1     -10.021  20.210  66.229  1.00  0.00    -0.557 C  
HETATM   25  C   UNL     1     -10.686  18.917  65.775  1.00  0.00    -0.310 C  
ENDBRANCH  23  24
ENDBRANCH  17  23
ENDBRANCH   6  11
BRANCH   9  26
HETATM   26  S   UNL     1     -10.297  11.199  66.972  1.00  0.00    -0.234 S  
HETATM   27  O   UNL     1      -9.676  11.738  65.785  1.00  0.00    -0.230 OA 
HETATM   28  O   UNL     1     -11.522  10.434  66.937  1.00  0.00    -0.110 OA 
BRANCH  26  29
HETATM   29  N   UNL     1      -9.097  10.270  67.762  1.00  0.00    -0.134 N  
HETATM   30  H   UNL     1      -8.104  10.472  67.649  1.00  0.00     0.000 HD 
BRANCH  29  31
HETATM   31  C   UNL     1      -9.572   9.162  68.615  1.00  0.00    -0.152 C  
BRANCH  31  32
HETATM   32  C   UNL     1     -10.051   9.651  69.978  1.00  0.00    -0.293 C  
BRANCH  32  33
HETATM   33  C   UNL     1     -11.367   8.946  70.359  1.00  0.00    -0.202 C  
HETATM   34  C   UNL     1     -11.219   7.430  70.469  1.00  0.00    -0.296 C  
HETATM   35  C   UNL     1     -12.375   7.043  71.359  1.00  0.00    -0.419 C  
HETATM   36  C   UNL     1     -12.764  10.493  71.626  1.00  0.00    -0.445 C  
HETATM   37  N   UNL     1     -11.845   9.360  71.689  1.00  0.00    -0.374 NA 
HETATM   38  C   UNL     1     -12.465   8.195  72.344  1.00  0.00    -0.262 C  
ENDBRANCH  32  33
ENDBRANCH  31  32
ENDBRANCH  29  31
ENDBRANCH  26  29
ENDBRANCH   9  26
ENDBRANCH   4   5
ENDBRANCH   3   4
ENDBRANCH   2   3
TORSDOF 11
ENDMDL
MODEL       37
REMARK 921   NORMALIZED FREE ENERGY PREDICTED BY IDOCK:   -6.14 KCAL/MOL
REMARK 922        TOTAL FREE ENERGY PREDICTED BY IDOCK:  -12.32 KCAL/MOL
REMARK 923 INTER-LIGAND FREE ENERGY PREDICTED BY IDOCK:  -10.44 KCAL/MOL
REMARK 924 INTRA-LIGAND FREE ENERGY PREDICTED BY IDOCK:   -1.88 KCAL/MOL
REMARK 927      BINDING AFFINITY PREDICTED BY RF-SCORE:    0.00 PKD
ROOT
HETATM    1  C   UNL     1      -8.171   5.052  66.884  1.00  0.00    -0.107 C  
HETATM    2  C   UNL     1      -8.919   6.319  67.255  1.00  0.00    -0.113 C  
ENDROOT
BRANCH   2   3
HETATM    3  C   UNL     1      -9.049   7.281  66.086  1.00  0.00    -0.122 C  
BRANCH   3   4
HETATM    4  O   UNL     1      -8.413   8.546  66.348  1.00  0.00    -0.110 OA 
BRANCH   4   5
HETATM    5  C   UNL     1      -9.234   9.647  66.183  1.00  0.00    -0.174 A  
HETATM    6  C   UNL     1      -9.887  10.218  67.302  1.00  0.00    -0.222 A  
HETATM    7  C   UNL     1     -10.779  11.301  67.107  1.00  0.00    -0.297 A  
HETATM    8  C   UNL     1      -9.467  10.194  64.913  1.00  0.00    -0.349 A  
HETATM    9  C   UNL     1     -11.025  11.786  65.815  1.00  0.00    -0.301 A  
HETATM   10  C   UNL     1     -10.379  11.219  64.728  1.00  0.00    -0.366 A  
BRANCH   6  11
HETATM   11  C   UNL     1      -9.693   9.697  68.715  1.00  0.00    -0.163 C  
HETATM   12  C   UNL     1      -8.267   9.478  70.566  1.00  0.00    -0.167 C  
HETATM   13  N   UNL     1      -8.525   9.899  69.271  1.00  0.00    -0.144 N  
HETATM   14  H   UNL     1      -7.793  10.372  68.742  1.00  0.00     0.000 HD 
HETATM   15  N   UNL     1     -10.756   9.035  69.313  1.00  0.00    -0.210 NA 
HETATM   16  N   UNL     1     -10.753   7.812  72.675  1.00  0.00    -0.311 NA 
HETATM   17  C   UNL     1     -11.404   7.982  71.512  1.00  0.00    -0.259 A  
HETATM   18  C   UNL     1      -9.383   8.845  71.196  1.00  0.00    -0.257 A  
HETATM   19  O   UNL     1      -7.183   9.630  71.119  1.00  0.00    -0.328 OA 
HETATM   20  C   UNL     1      -8.563   8.368  73.531  1.00  0.00    -0.104 C  
HETATM   21  C   UNL     1     -10.578   8.630  70.577  1.00  0.00    -0.217 A  
HETATM   22  N   UNL     1      -9.528   8.353  72.457  1.00  0.00    -0.288 NA 
BRANCH  17  23
HETATM   23  C   UNL     1     -12.808   7.500  71.370  1.00  0.00    -0.381 C  
BRANCH  23  24
HETATM   24  C   UNL     1     -13.831   8.307  72.173  1.00  0.00    -0.351 C  
HETATM   25  C   UNL     1     -13.595   9.811  72.126  1.00  0.00    -0.432 C  
ENDBRANCH  23  24
ENDBRANCH  17  23
ENDBRANCH   6  11
BRANCH   9  26
HETATM   26  S   UNL     1     -12.216  13.071  65.507  1.00  0.00    -0.469 S  
HETATM   27  O   UNL     1     -12.463  13.736  66.764  1.00  0.00    -0.366 OA 
HETATM   28  O   UNL     1     -13.269  12.487  64.708  1.00  0.00    -0.839 OA 
BRANCH  26  29
HETATM   29  N   UNL     1     -11.352  14.185  64.538  1.00  0.00    -0.497 N  
HETATM   30  H   UNL     1     -11.174  14.009  63.549  1.00  0.00     0.000 HD 
BRANCH  29  31
HETATM   31  C   UNL     1     -10.877  15.414  65.205  1.00  0.00    -0.431 C  
BRANCH  31  32
HETATM   32  C   UNL     1      -9.522  15.218  65.875  1.00  0.00    -0.351 C  
BRANCH  32  33
HETATM   33  C   UNL     1      -9.222  16.399  66.818  1.00  0.00    -0.237 C  
HETATM   34  C   UNL     1      -8.663  17.617  66.085  1.00  0.00    -0.141 C  
HETATM   35  C   UNL     1      -8.983  18.753  67.028  1.00  0.00    -0.299 C  
HETATM   36  C   UNL     1     -10.687  16.261  68.763  1.00  0.00    -0.309 C  
HETATM   37  N   UNL     1     -10.442  16.900  67.474  1.00  0.00    -0.326 NA 
HETATM   38  C   UNL     1     -10.331  18.362  67.606  1.00  0.00    -0.405 C  
ENDBRANCH  32  33
ENDBRANCH  31  32
ENDBRANCH  29  31
ENDBRANCH  26  29
ENDBRANCH   9  26
ENDBRANCH   4   5
ENDBRANCH   3   4
ENDBRANCH   2   3
TORSDOF 11
ENDMDL
MODEL       38
REMARK 921   NORMALIZED FREE ENERGY PREDICTED BY IDOCK:   -6.13 KCAL/MOL
REMARK 922        TOTAL FREE ENERGY PREDICTED BY IDOCK:  -12.31 KCAL/MOL
REMARK 923 INTER-LIGAND FREE ENERGY PREDICTED BY IDOCK:  -10.35 KCAL/MOL
REMARK 924 INTRA-LIGAND FREE ENERGY PREDICTED BY IDOCK:   -1.95 KCAL/MOL
REMARK 927      BINDING AFFINITY PREDICTED BY RF-SCORE:    0.00 PKD
ROOT
HETATM    1  C   UNL     1     -13.495   9.724  71.060  1.00  0.00    -0.243 C  
HETATM    2  C   UNL     1     -13.008  10.879  71.914  1.00  0.00    -0.502 C  
ENDROOT
BRANCH   2   3
HETATM    3  C   UNL     1     -12.857  12.166  71.120  1.00  0.00    -0.217 C  
BRANCH   3   4
HETATM    4  O   UNL     1     -11.573  12.261  70.475  1.00  0.00    -0.067 OA 
BRANCH   4   5
HETATM    5  C   UNL     1     -11.629  12.366  69.097  1.00  0.00    -0.314 A  
HETATM    6  C   UNL     1     -11.058  11.355  68.286  1.00  0.00    -0.300 A  
HETATM    7  C   UNL     1     -11.061  11.511  66.878  1.00  0.00    -0.366 A  
HETATM    8  C   UNL     1     -12.209  13.481  68.476  1.00  0.00    -0.160 A  
HETATM    9  C   UNL     1     -11.605  12.665  66.299  1.00  0.00    -0.386 A  
HETATM   10  C   UNL     1     -12.160  13.647  67.104  1.00  0.00    -0.404 A  
BRANCH   6  11
HETATM   11  C   UNL     1     -10.412  10.109  68.866  1.00  0.00    -0.210 C  
HETATM   12  C   UNL     1      -9.093   9.170  70.565  1.00  0.00    -0.241 C  
HETATM   13  N   UNL     1      -9.699  10.257  69.954  1.00  0.00    -0.412 N  
HETATM   14  H   UNL     1      -9.588  11.186  70.359  1.00  0.00     0.000 HD 
HETATM   15  N   UNL     1     -10.608   8.908  68.200  1.00  0.00    -0.194 NA 
HETATM   16  N   UNL     1      -9.398   5.737  69.331  1.00  0.00    -0.124 NA 
HETATM   17  C   UNL     1     -10.081   6.451  68.421  1.00  0.00    -0.157 A  
HETATM   18  C   UNL     1      -9.343   7.928  69.905  1.00  0.00    -0.156 A  
HETATM   19  O   UNL     1      -8.402   9.266  71.574  1.00  0.00    -0.323 OA 
HETATM   20  C   UNL     1      -8.208   6.226  71.376  1.00  0.00    -0.122 C  
HETATM   21  C   UNL     1     -10.071   7.816  68.758  1.00  0.00    -0.196 A  
HETATM   22  N   UNL     1      -8.966   6.661  70.227  1.00  0.00    -0.151 NA 
BRANCH  17  23
HETATM   23  C   UNL     1     -10.715   5.760  67.261  1.00  0.00    -0.345 C  
BRANCH  23  24
HETATM   24  C   UNL     1      -9.716   5.153  66.272  1.00  0.00    -0.188 C  
HETATM   25  C   UNL     1      -8.558   6.081  65.927  1.00  0.00    -0.150 C  
ENDBRANCH  23  24
ENDBRANCH  17  23
ENDBRANCH   6  11
BRANCH   9  26
HETATM   26  S   UNL     1     -11.536  12.957  64.545  1.00  0.00    -0.367 S  
HETATM   27  O   UNL     1     -12.681  13.766  64.200  1.00  0.00    -0.664 OA 
HETATM   28  O   UNL     1     -11.256  11.686  63.917  1.00  0.00    -0.376 OA 
BRANCH  26  29
HETATM   29  N   UNL     1     -10.166  13.966  64.368  1.00  0.00    -0.644 N  
HETATM   30  H   UNL     1      -9.306  13.630  63.933  1.00  0.00     0.000 HD 
BRANCH  29  31
HETATM   31  C   UNL     1     -10.291  15.347  64.876  1.00  0.00    -0.221 C  
BRANCH  31  32
HETATM   32  C   UNL     1      -9.307  15.636  66.004  1.00  0.00    -0.384 C  
BRANCH  32  33
HETATM   33  C   UNL     1      -9.510  17.070  66.529  1.00  0.00    -0.276 C  
HETATM   34  C   UNL     1     -10.454  17.136  67.728  1.00  0.00    -0.362 C  
HETATM   35  C   UNL     1     -10.067  18.437  68.390  1.00  0.00    -0.418 C  
HETATM   36  C   UNL     1      -7.540  18.404  65.995  1.00  0.00    -0.195 C  
HETATM   37  N   UNL     1      -8.253  17.656  67.025  1.00  0.00    -0.213 NA 
HETATM   38  C   UNL     1      -8.563  18.500  68.191  1.00  0.00    -0.303 C  
ENDBRANCH  32  33
ENDBRANCH  31  32
ENDBRANCH  29  31
ENDBRANCH  26  29
ENDBRANCH   9  26
ENDBRANCH   4   5
ENDBRANCH   3   4
ENDBRANCH   2   3
TORSDOF 11
ENDMDL
MODEL       39
REMARK 921   NORMALIZED FREE ENERGY PREDICTED BY IDOCK:   -6.08 KCAL/MOL
REMARK 922        TOTAL FREE ENERGY PREDICTED BY IDOCK:  -12.22 KCAL/MOL
REMARK 923 INTER-LIGAND FREE ENERGY PREDICTED BY IDOCK:   -9.53 KCAL/MOL
REMARK 924 INTRA-LIGAND FREE ENERGY PREDICTED BY IDOCK:   -2.69 KCAL/MOL
REMARK 927      BINDING AFFINITY PREDICTED BY RF-SCORE:    0.00 PKD
ROOT
HETATM    1  C   UNL     1     -12.617  15.126  71.746  1.00  0.00    -0.418 C  
HETATM    2  C   UNL     1     -13.802  14.416  72.376  1.00  0.00    -0.595 C  
ENDROOT
BRANCH   2   3
HETATM    3  C   UNL     1     -13.713  12.905  72.239  1.00  0.00    -0.458 C  
BRANCH   3   4
HETATM    4  O   UNL     1     -13.078  12.506  71.010  1.00  0.00    -0.134 OA 
BRANCH   4   5
HETATM    5  C   UNL     1     -12.567  11.220  71.019  1.00  0.00    -0.394 A  
HETATM    6  C   UNL     1     -11.685  10.802  69.992  1.00  0.00    -0.417 A  
HETATM    7  C   UNL     1     -11.226   9.462  69.976  1.00  0.00    -0.217 A  
HETATM    8  C   UNL     1     -12.935  10.299  72.010  1.00  0.00    -0.503 A  
HETATM    9  C   UNL     1     -11.658   8.558  70.957  1.00  0.00    -0.279 A  
HETATM   10  C   UNL     1     -12.521   8.980  71.955  1.00  0.00    -0.460 A  
BRANCH   6  11
HETATM   11  C   UNL     1     -11.227  11.728  68.881  1.00  0.00    -0.253 C  
HETATM   12  C   UNL     1     -11.762  12.849  66.889  1.00  0.00    -0.382 C  
HETATM   13  N   UNL     1     -12.088  11.995  67.931  1.00  0.00    -0.106 N  
HETATM   14  H   UNL     1     -13.013  11.567  67.958  1.00  0.00     0.000 HD 
HETATM   15  N   UNL     1      -9.929  12.216  68.938  1.00  0.00    -0.040 NA 
HETATM   16  N   UNL     1      -8.530  14.546  66.610  1.00  0.00    -0.076 NA 
HETATM   17  C   UNL     1      -8.386  13.793  67.714  1.00  0.00    -0.180 A  
HETATM   18  C   UNL     1     -10.443  13.391  66.983  1.00  0.00    -0.257 A  
HETATM   19  O   UNL     1     -12.531  13.112  65.970  1.00  0.00    -0.402 OA 
HETATM   20  C   UNL     1     -10.300  14.965  65.021  1.00  0.00    -0.370 C  
HETATM   21  C   UNL     1      -9.565  13.071  67.974  1.00  0.00    -0.224 A  
HETATM   22  N   UNL     1      -9.795  14.287  66.190  1.00  0.00    -0.306 NA 
BRANCH  17  23
HETATM   23  C   UNL     1      -7.097  13.816  68.465  1.00  0.00    -0.106 C  
BRANCH  23  24
HETATM   24  C   UNL     1      -6.340  12.487  68.450  1.00  0.00    -0.064 C  
HETATM   25  C   UNL     1      -6.176  11.892  67.057  1.00  0.00    -0.145 C  
ENDBRANCH  23  24
ENDBRANCH  17  23
ENDBRANCH   6  11
BRANCH   9  26
HETATM   26  S   UNL     1     -11.195   6.841  70.917  1.00  0.00    -0.312 S  
HETATM   27  O   UNL     1     -12.173   6.116  71.694  1.00  0.00    -0.199 OA 
HETATM   28  O   UNL     1      -9.777   6.780  71.189  1.00  0.00    -0.174 OA 
BRANCH  26  29
HETATM   29  N   UNL     1     -11.457   6.400  69.286  1.00  0.00    -0.609 N  
HETATM   30  H   UNL     1     -12.302   6.676  68.785  1.00  0.00     0.000 HD 
BRANCH  29  31
HETATM   31  C   UNL     1     -10.398   5.599  68.638  1.00  0.00    -0.208 C  
BRANCH  31  32
HETATM   32  C   UNL     1     -10.412   5.748  67.120  1.00  0.00    -0.337 C  
BRANCH  32  33
HETATM   33  C   UNL     1      -9.570   6.969  66.702  1.00  0.00    -0.167 C  
HETATM   34  C   UNL     1     -10.411   8.227  66.495  1.00  0.00    -0.175 C  
HETATM   35  C   UNL     1      -9.401   9.337  66.663  1.00  0.00    -0.219 C  
HETATM   36  C   UNL     1      -7.302   6.708  67.560  1.00  0.00    -0.095 C  
HETATM   37  N   UNL     1      -8.600   7.349  67.743  1.00  0.00    -0.120 NA 
HETATM   38  C   UNL     1      -8.483   8.817  67.755  1.00  0.00    -0.125 C  
ENDBRANCH  32  33
ENDBRANCH  31  32
ENDBRANCH  29  31
ENDBRANCH  26  29
ENDBRANCH   9  26
ENDBRANCH   4   5
ENDBRANCH   3   4
ENDBRANCH   2   3
TORSDOF 11
ENDMDL
MODEL       40
REMARK 921   NORMALIZED FREE ENERGY PREDICTED BY IDOCK:   -6.08 KCAL/MOL
REMARK 922        TOTAL FREE ENERGY PREDICTED BY IDOCK:  -12.22 KCAL/MOL
REMARK 923 INTER-LIGAND FREE ENERGY PREDICTED BY IDOCK:  -11.13 KCAL/MOL
REMARK 924 INTRA-LIGAND FREE ENERGY PREDICTED BY IDOCK:   -1.08 KCAL/MOL
REMARK 927      BINDING AFFINITY PREDICTED BY RF-SCORE:    0.00 PKD
ROOT
HETATM    1  C   UNL     1      -6.978   8.498  66.923  1.00  0.00    -0.074 C  
HETATM    2  C   UNL     1      -6.997   8.077  65.466  1.00  0.00    -0.059 C  
ENDROOT
BRANCH   2   3
HETATM    3  C   UNL     1      -8.299   8.444  64.773  1.00  0.00    -0.141 C  
BRANCH   3   4
HETATM    4  O   UNL     1      -9.327   8.820  65.708  1.00  0.00    -0.225 OA 
BRANCH   4   5
HETATM    5  C   UNL     1      -9.927  10.038  65.442  1.00  0.00    -0.294 A  
HETATM    6  C   UNL     1     -10.713  10.672  66.435  1.00  0.00    -0.198 A  
HETATM    7  C   UNL     1     -11.379  11.883  66.124  1.00  0.00    -0.383 A  
HETATM    8  C   UNL     1      -9.808  10.647  64.185  1.00  0.00    -0.396 A  
HETATM    9  C   UNL     1     -11.275  12.434  64.840  1.00  0.00    -0.311 A  
HETATM   10  C   UNL     1     -10.503  11.803  63.877  1.00  0.00    -0.437 A  
BRANCH   6  11
HETATM   11  C   UNL     1     -10.898  10.091  67.826  1.00  0.00    -0.282 C  
HETATM   12  C   UNL     1     -11.833  10.333  69.965  1.00  0.00    -0.228 C  
HETATM   13  N   UNL     1     -11.595  10.797  68.680  1.00  0.00    -0.405 N  
HETATM   14  H   UNL     1     -11.968  11.702  68.397  1.00  0.00     0.000 HD 
HETATM   15  N   UNL     1     -10.307   8.866  68.099  1.00  0.00    -0.209 NA 
HETATM   16  N   UNL     1     -10.645   7.093  71.189  1.00  0.00    -0.222 NA 
HETATM   17  C   UNL     1     -10.146   7.151  69.943  1.00  0.00    -0.191 A  
HETATM   18  C   UNL     1     -11.267   9.047  70.223  1.00  0.00    -0.205 A  
HETATM   19  O   UNL     1     -12.465  10.968  70.803  1.00  0.00    -0.344 OA 
HETATM   20  C   UNL     1     -12.030   8.516  72.566  1.00  0.00    -0.331 C  
HETATM   21  C   UNL     1     -10.526   8.351  69.316  1.00  0.00    -0.215 A  
HETATM   22  N   UNL     1     -11.330   8.257  71.331  1.00  0.00    -0.253 NA 
BRANCH  17  23
HETATM   23  C   UNL     1      -9.319   6.024  69.422  1.00  0.00    -0.146 C  
BRANCH  23  24
HETATM   24  C   UNL     1     -10.041   5.133  68.409  1.00  0.00    -0.205 C  
HETATM   25  C   UNL     1      -9.707   5.460  66.959  1.00  0.00    -0.162 C  
ENDBRANCH  23  24
ENDBRANCH  17  23
ENDBRANCH   6  11
BRANCH   9  26
HETATM   26  S   UNL     1     -12.177  13.893  64.369  1.00  0.00    -0.382 S  
HETATM   27  O   UNL     1     -13.176  14.126  65.386  1.00  0.00    -0.741 OA 
HETATM   28  O   UNL     1     -12.503  13.753  62.968  1.00  0.00    -0.712 OA 
BRANCH  26  29
HETATM   29  N   UNL     1     -11.021  15.142  64.537  1.00  0.00    -0.658 N  
HETATM   30  H   UNL     1     -10.498  15.499  63.738  1.00  0.00     0.000 HD 
BRANCH  29  31
HETATM   31  C   UNL     1     -10.820  15.679  65.898  1.00  0.00    -0.293 C  
BRANCH  31  32
HETATM   32  C   UNL     1      -9.448  16.323  66.065  1.00  0.00    -0.369 C  
BRANCH  32  33
HETATM   33  C   UNL     1      -9.602  17.786  66.524  1.00  0.00    -0.308 C  
HETATM   34  C   UNL     1     -10.658  17.958  67.614  1.00  0.00    -0.398 C  
HETATM   35  C   UNL     1     -10.251  19.253  68.275  1.00  0.00    -0.513 C  
HETATM   36  C   UNL     1      -7.497  18.964  66.163  1.00  0.00    -0.266 C  
HETATM   37  N   UNL     1      -8.365  18.303  67.133  1.00  0.00    -0.241 NA 
HETATM   38  C   UNL     1      -8.734  19.208  68.235  1.00  0.00    -0.338 C  
ENDBRANCH  32  33
ENDBRANCH  31  32
ENDBRANCH  29  31
ENDBRANCH  26  29
ENDBRANCH   9  26
ENDBRANCH   4   5
ENDBRANCH   3   4
ENDBRANCH   2   3
TORSDOF 11
ENDMDL
MODEL       41
REMARK 921   NORMALIZED FREE ENERGY PREDICTED BY IDOCK:   -6.06 KCAL/MOL
REMARK 922        TOTAL FREE ENERGY PREDICTED BY IDOCK:  -12.20 KCAL/MOL
REMARK 923 INTER-LIGAND FREE ENERGY PREDICTED BY IDOCK:   -9.48 KCAL/MOL
REMARK 924 INTRA-LIGAND FREE ENERGY PREDICTED BY IDOCK:   -2.72 KCAL/MOL
REMARK 927      BINDING AFFINITY PREDICTED BY RF-SCORE:    0.00 PKD
ROOT
HETATM    1  C   UNL     1      -8.932  13.847  68.400  1.00  0.00    -0.178 C  
HETATM    2  C   UNL     1      -9.714  15.069  68.846  1.00  0.00    -0.224 C  
ENDROOT
BRANCH   2   3
HETATM    3  C   UNL     1     -10.774  14.733  69.882  1.00  0.00    -0.113 C  
BRANCH   3   4
HETATM    4  O   UNL     1     -11.882  14.011  69.314  1.00  0.00    -0.299 OA 
BRANCH   4   5
HETATM    5  C   UNL     1     -12.198  12.834  69.968  1.00  0.00    -0.209 A  
HETATM    6  C   UNL     1     -12.034  11.591  69.310  1.00  0.00    -0.397 A  
HETATM    7  C   UNL     1     -12.428  10.400  69.968  1.00  0.00    -0.186 A  
HETATM    8  C   UNL     1     -12.721  12.845  71.269  1.00  0.00    -0.371 A  
HETATM    9  C   UNL     1     -12.993  10.458  71.250  1.00  0.00    -0.419 A  
HETATM   10  C   UNL     1     -13.149  11.681  71.882  1.00  0.00    -0.490 A  
BRANCH   6  11
HETATM   11  C   UNL     1     -11.472  11.478  67.904  1.00  0.00    -0.301 C  
HETATM   12  C   UNL     1     -11.428  12.325  65.715  1.00  0.00    -0.367 C  
HETATM   13  N   UNL     1     -11.904  12.340  67.017  1.00  0.00    -0.325 N  
HETATM   14  H   UNL     1     -12.601  13.033  67.289  1.00  0.00     0.000 HD 
HETATM   15  N   UNL     1     -10.556  10.468  67.652  1.00  0.00    -0.230 NA 
HETATM   16  N   UNL     1      -8.885   9.975  64.527  1.00  0.00    -0.186 NA 
HETATM   17  C   UNL     1      -9.079   9.597  65.802  1.00  0.00    -0.185 A  
HETATM   18  C   UNL     1     -10.445  11.317  65.476  1.00  0.00    -0.265 A  
HETATM   19  O   UNL     1     -11.817  13.102  64.849  1.00  0.00    -0.328 OA 
HETATM   20  C   UNL     1      -9.750  11.710  63.086  1.00  0.00    -0.360 C  
HETATM   21  C   UNL     1     -10.037  10.420  66.418  1.00  0.00    -0.228 A  
HETATM   22  N   UNL     1      -9.724  11.029  64.358  1.00  0.00    -0.259 NA 
BRANCH  17  23
HETATM   23  C   UNL     1      -8.314   8.443  66.357  1.00  0.00    -0.116 C  
BRANCH  23  24
HETATM   24  C   UNL     1      -7.470   8.785  67.588  1.00  0.00    -0.093 C  
HETATM   25  C   UNL     1      -7.904   8.051  68.850  1.00  0.00    -0.113 C  
ENDBRANCH  23  24
ENDBRANCH  17  23
ENDBRANCH   6  11
BRANCH   9  26
HETATM   26  S   UNL     1     -13.603   9.003  72.073  1.00  0.00    -0.469 S  
HETATM   27  O   UNL     1     -14.163   8.141  71.059  1.00  0.00    -0.176 OA 
HETATM   28  O   UNL     1     -14.354   9.453  73.222  1.00  0.00    -0.029 OA 
BRANCH  26  29
HETATM   29  N   UNL     1     -12.176   8.235  72.621  1.00  0.00    -0.576 N  
HETATM   30  H   UNL     1     -11.605   8.635  73.366  1.00  0.00     0.000 HD 
BRANCH  29  31
HETATM   31  C   UNL     1     -11.814   6.963  71.963  1.00  0.00    -0.310 C  
BRANCH  31  32
HETATM   32  C   UNL     1     -10.853   7.173  70.798  1.00  0.00    -0.267 C  
BRANCH  32  33
HETATM   33  C   UNL     1     -10.932   5.980  69.826  1.00  0.00    -0.401 C  
HETATM   34  C   UNL     1     -11.019   6.410  68.363  1.00  0.00    -0.390 C  
HETATM   35  C   UNL     1     -10.523   5.190  67.624  1.00  0.00    -0.130 C  
HETATM   36  C   UNL     1      -9.846   4.047  70.842  1.00  0.00    -0.159 C  
HETATM   37  N   UNL     1      -9.722   5.142  69.885  1.00  0.00    -0.179 NA 
HETATM   38  C   UNL     1      -9.432   4.647  68.529  1.00  0.00    -0.147 C  
ENDBRANCH  32  33
ENDBRANCH  31  32
ENDBRANCH  29  31
ENDBRANCH  26  29
ENDBRANCH   9  26
ENDBRANCH   4   5
ENDBRANCH   3   4
ENDBRANCH   2   3
TORSDOF 11
ENDMDL
MODEL       42
REMARK 921   NORMALIZED FREE ENERGY PREDICTED BY IDOCK:   -6.06 KCAL/MOL
REMARK 922        TOTAL FREE ENERGY PREDICTED BY IDOCK:  -12.19 KCAL/MOL
REMARK 923 INTER-LIGAND FREE ENERGY PREDICTED BY IDOCK:  -10.51 KCAL/MOL
REMARK 924 INTRA-LIGAND FREE ENERGY PREDICTED BY IDOCK:   -1.68 KCAL/MOL
REMARK 927      BINDING AFFINITY PREDICTED BY RF-SCORE:    0.00 PKD
ROOT
HETATM    1  C   UNL     1     -13.541   9.233  71.575  1.00  0.00    -0.412 C  
HETATM    2  C   UNL     1     -12.164   9.858  71.447  1.00  0.00    -0.499 C  
ENDROOT
BRANCH   2   3
HETATM    3  C   UNL     1     -12.193  11.175  70.689  1.00  0.00    -0.397 C  
BRANCH   3   4
HETATM    4  O   UNL     1     -10.987  11.394  69.933  1.00  0.00    -0.140 OA 
BRANCH   4   5
HETATM    5  C   UNL     1     -11.191  11.889  68.657  1.00  0.00    -0.257 A  
HETATM    6  C   UNL     1     -10.566  11.268  67.548  1.00  0.00    -0.257 A  
HETATM    7  C   UNL     1     -10.727  11.828  66.257  1.00  0.00    -0.312 A  
HETATM    8  C   UNL     1     -11.979  13.027  68.438  1.00  0.00    -0.309 A  
HETATM    9  C   UNL     1     -11.482  12.997  66.087  1.00  0.00    -0.340 A  
HETATM   10  C   UNL     1     -12.088  13.595  67.181  1.00  0.00    -0.404 A  
BRANCH   6  11
HETATM   11  C   UNL     1      -9.698  10.029  67.686  1.00  0.00    -0.158 C  
HETATM   12  C   UNL     1      -7.566   9.071  67.477  1.00  0.00    -0.089 C  
HETATM   13  N   UNL     1      -8.435  10.144  67.360  1.00  0.00    -0.122 N  
HETATM   14  H   UNL     1      -8.086  11.038  67.015  1.00  0.00     0.000 HD 
HETATM   15  N   UNL     1     -10.302   8.863  68.133  1.00  0.00    -0.209 NA 
HETATM   16  N   UNL     1      -8.576   5.790  68.747  1.00  0.00    -0.109 NA 
HETATM   17  C   UNL     1      -9.725   6.487  68.753  1.00  0.00    -0.129 A  
HETATM   18  C   UNL     1      -8.182   7.888  67.989  1.00  0.00    -0.127 A  
HETATM   19  O   UNL     1      -6.380   9.130  67.167  1.00  0.00    -0.058 OA 
HETATM   20  C   UNL     1      -6.274   6.252  68.176  1.00  0.00    -0.032 C  
HETATM   21  C   UNL     1      -9.506   7.798  68.295  1.00  0.00    -0.147 A  
HETATM   22  N   UNL     1      -7.652   6.670  68.285  1.00  0.00    -0.102 NA 
BRANCH  17  23
HETATM   23  C   UNL     1     -10.986   5.834  69.209  1.00  0.00    -0.330 C  
BRANCH  23  24
HETATM   24  C   UNL     1     -11.521   6.367  70.540  1.00  0.00    -0.444 C  
HETATM   25  C   UNL     1     -10.701   5.931  71.748  1.00  0.00    -0.299 C  
ENDBRANCH  23  24
ENDBRANCH  17  23
ENDBRANCH   6  11
BRANCH   9  26
HETATM   26  S   UNL     1     -11.625  13.799  64.505  1.00  0.00    -0.396 S  
HETATM   27  O   UNL     1     -12.907  14.462  64.476  1.00  0.00    -0.634 OA 
HETATM   28  O   UNL     1     -11.215  12.838  63.507  1.00  0.00    -0.450 OA 
BRANCH  26  29
HETATM   29  N   UNL     1     -10.447  15.038  64.584  1.00  0.00    -0.535 N  
HETATM   30  H   UNL     1      -9.469  14.862  64.356  1.00  0.00     0.000 HD 
BRANCH  29  31
HETATM   31  C   UNL     1     -10.919  16.375  64.999  1.00  0.00    -0.252 C  
BRANCH  31  32
HETATM   32  C   UNL     1     -10.430  16.750  66.394  1.00  0.00    -0.269 C  
BRANCH  32  33
HETATM   33  C   UNL     1      -9.946  18.212  66.408  1.00  0.00    -0.376 C  
HETATM   34  C   UNL     1     -10.864  19.134  67.208  1.00  0.00    -0.529 C  
HETATM   35  C   UNL     1      -9.958  20.290  67.559  1.00  0.00    -0.557 C  
HETATM   36  C   UNL     1      -7.524  18.256  66.122  1.00  0.00    -0.256 C  
HETATM   37  N   UNL     1      -8.635  18.350  67.065  1.00  0.00    -0.255 NA 
HETATM   38  C   UNL     1      -8.615  19.625  67.801  1.00  0.00    -0.322 C  
ENDBRANCH  32  33
ENDBRANCH  31  32
ENDBRANCH  29  31
ENDBRANCH  26  29
ENDBRANCH   9  26
ENDBRANCH   4   5
ENDBRANCH   3   4
ENDBRANCH   2   3
TORSDOF 11
ENDMDL
MODEL       43
REMARK 921   NORMALIZED FREE ENERGY PREDICTED BY IDOCK:   -6.04 KCAL/MOL
REMARK 922        TOTAL FREE ENERGY PREDICTED BY IDOCK:  -12.16 KCAL/MOL
REMARK 923 INTER-LIGAND FREE ENERGY PREDICTED BY IDOCK:  -10.62 KCAL/MOL
REMARK 924 INTRA-LIGAND FREE ENERGY PREDICTED BY IDOCK:   -1.54 KCAL/MOL
REMARK 927      BINDING AFFINITY PREDICTED BY RF-SCORE:    0.00 PKD
ROOT
HETATM    1  C   UNL     1      -8.291   9.925  62.924  1.00  0.00    -0.160 C  
HETATM    2  C   UNL     1      -7.796   8.780  63.788  1.00  0.00    -0.145 C  
ENDROOT
BRANCH   2   3
HETATM    3  C   UNL     1      -8.208   8.930  65.244  1.00  0.00    -0.137 C  
BRANCH   3   4
HETATM    4  O   UNL     1      -9.489   9.571  65.384  1.00  0.00    -0.249 OA 
BRANCH   4   5
HETATM    5  C   UNL     1     -10.068   9.431  66.632  1.00  0.00    -0.262 A  
HETATM    6  C   UNL     1     -10.657  10.551  67.269  1.00  0.00    -0.317 A  
HETATM    7  C   UNL     1     -11.183  10.408  68.577  1.00  0.00    -0.308 A  
HETATM    8  C   UNL     1     -10.051   8.203  67.307  1.00  0.00    -0.309 A  
HETATM    9  C   UNL     1     -11.101   9.175  69.237  1.00  0.00     0.023 A  
HETATM   10  C   UNL     1     -10.521   8.087  68.603  1.00  0.00    -0.196 A  
BRANCH   6  11
HETATM   11  C   UNL     1     -10.728  11.920  66.616  1.00  0.00    -0.256 C  
HETATM   12  C   UNL     1     -11.903  13.385  65.208  1.00  0.00    -0.348 C  
HETATM   13  N   UNL     1     -11.747  12.155  65.828  1.00  0.00    -0.375 N  
HETATM   14  H   UNL     1     -12.436  11.421  65.668  1.00  0.00     0.000 HD 
HETATM   15  N   UNL     1      -9.707  12.819  66.886  1.00  0.00    -0.228 NA 
HETATM   16  N   UNL     1      -9.593  16.185  65.679  1.00  0.00    -0.455 NA 
HETATM   17  C   UNL     1      -9.034  15.203  66.405  1.00  0.00    -0.279 A  
HETATM   18  C   UNL     1     -10.877  14.324  65.533  1.00  0.00    -0.322 A  
HETATM   19  O   UNL     1     -12.832  13.641  64.450  1.00  0.00    -0.638 OA 
HETATM   20  C   UNL     1     -11.592  16.428  64.343  1.00  0.00     0.069 C  
HETATM   21  C   UNL     1      -9.817  14.037  66.339  1.00  0.00    -0.296 A  
HETATM   22  N   UNL     1     -10.718  15.625  65.165  1.00  0.00    -0.424 NA 
BRANCH  17  23
HETATM   23  C   UNL     1      -7.756  15.453  67.131  1.00  0.00    -0.246 C  
BRANCH  23  24
HETATM   24  C   UNL     1      -7.166  16.846  66.899  1.00  0.00    -0.251 C  
HETATM   25  C   UNL     1      -7.375  17.801  68.068  1.00  0.00    -0.220 C  
ENDBRANCH  23  24
ENDBRANCH  17  23
ENDBRANCH   6  11
BRANCH   9  26
HETATM   26  S   UNL     1     -11.648   8.973  70.918  1.00  0.00    -0.283 S  
HETATM   27  O   UNL     1     -10.552   9.360  71.775  1.00  0.00    -0.309 OA 
HETATM   28  O   UNL     1     -12.288   7.680  71.000  1.00  0.00    -0.290 OA 
BRANCH  26  29
HETATM   29  N   UNL     1     -12.843  10.185  71.091  1.00  0.00    -0.372 N  
HETATM   30  H   UNL     1     -13.825  10.001  70.887  1.00  0.00     0.000 HD 
BRANCH  29  31
HETATM   31  C   UNL     1     -12.380  11.510  71.552  1.00  0.00    -0.031 C  
BRANCH  31  32
HETATM   32  C   UNL     1     -13.534  12.391  72.019  1.00  0.00    -0.460 C  
BRANCH  32  33
HETATM   33  C   UNL     1     -13.233  13.868  71.701  1.00  0.00    -0.370 C  
HETATM   34  C   UNL     1     -13.021  14.714  72.955  1.00  0.00    -0.610 C  
HETATM   35  C   UNL     1     -12.218  15.884  72.440  1.00  0.00    -0.591 C  
HETATM   36  C   UNL     1     -12.190  14.017  69.501  1.00  0.00    -0.308 C  
HETATM   37  N   UNL     1     -11.978  14.022  70.946  1.00  0.00    -0.308 NA 
HETATM   38  C   UNL     1     -11.315  15.258  71.392  1.00  0.00    -0.363 C  
ENDBRANCH  32  33
ENDBRANCH  31  32
ENDBRANCH  29  31
ENDBRANCH  26  29
ENDBRANCH   9  26
ENDBRANCH   4   5
ENDBRANCH   3   4
ENDBRANCH   2   3
TORSDOF 11
ENDMDL
MODEL       44
REMARK 921   NORMALIZED FREE ENERGY PREDICTED BY IDOCK:   -6.02 KCAL/MOL
REMARK 922        TOTAL FREE ENERGY PREDICTED BY IDOCK:  -12.13 KCAL/MOL
REMARK 923 INTER-LIGAND FREE ENERGY PREDICTED BY IDOCK:  -10.90 KCAL/MOL
REMARK 924 INTRA-LIGAND FREE ENERGY PREDICTED BY IDOCK:   -1.22 KCAL/MOL
REMARK 927      BINDING AFFINITY PREDICTED BY RF-SCORE:    0.00 PKD
ROOT
HETATM    1  C   UNL     1      -8.748   6.151  65.669  1.00  0.00    -0.133 C  
HETATM    2  C   UNL     1      -7.710   7.058  65.034  1.00  0.00    -0.115 C  
ENDROOT
BRANCH   2   3
HETATM    3  C   UNL     1      -8.230   8.468  64.809  1.00  0.00    -0.162 C  
BRANCH   3   4
HETATM    4  O   UNL     1      -9.312   8.798  65.700  1.00  0.00    -0.214 OA 
BRANCH   4   5
HETATM    5  C   UNL     1      -9.916  10.016  65.444  1.00  0.00    -0.294 A  
HETATM    6  C   UNL     1     -10.706  10.639  66.441  1.00  0.00    -0.198 A  
HETATM    7  C   UNL     1     -11.375  11.850  66.140  1.00  0.00    -0.383 A  
HETATM    8  C   UNL     1      -9.796  10.637  64.193  1.00  0.00    -0.396 A  
HETATM    9  C   UNL     1     -11.270  12.413  64.860  1.00  0.00    -0.311 A  
HETATM   10  C   UNL     1     -10.494  11.793  63.894  1.00  0.00    -0.437 A  
BRANCH   6  11
HETATM   11  C   UNL     1     -10.891  10.045  67.826  1.00  0.00    -0.282 C  
HETATM   12  C   UNL     1     -11.878  10.236  69.947  1.00  0.00    -0.193 C  
HETATM   13  N   UNL     1     -11.636  10.715  68.669  1.00  0.00    -0.456 N  
HETATM   14  H   UNL     1     -12.044  11.604  68.381  1.00  0.00     0.000 HD 
HETATM   15  N   UNL     1     -10.252   8.847  68.108  1.00  0.00    -0.193 NA 
HETATM   16  N   UNL     1     -10.571   7.048  71.184  1.00  0.00    -0.216 NA 
HETATM   17  C   UNL     1     -10.051   7.133  69.948  1.00  0.00    -0.191 A  
HETATM   18  C   UNL     1     -11.261   8.975  70.213  1.00  0.00    -0.205 A  
HETATM   19  O   UNL     1     -12.554  10.840  70.774  1.00  0.00    -0.336 OA 
HETATM   20  C   UNL     1     -12.045   8.402  72.538  1.00  0.00    -0.337 C  
HETATM   21  C   UNL     1     -10.472   8.317  69.318  1.00  0.00    -0.210 A  
HETATM   22  N   UNL     1     -11.310   8.180  71.316  1.00  0.00    -0.259 NA 
BRANCH  17  23
HETATM   23  C   UNL     1      -9.165   6.046  69.441  1.00  0.00    -0.140 C  
BRANCH  23  24
HETATM   24  C   UNL     1      -9.834   4.672  69.374  1.00  0.00    -0.272 C  
HETATM   25  C   UNL     1      -9.097   3.675  68.488  1.00  0.00    -0.201 C  
ENDBRANCH  23  24
ENDBRANCH  17  23
ENDBRANCH   6  11
BRANCH   9  26
HETATM   26  S   UNL     1     -12.176  13.873  64.401  1.00  0.00    -0.382 S  
HETATM   27  O   UNL     1     -13.047  14.202  65.504  1.00  0.00    -0.691 OA 
HETATM   28  O   UNL     1     -12.660  13.663  63.056  1.00  0.00    -0.729 OA 
BRANCH  26  29
HETATM   29  N   UNL     1     -10.973  15.088  64.362  1.00  0.00    -0.635 N  
HETATM   30  H   UNL     1     -10.442  15.289  63.515  1.00  0.00     0.000 HD 
BRANCH  29  31
HETATM   31  C   UNL     1     -10.741  15.830  65.618  1.00  0.00    -0.348 C  
BRANCH  31  32
HETATM   32  C   UNL     1      -9.651  15.191  66.471  1.00  0.00    -0.293 C  
BRANCH  32  33
HETATM   33  C   UNL     1      -9.108  16.213  67.488  1.00  0.00    -0.203 C  
HETATM   34  C   UNL     1      -8.614  17.500  66.831  1.00  0.00    -0.267 C  
HETATM   35  C   UNL     1      -8.681  18.501  67.960  1.00  0.00    -0.313 C  
HETATM   36  C   UNL     1     -10.199  15.856  69.640  1.00  0.00    -0.280 C  
HETATM   37  N   UNL     1     -10.152  16.663  68.424  1.00  0.00    -0.255 NA 
HETATM   38  C   UNL     1      -9.924  18.086  68.726  1.00  0.00    -0.374 C  
ENDBRANCH  32  33
ENDBRANCH  31  32
ENDBRANCH  29  31
ENDBRANCH  26  29
ENDBRANCH   9  26
ENDBRANCH   4   5
ENDBRANCH   3   4
ENDBRANCH   2   3
TORSDOF 11
ENDMDL
MODEL       45
REMARK 921   NORMALIZED FREE ENERGY PREDICTED BY IDOCK:   -6.02 KCAL/MOL
REMARK 922        TOTAL FREE ENERGY PREDICTED BY IDOCK:  -12.12 KCAL/MOL
REMARK 923 INTER-LIGAND FREE ENERGY PREDICTED BY IDOCK:  -10.76 KCAL/MOL
REMARK 924 INTRA-LIGAND FREE ENERGY PREDICTED BY IDOCK:   -1.37 KCAL/MOL
REMARK 927      BINDING AFFINITY PREDICTED BY RF-SCORE:    0.00 PKD
ROOT
HETATM    1  C   UNL     1     -12.357  12.176  63.358  1.00  0.00    -0.648 C  
HETATM    2  C   UNL     1     -11.923  13.132  64.453  1.00  0.00    -0.454 C  
ENDROOT
BRANCH   2   3
HETATM    3  C   UNL     1     -10.513  12.848  64.946  1.00  0.00    -0.331 C  
BRANCH   3   4
HETATM    4  O   UNL     1     -10.480  12.536  66.351  1.00  0.00    -0.242 OA 
BRANCH   4   5
HETATM    5  C   UNL     1     -10.521  11.184  66.640  1.00  0.00    -0.250 A  
HETATM    6  C   UNL     1     -11.024  10.741  67.888  1.00  0.00    -0.344 A  
HETATM    7  C   UNL     1     -10.995   9.359  68.197  1.00  0.00    -0.102 A  
HETATM    8  C   UNL     1     -10.035  10.232  65.733  1.00  0.00    -0.337 A  
HETATM    9  C   UNL     1     -10.454   8.445  67.283  1.00  0.00    -0.303 A  
HETATM   10  C   UNL     1      -9.964   8.891  66.066  1.00  0.00    -0.199 A  
BRANCH   6  11
HETATM   11  C   UNL     1     -11.576  11.695  68.932  1.00  0.00    -0.314 C  
HETATM   12  C   UNL     1     -12.599  11.962  71.028  1.00  0.00    -0.283 C  
HETATM   13  N   UNL     1     -12.092  11.166  70.012  1.00  0.00    -0.338 N  
HETATM   14  H   UNL     1     -12.123  10.151  70.108  1.00  0.00     0.000 HD 
HETATM   15  N   UNL     1     -11.509  13.055  68.666  1.00  0.00    -0.283 NA 
HETATM   16  N   UNL     1     -12.546  15.622  70.933  1.00  0.00    -0.454 NA 
HETATM   17  C   UNL     1     -12.019  15.277  69.746  1.00  0.00    -0.347 A  
HETATM   18  C   UNL     1     -12.478  13.363  70.772  1.00  0.00    -0.341 A  
HETATM   19  O   UNL     1     -13.106  11.508  72.048  1.00  0.00    -0.486 OA 
HETATM   20  C   UNL     1     -13.365  14.436  72.872  1.00  0.00    -0.478 C  
HETATM   21  C   UNL     1     -11.956  13.878  69.623  1.00  0.00    -0.342 A  
HETATM   22  N   UNL     1     -12.809  14.436  71.540  1.00  0.00    -0.322 NA 
BRANCH  17  23
HETATM   23  C   UNL     1     -11.599  16.338  68.785  1.00  0.00    -0.223 C  
BRANCH  23  24
HETATM   24  C   UNL     1     -10.185  16.873  69.021  1.00  0.00    -0.308 C  
HETATM   25  C   UNL     1      -9.960  18.273  68.463  1.00  0.00    -0.413 C  
ENDBRANCH  23  24
ENDBRANCH  17  23
ENDBRANCH   6  11
BRANCH   9  26
HETATM   26  S   UNL     1     -10.295   6.715  67.668  1.00  0.00    -0.231 S  
HETATM   27  O   UNL     1     -10.079   6.017  66.423  1.00  0.00    -0.157 OA 
HETATM   28  O   UNL     1     -11.371   6.385  68.575  1.00  0.00    -0.303 OA 
BRANCH  26  29
HETATM   29  N   UNL     1      -8.817   6.636  68.525  1.00  0.00    -0.123 N  
HETATM   30  H   UNL     1      -7.932   6.897  68.090  1.00  0.00     0.000 HD 
BRANCH  29  31
HETATM   31  C   UNL     1      -8.887   6.173  69.925  1.00  0.00    -0.140 C  
BRANCH  31  32
HETATM   32  C   UNL     1      -8.615   7.299  70.917  1.00  0.00    -0.136 C  
BRANCH  32  33
HETATM   33  C   UNL     1      -9.734   7.352  71.975  1.00  0.00    -0.154 C  
HETATM   34  C   UNL     1     -10.718   8.497  71.742  1.00  0.00    -0.373 C  
HETATM   35  C   UNL     1     -11.954   8.034  72.476  1.00  0.00    -0.384 C  
HETATM   36  C   UNL     1     -10.102   5.111  72.864  1.00  0.00    -0.170 C  
HETATM   37  N   UNL     1     -10.575   6.143  71.946  1.00  0.00    -0.214 NA 
HETATM   38  C   UNL     1     -11.964   6.535  72.239  1.00  0.00    -0.231 C  
ENDBRANCH  32  33
ENDBRANCH  31  32
ENDBRANCH  29  31
ENDBRANCH  26  29
ENDBRANCH   9  26
ENDBRANCH   4   5
ENDBRANCH   3   4
ENDBRANCH   2   3
TORSDOF 11
ENDMDL
MODEL       46
REMARK 921   NORMALIZED FREE ENERGY PREDICTED BY IDOCK:   -6.02 KCAL/MOL
REMARK 922        TOTAL FREE ENERGY PREDICTED BY IDOCK:  -12.12 KCAL/MOL
REMARK 923 INTER-LIGAND FREE ENERGY PREDICTED BY IDOCK:   -9.35 KCAL/MOL
REMARK 924 INTRA-LIGAND FREE ENERGY PREDICTED BY IDOCK:   -2.76 KCAL/MOL
REMARK 927      BINDING AFFINITY PREDICTED BY RF-SCORE:    0.00 PKD
ROOT
HETATM    1  C   UNL     1     -13.907  13.544  72.374  1.00  0.00    -0.687 C  
HETATM    2  C   UNL     1     -12.889  12.744  71.583  1.00  0.00    -0.363 C  
ENDROOT
BRANCH   2   3
HETATM    3  C   UNL     1     -13.136  11.247  71.667  1.00  0.00    -0.408 C  
BRANCH   3   4
HETATM    4  O   UNL     1     -12.579  10.539  70.545  1.00  0.00    -0.331 OA 
BRANCH   4   5
HETATM    5  C   UNL     1     -11.327   9.995  70.771  1.00  0.00    -0.360 A  
HETATM    6  C   UNL     1     -10.256  10.291  69.893  1.00  0.00    -0.250 A  
HETATM    7  C   UNL     1      -8.999   9.671  70.098  1.00  0.00    -0.273 A  
HETATM    8  C   UNL     1     -11.101   9.115  71.839  1.00  0.00    -0.385 A  
HETATM    9  C   UNL     1      -8.828   8.758  71.148  1.00  0.00    -0.219 A  
HETATM   10  C   UNL     1      -9.884   8.476  71.999  1.00  0.00    -0.383 A  
BRANCH   6  11
HETATM   11  C   UNL     1     -10.404  11.235  68.713  1.00  0.00    -0.205 C  
HETATM   12  C   UNL     1     -10.834  13.417  67.964  1.00  0.00    -0.247 C  
HETATM   13  N   UNL     1     -10.703  12.482  68.978  1.00  0.00    -0.405 N  
HETATM   14  H   UNL     1     -10.841  12.769  69.947  1.00  0.00     0.000 HD 
HETATM   15  N   UNL     1     -10.227  10.713  67.440  1.00  0.00    -0.194 NA 
HETATM   16  N   UNL     1     -10.326  12.634  64.424  1.00  0.00    -0.358 NA 
HETATM   17  C   UNL     1     -10.158  11.446  65.027  1.00  0.00    -0.274 A  
HETATM   18  C   UNL     1     -10.597  12.885  66.660  1.00  0.00    -0.261 A  
HETATM   19  O   UNL     1     -11.130  14.590  68.166  1.00  0.00    -0.250 OA 
HETATM   20  C   UNL     1     -10.792  14.892  65.148  1.00  0.00    -0.414 C  
HETATM   21  C   UNL     1     -10.312  11.575  66.419  1.00  0.00    -0.237 A  
HETATM   22  N   UNL     1     -10.585  13.494  65.442  1.00  0.00    -0.297 NA 
BRANCH  17  23
HETATM   23  C   UNL     1      -9.853  10.236  64.210  1.00  0.00    -0.357 C  
BRANCH  23  24
HETATM   24  C   UNL     1      -8.701   9.387  64.753  1.00  0.00    -0.227 C  
HETATM   25  C   UNL     1      -7.329  10.023  64.559  1.00  0.00    -0.142 C  
ENDBRANCH  23  24
ENDBRANCH  17  23
ENDBRANCH   6  11
BRANCH   9  26
HETATM   26  S   UNL     1      -7.302   7.873  71.381  1.00  0.00    -0.070 S  
HETATM   27  O   UNL     1      -7.361   7.254  72.684  1.00  0.00    -0.074 OA 
HETATM   28  O   UNL     1      -6.235   8.761  70.982  1.00  0.00    -0.037 OA 
BRANCH  26  29
HETATM   29  N   UNL     1      -7.407   6.601  70.242  1.00  0.00    -0.083 N  
HETATM   30  H   UNL     1      -7.175   6.743  69.258  1.00  0.00     0.000 HD 
BRANCH  29  31
HETATM   31  C   UNL     1      -7.850   5.288  70.754  1.00  0.00    -0.093 C  
BRANCH  31  32
HETATM   32  C   UNL     1      -8.344   4.373  69.638  1.00  0.00    -0.074 C  
BRANCH  32  33
HETATM   33  C   UNL     1      -9.705   4.869  69.112  1.00  0.00    -0.182 C  
HETATM   34  C   UNL     1     -10.563   5.513  70.199  1.00  0.00    -0.367 C  
HETATM   35  C   UNL     1     -11.508   6.386  69.408  1.00  0.00    -0.374 C  
HETATM   36  C   UNL     1      -9.500   5.398  66.740  1.00  0.00    -0.139 C  
HETATM   37  N   UNL     1      -9.549   5.927  68.100  1.00  0.00    -0.118 NA 
HETATM   38  C   UNL     1     -10.646   6.895  68.266  1.00  0.00    -0.215 C  
ENDBRANCH  32  33
ENDBRANCH  31  32
ENDBRANCH  29  31
ENDBRANCH  26  29
ENDBRANCH   9  26
ENDBRANCH   4   5
ENDBRANCH   3   4
ENDBRANCH   2   3
TORSDOF 11
ENDMDL
MODEL       47
REMARK 921   NORMALIZED FREE ENERGY PREDICTED BY IDOCK:   -6.01 KCAL/MOL
REMARK 922        TOTAL FREE ENERGY PREDICTED BY IDOCK:  -12.12 KCAL/MOL
REMARK 923 INTER-LIGAND FREE ENERGY PREDICTED BY IDOCK:  -10.92 KCAL/MOL
REMARK 924 INTRA-LIGAND FREE ENERGY PREDICTED BY IDOCK:   -1.19 KCAL/MOL
REMARK 927      BINDING AFFINITY PREDICTED BY RF-SCORE:    0.00 PKD
ROOT
HETATM    1  C   UNL     1     -12.374  15.416  73.512  1.00  0.00    -0.659 C  
HETATM    2  C   UNL     1     -13.684  15.524  72.754  1.00  0.00    -0.642 C  
ENDROOT
BRANCH   2   3
HETATM    3  C   UNL     1     -14.156  14.184  72.215  1.00  0.00    -0.533 C  
BRANCH   3   4
HETATM    4  O   UNL     1     -13.477  13.815  71.000  1.00  0.00    -0.176 OA 
BRANCH   4   5
HETATM    5  C   UNL     1     -12.905  12.556  71.021  1.00  0.00    -0.157 A  
HETATM    6  C   UNL     1     -12.092  12.130  69.942  1.00  0.00    -0.324 A  
HETATM    7  C   UNL     1     -11.570  10.814  69.945  1.00  0.00    -0.410 A  
HETATM    8  C   UNL     1     -13.145  11.667  72.077  1.00  0.00    -0.433 A  
HETATM    9  C   UNL     1     -11.876   9.938  70.995  1.00  0.00    -0.376 A  
HETATM   10  C   UNL     1     -12.673  10.367  72.044  1.00  0.00    -0.365 A  
BRANCH   6  11
HETATM   11  C   UNL     1     -11.772  13.024  68.757  1.00  0.00    -0.324 C  
HETATM   12  C   UNL     1     -11.928  13.375  66.441  1.00  0.00    -0.406 C  
HETATM   13  N   UNL     1     -12.158  12.612  67.576  1.00  0.00    -0.231 N  
HETATM   14  H   UNL     1     -12.635  11.715  67.489  1.00  0.00     0.000 HD 
HETATM   15  N   UNL     1     -11.084  14.203  69.002  1.00  0.00    -0.256 NA 
HETATM   16  N   UNL     1     -10.289  16.647  66.513  1.00  0.00    -0.305 NA 
HETATM   17  C   UNL     1     -10.248  16.256  67.798  1.00  0.00    -0.270 A  
HETATM   18  C   UNL     1     -11.267  14.613  66.708  1.00  0.00    -0.344 A  
HETATM   19  O   UNL     1     -12.257  13.019  65.315  1.00  0.00    -0.412 OA 
HETATM   20  C   UNL     1     -11.167  15.736  64.455  1.00  0.00    -0.236 C  
HETATM   21  C   UNL     1     -10.857  14.998  67.949  1.00  0.00    -0.280 A  
HETATM   22  N   UNL     1     -10.922  15.631  65.873  1.00  0.00    -0.277 NA 
BRANCH  17  23
HETATM   23  C   UNL     1      -9.611  17.136  68.820  1.00  0.00    -0.269 C  
BRANCH  23  24
HETATM   24  C   UNL     1      -9.047  18.443  68.258  1.00  0.00    -0.330 C  
HETATM   25  C   UNL     1     -10.015  19.616  68.351  1.00  0.00    -0.543 C  
ENDBRANCH  23  24
ENDBRANCH  17  23
ENDBRANCH   6  11
BRANCH   9  26
HETATM   26  S   UNL     1     -11.335   8.243  70.991  1.00  0.00    -0.271 S  
HETATM   27  O   UNL     1     -12.366   7.462  71.633  1.00  0.00    -0.310 OA 
HETATM   28  O   UNL     1      -9.959   8.238  71.432  1.00  0.00    -0.176 OA 
BRANCH  26  29
HETATM   29  N   UNL     1     -11.377   7.820  69.334  1.00  0.00    -0.404 N  
HETATM   30  H   UNL     1     -11.624   8.500  68.614  1.00  0.00     0.000 HD 
BRANCH  29  31
HETATM   31  C   UNL     1     -11.038   6.423  68.997  1.00  0.00    -0.358 C  
BRANCH  31  32
HETATM   32  C   UNL     1     -10.194   6.325  67.731  1.00  0.00    -0.206 C  
BRANCH  32  33
HETATM   33  C   UNL     1      -8.974   5.417  67.978  1.00  0.00    -0.108 C  
HETATM   34  C   UNL     1      -9.140   4.518  69.201  1.00  0.00    -0.173 C  
HETATM   35  C   UNL     1      -8.173   3.392  68.925  1.00  0.00    -0.075 C  
HETATM   36  C   UNL     1      -7.841   5.005  65.857  1.00  0.00    -0.092 C  
HETATM   37  N   UNL     1      -8.756   4.477  66.865  1.00  0.00    -0.111 NA 
HETATM   38  C   UNL     1      -8.271   3.203  67.422  1.00  0.00    -0.082 C  
ENDBRANCH  32  33
ENDBRANCH  31  32
ENDBRANCH  29  31
ENDBRANCH  26  29
ENDBRANCH   9  26
ENDBRANCH   4   5
ENDBRANCH   3   4
ENDBRANCH   2   3
TORSDOF 11
ENDMDL
MODEL       48
REMARK 921   NORMALIZED FREE ENERGY PREDICTED BY IDOCK:   -5.98 KCAL/MOL
REMARK 922        TOTAL FREE ENERGY PREDICTED BY IDOCK:  -12.06 KCAL/MOL
REMARK 923 INTER-LIGAND FREE ENERGY PREDICTED BY IDOCK:   -9.83 KCAL/MOL
REMARK 924 INTRA-LIGAND FREE ENERGY PREDICTED BY IDOCK:   -2.23 KCAL/MOL
REMARK 927      BINDING AFFINITY PREDICTED BY RF-SCORE:    0.00 PKD
ROOT
HETATM    1  C   UNL     1      -8.359  18.380  68.428  1.00  0.00    -0.328 C  
HETATM    2  C   UNL     1      -7.573  17.089  68.563  1.00  0.00    -0.231 C  
ENDROOT
BRANCH   2   3
HETATM    3  C   UNL     1      -8.473  15.866  68.626  1.00  0.00    -0.200 C  
BRANCH   3   4
HETATM    4  O   UNL     1      -8.081  14.852  67.681  1.00  0.00    -0.141 OA 
BRANCH   4   5
HETATM    5  C   UNL     1      -9.106  14.391  66.874  1.00  0.00    -0.251 A  
HETATM    6  C   UNL     1      -9.535  13.045  66.973  1.00  0.00    -0.237 A  
HETATM    7  C   UNL     1     -10.537  12.570  66.092  1.00  0.00    -0.279 A  
HETATM    8  C   UNL     1      -9.710  15.224  65.922  1.00  0.00    -0.390 A  
HETATM    9  C   UNL     1     -11.080  13.421  65.119  1.00  0.00    -0.301 A  
HETATM   10  C   UNL     1     -10.650  14.736  65.032  1.00  0.00    -0.452 A  
BRANCH   6  11
HETATM   11  C   UNL     1      -8.944  12.071  67.976  1.00  0.00    -0.187 C  
HETATM   12  C   UNL     1      -7.029  11.283  69.081  1.00  0.00    -0.114 C  
HETATM   13  N   UNL     1      -7.650  12.120  68.167  1.00  0.00    -0.116 N  
HETATM   14  H   UNL     1      -7.090  12.784  67.634  1.00  0.00     0.000 HD 
HETATM   15  N   UNL     1      -9.809  11.190  68.610  1.00  0.00    -0.198 NA 
HETATM   16  N   UNL     1      -8.838   8.862  71.148  1.00  0.00    -0.220 NA 
HETATM   17  C   UNL     1      -9.807   9.400  70.387  1.00  0.00    -0.259 A  
HETATM   18  C   UNL     1      -7.932  10.416  69.769  1.00  0.00    -0.067 A  
HETATM   19  O   UNL     1      -5.818  11.283  69.277  1.00  0.00    -0.045 OA 
HETATM   20  C   UNL     1      -6.457   9.187  71.402  1.00  0.00    -0.067 C  
HETATM   21  C   UNL     1      -9.272  10.375  69.527  1.00  0.00    -0.120 A  
HETATM   22  N   UNL     1      -7.708   9.505  70.756  1.00  0.00    -0.290 NA 
BRANCH  17  23
HETATM   23  C   UNL     1     -11.214   8.931  70.540  1.00  0.00    -0.287 C  
BRANCH  23  24
HETATM   24  C   UNL     1     -12.164   9.980  71.122  1.00  0.00    -0.477 C  
HETATM   25  C   UNL     1     -13.472   9.398  71.645  1.00  0.00    -0.467 C  
ENDBRANCH  23  24
ENDBRANCH  17  23
ENDBRANCH   6  11
BRANCH   9  26
HETATM   26  S   UNL     1     -12.260  12.842  63.920  1.00  0.00    -0.448 S  
HETATM   27  O   UNL     1     -12.374  13.862  62.905  1.00  0.00    -0.487 OA 
HETATM   28  O   UNL     1     -13.397  12.339  64.657  1.00  0.00    -0.717 OA 
BRANCH  26  29
HETATM   29  N   UNL     1     -11.459  11.521  63.185  1.00  0.00    -0.867 N  
HETATM   30  H   UNL     1     -11.975  10.733  62.794  1.00  0.00     0.000 HD 
BRANCH  29  31
HETATM   31  C   UNL     1      -9.984  11.581  63.145  1.00  0.00    -0.377 C  
BRANCH  31  32
HETATM   32  C   UNL     1      -9.353  10.192  63.137  1.00  0.00    -0.333 C  
BRANCH  32  33
HETATM   33  C   UNL     1      -8.527   9.980  64.420  1.00  0.00    -0.173 C  
HETATM   34  C   UNL     1      -9.315   9.283  65.526  1.00  0.00    -0.303 C  
HETATM   35  C   UNL     1      -8.229   8.691  66.392  1.00  0.00    -0.111 C  
HETATM   36  C   UNL     1      -6.163   9.835  63.833  1.00  0.00    -0.117 C  
HETATM   37  N   UNL     1      -7.371   9.096  64.187  1.00  0.00    -0.102 NA 
HETATM   38  C   UNL     1      -7.168   8.271  65.390  1.00  0.00    -0.071 C  
ENDBRANCH  32  33
ENDBRANCH  31  32
ENDBRANCH  29  31
ENDBRANCH  26  29
ENDBRANCH   9  26
ENDBRANCH   4   5
ENDBRANCH   3   4
ENDBRANCH   2   3
TORSDOF 11
ENDMDL
MODEL       49
REMARK 921   NORMALIZED FREE ENERGY PREDICTED BY IDOCK:   -5.97 KCAL/MOL
REMARK 922        TOTAL FREE ENERGY PREDICTED BY IDOCK:  -12.05 KCAL/MOL
REMARK 923 INTER-LIGAND FREE ENERGY PREDICTED BY IDOCK:  -10.61 KCAL/MOL
REMARK 924 INTRA-LIGAND FREE ENERGY PREDICTED BY IDOCK:   -1.44 KCAL/MOL
REMARK 927      BINDING AFFINITY PREDICTED BY RF-SCORE:    0.00 PKD
ROOT
HETATM    1  C   UNL     1      -7.966   8.712  64.164  1.00  0.00    -0.149 C  
HETATM    2  C   UNL     1      -6.839   8.584  65.172  1.00  0.00    -0.068 C  
ENDROOT
BRANCH   2   3
HETATM    3  C   UNL     1      -7.338   8.199  66.555  1.00  0.00    -0.081 C  
BRANCH   3   4
HETATM    4  O   UNL     1      -7.783   9.341  67.311  1.00  0.00    -0.094 OA 
BRANCH   4   5
HETATM    5  C   UNL     1      -8.841   9.088  68.166  1.00  0.00    -0.133 A  
HETATM    6  C   UNL     1      -9.736  10.129  68.513  1.00  0.00    -0.161 A  
HETATM    7  C   UNL     1     -10.772   9.872  69.443  1.00  0.00    -0.255 A  
HETATM    8  C   UNL     1      -9.028   7.820  68.734  1.00  0.00    -0.141 A  
HETATM    9  C   UNL     1     -10.894   8.604  70.028  1.00  0.00    -0.221 A  
HETATM   10  C   UNL     1     -10.012   7.594  69.680  1.00  0.00    -0.185 A  
BRANCH   6  11
HETATM   11  C   UNL     1      -9.616  11.533  67.946  1.00  0.00    -0.177 C  
HETATM   12  C   UNL     1      -8.483  13.588  67.967  1.00  0.00    -0.176 C  
HETATM   13  N   UNL     1      -8.679  12.300  68.442  1.00  0.00    -0.282 N  
HETATM   14  H   UNL     1      -8.083  11.945  69.189  1.00  0.00     0.000 HD 
HETATM   15  N   UNL     1     -10.512  11.909  66.956  1.00  0.00    -0.219 NA 
HETATM   16  N   UNL     1     -10.455  15.057  65.255  1.00  0.00    -0.376 NA 
HETATM   17  C   UNL     1     -11.014  13.846  65.418  1.00  0.00    -0.316 A  
HETATM   18  C   UNL     1      -9.373  13.951  66.911  1.00  0.00    -0.258 A  
HETATM   19  O   UNL     1      -7.629  14.346  68.415  1.00  0.00    -0.107 OA 
HETATM   20  C   UNL     1      -8.612  16.261  66.251  1.00  0.00    -0.339 C  
HETATM   21  C   UNL     1     -10.355  13.133  66.436  1.00  0.00    -0.287 A  
HETATM   22  N   UNL     1      -9.454  15.091  66.171  1.00  0.00    -0.305 NA 
BRANCH  17  23
HETATM   23  C   UNL     1     -12.171  13.442  64.568  1.00  0.00    -0.450 C  
BRANCH  23  24
HETATM   24  C   UNL     1     -11.785  12.622  63.335  1.00  0.00    -0.571 C  
HETATM   25  C   UNL     1     -10.418  11.957  63.446  1.00  0.00    -0.487 C  
ENDBRANCH  23  24
ENDBRANCH  17  23
ENDBRANCH   6  11
BRANCH   9  26
HETATM   26  S   UNL     1     -12.110   8.262  71.281  1.00  0.00    -0.255 S  
HETATM   27  O   UNL     1     -11.505   8.558  72.557  1.00  0.00    -0.371 OA 
HETATM   28  O   UNL     1     -12.688   6.975  70.967  1.00  0.00    -0.367 OA 
BRANCH  26  29
HETATM   29  N   UNL     1     -13.294   9.469  71.020  1.00  0.00    -0.571 N  
HETATM   30  H   UNL     1     -14.014   9.367  70.305  1.00  0.00     0.000 HD 
BRANCH  29  31
HETATM   31  C   UNL     1     -13.221  10.665  71.883  1.00  0.00    -0.423 C  
BRANCH  31  32
HETATM   32  C   UNL     1     -12.296  11.733  71.309  1.00  0.00    -0.250 C  
BRANCH  32  33
HETATM   33  C   UNL     1     -13.031  13.085  71.235  1.00  0.00    -0.243 C  
HETATM   34  C   UNL     1     -13.628  13.511  72.574  1.00  0.00    -0.674 C  
HETATM   35  C   UNL     1     -13.765  15.007  72.421  1.00  0.00    -0.585 C  
HETATM   36  C   UNL     1     -12.063  14.423  69.440  1.00  0.00    -0.297 C  
HETATM   37  N   UNL     1     -12.119  14.186  70.879  1.00  0.00    -0.345 NA 
HETATM   38  C   UNL     1     -12.539  15.392  71.611  1.00  0.00    -0.389 C  
ENDBRANCH  32  33
ENDBRANCH  31  32
ENDBRANCH  29  31
ENDBRANCH  26  29
ENDBRANCH   9  26
ENDBRANCH   4   5
ENDBRANCH   3   4
ENDBRANCH   2   3
TORSDOF 11
ENDMDL
MODEL       50
REMARK 921   NORMALIZED FREE ENERGY PREDICTED BY IDOCK:   -5.97 KCAL/MOL
REMARK 922        TOTAL FREE ENERGY PREDICTED BY IDOCK:  -12.04 KCAL/MOL
REMARK 923 INTER-LIGAND FREE ENERGY PREDICTED BY IDOCK:  -10.51 KCAL/MOL
REMARK 924 INTRA-LIGAND FREE ENERGY PREDICTED BY IDOCK:   -1.53 KCAL/MOL
REMARK 927      BINDING AFFINITY PREDICTED BY RF-SCORE:    0.00 PKD
ROOT
HETATM    1  C   UNL     1     -11.851  12.164  63.402  1.00  0.00    -0.553 C  
HETATM    2  C   UNL     1     -10.366  12.223  63.710  1.00  0.00    -0.464 C  
ENDROOT
BRANCH   2   3
HETATM    3  C   UNL     1     -10.055  11.841  65.148  1.00  0.00    -0.259 C  
BRANCH   3   4
HETATM    4  O   UNL     1     -11.238  11.474  65.882  1.00  0.00    -0.274 OA 
BRANCH   4   5
HETATM    5  C   UNL     1     -11.465  12.226  67.020  1.00  0.00    -0.354 A  
HETATM    6  C   UNL     1     -11.440  11.609  68.294  1.00  0.00    -0.369 A  
HETATM    7  C   UNL     1     -11.744  12.378  69.444  1.00  0.00    -0.384 A  
HETATM    8  C   UNL     1     -11.762  13.594  66.938  1.00  0.00    -0.423 A  
HETATM    9  C   UNL     1     -12.085  13.731  69.315  1.00  0.00    -0.329 A  
HETATM   10  C   UNL     1     -12.107  14.324  68.062  1.00  0.00    -0.289 A  
BRANCH   6  11
HETATM   11  C   UNL     1     -11.124  10.136  68.482  1.00  0.00    -0.214 C  
HETATM   12  C   UNL     1     -10.422   8.120  67.506  1.00  0.00    -0.256 C  
HETATM   13  N   UNL     1     -10.752   9.464  67.422  1.00  0.00    -0.353 N  
HETATM   14  H   UNL     1     -10.704   9.936  66.520  1.00  0.00     0.000 HD 
HETATM   15  N   UNL     1     -11.264   9.601  69.755  1.00  0.00    -0.211 NA 
HETATM   16  N   UNL     1     -10.462   6.228  70.640  1.00  0.00    -0.213 NA 
HETATM   17  C   UNL     1     -10.897   7.445  71.011  1.00  0.00    -0.239 A  
HETATM   18  C   UNL     1     -10.516   7.589  68.829  1.00  0.00    -0.194 A  
HETATM   19  O   UNL     1     -10.085   7.449  66.536  1.00  0.00    -0.198 OA 
HETATM   20  C   UNL     1      -9.716   5.212  68.580  1.00  0.00    -0.149 C  
HETATM   21  C   UNL     1     -10.931   8.313  69.906  1.00  0.00    -0.166 A  
HETATM   22  N   UNL     1     -10.230   6.347  69.308  1.00  0.00    -0.181 NA 
BRANCH  17  23
HETATM   23  C   UNL     1     -11.259   7.699  72.436  1.00  0.00    -0.372 C  
BRANCH  23  24
HETATM   24  C   UNL     1     -10.076   7.631  73.405  1.00  0.00    -0.379 C  
HETATM   25  C   UNL     1     -10.130   6.438  74.351  1.00  0.00    -0.367 C  
ENDBRANCH  23  24
ENDBRANCH  17  23
ENDBRANCH   6  11
BRANCH   9  26
HETATM   26  S   UNL     1     -12.579  14.711  70.716  1.00  0.00    -0.372 S  
HETATM   27  O   UNL     1     -12.970  13.796  71.762  1.00  0.00    -0.334 OA 
HETATM   28  O   UNL     1     -13.450  15.750  70.217  1.00  0.00    -0.142 OA 
BRANCH  26  29
HETATM   29  N   UNL     1     -11.114  15.429  71.230  1.00  0.00    -0.457 N  
HETATM   30  H   UNL     1     -10.912  15.584  72.218  1.00  0.00     0.000 HD 
BRANCH  29  31
HETATM   31  C   UNL     1     -10.158  15.813  70.172  1.00  0.00    -0.085 C  
BRANCH  31  32
HETATM   32  C   UNL     1     -10.406  17.227  69.658  1.00  0.00     0.042 C  
BRANCH  32  33
HETATM   33  C   UNL     1      -9.742  17.412  68.280  1.00  0.00    -0.299 C  
HETATM   34  C   UNL     1      -9.190  16.109  67.706  1.00  0.00    -0.202 C  
HETATM   35  C   UNL     1      -9.130  16.393  66.224  1.00  0.00    -0.362 C  
HETATM   36  C   UNL     1     -10.748  19.331  67.159  1.00  0.00    -0.480 C  
HETATM   37  N   UNL     1     -10.704  17.876  67.265  1.00  0.00    -0.321 NA 
HETATM   38  C   UNL     1     -10.360  17.248  65.978  1.00  0.00    -0.305 C  
ENDBRANCH  32  33
ENDBRANCH  31  32
ENDBRANCH  29  31
ENDBRANCH  26  29
ENDBRANCH   9  26
ENDBRANCH   4   5
ENDBRANCH   3   4
ENDBRANCH   2   3
TORSDOF 11
ENDMDL
MODEL       51
REMARK 921   NORMALIZED FREE ENERGY PREDICTED BY IDOCK:   -5.96 KCAL/MOL
REMARK 922        TOTAL FREE ENERGY PREDICTED BY IDOCK:  -12.02 KCAL/MOL
REMARK 923 INTER-LIGAND FREE ENERGY PREDICTED BY IDOCK:   -9.97 KCAL/MOL
REMARK 924 INTRA-LIGAND FREE ENERGY PREDICTED BY IDOCK:   -2.05 KCAL/MOL
REMARK 927      BINDING AFFINITY PREDICTED BY RF-SCORE:    0.00 PKD
ROOT
HETATM    1  C   UNL     1     -10.349   8.350  72.417  1.00  0.00    -0.399 C  
HETATM    2  C   UNL     1     -11.765   7.818  72.541  1.00  0.00    -0.393 C  
ENDROOT
BRANCH   2   3
HETATM    3  C   UNL     1     -12.812   8.882  72.256  1.00  0.00    -0.411 C  
BRANCH   3   4
HETATM    4  O   UNL     1     -12.676   9.441  70.937  1.00  0.00    -0.236 OA 
BRANCH   4   5
HETATM    5  C   UNL     1     -12.604  10.822  70.902  1.00  0.00    -0.401 A  
HETATM    6  C   UNL     1     -11.831  11.466  69.905  1.00  0.00    -0.435 A  
HETATM    7  C   UNL     1     -11.709  12.877  69.925  1.00  0.00    -0.324 A  
HETATM    8  C   UNL     1     -13.253  11.607  71.865  1.00  0.00    -0.475 A  
HETATM    9  C   UNL     1     -12.333  13.623  70.935  1.00  0.00    -0.371 A  
HETATM   10  C   UNL     1     -13.086  12.980  71.905  1.00  0.00    -0.483 A  
BRANCH   6  11
HETATM   11  C   UNL     1     -11.096  10.701  68.819  1.00  0.00    -0.265 C  
HETATM   12  C   UNL     1     -10.534  10.537  66.546  1.00  0.00    -0.212 C  
HETATM   13  N   UNL     1     -11.190  11.160  67.596  1.00  0.00    -0.288 N  
HETATM   14  H   UNL     1     -11.756  11.988  67.414  1.00  0.00     0.000 HD 
HETATM   15  N   UNL     1     -10.390   9.566  69.190  1.00  0.00    -0.199 NA 
HETATM   16  N   UNL     1      -8.402   7.591  66.966  1.00  0.00    -0.120 NA 
HETATM   17  C   UNL     1      -8.866   7.812  68.207  1.00  0.00    -0.129 A  
HETATM   18  C   UNL     1      -9.765   9.401  66.944  1.00  0.00    -0.186 A  
HETATM   19  O   UNL     1     -10.609  10.923  65.384  1.00  0.00    -0.246 OA 
HETATM   20  C   UNL     1      -8.642   8.660  64.813  1.00  0.00    -0.111 C  
HETATM   21  C   UNL     1      -9.709   8.937  68.224  1.00  0.00    -0.157 A  
HETATM   22  N   UNL     1      -8.958   8.578  66.219  1.00  0.00    -0.157 NA 
BRANCH  17  23
HETATM   23  C   UNL     1      -8.462   6.908  69.322  1.00  0.00    -0.129 C  
BRANCH  23  24
HETATM   24  C   UNL     1      -9.175   5.553  69.321  1.00  0.00    -0.140 C  
HETATM   25  C   UNL     1     -10.633   5.630  69.754  1.00  0.00    -0.400 C  
ENDBRANCH  23  24
ENDBRANCH  17  23
ENDBRANCH   6  11
BRANCH   9  26
HETATM   26  S   UNL     1     -12.122  15.385  71.066  1.00  0.00    -0.408 S  
HETATM   27  O   UNL     1     -11.832  15.679  72.450  1.00  0.00    -0.401 OA 
HETATM   28  O   UNL     1     -13.217  15.995  70.348  1.00  0.00    -0.143 OA 
BRANCH  26  29
HETATM   29  N   UNL     1     -10.675  15.673  70.201  1.00  0.00    -0.324 N  
HETATM   30  H   UNL     1      -9.852  15.082  70.321  1.00  0.00     0.000 HD 
BRANCH  29  31
HETATM   31  C   UNL     1     -10.676  16.821  69.272  1.00  0.00    -0.324 C  
BRANCH  31  32
HETATM   32  C   UNL     1      -9.308  17.051  68.639  1.00  0.00    -0.270 C  
BRANCH  32  33
HETATM   33  C   UNL     1      -9.082  16.051  67.489  1.00  0.00    -0.199 C  
HETATM   34  C   UNL     1      -8.502  14.720  67.964  1.00  0.00    -0.151 C  
HETATM   35  C   UNL     1      -8.893  13.769  66.858  1.00  0.00    -0.203 C  
HETATM   36  C   UNL     1     -10.654  16.536  65.688  1.00  0.00    -0.304 C  
HETATM   37  N   UNL     1     -10.346  15.679  66.830  1.00  0.00    -0.281 NA 
HETATM   38  C   UNL     1     -10.267  14.262  66.438  1.00  0.00    -0.291 C  
ENDBRANCH  32  33
ENDBRANCH  31  32
ENDBRANCH  29  31
ENDBRANCH  26  29
ENDBRANCH   9  26
ENDBRANCH   4   5
ENDBRANCH   3   4
ENDBRANCH   2   3
TORSDOF 11
ENDMDL
MODEL       52
REMARK 921   NORMALIZED FREE ENERGY PREDICTED BY IDOCK:   -5.92 KCAL/MOL
REMARK 922        TOTAL FREE ENERGY PREDICTED BY IDOCK:  -11.96 KCAL/MOL
REMARK 923 INTER-LIGAND FREE ENERGY PREDICTED BY IDOCK:   -9.55 KCAL/MOL
REMARK 924 INTRA-LIGAND FREE ENERGY PREDICTED BY IDOCK:   -2.41 KCAL/MOL
REMARK 927      BINDING AFFINITY PREDICTED BY RF-SCORE:    0.00 PKD
ROOT
HETATM    1  C   UNL     1      -5.177   9.214  68.831  1.00  0.00    -0.037 C  
HETATM    2  C   UNL     1      -5.833  10.502  69.295  1.00  0.00    -0.037 C  
ENDROOT
BRANCH   2   3
HETATM    3  C   UNL     1      -7.327  10.343  69.524  1.00  0.00    -0.144 C  
BRANCH   3   4
HETATM    4  O   UNL     1      -7.932   9.446  68.576  1.00  0.00    -0.092 OA 
BRANCH   4   5
HETATM    5  C   UNL     1      -8.488  10.065  67.471  1.00  0.00    -0.118 A  
HETATM    6  C   UNL     1      -9.842  10.477  67.497  1.00  0.00    -0.196 A  
HETATM    7  C   UNL     1     -10.416  11.046  66.334  1.00  0.00    -0.312 A  
HETATM    8  C   UNL     1      -7.744  10.263  66.299  1.00  0.00    -0.116 A  
HETATM    9  C   UNL     1      -9.654  11.180  65.166  1.00  0.00    -0.234 A  
HETATM   10  C   UNL     1      -8.329  10.773  65.154  1.00  0.00    -0.064 A  
BRANCH   6  11
HETATM   11  C   UNL     1     -10.725  10.309  68.721  1.00  0.00    -0.219 C  
HETATM   12  C   UNL     1     -11.698   8.843  70.275  1.00  0.00     0.045 C  
HETATM   13  N   UNL     1     -10.925   9.088  69.150  1.00  0.00    -0.426 N  
HETATM   14  H   UNL     1     -10.506   8.305  68.650  1.00  0.00     0.000 HD 
HETATM   15  N   UNL     1     -11.268  11.451  69.289  1.00  0.00    -0.258 NA 
HETATM   16  N   UNL     1     -13.254  11.493  72.265  1.00  0.00    -0.255 NA 
HETATM   17  C   UNL     1     -12.665  12.168  71.264  1.00  0.00    -0.261 A  
HETATM   18  C   UNL     1     -12.210  10.028  70.887  1.00  0.00    -0.346 A  
HETATM   19  O   UNL     1     -11.926   7.716  70.701  1.00  0.00    -0.223 OA 
HETATM   20  C   UNL     1     -13.415   9.176  72.930  1.00  0.00     0.017 C  
HETATM   21  C   UNL     1     -12.001  11.282  70.397  1.00  0.00    -0.380 A  
HETATM   22  N   UNL     1     -12.954  10.193  72.015  1.00  0.00    -0.427 NA 
BRANCH  17  23
HETATM   23  C   UNL     1     -12.781  13.654  71.203  1.00  0.00    -0.432 C  
BRANCH  23  24
HETATM   24  C   UNL     1     -13.196  14.304  72.525  1.00  0.00    -0.581 C  
HETATM   25  C   UNL     1     -12.877  15.792  72.600  1.00  0.00    -0.554 C  
ENDBRANCH  23  24
ENDBRANCH  17  23
ENDBRANCH   6  11
BRANCH   9  26
HETATM   26  S   UNL     1     -10.359  11.788  63.649  1.00  0.00    -0.476 S  
HETATM   27  O   UNL     1     -11.754  11.417  63.647  1.00  0.00    -0.292 OA 
HETATM   28  O   UNL     1      -9.449  11.425  62.587  1.00  0.00    -0.344 OA 
BRANCH  26  29
HETATM   29  N   UNL     1     -10.315  13.486  63.848  1.00  0.00    -0.379 N  
HETATM   30  H   UNL     1      -9.588  14.057  63.416  1.00  0.00     0.000 HD 
BRANCH  29  31
HETATM   31  C   UNL     1     -11.382  14.084  64.676  1.00  0.00    -0.375 C  
BRANCH  31  32
HETATM   32  C   UNL     1     -11.027  15.491  65.143  1.00  0.00    -0.422 C  
BRANCH  32  33
HETATM   33  C   UNL     1     -10.423  15.442  66.560  1.00  0.00    -0.294 C  
HETATM   34  C   UNL     1     -11.064  14.372  67.442  1.00  0.00    -0.317 C  
HETATM   35  C   UNL     1     -10.004  14.120  68.488  1.00  0.00    -0.235 C  
HETATM   36  C   UNL     1      -8.124  16.252  66.478  1.00  0.00    -0.302 C  
HETATM   37  N   UNL     1      -8.995  15.082  66.535  1.00  0.00    -0.281 NA 
HETATM   38  C   UNL     1      -8.705  14.248  67.713  1.00  0.00    -0.179 C  
ENDBRANCH  32  33
ENDBRANCH  31  32
ENDBRANCH  29  31
ENDBRANCH  26  29
ENDBRANCH   9  26
ENDBRANCH   4   5
ENDBRANCH   3   4
ENDBRANCH   2   3
TORSDOF 11
ENDMDL
MODEL       53
REMARK 921   NORMALIZED FREE ENERGY PREDICTED BY IDOCK:   -5.90 KCAL/MOL
REMARK 922        TOTAL FREE ENERGY PREDICTED BY IDOCK:  -11.92 KCAL/MOL
REMARK 923 INTER-LIGAND FREE ENERGY PREDICTED BY IDOCK:  -10.35 KCAL/MOL
REMARK 924 INTRA-LIGAND FREE ENERGY PREDICTED BY IDOCK:   -1.57 KCAL/MOL
REMARK 927      BINDING AFFINITY PREDICTED BY RF-SCORE:    0.00 PKD
ROOT
HETATM    1  C   UNL     1     -12.580  12.130  63.825  1.00  0.00    -0.585 C  
HETATM    2  C   UNL     1     -11.111  12.048  63.451  1.00  0.00    -0.476 C  
ENDROOT
BRANCH   2   3
HETATM    3  C   UNL     1     -10.410  10.870  64.107  1.00  0.00    -0.364 C  
BRANCH   3   4
HETATM    4  O   UNL     1      -9.654  11.263  65.267  1.00  0.00    -0.220 OA 
BRANCH   4   5
HETATM    5  C   UNL     1     -10.036  10.640  66.441  1.00  0.00    -0.225 A  
HETATM    6  C   UNL     1     -10.343  11.415  67.587  1.00  0.00    -0.209 A  
HETATM    7  C   UNL     1     -10.665  10.760  68.801  1.00  0.00    -0.243 A  
HETATM    8  C   UNL     1     -10.091   9.243  66.537  1.00  0.00    -0.343 A  
HETATM    9  C   UNL     1     -10.658   9.360  68.869  1.00  0.00    -0.208 A  
HETATM   10  C   UNL     1     -10.356   8.614  67.741  1.00  0.00    -0.303 A  
BRANCH   6  11
HETATM   11  C   UNL     1     -10.316  12.933  67.578  1.00  0.00    -0.223 C  
HETATM   12  C   UNL     1      -9.868  14.899  66.377  1.00  0.00    -0.274 C  
HETATM   13  N   UNL     1      -9.903  13.517  66.482  1.00  0.00    -0.284 N  
HETATM   14  H   UNL     1      -9.603  12.947  65.692  1.00  0.00     0.000 HD 
HETATM   15  N   UNL     1     -10.714  13.594  68.731  1.00  0.00    -0.251 NA 
HETATM   16  N   UNL     1     -10.950  17.150  69.055  1.00  0.00    -0.124 NA 
HETATM   17  C   UNL     1     -11.099  15.931  69.600  1.00  0.00    -0.320 A  
HETATM   18  C   UNL     1     -10.331  15.574  67.549  1.00  0.00    -0.271 A  
HETATM   19  O   UNL     1      -9.472  15.488  65.376  1.00  0.00    -0.225 OA 
HETATM   20  C   UNL     1     -10.241  18.011  66.912  1.00  0.00    -0.362 C  
HETATM   21  C   UNL     1     -10.730  14.932  68.682  1.00  0.00    -0.250 A  
HETATM   22  N   UNL     1     -10.488  16.902  67.802  1.00  0.00    -0.330 NA 
BRANCH  17  23
HETATM   23  C   UNL     1     -11.599  15.801  71.000  1.00  0.00    -0.453 C  
BRANCH  23  24
HETATM   24  C   UNL     1     -13.108  15.575  71.108  1.00  0.00    -0.573 C  
HETATM   25  C   UNL     1     -13.608  15.457  72.543  1.00  0.00    -0.634 C  
ENDBRANCH  23  24
ENDBRANCH  17  23
ENDBRANCH   6  11
BRANCH   9  26
HETATM   26  S   UNL     1     -10.949   8.494  70.395  1.00  0.00    -0.226 S  
HETATM   27  O   UNL     1     -10.733   7.090  70.138  1.00  0.00    -0.224 OA 
HETATM   28  O   UNL     1     -12.182   9.010  70.944  1.00  0.00    -0.262 OA 
BRANCH  26  29
HETATM   29  N   UNL     1      -9.655   9.004  71.390  1.00  0.00    -0.290 N  
HETATM   30  H   UNL     1      -9.483   9.991  71.580  1.00  0.00     0.000 HD 
BRANCH  29  31
HETATM   31  C   UNL     1      -8.800   7.943  71.960  1.00  0.00    -0.141 C  
BRANCH  31  32
HETATM   32  C   UNL     1      -8.985   7.804  73.467  1.00  0.00    -0.327 C  
BRANCH  32  33
HETATM   33  C   UNL     1      -9.551   6.411  73.804  1.00  0.00    -0.175 C  
HETATM   34  C   UNL     1     -11.027   6.266  73.439  1.00  0.00    -0.172 C  
HETATM   35  C   UNL     1     -11.197   4.771  73.310  1.00  0.00    -0.421 C  
HETATM   36  C   UNL     1      -7.742   4.776  73.747  1.00  0.00    -0.094 C  
HETATM   37  N   UNL     1      -8.883   5.346  73.036  1.00  0.00    -0.121 NA 
HETATM   38  C   UNL     1      -9.882   4.318  72.701  1.00  0.00    -0.149 C  
ENDBRANCH  32  33
ENDBRANCH  31  32
ENDBRANCH  29  31
ENDBRANCH  26  29
ENDBRANCH   9  26
ENDBRANCH   4   5
ENDBRANCH   3   4
ENDBRANCH   2   3
TORSDOF 11
ENDMDL
MODEL       54
REMARK 921   NORMALIZED FREE ENERGY PREDICTED BY IDOCK:   -5.90 KCAL/MOL
REMARK 922        TOTAL FREE ENERGY PREDICTED BY IDOCK:  -11.92 KCAL/MOL
REMARK 923 INTER-LIGAND FREE ENERGY PREDICTED BY IDOCK:   -9.81 KCAL/MOL
REMARK 924 INTRA-LIGAND FREE ENERGY PREDICTED BY IDOCK:   -2.11 KCAL/MOL
REMARK 927      BINDING AFFINITY PREDICTED BY RF-SCORE:    0.00 PKD
ROOT
HETATM    1  C   UNL     1      -5.763  10.551  70.642  1.00  0.00    -0.101 C  
HETATM    2  C   UNL     1      -6.371  11.514  69.640  1.00  0.00    -0.133 C  
ENDROOT
BRANCH   2   3
HETATM    3  C   UNL     1      -6.583  10.876  68.277  1.00  0.00    -0.058 C  
BRANCH   3   4
HETATM    4  O   UNL     1      -7.828  10.157  68.199  1.00  0.00    -0.094 OA 
BRANCH   4   5
HETATM    5  C   UNL     1      -8.785  10.749  67.394  1.00  0.00    -0.126 A  
HETATM    6  C   UNL     1     -10.158  10.478  67.609  1.00  0.00    -0.211 A  
HETATM    7  C   UNL     1     -11.121  11.036  66.732  1.00  0.00    -0.240 A  
HETATM    8  C   UNL     1      -8.421  11.590  66.333  1.00  0.00    -0.138 A  
HETATM    9  C   UNL     1     -10.712  11.831  65.653  1.00  0.00    -0.280 A  
HETATM   10  C   UNL     1      -9.365  12.088  65.453  1.00  0.00     0.004 A  
BRANCH   6  11
HETATM   11  C   UNL     1     -10.648   9.584  68.733  1.00  0.00    -0.214 C  
HETATM   12  C   UNL     1     -10.574   7.476  69.764  1.00  0.00    -0.241 C  
HETATM   13  N   UNL     1     -10.198   8.355  68.760  1.00  0.00    -0.204 N  
HETATM   14  H   UNL     1      -9.559   8.039  68.031  1.00  0.00     0.000 HD 
HETATM   15  N   UNL     1     -11.546  10.122  69.644  1.00  0.00    -0.195 NA 
HETATM   16  N   UNL     1     -12.803   8.400  72.517  1.00  0.00    -0.266 NA 
HETATM   17  C   UNL     1     -12.762   9.516  71.769  1.00  0.00    -0.404 A  
HETATM   18  C   UNL     1     -11.456   8.053  70.729  1.00  0.00    -0.263 A  
HETATM   19  O   UNL     1     -10.190   6.312  69.818  1.00  0.00    -0.171 OA 
HETATM   20  C   UNL     1     -11.781   6.213  72.420  1.00  0.00    -0.272 C  
HETATM   21  C   UNL     1     -11.925   9.330  70.655  1.00  0.00    -0.152 A  
HETATM   22  N   UNL     1     -11.993   7.528  71.865  1.00  0.00    -0.291 NA 
BRANCH  17  23
HETATM   23  C   UNL     1     -13.548  10.714  72.182  1.00  0.00    -0.129 C  
BRANCH  23  24
HETATM   24  C   UNL     1     -13.008  12.037  71.634  1.00  0.00    -0.439 C  
HETATM   25  C   UNL     1     -13.654  13.267  72.259  1.00  0.00    -0.703 C  
ENDBRANCH  23  24
ENDBRANCH  17  23
ENDBRANCH   6  11
BRANCH   9  26
HETATM   26  S   UNL     1     -11.873  12.465  64.463  1.00  0.00    -0.392 S  
HETATM   27  O   UNL     1     -13.052  12.874  65.190  1.00  0.00    -0.753 OA 
HETATM   28  O   UNL     1     -11.915  11.521  63.370  1.00  0.00    -0.345 OA 
BRANCH  26  29
HETATM   29  N   UNL     1     -11.127  13.903  63.912  1.00  0.00    -0.479 N  
HETATM   30  H   UNL     1     -10.500  13.906  63.108  1.00  0.00     0.000 HD 
BRANCH  29  31
HETATM   31  C   UNL     1     -11.437  15.138  64.660  1.00  0.00    -0.362 C  
BRANCH  31  32
HETATM   32  C   UNL     1     -10.350  15.485  65.672  1.00  0.00    -0.407 C  
BRANCH  32  33
HETATM   33  C   UNL     1     -10.988  15.915  67.006  1.00  0.00    -0.189 C  
HETATM   34  C   UNL     1     -11.565  14.741  67.795  1.00  0.00    -0.378 C  
HETATM   35  C   UNL     1     -11.595  15.268  69.210  1.00  0.00    -0.350 C  
HETATM   36  C   UNL     1      -9.916  17.964  67.782  1.00  0.00    -0.331 C  
HETATM   37  N   UNL     1      -9.999  16.513  67.920  1.00  0.00    -0.240 NA 
HETATM   38  C   UNL     1     -10.340  16.118  69.297  1.00  0.00    -0.265 C  
ENDBRANCH  32  33
ENDBRANCH  31  32
ENDBRANCH  29  31
ENDBRANCH  26  29
ENDBRANCH   9  26
ENDBRANCH   4   5
ENDBRANCH   3   4
ENDBRANCH   2   3
TORSDOF 11
ENDMDL
MODEL       55
REMARK 921   NORMALIZED FREE ENERGY PREDICTED BY IDOCK:   -5.86 KCAL/MOL
REMARK 922        TOTAL FREE ENERGY PREDICTED BY IDOCK:  -11.86 KCAL/MOL
REMARK 923 INTER-LIGAND FREE ENERGY PREDICTED BY IDOCK:   -9.96 KCAL/MOL
REMARK 924 INTRA-LIGAND FREE ENERGY PREDICTED BY IDOCK:   -1.90 KCAL/MOL
REMARK 927      BINDING AFFINITY PREDICTED BY RF-SCORE:    0.00 PKD
ROOT
HETATM    1  C   UNL     1      -9.176  10.108  63.477  1.00  0.00    -0.322 C  
HETATM    2  C   UNL     1      -9.969  10.408  64.735  1.00  0.00    -0.409 C  
ENDROOT
BRANCH   2   3
HETATM    3  C   UNL     1      -9.781   9.348  65.808  1.00  0.00    -0.284 C  
BRANCH   3   4
HETATM    4  O   UNL     1      -9.569   9.923  67.111  1.00  0.00    -0.154 OA 
BRANCH   4   5
HETATM    5  C   UNL     1     -10.195   9.250  68.144  1.00  0.00    -0.205 A  
HETATM    6  C   UNL     1     -10.897   9.974  69.139  1.00  0.00    -0.253 A  
HETATM    7  C   UNL     1     -11.473   9.277  70.228  1.00  0.00    -0.198 A  
HETATM    8  C   UNL     1     -10.118   7.855  68.254  1.00  0.00    -0.225 A  
HETATM    9  C   UNL     1     -11.330   7.886  70.329  1.00  0.00    -0.150 A  
HETATM   10  C   UNL     1     -10.640   7.189  69.349  1.00  0.00    -0.246 A  
BRANCH   6  11
HETATM   11  C   UNL     1     -11.038  11.486  69.102  1.00  0.00    -0.259 C  
HETATM   12  C   UNL     1     -10.582  13.491  67.971  1.00  0.00    -0.239 C  
HETATM   13  N   UNL     1     -10.483  12.114  68.097  1.00  0.00    -0.205 N  
HETATM   14  H   UNL     1      -9.969  11.582  67.395  1.00  0.00     0.000 HD 
HETATM   15  N   UNL     1     -11.730  12.096  70.137  1.00  0.00    -0.272 NA 
HETATM   16  N   UNL     1     -12.422  15.602  70.329  1.00  0.00    -0.391 NA 
HETATM   17  C   UNL     1     -12.540  14.374  70.861  1.00  0.00    -0.352 A  
HETATM   18  C   UNL     1     -11.342  14.108  69.011  1.00  0.00    -0.275 A  
HETATM   19  O   UNL     1     -10.062  14.121  67.055  1.00  0.00    -0.255 OA 
HETATM   20  C   UNL     1     -11.399  16.539  68.351  1.00  0.00    -0.209 C  
HETATM   21  C   UNL     1     -11.886  13.424  70.056  1.00  0.00    -0.294 A  
HETATM   22  N   UNL     1     -11.694  15.410  69.199  1.00  0.00    -0.331 NA 
BRANCH  17  23
HETATM   23  C   UNL     1     -13.292  14.188  72.136  1.00  0.00    -0.527 C  
BRANCH  23  24
HETATM   24  C   UNL     1     -13.565  15.487  72.897  1.00  0.00    -0.633 C  
HETATM   25  C   UNL     1     -12.536  15.789  73.979  1.00  0.00    -0.758 C  
ENDBRANCH  23  24
ENDBRANCH  17  23
ENDBRANCH   6  11
BRANCH   9  26
HETATM   26  S   UNL     1     -11.941   6.979  71.732  1.00  0.00    -0.343 S  
HETATM   27  O   UNL     1     -11.302   5.684  71.716  1.00  0.00    -0.221 OA 
HETATM   28  O   UNL     1     -13.376   7.145  71.748  1.00  0.00    -0.353 OA 
BRANCH  26  29
HETATM   29  N   UNL     1     -11.279   7.823  73.065  1.00  0.00    -0.517 N  
HETATM   30  H   UNL     1     -11.574   8.772  73.297  1.00  0.00     0.000 HD 
BRANCH  29  31
HETATM   31  C   UNL     1     -10.261   7.109  73.862  1.00  0.00    -0.315 C  
BRANCH  31  32
HETATM   32  C   UNL     1      -9.006   7.949  74.076  1.00  0.00    -0.218 C  
BRANCH  32  33
HETATM   33  C   UNL     1      -7.817   7.323  73.323  1.00  0.00    -0.097 C  
HETATM   34  C   UNL     1      -7.467   5.924  73.822  1.00  0.00    -0.093 C  
HETATM   35  C   UNL     1      -6.733   5.321  72.648  1.00  0.00    -0.074 C  
HETATM   36  C   UNL     1      -7.702   8.274  71.079  1.00  0.00    -0.090 C  
HETATM   37  N   UNL     1      -8.113   7.133  71.892  1.00  0.00    -0.097 NA 
HETATM   38  C   UNL     1      -7.465   5.889  71.445  1.00  0.00    -0.096 C  
ENDBRANCH  32  33
ENDBRANCH  31  32
ENDBRANCH  29  31
ENDBRANCH  26  29
ENDBRANCH   9  26
ENDBRANCH   4   5
ENDBRANCH   3   4
ENDBRANCH   2   3
TORSDOF 11
ENDMDL
MODEL       56
REMARK 921   NORMALIZED FREE ENERGY PREDICTED BY IDOCK:   -5.86 KCAL/MOL
REMARK 922        TOTAL FREE ENERGY PREDICTED BY IDOCK:  -11.86 KCAL/MOL
REMARK 923 INTER-LIGAND FREE ENERGY PREDICTED BY IDOCK:   -9.95 KCAL/MOL
REMARK 924 INTRA-LIGAND FREE ENERGY PREDICTED BY IDOCK:   -1.90 KCAL/MOL
REMARK 927      BINDING AFFINITY PREDICTED BY RF-SCORE:    0.00 PKD
ROOT
HETATM    1  C   UNL     1      -8.948  10.930  65.397  1.00  0.00    -0.209 C  
HETATM    2  C   UNL     1      -7.899   9.981  65.947  1.00  0.00    -0.122 C  
ENDROOT
BRANCH   2   3
HETATM    3  C   UNL     1      -7.559  10.269  67.400  1.00  0.00    -0.094 C  
BRANCH   3   4
HETATM    4  O   UNL     1      -8.269  11.414  67.909  1.00  0.00    -0.122 OA 
BRANCH   4   5
HETATM    5  C   UNL     1      -9.405  11.109  68.637  1.00  0.00    -0.184 A  
HETATM    6  C   UNL     1     -10.466  12.043  68.718  1.00  0.00    -0.207 A  
HETATM    7  C   UNL     1     -11.592  11.746  69.525  1.00  0.00    -0.398 A  
HETATM    8  C   UNL     1      -9.515   9.900  69.338  1.00  0.00    -0.226 A  
HETATM    9  C   UNL     1     -11.641  10.547  70.250  1.00  0.00    -0.332 A  
HETATM   10  C   UNL     1     -10.595   9.642  70.163  1.00  0.00    -0.320 A  
BRANCH   6  11
HETATM   11  C   UNL     1     -10.440  13.376  67.991  1.00  0.00    -0.239 C  
HETATM   12  C   UNL     1      -9.719  15.609  67.975  1.00  0.00    -0.204 C  
HETATM   13  N   UNL     1      -9.812  14.364  68.577  1.00  0.00    -0.229 N  
HETATM   14  H   UNL     1      -9.386  14.216  69.491  1.00  0.00     0.000 HD 
HETATM   15  N   UNL     1     -11.090  13.459  66.769  1.00  0.00    -0.288 NA 
HETATM   16  N   UNL     1     -11.117  16.362  64.676  1.00  0.00    -0.697 NA 
HETATM   17  C   UNL     1     -11.485  15.086  64.881  1.00  0.00    -0.399 A  
HETATM   18  C   UNL     1     -10.344  15.673  66.692  1.00  0.00    -0.289 A  
HETATM   19  O   UNL     1      -9.156  16.567  68.496  1.00  0.00    -0.214 OA 
HETATM   20  C   UNL     1      -9.838  18.010  65.894  1.00  0.00    -0.042 C  
HETATM   21  C   UNL     1     -11.010  14.630  66.123  1.00  0.00    -0.329 A  
HETATM   22  N   UNL     1     -10.417  16.692  65.791  1.00  0.00    -0.427 NA 
BRANCH  17  23
HETATM   23  C   UNL     1     -12.288  14.371  63.847  1.00  0.00    -0.119 C  
BRANCH  23  24
HETATM   24  C   UNL     1     -11.722  13.007  63.446  1.00  0.00    -0.477 C  
HETATM   25  C   UNL     1     -12.735  11.873  63.540  1.00  0.00    -0.530 C  
ENDBRANCH  23  24
ENDBRANCH  17  23
ENDBRANCH   6  11
BRANCH   9  26
HETATM   26  S   UNL     1     -12.981  10.177  71.361  1.00  0.00    -0.453 S  
HETATM   27  O   UNL     1     -14.001   9.505  70.591  1.00  0.00     0.047 OA 
HETATM   28  O   UNL     1     -13.238  11.375  72.125  1.00  0.00    -0.490 OA 
BRANCH  26  29
HETATM   29  N   UNL     1     -12.313   8.997  72.404  1.00  0.00    -0.324 N  
HETATM   30  H   UNL     1     -11.821   9.256  73.259  1.00  0.00     0.000 HD 
BRANCH  29  31
HETATM   31  C   UNL     1     -12.485   7.586  72.004  1.00  0.00    -0.257 C  
BRANCH  31  32
HETATM   32  C   UNL     1     -11.281   6.730  72.383  1.00  0.00    -0.300 C  
BRANCH  32  33
HETATM   33  C   UNL     1     -10.793   5.934  71.158  1.00  0.00    -0.269 C  
HETATM   34  C   UNL     1     -11.526   6.310  69.873  1.00  0.00    -0.459 C  
HETATM   35  C   UNL     1     -10.560   5.881  68.795  1.00  0.00    -0.340 C  
HETATM   36  C   UNL     1      -8.476   5.260  71.515  1.00  0.00    -0.122 C  
HETATM   37  N   UNL     1      -9.376   6.203  70.858  1.00  0.00    -0.157 NA 
HETATM   38  C   UNL     1      -9.200   6.192  69.396  1.00  0.00    -0.133 C  
ENDBRANCH  32  33
ENDBRANCH  31  32
ENDBRANCH  29  31
ENDBRANCH  26  29
ENDBRANCH   9  26
ENDBRANCH   4   5
ENDBRANCH   3   4
ENDBRANCH   2   3
TORSDOF 11
ENDMDL
MODEL       57
REMARK 921   NORMALIZED FREE ENERGY PREDICTED BY IDOCK:   -5.82 KCAL/MOL
REMARK 922        TOTAL FREE ENERGY PREDICTED BY IDOCK:  -11.80 KCAL/MOL
REMARK 923 INTER-LIGAND FREE ENERGY PREDICTED BY IDOCK:   -9.20 KCAL/MOL
REMARK 924 INTRA-LIGAND FREE ENERGY PREDICTED BY IDOCK:   -2.60 KCAL/MOL
REMARK 927      BINDING AFFINITY PREDICTED BY RF-SCORE:    0.00 PKD
ROOT
HETATM    1  C   UNL     1      -5.854  10.848  65.721  1.00  0.00    -0.110 C  
HETATM    2  C   UNL     1      -5.827  10.467  64.253  1.00  0.00    -0.121 C  
ENDROOT
BRANCH   2   3
HETATM    3  C   UNL     1      -6.515   9.139  63.985  1.00  0.00    -0.088 C  
BRANCH   3   4
HETATM    4  O   UNL     1      -7.949   9.244  64.055  1.00  0.00    -0.123 OA 
BRANCH   4   5
HETATM    5  C   UNL     1      -8.536   8.463  65.034  1.00  0.00    -0.141 A  
HETATM    6  C   UNL     1      -9.590   8.987  65.822  1.00  0.00    -0.287 A  
HETATM    7  C   UNL     1     -10.133   8.200  66.867  1.00  0.00    -0.367 A  
HETATM    8  C   UNL     1      -8.080   7.163  65.295  1.00  0.00    -0.134 A  
HETATM    9  C   UNL     1      -9.615   6.924  67.129  1.00  0.00    -0.147 A  
HETATM   10  C   UNL     1      -8.583   6.423  66.351  1.00  0.00    -0.134 A  
BRANCH   6  11
HETATM   11  C   UNL     1     -10.153  10.381  65.611  1.00  0.00    -0.269 C  
HETATM   12  C   UNL     1     -11.082  11.937  64.119  1.00  0.00    -0.375 C  
HETATM   13  N   UNL     1     -10.534  10.694  64.398  1.00  0.00    -0.352 N  
HETATM   14  H   UNL     1     -10.427  10.013  63.647  1.00  0.00     0.000 HD 
HETATM   15  N   UNL     1     -10.212  11.228  66.707  1.00  0.00    -0.218 NA 
HETATM   16  N   UNL     1     -11.619  14.518  66.659  1.00  0.00    -0.371 NA 
HETATM   17  C   UNL     1     -11.028  13.528  67.349  1.00  0.00    -0.272 A  
HETATM   18  C   UNL     1     -11.190  12.785  65.263  1.00  0.00    -0.293 A  
HETATM   19  O   UNL     1     -11.436  12.278  62.995  1.00  0.00    -0.260 OA 
HETATM   20  C   UNL     1     -12.335  14.847  64.375  1.00  0.00    -0.323 C  
HETATM   21  C   UNL     1     -10.759  12.435  66.507  1.00  0.00    -0.236 A  
HETATM   22  N   UNL     1     -11.711  14.036  65.393  1.00  0.00    -0.330 NA 
BRANCH  17  23
HETATM   23  C   UNL     1     -10.756  13.700  68.805  1.00  0.00    -0.265 C  
BRANCH  23  24
HETATM   24  C   UNL     1     -11.864  13.168  69.717  1.00  0.00    -0.386 C  
HETATM   25  C   UNL     1     -12.597  14.259  70.488  1.00  0.00    -0.418 C  
ENDBRANCH  23  24
ENDBRANCH  17  23
ENDBRANCH   6  11
BRANCH   9  26
HETATM   26  S   UNL     1     -10.188   5.941  68.496  1.00  0.00    -0.214 S  
HETATM   27  O   UNL     1      -9.854   4.567  68.206  1.00  0.00    -0.147 OA 
HETATM   28  O   UNL     1     -11.534   6.375  68.792  1.00  0.00    -0.283 OA 
BRANCH  26  29
HETATM   29  N   UNL     1      -9.167   6.421  69.782  1.00  0.00    -0.144 N  
HETATM   30  H   UNL     1      -8.884   5.769  70.513  1.00  0.00     0.000 HD 
BRANCH  29  31
HETATM   31  C   UNL     1      -8.714   7.827  69.778  1.00  0.00    -0.139 C  
BRANCH  31  32
HETATM   32  C   UNL     1      -8.558   8.385  71.189  1.00  0.00    -0.187 C  
BRANCH  32  33
HETATM   33  C   UNL     1      -9.925   8.852  71.726  1.00  0.00    -0.327 C  
HETATM   34  C   UNL     1     -10.703   9.694  70.717  1.00  0.00    -0.401 C  
HETATM   35  C   UNL     1     -12.131   9.547  71.187  1.00  0.00    -0.429 C  
HETATM   36  C   UNL     1     -10.713   7.262  73.398  1.00  0.00    -0.369 C  
HETATM   37  N   UNL     1     -10.818   7.717  72.015  1.00  0.00    -0.233 NA 
HETATM   38  C   UNL     1     -12.195   8.112  71.677  1.00  0.00    -0.308 C  
ENDBRANCH  32  33
ENDBRANCH  31  32
ENDBRANCH  29  31
ENDBRANCH  26  29
ENDBRANCH   9  26
ENDBRANCH   4   5
ENDBRANCH   3   4
ENDBRANCH   2   3
TORSDOF 11
ENDMDL
MODEL       58
REMARK 921   NORMALIZED FREE ENERGY PREDICTED BY IDOCK:   -5.79 KCAL/MOL
REMARK 922        TOTAL FREE ENERGY PREDICTED BY IDOCK:  -11.75 KCAL/MOL
REMARK 923 INTER-LIGAND FREE ENERGY PREDICTED BY IDOCK:   -9.16 KCAL/MOL
REMARK 924 INTRA-LIGAND FREE ENERGY PREDICTED BY IDOCK:   -2.58 KCAL/MOL
REMARK 927      BINDING AFFINITY PREDICTED BY RF-SCORE:    0.00 PKD
ROOT
HETATM    1  C   UNL     1      -6.609  12.023  67.006  1.00  0.00    -0.108 C  
HETATM    2  C   UNL     1      -6.170  10.571  67.042  1.00  0.00    -0.066 C  
ENDROOT
BRANCH   2   3
HETATM    3  C   UNL     1      -5.947   9.996  65.653  1.00  0.00    -0.080 C  
BRANCH   3   4
HETATM    4  O   UNL     1      -7.166   9.509  65.062  1.00  0.00    -0.101 OA 
BRANCH   4   5
HETATM    5  C   UNL     1      -7.851   8.588  65.834  1.00  0.00    -0.099 A  
HETATM    6  C   UNL     1      -9.150   8.890  66.311  1.00  0.00    -0.236 A  
HETATM    7  C   UNL     1      -9.810   7.966  67.158  1.00  0.00    -0.273 A  
HETATM    8  C   UNL     1      -7.267   7.365  66.193  1.00  0.00    -0.077 A  
HETATM    9  C   UNL     1      -9.171   6.777  67.535  1.00  0.00    -0.122 A  
HETATM   10  C   UNL     1      -7.900   6.494  67.062  1.00  0.00    -0.108 A  
BRANCH   6  11
HETATM   11  C   UNL     1      -9.865  10.185  65.971  1.00  0.00    -0.246 C  
HETATM   12  C   UNL     1     -10.620  11.652  64.302  1.00  0.00    -0.340 C  
HETATM   13  N   UNL     1      -9.964  10.499  64.704  1.00  0.00    -0.331 N  
HETATM   14  H   UNL     1      -9.551   9.886  64.002  1.00  0.00     0.000 HD 
HETATM   15  N   UNL     1     -10.350  10.951  67.021  1.00  0.00    -0.221 NA 
HETATM   16  N   UNL     1     -12.228  13.972  66.633  1.00  0.00    -0.448 NA 
HETATM   17  C   UNL     1     -11.680  13.052  67.446  1.00  0.00    -0.374 A  
HETATM   18  C   UNL     1     -11.164  12.409  65.385  1.00  0.00    -0.318 A  
HETATM   19  O   UNL     1     -10.721  11.993  63.128  1.00  0.00    -0.368 OA 
HETATM   20  C   UNL     1     -12.369  14.307  64.245  1.00  0.00    -0.377 C  
HETATM   21  C   UNL     1     -11.021  12.064  66.695  1.00  0.00    -0.287 A  
HETATM   22  N   UNL     1     -11.905  13.551  65.384  1.00  0.00    -0.341 NA 
BRANCH  17  23
HETATM   23  C   UNL     1     -11.830  13.186  68.924  1.00  0.00    -0.361 C  
BRANCH  23  24
HETATM   24  C   UNL     1     -11.897  11.851  69.670  1.00  0.00    -0.406 C  
HETATM   25  C   UNL     1     -12.417  11.973  71.096  1.00  0.00    -0.353 C  
ENDBRANCH  23  24
ENDBRANCH  17  23
ENDBRANCH   6  11
BRANCH   9  26
HETATM   26  S   UNL     1      -9.913   5.637  68.682  1.00  0.00    -0.176 S  
HETATM   27  O   UNL     1      -9.018   5.519  69.809  1.00  0.00    -0.122 OA 
HETATM   28  O   UNL     1     -10.361   4.498  67.914  1.00  0.00     0.030 OA 
BRANCH  26  29
HETATM   29  N   UNL     1     -11.286   6.486  69.248  1.00  0.00    -0.571 N  
HETATM   30  H   UNL     1     -11.918   6.968  68.609  1.00  0.00     0.000 HD 
BRANCH  29  31
HETATM   31  C   UNL     1     -11.510   6.484  70.708  1.00  0.00    -0.360 C  
BRANCH  31  32
HETATM   32  C   UNL     1     -11.868   7.869  71.236  1.00  0.00    -0.321 C  
BRANCH  32  33
HETATM   33  C   UNL     1     -10.668   8.472  71.992  1.00  0.00    -0.340 C  
HETATM   34  C   UNL     1     -10.317   7.701  73.262  1.00  0.00    -0.405 C  
HETATM   35  C   UNL     1      -8.873   8.075  73.495  1.00  0.00    -0.333 C  
HETATM   36  C   UNL     1      -9.231   9.643  70.406  1.00  0.00    -0.202 C  
HETATM   37  N   UNL     1      -9.435   8.427  71.188  1.00  0.00    -0.167 NA 
HETATM   38  C   UNL     1      -8.301   8.167  72.091  1.00  0.00    -0.157 C  
ENDBRANCH  32  33
ENDBRANCH  31  32
ENDBRANCH  29  31
ENDBRANCH  26  29
ENDBRANCH   9  26
ENDBRANCH   4   5
ENDBRANCH   3   4
ENDBRANCH   2   3
TORSDOF 11
ENDMDL
MODEL       59
REMARK 921   NORMALIZED FREE ENERGY PREDICTED BY IDOCK:   -5.76 KCAL/MOL
REMARK 922        TOTAL FREE ENERGY PREDICTED BY IDOCK:  -11.71 KCAL/MOL
REMARK 923 INTER-LIGAND FREE ENERGY PREDICTED BY IDOCK:   -9.78 KCAL/MOL
REMARK 924 INTRA-LIGAND FREE ENERGY PREDICTED BY IDOCK:   -1.92 KCAL/MOL
REMARK 927      BINDING AFFINITY PREDICTED BY RF-SCORE:    0.00 PKD
ROOT
HETATM    1  C   UNL     1     -14.335  14.657  71.551  1.00  0.00    -0.549 C  
HETATM    2  C   UNL     1     -12.996  14.073  71.962  1.00  0.00    -0.450 C  
ENDROOT
BRANCH   2   3
HETATM    3  C   UNL     1     -11.852  14.579  71.100  1.00  0.00    -0.292 C  
BRANCH   3   4
HETATM    4  O   UNL     1     -12.105  14.395  69.695  1.00  0.00    -0.311 OA 
BRANCH   4   5
HETATM    5  C   UNL     1     -11.478  13.296  69.136  1.00  0.00    -0.305 A  
HETATM    6  C   UNL     1     -10.149  13.406  68.659  1.00  0.00    -0.162 A  
HETATM    7  C   UNL     1      -9.545  12.292  68.026  1.00  0.00    -0.206 A  
HETATM    8  C   UNL     1     -12.147  12.073  68.994  1.00  0.00    -0.223 A  
HETATM    9  C   UNL     1     -10.266  11.102  67.858  1.00  0.00    -0.180 A  
HETATM   10  C   UNL     1     -11.566  11.007  68.329  1.00  0.00    -0.354 A  
BRANCH   6  11
HETATM   11  C   UNL     1      -9.342  14.687  68.773  1.00  0.00    -0.191 C  
HETATM   12  C   UNL     1      -7.320  15.707  69.390  1.00  0.00    -0.216 C  
HETATM   13  N   UNL     1      -8.135  14.592  69.271  1.00  0.00    -0.354 N  
HETATM   14  H   UNL     1      -7.789  13.682  69.576  1.00  0.00     0.000 HD 
HETATM   15  N   UNL     1      -9.940  15.867  68.357  1.00  0.00    -0.219 NA 
HETATM   16  N   UNL     1      -8.321  19.058  68.309  1.00  0.00    -0.321 NA 
HETATM   17  C   UNL     1      -9.415  18.318  68.063  1.00  0.00    -0.290 A  
HETATM   18  C   UNL     1      -7.922  16.910  68.910  1.00  0.00    -0.224 A  
HETATM   19  O   UNL     1      -6.191  15.665  69.867  1.00  0.00    -0.157 OA 
HETATM   20  C   UNL     1      -6.103  18.635  69.169  1.00  0.00    -0.242 C  
HETATM   21  C   UNL     1      -9.192  16.976  68.419  1.00  0.00    -0.259 A  
HETATM   22  N   UNL     1      -7.425  18.174  68.816  1.00  0.00    -0.287 NA 
BRANCH  17  23
HETATM   23  C   UNL     1     -10.633  18.962  67.490  1.00  0.00    -0.524 C  
BRANCH  23  24
HETATM   24  C   UNL     1     -10.375  20.326  66.846  1.00  0.00    -0.418 C  
HETATM   25  C   UNL     1     -10.041  20.248  65.362  1.00  0.00     0.104 C  
ENDBRANCH  23  24
ENDBRANCH  17  23
ENDBRANCH   6  11
BRANCH   9  26
HETATM   26  S   UNL     1      -9.590   9.712  66.975  1.00  0.00    -0.182 S  
HETATM   27  O   UNL     1     -10.336   8.544  67.380  1.00  0.00    -0.243 OA 
HETATM   28  O   UNL     1      -8.153   9.802  67.085  1.00  0.00    -0.115 OA 
BRANCH  26  29
HETATM   29  N   UNL     1     -10.033  10.024  65.352  1.00  0.00    -0.308 N  
HETATM   30  H   UNL     1     -10.779   9.504  64.891  1.00  0.00     0.000 HD 
BRANCH  29  31
HETATM   31  C   UNL     1      -9.281  11.086  64.653  1.00  0.00    -0.168 C  
BRANCH  31  32
HETATM   32  C   UNL     1      -9.949  11.498  63.346  1.00  0.00    -0.445 C  
BRANCH  32  33
HETATM   33  C   UNL     1     -11.113  12.466  63.630  1.00  0.00    -0.473 C  
HETATM   34  C   UNL     1     -12.475  11.774  63.635  1.00  0.00    -0.482 C  
HETATM   35  C   UNL     1     -13.327  12.713  64.454  1.00  0.00     0.453 C  
HETATM   36  C   UNL     1     -10.290  14.340  64.957  1.00  0.00    -0.421 C  
HETATM   37  N   UNL     1     -11.010  13.070  64.969  1.00  0.00    -0.289 NA 
HETATM   38  C   UNL     1     -12.369  13.224  65.516  1.00  0.00    -0.480 C  
ENDBRANCH  32  33
ENDBRANCH  31  32
ENDBRANCH  29  31
ENDBRANCH  26  29
ENDBRANCH   9  26
ENDBRANCH   4   5
ENDBRANCH   3   4
ENDBRANCH   2   3
TORSDOF 11
ENDMDL
MODEL       60
REMARK 921   NORMALIZED FREE ENERGY PREDICTED BY IDOCK:   -5.75 KCAL/MOL
REMARK 922        TOTAL FREE ENERGY PREDICTED BY IDOCK:  -11.69 KCAL/MOL
REMARK 923 INTER-LIGAND FREE ENERGY PREDICTED BY IDOCK:  -10.29 KCAL/MOL
REMARK 924 INTRA-LIGAND FREE ENERGY PREDICTED BY IDOCK:   -1.40 KCAL/MOL
REMARK 927      BINDING AFFINITY PREDICTED BY RF-SCORE:    0.00 PKD
ROOT
HETATM    1  C   UNL     1      -5.785  10.714  65.285  1.00  0.00    -0.126 C  
HETATM    2  C   UNL     1      -6.786   9.573  65.319  1.00  0.00    -0.087 C  
ENDROOT
BRANCH   2   3
HETATM    3  C   UNL     1      -7.479   9.368  63.982  1.00  0.00    -0.113 C  
BRANCH   3   4
HETATM    4  O   UNL     1      -8.898   9.174  64.128  1.00  0.00    -0.185 OA 
BRANCH   4   5
HETATM    5  C   UNL     1      -9.579  10.266  64.634  1.00  0.00    -0.312 A  
HETATM    6  C   UNL     1     -10.257  10.166  65.873  1.00  0.00    -0.281 A  
HETATM    7  C   UNL     1     -11.008  11.271  66.344  1.00  0.00    -0.285 A  
HETATM    8  C   UNL     1      -9.647  11.472  63.923  1.00  0.00    -0.213 A  
HETATM    9  C   UNL     1     -11.093  12.442  65.579  1.00  0.00    -0.300 A  
HETATM   10  C   UNL     1     -10.425  12.527  64.368  1.00  0.00    -0.384 A  
BRANCH   6  11
HETATM   11  C   UNL     1     -10.237   8.904  66.717  1.00  0.00    -0.278 C  
HETATM   12  C   UNL     1      -9.921   6.579  66.795  1.00  0.00    -0.166 C  
HETATM   13  N   UNL     1      -9.982   7.777  66.100  1.00  0.00    -0.450 N  
HETATM   14  H   UNL     1      -9.826   7.781  65.092  1.00  0.00     0.000 HD 
HETATM   15  N   UNL     1     -10.501   9.027  68.073  1.00  0.00    -0.226 NA 
HETATM   16  N   UNL     1     -10.386   6.327  70.418  1.00  0.00    -0.199 NA 
HETATM   17  C   UNL     1     -10.583   7.633  70.174  1.00  0.00    -0.236 A  
HETATM   18  C   UNL     1     -10.141   6.720  68.200  1.00  0.00    -0.164 A  
HETATM   19  O   UNL     1      -9.703   5.499  66.255  1.00  0.00    -0.156 OA 
HETATM   20  C   UNL     1      -9.813   4.388  69.095  1.00  0.00    -0.128 C  
HETATM   21  C   UNL     1     -10.428   7.907  68.804  1.00  0.00    -0.176 A  
HETATM   22  N   UNL     1     -10.111   5.796  69.199  1.00  0.00    -0.179 NA 
BRANCH  17  23
HETATM   23  C   UNL     1     -10.916   8.555  71.299  1.00  0.00    -0.316 C  
BRANCH  23  24
HETATM   24  C   UNL     1      -9.796   8.714  72.330  1.00  0.00    -0.360 C  
HETATM   25  C   UNL     1      -9.783   7.623  73.392  1.00  0.00    -0.363 C  
ENDBRANCH  23  24
ENDBRANCH  17  23
ENDBRANCH   6  11
BRANCH   9  26
HETATM   26  S   UNL     1     -12.110  13.815  66.075  1.00  0.00    -0.456 S  
HETATM   27  O   UNL     1     -12.208  13.777  67.515  1.00  0.00    -0.355 OA 
HETATM   28  O   UNL     1     -13.267  13.816  65.211  1.00  0.00    -0.755 OA 
BRANCH  26  29
HETATM   29  N   UNL     1     -11.145  15.176  65.696  1.00  0.00    -0.341 N  
HETATM   30  H   UNL     1     -11.217  15.649  64.795  1.00  0.00     0.000 HD 
BRANCH  29  31
HETATM   31  C   UNL     1     -10.205  15.633  66.740  1.00  0.00    -0.276 C  
BRANCH  31  32
HETATM   32  C   UNL     1      -9.105  16.523  66.173  1.00  0.00    -0.342 C  
BRANCH  32  33
HETATM   33  C   UNL     1      -9.367  17.993  66.552  1.00  0.00    -0.285 C  
HETATM   34  C   UNL     1     -10.373  18.143  67.691  1.00  0.00    -0.411 C  
HETATM   35  C   UNL     1     -10.050  19.509  68.248  1.00  0.00    -0.542 C  
HETATM   36  C   UNL     1      -7.402  19.326  65.995  1.00  0.00    -0.279 C  
HETATM   37  N   UNL     1      -8.151  18.656  67.053  1.00  0.00    -0.246 NA 
HETATM   38  C   UNL     1      -8.539  19.594  68.120  1.00  0.00    -0.317 C  
ENDBRANCH  32  33
ENDBRANCH  31  32
ENDBRANCH  29  31
ENDBRANCH  26  29
ENDBRANCH   9  26
ENDBRANCH   4   5
ENDBRANCH   3   4
ENDBRANCH   2   3
TORSDOF 11
ENDMDL
MODEL       61
REMARK 921   NORMALIZED FREE ENERGY PREDICTED BY IDOCK:   -5.75 KCAL/MOL
REMARK 922        TOTAL FREE ENERGY PREDICTED BY IDOCK:  -11.68 KCAL/MOL
REMARK 923 INTER-LIGAND FREE ENERGY PREDICTED BY IDOCK:  -10.76 KCAL/MOL
REMARK 924 INTRA-LIGAND FREE ENERGY PREDICTED BY IDOCK:   -0.92 KCAL/MOL
REMARK 927      BINDING AFFINITY PREDICTED BY RF-SCORE:    0.00 PKD
ROOT
HETATM    1  C   UNL     1     -12.718  14.857  73.394  1.00  0.00    -0.636 C  
HETATM    2  C   UNL     1     -12.424  15.037  71.916  1.00  0.00    -0.409 C  
ENDROOT
BRANCH   2   3
HETATM    3  C   UNL     1     -12.961  13.891  71.074  1.00  0.00    -0.287 C  
BRANCH   3   4
HETATM    4  O   UNL     1     -11.910  13.049  70.565  1.00  0.00    -0.255 OA 
BRANCH   4   5
HETATM    5  C   UNL     1     -11.786  13.054  69.188  1.00  0.00    -0.326 A  
HETATM    6  C   UNL     1     -10.899  12.151  68.553  1.00  0.00    -0.267 A  
HETATM    7  C   UNL     1     -10.730  12.216  67.148  1.00  0.00    -0.267 A  
HETATM    8  C   UNL     1     -12.495  13.970  68.398  1.00  0.00     0.231 A  
HETATM    9  C   UNL     1     -11.420  13.180  66.400  1.00  0.00    -0.334 A  
HETATM   10  C   UNL     1     -12.285  14.059  67.034  1.00  0.00    -0.387 A  
BRANCH   6  11
HETATM   11  C   UNL     1     -10.092  11.121  69.323  1.00  0.00    -0.041 C  
HETATM   12  C   UNL     1      -7.984  10.194  69.779  1.00  0.00    -0.161 C  
HETATM   13  N   UNL     1      -8.802  11.086  69.103  1.00  0.00    -0.376 N  
HETATM   14  H   UNL     1      -8.391  11.726  68.424  1.00  0.00     0.000 HD 
HETATM   15  N   UNL     1     -10.774  10.282  70.192  1.00  0.00    -0.289 NA 
HETATM   16  N   UNL     1      -9.219   7.846  72.302  1.00  0.00    -0.150 NA 
HETATM   17  C   UNL     1     -10.338   8.458  71.880  1.00  0.00    -0.283 A  
HETATM   18  C   UNL     1      -8.685   9.370  70.712  1.00  0.00    -0.157 A  
HETATM   19  O   UNL     1      -6.774  10.116  69.591  1.00  0.00    -0.055 OA 
HETATM   20  C   UNL     1      -6.861   8.019  71.807  1.00  0.00    -0.067 C  
HETATM   21  C   UNL     1     -10.034   9.416  70.897  1.00  0.00    -0.283 A  
HETATM   22  N   UNL     1      -8.227   8.426  71.580  1.00  0.00    -0.139 NA 
BRANCH  17  23
HETATM   23  C   UNL     1     -11.657   8.073  72.460  1.00  0.00    -0.464 C  
BRANCH  23  24
HETATM   24  C   UNL     1     -12.559   7.291  71.502  1.00  0.00    -0.415 C  
HETATM   25  C   UNL     1     -11.796   6.558  70.406  1.00  0.00    -0.378 C  
ENDBRANCH  23  24
ENDBRANCH  17  23
ENDBRANCH   6  11
BRANCH   9  26
HETATM   26  S   UNL     1     -11.160  13.372  64.651  1.00  0.00    -0.385 S  
HETATM   27  O   UNL     1     -12.431  13.730  64.066  1.00  0.00    -0.674 OA 
HETATM   28  O   UNL     1     -10.388  12.233  64.212  1.00  0.00    -0.309 OA 
BRANCH  26  29
HETATM   29  N   UNL     1     -10.177  14.768  64.550  1.00  0.00    -0.376 N  
HETATM   30  H   UNL     1      -9.512  14.901  63.788  1.00  0.00     0.000 HD 
BRANCH  29  31
HETATM   31  C   UNL     1     -10.340  15.772  65.621  1.00  0.00    -0.388 C  
BRANCH  31  32
HETATM   32  C   UNL     1      -9.020  16.091  66.315  1.00  0.00    -0.380 C  
BRANCH  32  33
HETATM   33  C   UNL     1      -9.061  17.517  66.898  1.00  0.00    -0.254 C  
HETATM   34  C   UNL     1     -10.385  18.230  66.631  1.00  0.00    -0.400 C  
HETATM   35  C   UNL     1     -10.422  19.285  67.711  1.00  0.00    -0.539 C  
HETATM   36  C   UNL     1      -7.559  17.640  68.816  1.00  0.00    -0.253 C  
HETATM   37  N   UNL     1      -8.942  17.513  68.366  1.00  0.00    -0.270 NA 
HETATM   38  C   UNL     1      -9.788  18.591  68.904  1.00  0.00    -0.341 C  
ENDBRANCH  32  33
ENDBRANCH  31  32
ENDBRANCH  29  31
ENDBRANCH  26  29
ENDBRANCH   9  26
ENDBRANCH   4   5
ENDBRANCH   3   4
ENDBRANCH   2   3
TORSDOF 11
ENDMDL
MODEL       62
REMARK 921   NORMALIZED FREE ENERGY PREDICTED BY IDOCK:   -5.73 KCAL/MOL
REMARK 922        TOTAL FREE ENERGY PREDICTED BY IDOCK:  -11.65 KCAL/MOL
REMARK 923 INTER-LIGAND FREE ENERGY PREDICTED BY IDOCK:   -9.96 KCAL/MOL
REMARK 924 INTRA-LIGAND FREE ENERGY PREDICTED BY IDOCK:   -1.70 KCAL/MOL
REMARK 927      BINDING AFFINITY PREDICTED BY RF-SCORE:    0.00 PKD
ROOT
HETATM    1  C   UNL     1     -11.486   6.229  70.850  1.00  0.00    -0.377 C  
HETATM    2  C   UNL     1     -11.834   7.032  72.089  1.00  0.00    -0.314 C  
ENDROOT
BRANCH   2   3
HETATM    3  C   UNL     1     -11.557   8.517  71.917  1.00  0.00    -0.341 C  
BRANCH   3   4
HETATM    4  O   UNL     1     -12.271   9.078  70.800  1.00  0.00    -0.215 OA 
BRANCH   4   5
HETATM    5  C   UNL     1     -12.407  10.454  70.837  1.00  0.00    -0.381 A  
HETATM    6  C   UNL     1     -11.687  11.262  69.923  1.00  0.00    -0.430 A  
HETATM    7  C   UNL     1     -11.783  12.671  70.019  1.00  0.00    -0.289 A  
HETATM    8  C   UNL     1     -13.220  11.077  71.794  1.00  0.00    -0.505 A  
HETATM    9  C   UNL     1     -12.566  13.257  71.023  1.00  0.00    -0.324 A  
HETATM   10  C   UNL     1     -13.265  12.455  71.911  1.00  0.00    -0.486 A  
BRANCH   6  11
HETATM   11  C   UNL     1     -10.787  10.678  68.849  1.00  0.00    -0.231 C  
HETATM   12  C   UNL     1     -10.434   8.978  67.269  1.00  0.00    -0.273 C  
HETATM   13  N   UNL     1     -11.182   9.569  68.276  1.00  0.00    -0.505 N  
HETATM   14  H   UNL     1     -12.054   9.133  68.574  1.00  0.00     0.000 HD 
HETATM   15  N   UNL     1      -9.607  11.347  68.559  1.00  0.00    -0.190 NA 
HETATM   16  N   UNL     1      -7.307  10.389  65.991  1.00  0.00    -0.128 NA 
HETATM   17  C   UNL     1      -7.647  11.240  66.974  1.00  0.00    -0.143 A  
HETATM   18  C   UNL     1      -9.247   9.701  66.938  1.00  0.00    -0.143 A  
HETATM   19  O   UNL     1     -10.757   7.931  66.718  1.00  0.00    -0.304 OA 
HETATM   20  C   UNL     1      -8.269   8.400  65.014  1.00  0.00    -0.153 C  
HETATM   21  C   UNL     1      -8.854  10.841  67.573  1.00  0.00    -0.128 A  
HETATM   22  N   UNL     1      -8.302   9.467  65.986  1.00  0.00    -0.117 NA 
BRANCH  17  23
HETATM   23  C   UNL     1      -6.771  12.407  67.280  1.00  0.00    -0.133 C  
BRANCH  23  24
HETATM   24  C   UNL     1      -7.518  13.738  67.397  1.00  0.00    -0.142 C  
HETATM   25  C   UNL     1      -7.384  14.396  68.765  1.00  0.00    -0.131 C  
ENDBRANCH  23  24
ENDBRANCH  17  23
ENDBRANCH   6  11
BRANCH   9  26
HETATM   26  S   UNL     1     -12.633  15.020  71.253  1.00  0.00    -0.377 S  
HETATM   27  O   UNL     1     -12.653  15.266  72.675  1.00  0.00    -0.328 OA 
HETATM   28  O   UNL     1     -13.647  15.524  70.356  1.00  0.00    -0.228 OA 
BRANCH  26  29
HETATM   29  N   UNL     1     -11.103  15.547  70.697  1.00  0.00    -0.331 N  
HETATM   30  H   UNL     1     -10.256  15.404  71.246  1.00  0.00     0.000 HD 
BRANCH  29  31
HETATM   31  C   UNL     1     -11.072  16.218  69.381  1.00  0.00    -0.328 C  
BRANCH  31  32
HETATM   32  C   UNL     1     -10.490  17.625  69.468  1.00  0.00     0.193 C  
BRANCH  32  33
HETATM   33  C   UNL     1      -9.946  18.057  68.093  1.00  0.00    -0.353 C  
HETATM   34  C   UNL     1     -10.959  18.859  67.278  1.00  0.00    -0.314 C  
HETATM   35  C   UNL     1     -10.085  19.622  66.311  1.00  0.00    -0.578 C  
HETATM   36  C   UNL     1      -7.517  18.243  68.216  1.00  0.00    -0.279 C  
HETATM   37  N   UNL     1      -8.788  18.960  68.219  1.00  0.00    -0.321 NA 
HETATM   38  C   UNL     1      -8.853  19.954  67.135  1.00  0.00    -0.330 C  
ENDBRANCH  32  33
ENDBRANCH  31  32
ENDBRANCH  29  31
ENDBRANCH  26  29
ENDBRANCH   9  26
ENDBRANCH   4   5
ENDBRANCH   3   4
ENDBRANCH   2   3
TORSDOF 11
ENDMDL
MODEL       63
REMARK 921   NORMALIZED FREE ENERGY PREDICTED BY IDOCK:   -5.72 KCAL/MOL
REMARK 922        TOTAL FREE ENERGY PREDICTED BY IDOCK:  -11.64 KCAL/MOL
REMARK 923 INTER-LIGAND FREE ENERGY PREDICTED BY IDOCK:   -8.97 KCAL/MOL
REMARK 924 INTRA-LIGAND FREE ENERGY PREDICTED BY IDOCK:   -2.67 KCAL/MOL
REMARK 927      BINDING AFFINITY PREDICTED BY RF-SCORE:    0.00 PKD
ROOT
HETATM    1  C   UNL     1      -7.103  13.029  67.899  1.00  0.00    -0.128 C  
HETATM    2  C   UNL     1      -6.454  12.864  69.260  1.00  0.00    -0.104 C  
ENDROOT
BRANCH   2   3
HETATM    3  C   UNL     1      -6.405  11.412  69.708  1.00  0.00    -0.139 C  
BRANCH   3   4
HETATM    4  O   UNL     1      -7.318  10.582  68.967  1.00  0.00    -0.084 OA 
BRANCH   4   5
HETATM    5  C   UNL     1      -8.229   9.892  69.746  1.00  0.00    -0.180 A  
HETATM    6  C   UNL     1      -9.619  10.090  69.553  1.00  0.00    -0.249 A  
HETATM    7  C   UNL     1     -10.538   9.430  70.405  1.00  0.00    -0.316 A  
HETATM    8  C   UNL     1      -7.806   9.021  70.759  1.00  0.00    -0.156 A  
HETATM    9  C   UNL     1     -10.072   8.607  71.439  1.00  0.00    -0.254 A  
HETATM   10  C   UNL     1      -8.711   8.422  71.617  1.00  0.00    -0.240 A  
BRANCH   6  11
HETATM   11  C   UNL     1     -10.172  11.009  68.479  1.00  0.00    -0.192 C  
HETATM   12  C   UNL     1     -10.710  11.311  66.214  1.00  0.00    -0.257 C  
HETATM   13  N   UNL     1     -10.200  10.549  67.254  1.00  0.00    -0.204 N  
HETATM   14  H   UNL     1      -9.840   9.614  67.061  1.00  0.00     0.000 HD 
HETATM   15  N   UNL     1     -10.596  12.273  68.864  1.00  0.00    -0.182 NA 
HETATM   16  N   UNL     1     -12.109  14.663  66.672  1.00  0.00    -0.295 NA 
HETATM   17  C   UNL     1     -11.692  14.334  67.906  1.00  0.00    -0.359 A  
HETATM   18  C   UNL     1     -11.195  12.590  66.626  1.00  0.00    -0.307 A  
HETATM   19  O   UNL     1     -10.739  10.925  65.050  1.00  0.00    -0.249 OA 
HETATM   20  C   UNL     1     -12.144  13.580  64.512  1.00  0.00    -0.416 C  
HETATM   21  C   UNL     1     -11.128  13.046  67.908  1.00  0.00    -0.255 A  
HETATM   22  N   UNL     1     -11.801  13.579  65.914  1.00  0.00    -0.353 NA 
BRANCH  17  23
HETATM   23  C   UNL     1     -11.866  15.300  69.029  1.00  0.00    -0.342 C  
BRANCH  23  24
HETATM   24  C   UNL     1     -12.849  14.837  70.107  1.00  0.00    -0.191 C  
HETATM   25  C   UNL     1     -12.176  14.410  71.405  1.00  0.00    -0.424 C  
ENDBRANCH  23  24
ENDBRANCH  17  23
ENDBRANCH   6  11
BRANCH   9  26
HETATM   26  S   UNL     1     -11.182   7.843  72.602  1.00  0.00    -0.398 S  
HETATM   27  O   UNL     1     -12.419   8.587  72.565  1.00  0.00    -0.383 OA 
HETATM   28  O   UNL     1     -10.434   7.627  73.819  1.00  0.00    -0.259 OA 
BRANCH  26  29
HETATM   29  N   UNL     1     -11.515   6.325  71.889  1.00  0.00    -0.296 N  
HETATM   30  H   UNL     1     -11.751   5.508  72.453  1.00  0.00     0.000 HD 
BRANCH  29  31
HETATM   31  C   UNL     1     -11.444   6.255  70.415  1.00  0.00    -0.344 C  
BRANCH  31  32
HETATM   32  C   UNL     1     -10.503   5.155  69.936  1.00  0.00    -0.296 C  
BRANCH  32  33
HETATM   33  C   UNL     1     -10.021   5.458  68.504  1.00  0.00    -0.164 C  
HETATM   34  C   UNL     1     -10.978   6.367  67.736  1.00  0.00    -0.425 C  
HETATM   35  C   UNL     1     -10.091   6.964  66.669  1.00  0.00    -0.211 C  
HETATM   36  C   UNL     1      -7.589   5.300  68.428  1.00  0.00    -0.080 C  
HETATM   37  N   UNL     1      -8.743   6.190  68.498  1.00  0.00    -0.112 NA 
HETATM   38  C   UNL     1      -8.761   7.146  67.378  1.00  0.00    -0.120 C  
ENDBRANCH  32  33
ENDBRANCH  31  32
ENDBRANCH  29  31
ENDBRANCH  26  29
ENDBRANCH   9  26
ENDBRANCH   4   5
ENDBRANCH   3   4
ENDBRANCH   2   3
TORSDOF 11
ENDMDL
MODEL       64
REMARK 921   NORMALIZED FREE ENERGY PREDICTED BY IDOCK:   -5.70 KCAL/MOL
REMARK 922        TOTAL FREE ENERGY PREDICTED BY IDOCK:  -11.59 KCAL/MOL
REMARK 923 INTER-LIGAND FREE ENERGY PREDICTED BY IDOCK:  -10.39 KCAL/MOL
REMARK 924 INTRA-LIGAND FREE ENERGY PREDICTED BY IDOCK:   -1.21 KCAL/MOL
REMARK 927      BINDING AFFINITY PREDICTED BY RF-SCORE:    0.00 PKD
ROOT
HETATM    1  C   UNL     1     -10.901  15.401  64.846  1.00  0.00    -0.445 C  
HETATM    2  C   UNL     1     -11.851  14.238  64.633  1.00  0.00    -0.459 C  
ENDROOT
BRANCH   2   3
HETATM    3  C   UNL     1     -12.482  13.757  65.930  1.00  0.00    -0.468 C  
BRANCH   3   4
HETATM    4  O   UNL     1     -11.591  13.893  67.052  1.00  0.00    -0.331 OA 
BRANCH   4   5
HETATM    5  C   UNL     1     -10.972  12.719  67.440  1.00  0.00    -0.253 A  
HETATM    6  C   UNL     1      -9.701  12.760  68.064  1.00  0.00    -0.220 A  
HETATM    7  C   UNL     1      -9.050  11.546  68.393  1.00  0.00    -0.185 A  
HETATM    8  C   UNL     1     -11.562  11.472  67.193  1.00  0.00    -0.249 A  
HETATM    9  C   UNL     1      -9.651  10.319  68.083  1.00  0.00    -0.140 A  
HETATM   10  C   UNL     1     -10.895  10.292  67.471  1.00  0.00    -0.355 A  
BRANCH   6  11
HETATM   11  C   UNL     1      -8.986  14.062  68.377  1.00  0.00    -0.189 C  
HETATM   12  C   UNL     1      -7.035  15.115  69.149  1.00  0.00    -0.147 C  
HETATM   13  N   UNL     1      -7.771  13.977  68.856  1.00  0.00    -0.254 N  
HETATM   14  H   UNL     1      -7.359  13.058  69.018  1.00  0.00     0.000 HD 
HETATM   15  N   UNL     1      -9.669  15.248  68.148  1.00  0.00    -0.210 NA 
HETATM   16  N   UNL     1      -8.279  18.514  68.598  1.00  0.00    -0.326 NA 
HETATM   17  C   UNL     1      -9.321  17.745  68.239  1.00  0.00    -0.288 A  
HETATM   18  C   UNL     1      -7.724  16.332  68.859  1.00  0.00    -0.219 A  
HETATM   19  O   UNL     1      -5.901  15.081  69.615  1.00  0.00    -0.100 OA 
HETATM   20  C   UNL     1      -6.029  18.121  69.386  1.00  0.00    -0.242 C  
HETATM   21  C   UNL     1      -9.000  16.384  68.383  1.00  0.00    -0.214 A  
HETATM   22  N   UNL     1      -7.318  17.627  68.964  1.00  0.00    -0.233 NA 
BRANCH  17  23
HETATM   23  C   UNL     1     -10.585  18.382  67.770  1.00  0.00    -0.419 C  
BRANCH  23  24
HETATM   24  C   UNL     1     -10.390  19.747  67.106  1.00  0.00    -0.589 C  
HETATM   25  C   UNL     1     -10.644  19.738  65.604  1.00  0.00    -0.456 C  
ENDBRANCH  23  24
ENDBRANCH  17  23
ENDBRANCH   6  11
BRANCH   9  26
HETATM   26  S   UNL     1      -8.826   8.769  68.376  1.00  0.00    -0.138 S  
HETATM   27  O   UNL     1      -7.791   9.014  69.352  1.00  0.00    -0.089 OA 
HETATM   28  O   UNL     1      -8.562   8.182  67.083  1.00  0.00    -0.121 OA 
BRANCH  26  29
HETATM   29  N   UNL     1     -10.019   7.832  69.167  1.00  0.00    -0.178 N  
HETATM   30  H   UNL     1     -10.855   7.509  68.680  1.00  0.00     0.000 HD 
BRANCH  29  31
HETATM   31  C   UNL     1      -9.777   7.515  70.589  1.00  0.00    -0.175 C  
BRANCH  31  32
HETATM   32  C   UNL     1     -10.607   8.389  71.522  1.00  0.00    -0.307 C  
BRANCH  32  33
HETATM   33  C   UNL     1     -12.100   8.285  71.155  1.00  0.00    -0.252 C  
HETATM   34  C   UNL     1     -12.742   6.987  71.640  1.00  0.00    -0.417 C  
HETATM   35  C   UNL     1     -14.210   7.338  71.694  1.00  0.00    -0.558 C  
HETATM   36  C   UNL     1     -13.032  10.530  70.954  1.00  0.00    -0.367 C  
HETATM   37  N   UNL     1     -12.897   9.345  71.795  1.00  0.00    -0.368 NA 
HETATM   38  C   UNL     1     -14.210   8.785  72.156  1.00  0.00    -0.426 C  
ENDBRANCH  32  33
ENDBRANCH  31  32
ENDBRANCH  29  31
ENDBRANCH  26  29
ENDBRANCH   9  26
ENDBRANCH   4   5
ENDBRANCH   3   4
ENDBRANCH   2   3
TORSDOF 11
ENDMDL
MODEL       65
REMARK 921   NORMALIZED FREE ENERGY PREDICTED BY IDOCK:   -5.65 KCAL/MOL
REMARK 922        TOTAL FREE ENERGY PREDICTED BY IDOCK:  -11.52 KCAL/MOL
REMARK 923 INTER-LIGAND FREE ENERGY PREDICTED BY IDOCK:   -9.15 KCAL/MOL
REMARK 924 INTRA-LIGAND FREE ENERGY PREDICTED BY IDOCK:   -2.38 KCAL/MOL
REMARK 927      BINDING AFFINITY PREDICTED BY RF-SCORE:    0.00 PKD
ROOT
HETATM    1  C   UNL     1     -10.109   6.381  72.507  1.00  0.00    -0.191 C  
HETATM    2  C   UNL     1     -10.534   7.759  72.034  1.00  0.00    -0.277 C  
ENDROOT
BRANCH   2   3
HETATM    3  C   UNL     1     -12.030   7.987  72.178  1.00  0.00    -0.348 C  
BRANCH   3   4
HETATM    4  O   UNL     1     -12.598   8.624  71.020  1.00  0.00    -0.204 OA 
BRANCH   4   5
HETATM    5  C   UNL     1     -12.662  10.004  71.096  1.00  0.00    -0.387 A  
HETATM    6  C   UNL     1     -11.766  10.797  70.338  1.00  0.00    -0.445 A  
HETATM    7  C   UNL     1     -11.797  12.206  70.480  1.00  0.00    -0.185 A  
HETATM    8  C   UNL     1     -13.577  10.642  71.945  1.00  0.00    -0.200 A  
HETATM    9  C   UNL     1     -12.693  12.803  71.378  1.00  0.00    -0.255 A  
HETATM   10  C   UNL     1     -13.564  12.016  72.114  1.00  0.00    -0.236 A  
BRANCH   6  11
HETATM   11  C   UNL     1     -10.745  10.197  69.389  1.00  0.00    -0.238 C  
HETATM   12  C   UNL     1     -10.316   8.716  67.619  1.00  0.00    -0.254 C  
HETATM   13  N   UNL     1     -11.174   9.299  68.538  1.00  0.00    -0.450 N  
HETATM   14  H   UNL     1     -12.156   9.025  68.551  1.00  0.00     0.000 HD 
HETATM   15  N   UNL     1      -9.430  10.626  69.496  1.00  0.00    -0.090 NA 
HETATM   16  N   UNL     1      -6.769   9.581  67.345  1.00  0.00    -0.071 NA 
HETATM   17  C   UNL     1      -7.188  10.330  68.379  1.00  0.00    -0.080 A  
HETATM   18  C   UNL     1      -8.975   9.202  67.699  1.00  0.00    -0.123 A  
HETATM   19  O   UNL     1     -10.672   7.859  66.817  1.00  0.00    -0.304 OA 
HETATM   20  C   UNL     1      -7.794   8.020  65.813  1.00  0.00    -0.097 C  
HETATM   21  C   UNL     1      -8.558  10.120  68.615  1.00  0.00    -0.123 A  
HETATM   22  N   UNL     1      -7.880   8.910  66.945  1.00  0.00    -0.101 NA 
BRANCH  17  23
HETATM   23  C   UNL     1      -6.223  11.217  69.090  1.00  0.00    -0.058 C  
BRANCH  23  24
HETATM   24  C   UNL     1      -6.621  12.695  69.099  1.00  0.00    -0.099 C  
HETATM   25  C   UNL     1      -6.597  13.343  67.720  1.00  0.00    -0.168 C  
ENDBRANCH  23  24
ENDBRANCH  17  23
ENDBRANCH   6  11
BRANCH   9  26
HETATM   26  S   UNL     1     -12.696  14.558  71.672  1.00  0.00    -0.362 S  
HETATM   27  O   UNL     1     -12.566  14.754  73.096  1.00  0.00    -0.418 OA 
HETATM   28  O   UNL     1     -13.784  15.112  70.900  1.00  0.00    -0.382 OA 
BRANCH  26  29
HETATM   29  N   UNL     1     -11.219  15.076  70.980  1.00  0.00    -0.507 N  
HETATM   30  H   UNL     1     -10.319  14.799  71.372  1.00  0.00     0.000 HD 
BRANCH  29  31
HETATM   31  C   UNL     1     -11.314  15.942  69.787  1.00  0.00    -0.347 C  
BRANCH  31  32
HETATM   32  C   UNL     1     -11.831  15.186  68.568  1.00  0.00    -0.307 C  
BRANCH  32  33
HETATM   33  C   UNL     1     -10.662  14.837  67.627  1.00  0.00    -0.270 C  
HETATM   34  C   UNL     1     -10.581  13.346  67.307  1.00  0.00    -0.256 C  
HETATM   35  C   UNL     1      -9.805  13.321  66.012  1.00  0.00    -0.271 C  
HETATM   36  C   UNL     1     -10.139  16.779  66.247  1.00  0.00    -0.326 C  
HETATM   37  N   UNL     1     -10.806  15.482  66.311  1.00  0.00    -0.307 NA 
HETATM   38  C   UNL     1     -10.296  14.559  65.283  1.00  0.00    -0.410 C  
ENDBRANCH  32  33
ENDBRANCH  31  32
ENDBRANCH  29  31
ENDBRANCH  26  29
ENDBRANCH   9  26
ENDBRANCH   4   5
ENDBRANCH   3   4
ENDBRANCH   2   3
TORSDOF 11
ENDMDL
MODEL       66
REMARK 921   NORMALIZED FREE ENERGY PREDICTED BY IDOCK:   -5.65 KCAL/MOL
REMARK 922        TOTAL FREE ENERGY PREDICTED BY IDOCK:  -11.52 KCAL/MOL
REMARK 923 INTER-LIGAND FREE ENERGY PREDICTED BY IDOCK:   -9.62 KCAL/MOL
REMARK 924 INTRA-LIGAND FREE ENERGY PREDICTED BY IDOCK:   -1.89 KCAL/MOL
REMARK 927      BINDING AFFINITY PREDICTED BY RF-SCORE:    0.00 PKD
ROOT
HETATM    1  C   UNL     1      -8.054   5.083  67.269  1.00  0.00    -0.107 C  
HETATM    2  C   UNL     1      -8.770   5.436  65.979  1.00  0.00    -0.137 C  
ENDROOT
BRANCH   2   3
HETATM    3  C   UNL     1      -8.601   6.899  65.603  1.00  0.00    -0.110 C  
BRANCH   3   4
HETATM    4  O   UNL     1      -8.817   7.778  66.723  1.00  0.00    -0.128 OA 
BRANCH   4   5
HETATM    5  C   UNL     1      -9.368   9.003  66.394  1.00  0.00    -0.206 A  
HETATM    6  C   UNL     1     -10.201   9.677  67.321  1.00  0.00    -0.292 A  
HETATM    7  C   UNL     1     -10.814  10.896  66.944  1.00  0.00    -0.307 A  
HETATM    8  C   UNL     1      -9.152   9.582  65.136  1.00  0.00    -0.281 A  
HETATM    9  C   UNL     1     -10.613  11.417  65.658  1.00  0.00    -0.258 A  
HETATM   10  C   UNL     1      -9.797  10.748  64.760  1.00  0.00    -0.358 A  
BRANCH   6  11
HETATM   11  C   UNL     1     -10.489   9.131  68.708  1.00  0.00    -0.212 C  
HETATM   12  C   UNL     1     -10.003   7.517  70.343  1.00  0.00    -0.184 C  
HETATM   13  N   UNL     1      -9.820   8.070  69.084  1.00  0.00    -0.174 N  
HETATM   14  H   UNL     1      -9.154   7.643  68.441  1.00  0.00     0.000 HD 
HETATM   15  N   UNL     1     -11.446   9.780  69.474  1.00  0.00    -0.083 NA 
HETATM   16  N   UNL     1     -12.291   8.907  72.840  1.00  0.00    -0.088 NA 
HETATM   17  C   UNL     1     -12.475   9.708  71.776  1.00  0.00    -0.402 A  
HETATM   18  C   UNL     1     -10.950   8.223  71.146  1.00  0.00    -0.245 A  
HETATM   19  O   UNL     1      -9.410   6.515  70.728  1.00  0.00    -0.157 OA 
HETATM   20  C   UNL     1     -10.887   7.009  73.353  1.00  0.00    -0.299 C  
HETATM   21  C   UNL     1     -11.647   9.311  70.712  1.00  0.00    -0.285 A  
HETATM   22  N   UNL     1     -11.351   8.017  72.430  1.00  0.00    -0.354 NA 
BRANCH  17  23
HETATM   23  C   UNL     1     -13.456  10.829  71.854  1.00  0.00    -0.327 C  
BRANCH  23  24
HETATM   24  C   UNL     1     -12.851  12.210  71.593  1.00  0.00    -0.390 C  
HETATM   25  C   UNL     1     -13.664  13.355  72.184  1.00  0.00    -0.646 C  
ENDBRANCH  23  24
ENDBRANCH  17  23
ENDBRANCH   6  11
BRANCH   9  26
HETATM   26  S   UNL     1     -11.447  12.887  65.100  1.00  0.00    -0.327 S  
HETATM   27  O   UNL     1     -12.865  12.620  65.150  1.00  0.00    -0.721 OA 
HETATM   28  O   UNL     1     -10.773  13.323  63.899  1.00  0.00    -0.318 OA 
BRANCH  26  29
HETATM   29  N   UNL     1     -11.128  14.016  66.345  1.00  0.00    -0.312 N  
HETATM   30  H   UNL     1     -11.865  14.350  66.966  1.00  0.00     0.000 HD 
BRANCH  29  31
HETATM   31  C   UNL     1      -9.732  14.482  66.474  1.00  0.00    -0.285 C  
BRANCH  31  32
HETATM   32  C   UNL     1      -9.171  14.236  67.871  1.00  0.00    -0.194 C  
BRANCH  32  33
HETATM   33  C   UNL     1      -9.097  15.562  68.652  1.00  0.00    -0.202 C  
HETATM   34  C   UNL     1      -8.640  16.735  67.789  1.00  0.00    -0.199 C  
HETATM   35  C   UNL     1      -9.172  17.933  68.539  1.00  0.00    -0.288 C  
HETATM   36  C   UNL     1     -10.681  15.487  70.506  1.00  0.00    -0.284 C  
HETATM   37  N   UNL     1     -10.418  15.976  69.156  1.00  0.00    -0.232 NA 
HETATM   38  C   UNL     1     -10.502  17.445  69.085  1.00  0.00    -0.231 C  
ENDBRANCH  32  33
ENDBRANCH  31  32
ENDBRANCH  29  31
ENDBRANCH  26  29
ENDBRANCH   9  26
ENDBRANCH   4   5
ENDBRANCH   3   4
ENDBRANCH   2   3
TORSDOF 11
ENDMDL
MODEL       67
REMARK 921   NORMALIZED FREE ENERGY PREDICTED BY IDOCK:   -5.64 KCAL/MOL
REMARK 922        TOTAL FREE ENERGY PREDICTED BY IDOCK:  -11.51 KCAL/MOL
REMARK 923 INTER-LIGAND FREE ENERGY PREDICTED BY IDOCK:   -9.06 KCAL/MOL
REMARK 924 INTRA-LIGAND FREE ENERGY PREDICTED BY IDOCK:   -2.45 KCAL/MOL
REMARK 927      BINDING AFFINITY PREDICTED BY RF-SCORE:    0.00 PKD
ROOT
HETATM    1  C   UNL     1     -10.105  15.400  66.505  1.00  0.00    -0.282 C  
HETATM    2  C   UNL     1     -10.684  15.951  67.795  1.00  0.00    -0.320 C  
ENDROOT
BRANCH   2   3
HETATM    3  C   UNL     1     -10.958  14.862  68.820  1.00  0.00    -0.253 C  
BRANCH   3   4
HETATM    4  O   UNL     1     -11.603  13.715  68.236  1.00  0.00    -0.295 OA 
BRANCH   4   5
HETATM    5  C   UNL     1     -11.720  12.628  69.084  1.00  0.00    -0.321 A  
HETATM    6  C   UNL     1     -11.342  11.338  68.638  1.00  0.00    -0.336 A  
HETATM    7  C   UNL     1     -11.533  10.225  69.494  1.00  0.00    -0.273 A  
HETATM    8  C   UNL     1     -12.246  12.769  70.376  1.00  0.00    -0.371 A  
HETATM    9  C   UNL     1     -12.110  10.401  70.759  1.00  0.00    -0.364 A  
HETATM   10  C   UNL     1     -12.476  11.668  71.183  1.00  0.00    -0.412 A  
BRANCH   6  11
HETATM   11  C   UNL     1     -10.758  11.088  67.259  1.00  0.00    -0.265 C  
HETATM   12  C   UNL     1     -10.904  11.470  64.948  1.00  0.00    -0.283 C  
HETATM   13  N   UNL     1     -11.380  11.627  66.241  1.00  0.00    -0.287 N  
HETATM   14  H   UNL     1     -12.227  12.171  66.401  1.00  0.00     0.000 HD 
HETATM   15  N   UNL     1      -9.621  10.299  67.171  1.00  0.00    -0.165 NA 
HETATM   16  N   UNL     1      -7.855   9.615  64.135  1.00  0.00    -0.123 NA 
HETATM   17  C   UNL     1      -7.961   9.461  65.466  1.00  0.00    -0.111 A  
HETATM   18  C   UNL     1      -9.702  10.702  64.869  1.00  0.00    -0.284 A  
HETATM   19  O   UNL     1     -11.464  11.942  63.964  1.00  0.00    -0.367 OA 
HETATM   20  C   UNL     1      -9.106  10.769  62.421  1.00  0.00    -0.292 C  
HETATM   21  C   UNL     1      -9.096  10.135  65.949  1.00  0.00    -0.156 A  
HETATM   22  N   UNL     1      -8.924  10.381  63.799  1.00  0.00    -0.209 NA 
BRANCH  17  23
HETATM   23  C   UNL     1      -6.941   8.660  66.203  1.00  0.00    -0.080 C  
BRANCH  23  24
HETATM   24  C   UNL     1      -5.904   9.501  66.951  1.00  0.00    -0.055 C  
HETATM   25  C   UNL     1      -5.453   8.884  68.269  1.00  0.00    -0.038 C  
ENDBRANCH  23  24
ENDBRANCH  17  23
ENDBRANCH   6  11
BRANCH   9  26
HETATM   26  S   UNL     1     -12.469   9.022  71.825  1.00  0.00    -0.396 S  
HETATM   27  O   UNL     1     -13.735   9.294  72.464  1.00  0.00    -0.467 OA 
HETATM   28  O   UNL     1     -11.263   8.737  72.566  1.00  0.00    -0.275 OA 
BRANCH  26  29
HETATM   29  N   UNL     1     -12.752   7.740  70.729  1.00  0.00    -0.519 N  
HETATM   30  H   UNL     1     -13.617   7.676  70.192  1.00  0.00     0.000 HD 
BRANCH  29  31
HETATM   31  C   UNL     1     -11.681   6.732  70.598  1.00  0.00    -0.386 C  
BRANCH  31  32
HETATM   32  C   UNL     1     -11.334   6.447  69.141  1.00  0.00    -0.366 C  
BRANCH  32  33
HETATM   33  C   UNL     1      -9.870   5.982  69.027  1.00  0.00    -0.148 C  
HETATM   34  C   UNL     1      -8.868   7.118  69.221  1.00  0.00    -0.136 C  
HETATM   35  C   UNL     1      -7.609   6.391  69.631  1.00  0.00    -0.094 C  
HETATM   36  C   UNL     1      -9.728   3.628  69.652  1.00  0.00    -0.070 C  
HETATM   37  N   UNL     1      -9.520   5.009  70.077  1.00  0.00    -0.152 NA 
HETATM   38  C   UNL     1      -8.126   5.247  70.485  1.00  0.00    -0.104 C  
ENDBRANCH  32  33
ENDBRANCH  31  32
ENDBRANCH  29  31
ENDBRANCH  26  29
ENDBRANCH   9  26
ENDBRANCH   4   5
ENDBRANCH   3   4
ENDBRANCH   2   3
TORSDOF 11
ENDMDL
MODEL       68
REMARK 921   NORMALIZED FREE ENERGY PREDICTED BY IDOCK:   -5.63 KCAL/MOL
REMARK 922        TOTAL FREE ENERGY PREDICTED BY IDOCK:  -11.49 KCAL/MOL
REMARK 923 INTER-LIGAND FREE ENERGY PREDICTED BY IDOCK:   -8.60 KCAL/MOL
REMARK 924 INTRA-LIGAND FREE ENERGY PREDICTED BY IDOCK:   -2.89 KCAL/MOL
REMARK 927      BINDING AFFINITY PREDICTED BY RF-SCORE:    0.00 PKD
ROOT
HETATM    1  C   UNL     1      -6.400  11.636  66.716  1.00  0.00    -0.114 C  
HETATM    2  C   UNL     1      -5.825  10.537  67.590  1.00  0.00    -0.044 C  
ENDROOT
BRANCH   2   3
HETATM    3  C   UNL     1      -6.483  10.478  68.958  1.00  0.00    -0.054 C  
BRANCH   3   4
HETATM    4  O   UNL     1      -7.788  11.087  68.962  1.00  0.00    -0.138 OA 
BRANCH   4   5
HETATM    5  C   UNL     1      -8.763  10.354  69.615  1.00  0.00    -0.035 A  
HETATM    6  C   UNL     1     -10.117  10.459  69.212  1.00  0.00    -0.248 A  
HETATM    7  C   UNL     1     -11.111   9.757  69.935  1.00  0.00    -0.293 A  
HETATM    8  C   UNL     1      -8.444   9.531  70.704  1.00  0.00    -0.166 A  
HETATM    9  C   UNL     1     -10.758   8.984  71.050  1.00  0.00    -0.269 A  
HETATM   10  C   UNL     1      -9.429   8.890  71.434  1.00  0.00    -0.344 A  
BRANCH   6  11
HETATM   11  C   UNL     1     -10.557  11.321  68.043  1.00  0.00    -0.195 C  
HETATM   12  C   UNL     1     -11.593  13.300  67.320  1.00  0.00    -0.359 C  
HETATM   13  N   UNL     1     -11.176  12.440  68.325  1.00  0.00    -0.242 N  
HETATM   14  H   UNL     1     -11.354  12.683  69.299  1.00  0.00     0.000 HD 
HETATM   15  N   UNL     1     -10.289  10.861  66.762  1.00  0.00    -0.232 NA 
HETATM   16  N   UNL     1     -11.014  12.669  63.761  1.00  0.00    -0.425 NA 
HETATM   17  C   UNL     1     -10.507  11.575  64.352  1.00  0.00    -0.325 A  
HETATM   18  C   UNL     1     -11.266  12.846  66.006  1.00  0.00    -0.293 A  
HETATM   19  O   UNL     1     -12.191  14.348  67.539  1.00  0.00    -0.342 OA 
HETATM   20  C   UNL     1     -12.053  14.717  64.512  1.00  0.00    -0.475 C  
HETATM   21  C   UNL     1     -10.642  11.663  65.748  1.00  0.00    -0.271 A  
HETATM   22  N   UNL     1     -11.463  13.430  64.792  1.00  0.00    -0.324 NA 
BRANCH  17  23
HETATM   23  C   UNL     1      -9.911  10.491  63.518  1.00  0.00    -0.278 C  
BRANCH  23  24
HETATM   24  C   UNL     1      -8.386  10.548  63.412  1.00  0.00    -0.123 C  
HETATM   25  C   UNL     1      -7.684   9.343  64.026  1.00  0.00    -0.121 C  
ENDBRANCH  23  24
ENDBRANCH  17  23
ENDBRANCH   6  11
BRANCH   9  26
HETATM   26  S   UNL     1     -11.981   8.172  72.055  1.00  0.00    -0.363 S  
HETATM   27  O   UNL     1     -13.266   8.722  71.693  1.00  0.00    -0.336 OA 
HETATM   28  O   UNL     1     -11.481   8.173  73.410  1.00  0.00    -0.056 OA 
BRANCH  26  29
HETATM   29  N   UNL     1     -11.966   6.564  71.470  1.00  0.00    -0.337 N  
HETATM   30  H   UNL     1     -12.109   5.768  72.090  1.00  0.00     0.000 HD 
BRANCH  29  31
HETATM   31  C   UNL     1     -11.738   6.389  70.021  1.00  0.00    -0.275 C  
BRANCH  31  32
HETATM   32  C   UNL     1     -10.517   5.522  69.733  1.00  0.00    -0.389 C  
BRANCH  32  33
HETATM   33  C   UNL     1      -9.888   5.925  68.386  1.00  0.00    -0.134 C  
HETATM   34  C   UNL     1     -10.789   6.842  67.561  1.00  0.00    -0.388 C  
HETATM   35  C   UNL     1      -9.812   7.532  66.639  1.00  0.00    -0.274 C  
HETATM   36  C   UNL     1      -7.458   5.860  68.586  1.00  0.00    -0.086 C  
HETATM   37  N   UNL     1      -8.651   6.702  68.568  1.00  0.00    -0.125 NA 
HETATM   38  C   UNL     1      -8.580   7.720  67.507  1.00  0.00    -0.122 C  
ENDBRANCH  32  33
ENDBRANCH  31  32
ENDBRANCH  29  31
ENDBRANCH  26  29
ENDBRANCH   9  26
ENDBRANCH   4   5
ENDBRANCH   3   4
ENDBRANCH   2   3
TORSDOF 11
ENDMDL
MODEL       69
REMARK 921   NORMALIZED FREE ENERGY PREDICTED BY IDOCK:   -5.62 KCAL/MOL
REMARK 922        TOTAL FREE ENERGY PREDICTED BY IDOCK:  -11.48 KCAL/MOL
REMARK 923 INTER-LIGAND FREE ENERGY PREDICTED BY IDOCK:   -9.67 KCAL/MOL
REMARK 924 INTRA-LIGAND FREE ENERGY PREDICTED BY IDOCK:   -1.80 KCAL/MOL
REMARK 927      BINDING AFFINITY PREDICTED BY RF-SCORE:    0.00 PKD
ROOT
HETATM    1  C   UNL     1     -14.195   8.745  72.426  1.00  0.00    -0.464 C  
HETATM    2  C   UNL     1     -13.026   8.946  71.479  1.00  0.00    -0.379 C  
ENDROOT
BRANCH   2   3
HETATM    3  C   UNL     1     -12.859  10.398  71.063  1.00  0.00    -0.401 C  
BRANCH   3   4
HETATM    4  O   UNL     1     -12.903  10.565  69.634  1.00  0.00    -0.141 OA 
BRANCH   4   5
HETATM    5  C   UNL     1     -11.876  11.329  69.112  1.00  0.00    -0.355 A  
HETATM    6  C   UNL     1     -10.671  10.710  68.699  1.00  0.00    -0.239 A  
HETATM    7  C   UNL     1      -9.602  11.514  68.232  1.00  0.00    -0.189 A  
HETATM    8  C   UNL     1     -11.985  12.724  69.018  1.00  0.00    -0.288 A  
HETATM    9  C   UNL     1      -9.733  12.909  68.201  1.00  0.00    -0.227 A  
HETATM   10  C   UNL     1     -10.917  13.503  68.609  1.00  0.00    -0.289 A  
BRANCH   6  11
HETATM   11  C   UNL     1     -10.462   9.207  68.760  1.00  0.00    -0.212 C  
HETATM   12  C   UNL     1     -10.727   7.127  67.706  1.00  0.00    -0.212 C  
HETATM   13  N   UNL     1     -10.896   8.502  67.746  1.00  0.00    -0.495 N  
HETATM   14  H   UNL     1     -11.367   8.972  66.973  1.00  0.00     0.000 HD 
HETATM   15  N   UNL     1      -9.840   8.685  69.884  1.00  0.00    -0.180 NA 
HETATM   16  N   UNL     1      -9.019   5.231  70.331  1.00  0.00    -0.125 NA 
HETATM   17  C   UNL     1      -9.002   6.490  70.802  1.00  0.00    -0.144 A  
HETATM   18  C   UNL     1     -10.038   6.602  68.842  1.00  0.00    -0.165 A  
HETATM   19  O   UNL     1     -11.134   6.426  66.785  1.00  0.00    -0.358 OA 
HETATM   20  C   UNL     1      -9.817   4.145  68.326  1.00  0.00    -0.013 C  
HETATM   21  C   UNL     1      -9.621   7.364  69.892  1.00  0.00    -0.163 A  
HETATM   22  N   UNL     1      -9.649   5.330  69.133  1.00  0.00    -0.134 NA 
BRANCH  17  23
HETATM   23  C   UNL     1      -8.378   6.777  72.126  1.00  0.00    -0.107 C  
BRANCH  23  24
HETATM   24  C   UNL     1      -9.225   6.346  73.325  1.00  0.00    -0.136 C  
HETATM   25  C   UNL     1     -10.475   7.193  73.526  1.00  0.00    -0.422 C  
ENDBRANCH  23  24
ENDBRANCH  17  23
ENDBRANCH   6  11
BRANCH   9  26
HETATM   26  S   UNL     1      -8.383  13.967  67.726  1.00  0.00    -0.191 S  
HETATM   27  O   UNL     1      -7.283  13.113  67.345  1.00  0.00    -0.155 OA 
HETATM   28  O   UNL     1      -8.268  14.986  68.744  1.00  0.00    -0.149 OA 
BRANCH  26  29
HETATM   29  N   UNL     1      -8.944  14.697  66.285  1.00  0.00    -0.491 N  
HETATM   30  H   UNL     1      -9.190  14.143  65.464  1.00  0.00     0.000 HD 
BRANCH  29  31
HETATM   31  C   UNL     1      -9.055  16.170  66.288  1.00  0.00    -0.338 C  
BRANCH  31  32
HETATM   32  C   UNL     1     -10.502  16.637  66.407  1.00  0.00    -0.266 C  
BRANCH  32  33
HETATM   33  C   UNL     1     -10.565  17.969  67.179  1.00  0.00    -0.325 C  
HETATM   34  C   UNL     1     -10.039  17.853  68.608  1.00  0.00    -0.394 C  
HETATM   35  C   UNL     1      -9.668  19.278  68.947  1.00  0.00    -0.493 C  
HETATM   36  C   UNL     1     -10.440  19.819  65.594  1.00  0.00    -0.361 C  
HETATM   37  N   UNL     1      -9.715  19.002  66.563  1.00  0.00    -0.341 NA 
HETATM   38  C   UNL     1      -9.130  19.823  67.636  1.00  0.00    -0.333 C  
ENDBRANCH  32  33
ENDBRANCH  31  32
ENDBRANCH  29  31
ENDBRANCH  26  29
ENDBRANCH   9  26
ENDBRANCH   4   5
ENDBRANCH   3   4
ENDBRANCH   2   3
TORSDOF 11
ENDMDL
MODEL       70
REMARK 921   NORMALIZED FREE ENERGY PREDICTED BY IDOCK:   -5.62 KCAL/MOL
REMARK 922        TOTAL FREE ENERGY PREDICTED BY IDOCK:  -11.46 KCAL/MOL
REMARK 923 INTER-LIGAND FREE ENERGY PREDICTED BY IDOCK:   -9.91 KCAL/MOL
REMARK 924 INTRA-LIGAND FREE ENERGY PREDICTED BY IDOCK:   -1.56 KCAL/MOL
REMARK 927      BINDING AFFINITY PREDICTED BY RF-SCORE:    0.00 PKD
ROOT
HETATM    1  C   UNL     1     -14.309  15.477  72.128  1.00  0.00    -0.598 C  
HETATM    2  C   UNL     1     -12.924  15.593  72.738  1.00  0.00    -0.579 C  
ENDROOT
BRANCH   2   3
HETATM    3  C   UNL     1     -11.871  15.985  71.715  1.00  0.00    -0.519 C  
BRANCH   3   4
HETATM    4  O   UNL     1     -12.292  15.711  70.366  1.00  0.00    -0.400 OA 
BRANCH   4   5
HETATM    5  C   UNL     1     -11.749  14.565  69.815  1.00  0.00    -0.303 A  
HETATM    6  C   UNL     1     -10.665  14.659  68.910  1.00  0.00    -0.251 A  
HETATM    7  C   UNL     1     -10.165  13.482  68.301  1.00  0.00    -0.250 A  
HETATM    8  C   UNL     1     -12.279  13.299  70.105  1.00  0.00    -0.376 A  
HETATM    9  C   UNL     1     -10.756  12.241  68.578  1.00  0.00    -0.237 A  
HETATM   10  C   UNL     1     -11.817  12.163  69.466  1.00  0.00    -0.386 A  
BRANCH   6  11
HETATM   11  C   UNL     1     -10.022  15.983  68.538  1.00  0.00    -0.222 C  
HETATM   12  C   UNL     1     -10.303  18.146  67.669  1.00  0.00    -0.397 C  
HETATM   13  N   UNL     1     -10.799  16.899  68.017  1.00  0.00    -0.362 N  
HETATM   14  H   UNL     1     -11.786  16.692  67.864  1.00  0.00     0.000 HD 
HETATM   15  N   UNL     1      -8.661  16.128  68.762  1.00  0.00    -0.227 NA 
HETATM   16  N   UNL     1      -6.816  19.138  68.179  1.00  0.00    -0.243 NA 
HETATM   17  C   UNL     1      -6.834  17.860  68.595  1.00  0.00    -0.248 A  
HETATM   18  C   UNL     1      -8.912  18.307  67.953  1.00  0.00    -0.276 A  
HETATM   19  O   UNL     1     -10.991  19.026  67.163  1.00  0.00    -0.433 OA 
HETATM   20  C   UNL     1      -8.444  20.701  67.319  1.00  0.00    -0.218 C  
HETATM   21  C   UNL     1      -8.127  17.322  68.474  1.00  0.00    -0.262 A  
HETATM   22  N   UNL     1      -8.095  19.386  67.800  1.00  0.00    -0.284 NA 
BRANCH  17  23
HETATM   23  C   UNL     1      -5.580  17.225  69.094  1.00  0.00    -0.174 C  
BRANCH  23  24
HETATM   24  C   UNL     1      -5.525  17.057  70.614  1.00  0.00    -0.149 C  
HETATM   25  C   UNL     1      -5.378  18.372  71.369  1.00  0.00    -0.156 C  
ENDBRANCH  23  24
ENDBRANCH  17  23
ENDBRANCH   6  11
BRANCH   9  26
HETATM   26  S   UNL     1     -10.236  10.750  67.757  1.00  0.00    -0.191 S  
HETATM   27  O   UNL     1      -8.873  10.494  68.157  1.00  0.00    -0.129 OA 
HETATM   28  O   UNL     1     -10.638  10.869  66.375  1.00  0.00    -0.254 OA 
BRANCH  26  29
HETATM   29  N   UNL     1     -11.189   9.539  68.500  1.00  0.00    -0.486 N  
HETATM   30  H   UNL     1     -11.902   9.769  69.193  1.00  0.00     0.000 HD 
BRANCH  29  31
HETATM   31  C   UNL     1     -10.927   8.145  68.088  1.00  0.00     0.213 C  
BRANCH  31  32
HETATM   32  C   UNL     1     -10.221   7.346  69.178  1.00  0.00    -0.196 C  
BRANCH  32  33
HETATM   33  C   UNL     1     -10.834   7.671  70.553  1.00  0.00    -0.241 C  
HETATM   34  C   UNL     1     -12.219   7.057  70.746  1.00  0.00    -0.343 C  
HETATM   35  C   UNL     1     -12.357   7.004  72.249  1.00  0.00    -0.128 C  
HETATM   36  C   UNL     1      -9.039   8.055  72.160  1.00  0.00    -0.168 C  
HETATM   37  N   UNL     1     -10.034   7.112  71.657  1.00  0.00    -0.178 NA 
HETATM   38  C   UNL     1     -10.952   6.674  72.721  1.00  0.00    -0.258 C  
ENDBRANCH  32  33
ENDBRANCH  31  32
ENDBRANCH  29  31
ENDBRANCH  26  29
ENDBRANCH   9  26
ENDBRANCH   4   5
ENDBRANCH   3   4
ENDBRANCH   2   3
TORSDOF 11
ENDMDL
MODEL       71
REMARK 921   NORMALIZED FREE ENERGY PREDICTED BY IDOCK:   -5.58 KCAL/MOL
REMARK 922        TOTAL FREE ENERGY PREDICTED BY IDOCK:  -11.40 KCAL/MOL
REMARK 923 INTER-LIGAND FREE ENERGY PREDICTED BY IDOCK:   -9.93 KCAL/MOL
REMARK 924 INTRA-LIGAND FREE ENERGY PREDICTED BY IDOCK:   -1.47 KCAL/MOL
REMARK 927      BINDING AFFINITY PREDICTED BY RF-SCORE:    0.00 PKD
ROOT
HETATM    1  C   UNL     1     -12.567  14.941  71.702  1.00  0.00    -0.396 C  
HETATM    2  C   UNL     1     -13.552  13.833  72.026  1.00  0.00    -0.569 C  
ENDROOT
BRANCH   2   3
HETATM    3  C   UNL     1     -13.033  12.461  71.629  1.00  0.00    -0.305 C  
BRANCH   3   4
HETATM    4  O   UNL     1     -12.201  12.511  70.455  1.00  0.00    -0.365 OA 
BRANCH   4   5
HETATM    5  C   UNL     1     -11.683  11.289  70.065  1.00  0.00    -0.346 A  
HETATM    6  C   UNL     1     -11.172  11.123  68.754  1.00  0.00    -0.314 A  
HETATM    7  C   UNL     1     -10.710   9.848  68.347  1.00  0.00    -0.271 A  
HETATM    8  C   UNL     1     -11.689  10.188  70.932  1.00  0.00    -0.468 A  
HETATM    9  C   UNL     1     -10.780   8.759  69.227  1.00  0.00    -0.151 A  
HETATM   10  C   UNL     1     -11.283   8.935  70.507  1.00  0.00    -0.287 A  
BRANCH   6  11
HETATM   11  C   UNL     1     -11.121  12.257  67.747  1.00  0.00    -0.255 C  
HETATM   12  C   UNL     1     -12.209  13.435  66.032  1.00  0.00    -0.437 C  
HETATM   13  N   UNL     1     -12.161  12.411  66.966  1.00  0.00    -0.163 N  
HETATM   14  H   UNL     1     -12.947  11.767  67.045  1.00  0.00     0.000 HD 
HETATM   15  N   UNL     1      -9.978  13.042  67.712  1.00  0.00    -0.221 NA 
HETATM   16  N   UNL     1      -9.537  15.900  65.606  1.00  0.00    -0.393 NA 
HETATM   17  C   UNL     1      -9.051  15.084  66.556  1.00  0.00    -0.286 A  
HETATM   18  C   UNL     1     -11.052  14.272  66.039  1.00  0.00    -0.319 A  
HETATM   19  O   UNL     1     -13.155  13.604  65.269  1.00  0.00    -0.735 OA 
HETATM   20  C   UNL     1     -11.587  16.050  64.336  1.00  0.00    -0.212 C  
HETATM   21  C   UNL     1      -9.976  14.067  66.851  1.00  0.00    -0.263 A  
HETATM   22  N   UNL     1     -10.760  15.387  65.315  1.00  0.00    -0.393 NA 
BRANCH  17  23
HETATM   23  C   UNL     1      -7.699  15.338  67.131  1.00  0.00    -0.238 C  
BRANCH  23  24
HETATM   24  C   UNL     1      -7.531  16.731  67.744  1.00  0.00    -0.176 C  
HETATM   25  C   UNL     1      -8.555  17.050  68.826  1.00  0.00    -0.238 C  
ENDBRANCH  23  24
ENDBRANCH  17  23
ENDBRANCH   6  11
BRANCH   9  26
HETATM   26  S   UNL     1     -10.314   7.117  68.727  1.00  0.00    -0.196 S  
HETATM   27  O   UNL     1      -9.921   7.187  67.340  1.00  0.00    -0.148 OA 
HETATM   28  O   UNL     1     -11.342   6.223  69.207  1.00  0.00    -0.410 OA 
BRANCH  26  29
HETATM   29  N   UNL     1      -8.881   6.826  69.616  1.00  0.00    -0.143 N  
HETATM   30  H   UNL     1      -8.133   7.517  69.666  1.00  0.00     0.000 HD 
BRANCH  29  31
HETATM   31  C   UNL     1      -8.784   5.525  70.307  1.00  0.00    -0.130 C  
BRANCH  31  32
HETATM   32  C   UNL     1      -7.908   5.600  71.554  1.00  0.00    -0.112 C  
BRANCH  32  33
HETATM   33  C   UNL     1      -8.669   5.038  72.769  1.00  0.00    -0.119 C  
HETATM   34  C   UNL     1      -9.730   5.998  73.302  1.00  0.00    -0.157 C  
HETATM   35  C   UNL     1     -10.673   5.080  74.043  1.00  0.00    -0.341 C  
HETATM   36  C   UNL     1      -8.653   2.601  72.665  1.00  0.00    -0.070 C  
HETATM   37  N   UNL     1      -9.423   3.819  72.429  1.00  0.00    -0.122 NA 
HETATM   38  C   UNL     1     -10.681   3.822  73.193  1.00  0.00    -0.176 C  
ENDBRANCH  32  33
ENDBRANCH  31  32
ENDBRANCH  29  31
ENDBRANCH  26  29
ENDBRANCH   9  26
ENDBRANCH   4   5
ENDBRANCH   3   4
ENDBRANCH   2   3
TORSDOF 11
ENDMDL
MODEL       72
REMARK 921   NORMALIZED FREE ENERGY PREDICTED BY IDOCK:   -5.57 KCAL/MOL
REMARK 922        TOTAL FREE ENERGY PREDICTED BY IDOCK:  -11.39 KCAL/MOL
REMARK 923 INTER-LIGAND FREE ENERGY PREDICTED BY IDOCK:   -9.00 KCAL/MOL
REMARK 924 INTRA-LIGAND FREE ENERGY PREDICTED BY IDOCK:   -2.39 KCAL/MOL
REMARK 927      BINDING AFFINITY PREDICTED BY RF-SCORE:    0.00 PKD
ROOT
HETATM    1  C   UNL     1      -8.786   4.467  64.782  1.00  0.00    -0.149 C  
HETATM    2  C   UNL     1      -7.464   5.138  65.107  1.00  0.00    -0.073 C  
ENDROOT
BRANCH   2   3
HETATM    3  C   UNL     1      -7.526   6.649  64.956  1.00  0.00    -0.089 C  
BRANCH   3   4
HETATM    4  O   UNL     1      -8.050   7.292  66.133  1.00  0.00    -0.109 OA 
BRANCH   4   5
HETATM    5  C   UNL     1      -8.761   8.453  65.885  1.00  0.00    -0.169 A  
HETATM    6  C   UNL     1      -9.486   9.076  66.929  1.00  0.00    -0.219 A  
HETATM    7  C   UNL     1     -10.265  10.224  66.644  1.00  0.00    -0.294 A  
HETATM    8  C   UNL     1      -8.813   9.011  64.600  1.00  0.00    -0.139 A  
HETATM    9  C   UNL     1     -10.331  10.722  65.335  1.00  0.00    -0.247 A  
HETATM   10  C   UNL     1      -9.618  10.102  64.322  1.00  0.00    -0.354 A  
BRANCH   6  11
HETATM   11  C   UNL     1      -9.486   8.548  68.353  1.00  0.00    -0.135 C  
HETATM   12  C   UNL     1      -8.229   7.789  70.184  1.00  0.00    -0.123 C  
HETATM   13  N   UNL     1      -8.325   8.255  68.882  1.00  0.00    -0.126 N  
HETATM   14  H   UNL     1      -7.477   8.371  68.327  1.00  0.00     0.000 HD 
HETATM   15  N   UNL     1     -10.710   8.400  68.988  1.00  0.00    -0.141 NA 
HETATM   16  N   UNL     1     -11.122   7.348  72.383  1.00  0.00    -0.268 NA 
HETATM   17  C   UNL     1     -11.675   7.753  71.228  1.00  0.00    -0.288 A  
HETATM   18  C   UNL     1      -9.488   7.690  70.851  1.00  0.00    -0.164 A  
HETATM   19  O   UNL     1      -7.164   7.485  70.712  1.00  0.00    -0.065 OA 
HETATM   20  C   UNL     1      -8.876   6.957  73.183  1.00  0.00    -0.123 C  
HETATM   21  C   UNL     1     -10.681   7.981  70.260  1.00  0.00    -0.239 A  
HETATM   22  N   UNL     1      -9.789   7.326  72.128  1.00  0.00    -0.160 NA 
BRANCH  17  23
HETATM   23  C   UNL     1     -13.156   7.897  71.125  1.00  0.00    -0.120 C  
BRANCH  23  24
HETATM   24  C   UNL     1     -13.745   8.973  72.040  1.00  0.00    -0.516 C  
HETATM   25  C   UNL     1     -13.179  10.365  71.790  1.00  0.00    -0.529 C  
ENDBRANCH  23  24
ENDBRANCH  17  23
ENDBRANCH   6  11
BRANCH   9  26
HETATM   26  S   UNL     1     -11.380  12.094  64.906  1.00  0.00    -0.316 S  
HETATM   27  O   UNL     1     -12.240  12.346  66.037  1.00  0.00    -0.636 OA 
HETATM   28  O   UNL     1     -11.887  11.837  63.578  1.00  0.00    -0.465 OA 
BRANCH  26  29
HETATM   29  N   UNL     1     -10.292  13.411  64.828  1.00  0.00    -0.490 N  
HETATM   30  H   UNL     1      -9.301  13.276  64.630  1.00  0.00     0.000 HD 
BRANCH  29  31
HETATM   31  C   UNL     1     -10.861  14.754  65.062  1.00  0.00    -0.425 C  
BRANCH  31  32
HETATM   32  C   UNL     1      -9.916  15.648  65.858  1.00  0.00    -0.379 C  
BRANCH  32  33
HETATM   33  C   UNL     1      -9.954  15.263  67.349  1.00  0.00    -0.223 C  
HETATM   34  C   UNL     1     -11.357  15.339  67.946  1.00  0.00    -0.339 C  
HETATM   35  C   UNL     1     -11.264  14.423  69.143  1.00  0.00    -0.300 C  
HETATM   36  C   UNL     1      -8.115  13.733  67.826  1.00  0.00    -0.176 C  
HETATM   37  N   UNL     1      -9.545  13.864  67.564  1.00  0.00    -0.223 NA 
HETATM   38  C   UNL     1     -10.351  13.308  68.664  1.00  0.00    -0.196 C  
ENDBRANCH  32  33
ENDBRANCH  31  32
ENDBRANCH  29  31
ENDBRANCH  26  29
ENDBRANCH   9  26
ENDBRANCH   4   5
ENDBRANCH   3   4
ENDBRANCH   2   3
TORSDOF 11
ENDMDL
MODEL       73
REMARK 921   NORMALIZED FREE ENERGY PREDICTED BY IDOCK:   -5.57 KCAL/MOL
REMARK 922        TOTAL FREE ENERGY PREDICTED BY IDOCK:  -11.39 KCAL/MOL
REMARK 923 INTER-LIGAND FREE ENERGY PREDICTED BY IDOCK:   -9.51 KCAL/MOL
REMARK 924 INTRA-LIGAND FREE ENERGY PREDICTED BY IDOCK:   -1.88 KCAL/MOL
REMARK 927      BINDING AFFINITY PREDICTED BY RF-SCORE:    0.00 PKD
ROOT
HETATM    1  C   UNL     1      -6.125   8.269  68.274  1.00  0.00    -0.046 C  
HETATM    2  C   UNL     1      -6.855   9.317  69.095  1.00  0.00    -0.050 C  
ENDROOT
BRANCH   2   3
HETATM    3  C   UNL     1      -7.294  10.507  68.258  1.00  0.00    -0.088 C  
BRANCH   3   4
HETATM    4  O   UNL     1      -8.370  11.239  68.874  1.00  0.00    -0.143 OA 
BRANCH   4   5
HETATM    5  C   UNL     1      -9.206  11.889  67.984  1.00  0.00    -0.190 A  
HETATM    6  C   UNL     1     -10.611  11.749  68.100  1.00  0.00    -0.230 A  
HETATM    7  C   UNL     1     -11.451  12.364  67.139  1.00  0.00    -0.423 A  
HETATM    8  C   UNL     1      -8.689  12.662  66.935  1.00  0.00    -0.175 A  
HETATM    9  C   UNL     1     -10.893  13.085  66.075  1.00  0.00    -0.272 A  
HETATM   10  C   UNL     1      -9.517  13.215  65.973  1.00  0.00    -0.103 A  
BRANCH   6  11
HETATM   11  C   UNL     1     -11.263  10.937  69.205  1.00  0.00    -0.256 C  
HETATM   12  C   UNL     1     -12.689  10.916  71.069  1.00  0.00    -0.407 C  
HETATM   13  N   UNL     1     -12.035  11.581  70.044  1.00  0.00    -0.339 N  
HETATM   14  H   UNL     1     -12.156  12.588  69.941  1.00  0.00     0.000 HD 
HETATM   15  N   UNL     1     -10.988   9.578  69.259  1.00  0.00    -0.190 NA 
HETATM   16  N   UNL     1     -12.452   7.301  71.598  1.00  0.00    -0.343 NA 
HETATM   17  C   UNL     1     -11.631   7.512  70.556  1.00  0.00    -0.200 A  
HETATM   18  C   UNL     1     -12.444   9.508  71.086  1.00  0.00    -0.315 A  
HETATM   19  O   UNL     1     -13.406  11.482  71.887  1.00  0.00    -0.443 OA 
HETATM   20  C   UNL     1     -13.894   8.671  72.970  1.00  0.00     0.245 C  
HETATM   21  C   UNL     1     -11.615   8.875  70.211  1.00  0.00    -0.033 A  
HETATM   22  N   UNL     1     -12.939   8.533  71.896  1.00  0.00    -0.345 NA 
BRANCH  17  23
HETATM   23  C   UNL     1     -10.899   6.365  69.944  1.00  0.00    -0.370 C  
BRANCH  23  24
HETATM   24  C   UNL     1     -10.197   6.701  68.627  1.00  0.00    -0.184 C  
HETATM   25  C   UNL     1     -10.955   6.229  67.392  1.00  0.00    -0.447 C  
ENDBRANCH  23  24
ENDBRANCH  17  23
ENDBRANCH   6  11
BRANCH   9  26
HETATM   26  S   UNL     1     -11.899  13.784  64.785  1.00  0.00    -0.414 S  
HETATM   27  O   UNL     1     -13.137  14.213  65.393  1.00  0.00    -0.743 OA 
HETATM   28  O   UNL     1     -11.850  12.868  63.670  1.00  0.00    -0.464 OA 
BRANCH  26  29
HETATM   29  N   UNL     1     -11.057  15.210  64.357  1.00  0.00    -0.671 N  
HETATM   30  H   UNL     1     -10.562  15.293  63.469  1.00  0.00     0.000 HD 
BRANCH  29  31
HETATM   31  C   UNL     1     -11.083  16.314  65.337  1.00  0.00    -0.087 C  
BRANCH  31  32
HETATM   32  C   UNL     1      -9.697  16.621  65.895  1.00  0.00    -0.269 C  
BRANCH  32  33
HETATM   33  C   UNL     1      -9.764  16.766  67.427  1.00  0.00    -0.245 C  
HETATM   34  C   UNL     1     -10.971  16.058  68.039  1.00  0.00    -0.341 C  
HETATM   35  C   UNL     1     -10.544  15.842  69.471  1.00  0.00    -0.272 C  
HETATM   36  C   UNL     1      -7.508  17.082  68.299  1.00  0.00    -0.207 C  
HETATM   37  N   UNL     1      -8.605  16.142  68.088  1.00  0.00    -0.174 NA 
HETATM   38  C   UNL     1      -9.059  15.545  69.355  1.00  0.00    -0.280 C  
ENDBRANCH  32  33
ENDBRANCH  31  32
ENDBRANCH  29  31
ENDBRANCH  26  29
ENDBRANCH   9  26
ENDBRANCH   4   5
ENDBRANCH   3   4
ENDBRANCH   2   3
TORSDOF 11
ENDMDL
MODEL       74
REMARK 921   NORMALIZED FREE ENERGY PREDICTED BY IDOCK:   -5.55 KCAL/MOL
REMARK 922        TOTAL FREE ENERGY PREDICTED BY IDOCK:  -11.35 KCAL/MOL
REMARK 923 INTER-LIGAND FREE ENERGY PREDICTED BY IDOCK:   -9.86 KCAL/MOL
REMARK 924 INTRA-LIGAND FREE ENERGY PREDICTED BY IDOCK:   -1.49 KCAL/MOL
REMARK 927      BINDING AFFINITY PREDICTED BY RF-SCORE:    0.00 PKD
ROOT
HETATM    1  C   UNL     1      -8.812   8.250  66.345  1.00  0.00    -0.180 C  
HETATM    2  C   UNL     1     -10.095   9.056  66.259  1.00  0.00    -0.311 C  
ENDROOT
BRANCH   2   3
HETATM    3  C   UNL     1      -9.839  10.524  65.964  1.00  0.00    -0.222 C  
BRANCH   3   4
HETATM    4  O   UNL     1     -10.873  11.375  66.494  1.00  0.00    -0.271 OA 
BRANCH   4   5
HETATM    5  C   UNL     1     -10.426  12.593  66.973  1.00  0.00    -0.232 A  
HETATM    6  C   UNL     1     -10.583  12.918  68.342  1.00  0.00    -0.267 A  
HETATM    7  C   UNL     1     -10.184  14.196  68.802  1.00  0.00    -0.216 A  
HETATM    8  C   UNL     1      -9.850  13.542  66.116  1.00  0.00    -0.292 A  
HETATM    9  C   UNL     1      -9.660  15.135  67.904  1.00  0.00    -0.203 A  
HETATM   10  C   UNL     1      -9.511  14.806  66.566  1.00  0.00    -0.316 A  
BRANCH   6  11
HETATM   11  C   UNL     1     -11.191  11.954  69.346  1.00  0.00    -0.211 C  
HETATM   12  C   UNL     1     -12.640  11.644  71.166  1.00  0.00    -0.335 C  
HETATM   13  N   UNL     1     -12.021  12.454  70.227  1.00  0.00    -0.488 N  
HETATM   14  H   UNL     1     -12.214  13.455  70.223  1.00  0.00     0.000 HD 
HETATM   15  N   UNL     1     -10.819  10.620  69.270  1.00  0.00    -0.223 NA 
HETATM   16  N   UNL     1     -12.148   8.020  71.338  1.00  0.00    -0.300 NA 
HETATM   17  C   UNL     1     -11.329   8.393  70.340  1.00  0.00    -0.172 A  
HETATM   18  C   UNL     1     -12.294  10.263  71.049  1.00  0.00    -0.381 A  
HETATM   19  O   UNL     1     -13.409  12.072  72.021  1.00  0.00    -0.495 OA 
HETATM   20  C   UNL     1     -13.707   9.138  72.806  1.00  0.00    -0.219 C  
HETATM   21  C   UNL     1     -11.407   9.781  70.133  1.00  0.00    -0.251 A  
HETATM   22  N   UNL     1     -12.729   9.177  71.746  1.00  0.00    -0.347 NA 
BRANCH  17  23
HETATM   23  C   UNL     1     -10.507   7.368  69.634  1.00  0.00    -0.237 C  
BRANCH  23  24
HETATM   24  C   UNL     1     -10.906   5.924  69.943  1.00  0.00    -0.439 C  
HETATM   25  C   UNL     1      -9.871   5.166  70.765  1.00  0.00    -0.270 C  
ENDBRANCH  23  24
ENDBRANCH  17  23
ENDBRANCH   6  11
BRANCH   9  26
HETATM   26  S   UNL     1      -9.246  16.790  68.412  1.00  0.00    -0.235 S  
HETATM   27  O   UNL     1      -8.034  16.707  69.193  1.00  0.00    -0.232 OA 
HETATM   28  O   UNL     1     -10.460  17.394  68.909  1.00  0.00    -0.345 OA 
BRANCH  26  29
HETATM   29  N   UNL     1      -8.818  17.556  66.944  1.00  0.00    -0.243 N  
HETATM   30  H   UNL     1      -8.423  17.034  66.162  1.00  0.00     0.000 HD 
BRANCH  29  31
HETATM   31  C   UNL     1      -9.049  19.013  66.865  1.00  0.00    -0.303 C  
BRANCH  31  32
HETATM   32  C   UNL     1      -8.143  19.685  65.839  1.00  0.00    -0.242 C  
BRANCH  32  33
HETATM   33  C   UNL     1      -6.742  19.911  66.440  1.00  0.00    -0.209 C  
HETATM   34  C   UNL     1      -6.774  20.720  67.734  1.00  0.00    -0.381 C  
HETATM   35  C   UNL     1      -5.475  20.338  68.403  1.00  0.00    -0.266 C  
HETATM   36  C   UNL     1      -5.274  18.088  65.753  1.00  0.00    -0.199 C  
HETATM   37  N   UNL     1      -6.098  18.642  66.822  1.00  0.00    -0.154 NA 
HETATM   38  C   UNL     1      -5.314  18.870  68.048  1.00  0.00    -0.172 C  
ENDBRANCH  32  33
ENDBRANCH  31  32
ENDBRANCH  29  31
ENDBRANCH  26  29
ENDBRANCH   9  26
ENDBRANCH   4   5
ENDBRANCH   3   4
ENDBRANCH   2   3
TORSDOF 11
ENDMDL
MODEL       75
REMARK 921   NORMALIZED FREE ENERGY PREDICTED BY IDOCK:   -5.54 KCAL/MOL
REMARK 922        TOTAL FREE ENERGY PREDICTED BY IDOCK:  -11.34 KCAL/MOL
REMARK 923 INTER-LIGAND FREE ENERGY PREDICTED BY IDOCK:   -9.49 KCAL/MOL
REMARK 924 INTRA-LIGAND FREE ENERGY PREDICTED BY IDOCK:   -1.85 KCAL/MOL
REMARK 927      BINDING AFFINITY PREDICTED BY RF-SCORE:    0.00 PKD
ROOT
HETATM    1  C   UNL     1      -7.637  15.133  69.470  1.00  0.00    -0.207 C  
HETATM    2  C   UNL     1      -7.571  13.912  68.571  1.00  0.00    -0.134 C  
ENDROOT
BRANCH   2   3
HETATM    3  C   UNL     1      -6.650  12.835  69.122  1.00  0.00    -0.101 C  
BRANCH   3   4
HETATM    4  O   UNL     1      -7.274  11.538  69.136  1.00  0.00    -0.115 OA 
BRANCH   4   5
HETATM    5  C   UNL     1      -7.479  10.985  67.885  1.00  0.00    -0.093 A  
HETATM    6  C   UNL     1      -8.667  10.263  67.616  1.00  0.00    -0.121 A  
HETATM    7  C   UNL     1      -8.831   9.643  66.353  1.00  0.00    -0.168 A  
HETATM    8  C   UNL     1      -6.510  11.089  66.878  1.00  0.00    -0.108 A  
HETATM    9  C   UNL     1      -7.816   9.728  65.390  1.00  0.00    -0.122 A  
HETATM   10  C   UNL     1      -6.658  10.437  65.667  1.00  0.00    -0.129 A  
BRANCH   6  11
HETATM   11  C   UNL     1      -9.775  10.100  68.641  1.00  0.00    -0.163 C  
HETATM   12  C   UNL     1     -10.998   8.649  70.023  1.00  0.00    -0.203 C  
HETATM   13  N   UNL     1     -10.020   8.887  69.069  1.00  0.00    -0.184 N  
HETATM   14  H   UNL     1      -9.483   8.106  68.695  1.00  0.00     0.000 HD 
HETATM   15  N   UNL     1     -10.458  11.239  69.043  1.00  0.00    -0.212 NA 
HETATM   16  N   UNL     1     -13.010  11.298  71.550  1.00  0.00    -0.445 NA 
HETATM   17  C   UNL     1     -12.251  11.963  70.663  1.00  0.00    -0.331 A  
HETATM   18  C   UNL     1     -11.661   9.832  70.471  1.00  0.00    -0.292 A  
HETATM   19  O   UNL     1     -11.272   7.527  70.438  1.00  0.00    -0.266 OA 
HETATM   20  C   UNL     1     -13.229   8.999  72.259  1.00  0.00    -0.460 C  
HETATM   21  C   UNL     1     -11.396  11.077  69.985  1.00  0.00    -0.277 A  
HETATM   22  N   UNL     1     -12.624  10.003  71.418  1.00  0.00    -0.380 NA 
BRANCH  17  23
HETATM   23  C   UNL     1     -12.400  13.441  70.521  1.00  0.00    -0.401 C  
BRANCH  23  24
HETATM   24  C   UNL     1     -13.409  14.064  71.488  1.00  0.00    -0.422 C  
HETATM   25  C   UNL     1     -13.061  15.489  71.901  1.00  0.00    -0.539 C  
ENDBRANCH  23  24
ENDBRANCH  17  23
ENDBRANCH   6  11
BRANCH   9  26
HETATM   26  S   UNL     1      -7.928   8.877  63.832  1.00  0.00    -0.161 S  
HETATM   27  O   UNL     1      -8.166   7.483  64.121  1.00  0.00    -0.090 OA 
HETATM   28  O   UNL     1      -6.820   9.332  63.023  1.00  0.00    -0.094 OA 
BRANCH  26  29
HETATM   29  N   UNL     1      -9.379   9.481  63.157  1.00  0.00    -0.512 N  
HETATM   30  H   UNL     1     -10.077   8.861  62.745  1.00  0.00     0.000 HD 
BRANCH  29  31
HETATM   31  C   UNL     1      -9.570  10.945  63.200  1.00  0.00    -0.357 C  
BRANCH  31  32
HETATM   32  C   UNL     1     -10.975  11.328  63.654  1.00  0.00    -0.369 C  
BRANCH  32  33
HETATM   33  C   UNL     1     -11.032  12.832  63.983  1.00  0.00    -0.415 C  
HETATM   34  C   UNL     1     -12.255  13.525  63.386  1.00  0.00    -0.338 C  
HETATM   35  C   UNL     1     -12.409  14.747  64.259  1.00  0.00    -0.345 C  
HETATM   36  C   UNL     1      -9.855  13.236  66.082  1.00  0.00    -0.280 C  
HETATM   37  N   UNL     1     -11.152  13.072  65.432  1.00  0.00    -0.273 NA 
HETATM   38  C   UNL     1     -12.015  14.248  65.638  1.00  0.00    -0.386 C  
ENDBRANCH  32  33
ENDBRANCH  31  32
ENDBRANCH  29  31
ENDBRANCH  26  29
ENDBRANCH   9  26
ENDBRANCH   4   5
ENDBRANCH   3   4
ENDBRANCH   2   3
TORSDOF 11
ENDMDL
MODEL       76
REMARK 921   NORMALIZED FREE ENERGY PREDICTED BY IDOCK:   -5.53 KCAL/MOL
REMARK 922        TOTAL FREE ENERGY PREDICTED BY IDOCK:  -11.32 KCAL/MOL
REMARK 923 INTER-LIGAND FREE ENERGY PREDICTED BY IDOCK:   -9.25 KCAL/MOL
REMARK 924 INTRA-LIGAND FREE ENERGY PREDICTED BY IDOCK:   -2.07 KCAL/MOL
REMARK 927      BINDING AFFINITY PREDICTED BY RF-SCORE:    0.00 PKD
ROOT
HETATM    1  C   UNL     1     -12.015  12.732  63.540  1.00  0.00    -0.633 C  
HETATM    2  C   UNL     1     -12.761  13.514  64.605  1.00  0.00    -0.225 C  
ENDROOT
BRANCH   2   3
HETATM    3  C   UNL     1     -12.144  13.352  65.984  1.00  0.00    -0.438 C  
BRANCH   3   4
HETATM    4  O   UNL     1     -10.915  12.604  65.946  1.00  0.00    -0.268 OA 
BRANCH   4   5
HETATM    5  C   UNL     1      -9.845  13.224  66.568  1.00  0.00    -0.281 A  
HETATM    6  C   UNL     1      -9.111  12.537  67.566  1.00  0.00    -0.187 A  
HETATM    7  C   UNL     1      -8.064  13.210  68.242  1.00  0.00    -0.152 A  
HETATM    8  C   UNL     1      -9.491  14.544  66.257  1.00  0.00    -0.310 A  
HETATM    9  C   UNL     1      -7.774  14.547  67.938  1.00  0.00    -0.140 A  
HETATM   10  C   UNL     1      -8.500  15.207  66.960  1.00  0.00    -0.259 A  
BRANCH   6  11
HETATM   11  C   UNL     1      -9.418  11.105  67.967  1.00  0.00    -0.174 C  
HETATM   12  C   UNL     1      -9.120   8.819  67.527  1.00  0.00    -0.133 C  
HETATM   13  N   UNL     1      -8.911  10.155  67.222  1.00  0.00    -0.135 N  
HETATM   14  H   UNL     1      -8.355  10.402  66.404  1.00  0.00     0.000 HD 
HETATM   15  N   UNL     1     -10.219  10.902  69.080  1.00  0.00    -0.204 NA 
HETATM   16  N   UNL     1     -11.032   7.693  70.439  1.00  0.00    -0.246 NA 
HETATM   17  C   UNL     1     -11.135   9.031  70.504  1.00  0.00    -0.254 A  
HETATM   18  C   UNL     1      -9.902   8.616  68.705  1.00  0.00    -0.172 A  
HETATM   19  O   UNL     1      -8.680   7.898  66.847  1.00  0.00    -0.125 OA 
HETATM   20  C   UNL     1      -9.930   6.111  68.983  1.00  0.00    -0.153 C  
HETATM   21  C   UNL     1     -10.434   9.631  69.443  1.00  0.00    -0.220 A  
HETATM   22  N   UNL     1     -10.269   7.468  69.339  1.00  0.00    -0.199 NA 
BRANCH  17  23
HETATM   23  C   UNL     1     -11.917   9.662  71.606  1.00  0.00    -0.470 C  
BRANCH  23  24
HETATM   24  C   UNL     1     -12.739   8.673  72.436  1.00  0.00    -0.423 C  
HETATM   25  C   UNL     1     -14.234   8.723  72.143  1.00  0.00    -0.504 C  
ENDBRANCH  23  24
ENDBRANCH  17  23
ENDBRANCH   6  11
BRANCH   9  26
HETATM   26  S   UNL     1      -6.542  15.467  68.833  1.00  0.00    -0.117 S  
HETATM   27  O   UNL     1      -5.380  15.566  67.983  1.00  0.00    -0.112 OA 
HETATM   28  O   UNL     1      -6.492  14.916  70.168  1.00  0.00    -0.168 OA 
BRANCH  26  29
HETATM   29  N   UNL     1      -7.210  17.040  68.918  1.00  0.00    -0.230 N  
HETATM   30  H   UNL     1      -7.950  17.272  69.580  1.00  0.00     0.000 HD 
BRANCH  29  31
HETATM   31  C   UNL     1      -6.659  18.043  67.985  1.00  0.00    -0.196 C  
BRANCH  31  32
HETATM   32  C   UNL     1      -7.172  19.448  68.284  1.00  0.00    -0.331 C  
BRANCH  32  33
HETATM   33  C   UNL     1      -8.602  19.617  67.736  1.00  0.00    -0.322 C  
HETATM   34  C   UNL     1      -8.796  18.962  66.370  1.00  0.00    -0.310 C  
HETATM   35  C   UNL     1     -10.290  18.749  66.308  1.00  0.00    -0.497 C  
HETATM   36  C   UNL     1     -10.150  19.861  69.605  1.00  0.00     0.103 C  
HETATM   37  N   UNL     1      -9.600  18.959  68.597  1.00  0.00    -0.373 NA 
HETATM   38  C   UNL     1     -10.656  18.397  67.739  1.00  0.00    -0.391 C  
ENDBRANCH  32  33
ENDBRANCH  31  32
ENDBRANCH  29  31
ENDBRANCH  26  29
ENDBRANCH   9  26
ENDBRANCH   4   5
ENDBRANCH   3   4
ENDBRANCH   2   3
TORSDOF 11
ENDMDL
MODEL       77
REMARK 921   NORMALIZED FREE ENERGY PREDICTED BY IDOCK:   -5.52 KCAL/MOL
REMARK 922        TOTAL FREE ENERGY PREDICTED BY IDOCK:  -11.31 KCAL/MOL
REMARK 923 INTER-LIGAND FREE ENERGY PREDICTED BY IDOCK:   -9.67 KCAL/MOL
REMARK 924 INTRA-LIGAND FREE ENERGY PREDICTED BY IDOCK:   -1.64 KCAL/MOL
REMARK 927      BINDING AFFINITY PREDICTED BY RF-SCORE:    0.00 PKD
ROOT
HETATM    1  C   UNL     1     -11.456  11.449  64.029  1.00  0.00    -0.217 C  
HETATM    2  C   UNL     1     -12.309  12.693  63.864  1.00  0.00    -0.546 C  
ENDROOT
BRANCH   2   3
HETATM    3  C   UNL     1     -12.565  13.401  65.184  1.00  0.00    -0.440 C  
BRANCH   3   4
HETATM    4  O   UNL     1     -11.827  12.812  66.270  1.00  0.00    -0.390 OA 
BRANCH   4   5
HETATM    5  C   UNL     1     -10.651  13.468  66.589  1.00  0.00    -0.280 A  
HETATM    6  C   UNL     1      -9.996  13.194  67.814  1.00  0.00    -0.227 A  
HETATM    7  C   UNL     1      -8.832  13.925  68.157  1.00  0.00    -0.184 A  
HETATM    8  C   UNL     1     -10.108  14.438  65.735  1.00  0.00    -0.361 A  
HETATM    9  C   UNL     1      -8.349  14.922  67.299  1.00  0.00    -0.210 A  
HETATM   10  C   UNL     1      -9.000  15.181  66.103  1.00  0.00    -0.201 A  
BRANCH   6  11
HETATM   11  C   UNL     1     -10.507  12.159  68.800  1.00  0.00    -0.176 C  
HETATM   12  C   UNL     1     -12.068  11.609  70.464  1.00  0.00    -0.366 C  
HETATM   13  N   UNL     1     -11.522  12.500  69.553  1.00  0.00    -0.418 N  
HETATM   14  H   UNL     1     -11.918  13.436  69.467  1.00  0.00     0.000 HD 
HETATM   15  N   UNL     1      -9.858  10.934  68.846  1.00  0.00    -0.197 NA 
HETATM   16  N   UNL     1     -10.855   8.183  70.906  1.00  0.00    -0.226 NA 
HETATM   17  C   UNL     1     -10.018   8.688  69.985  1.00  0.00    -0.185 A  
HETATM   18  C   UNL     1     -11.430  10.331  70.469  1.00  0.00    -0.343 A  
HETATM   19  O   UNL     1     -13.007  11.893  71.201  1.00  0.00    -0.299 OA 
HETATM   20  C   UNL     1     -12.779   8.992  72.123  1.00  0.00    -0.401 C  
HETATM   21  C   UNL     1     -10.358  10.019  69.688  1.00  0.00    -0.247 A  
HETATM   22  N   UNL     1     -11.710   9.203  71.177  1.00  0.00    -0.294 NA 
BRANCH  17  23
HETATM   23  C   UNL     1      -8.920   7.839  69.437  1.00  0.00    -0.142 C  
BRANCH  23  24
HETATM   24  C   UNL     1      -7.622   7.895  70.246  1.00  0.00    -0.086 C  
HETATM   25  C   UNL     1      -7.549   6.854  71.356  1.00  0.00    -0.087 C  
ENDBRANCH  23  24
ENDBRANCH  17  23
ENDBRANCH   6  11
BRANCH   9  26
HETATM   26  S   UNL     1      -6.956  15.940  67.734  1.00  0.00    -0.165 S  
HETATM   27  O   UNL     1      -6.392  16.443  66.503  1.00  0.00    -0.262 OA 
HETATM   28  O   UNL     1      -6.184  15.203  68.707  1.00  0.00    -0.085 OA 
BRANCH  26  29
HETATM   29  N   UNL     1      -7.677  17.282  68.513  1.00  0.00    -0.250 N  
HETATM   30  H   UNL     1      -8.684  17.335  68.665  1.00  0.00     0.000 HD 
BRANCH  29  31
HETATM   31  C   UNL     1      -6.767  18.358  68.955  1.00  0.00    -0.267 C  
BRANCH  31  32
HETATM   32  C   UNL     1      -7.466  19.712  69.017  1.00  0.00    -0.345 C  
BRANCH  32  33
HETATM   33  C   UNL     1      -7.372  20.418  67.652  1.00  0.00    -0.302 C  
HETATM   34  C   UNL     1      -5.934  20.724  67.239  1.00  0.00    -0.288 C  
HETATM   35  C   UNL     1      -6.036  20.858  65.738  1.00  0.00    -0.281 C  
HETATM   36  C   UNL     1      -9.308  19.806  66.300  1.00  0.00    -0.391 C  
HETATM   37  N   UNL     1      -7.890  19.575  66.561  1.00  0.00    -0.275 NA 
HETATM   38  C   UNL     1      -7.072  19.813  65.360  1.00  0.00    -0.234 C  
ENDBRANCH  32  33
ENDBRANCH  31  32
ENDBRANCH  29  31
ENDBRANCH  26  29
ENDBRANCH   9  26
ENDBRANCH   4   5
ENDBRANCH   3   4
ENDBRANCH   2   3
TORSDOF 11
ENDMDL
MODEL       78
REMARK 921   NORMALIZED FREE ENERGY PREDICTED BY IDOCK:   -5.51 KCAL/MOL
REMARK 922        TOTAL FREE ENERGY PREDICTED BY IDOCK:  -11.28 KCAL/MOL
REMARK 923 INTER-LIGAND FREE ENERGY PREDICTED BY IDOCK:   -8.85 KCAL/MOL
REMARK 924 INTRA-LIGAND FREE ENERGY PREDICTED BY IDOCK:   -2.44 KCAL/MOL
REMARK 927      BINDING AFFINITY PREDICTED BY RF-SCORE:    0.00 PKD
ROOT
HETATM    1  C   UNL     1     -12.674  12.941  71.058  1.00  0.00    -0.338 C  
HETATM    2  C   UNL     1     -13.130  11.725  71.844  1.00  0.00    -0.482 C  
ENDROOT
BRANCH   2   3
HETATM    3  C   UNL     1     -13.145  10.461  71.001  1.00  0.00    -0.362 C  
BRANCH   3   4
HETATM    4  O   UNL     1     -12.351  10.592  69.807  1.00  0.00    -0.299 OA 
BRANCH   4   5
HETATM    5  C   UNL     1     -11.006  10.319  69.978  1.00  0.00    -0.311 A  
HETATM    6  C   UNL     1     -10.047  10.928  69.132  1.00  0.00    -0.198 A  
HETATM    7  C   UNL     1      -8.680  10.584  69.273  1.00  0.00    -0.135 A  
HETATM    8  C   UNL     1     -10.567   9.414  70.954  1.00  0.00    -0.390 A  
HETATM    9  C   UNL     1      -8.288   9.637  70.228  1.00  0.00    -0.186 A  
HETATM   10  C   UNL     1      -9.236   9.048  71.050  1.00  0.00    -0.331 A  
BRANCH   6  11
HETATM   11  C   UNL     1     -10.425  11.923  68.049  1.00  0.00    -0.208 C  
HETATM   12  C   UNL     1     -11.735  12.390  66.158  1.00  0.00    -0.400 C  
HETATM   13  N   UNL     1     -11.314  11.538  67.168  1.00  0.00    -0.302 N  
HETATM   14  H   UNL     1     -11.701  10.597  67.224  1.00  0.00     0.000 HD 
HETATM   15  N   UNL     1      -9.799  13.160  68.060  1.00  0.00    -0.224 NA 
HETATM   16  N   UNL     1     -10.532  15.828  65.791  1.00  0.00    -0.346 NA 
HETATM   17  C   UNL     1      -9.830  15.369  66.840  1.00  0.00    -0.244 A  
HETATM   18  C   UNL     1     -11.126  13.681  66.207  1.00  0.00    -0.301 A  
HETATM   19  O   UNL     1     -12.551  12.065  65.302  1.00  0.00    -0.371 OA 
HETATM   20  C   UNL     1     -12.242  14.942  64.332  1.00  0.00    -0.381 C  
HETATM   21  C   UNL     1     -10.186  14.039  67.126  1.00  0.00    -0.258 A  
HETATM   22  N   UNL     1     -11.319  14.782  65.430  1.00  0.00    -0.348 NA 
BRANCH  17  23
HETATM   23  C   UNL     1      -8.840  16.257  67.515  1.00  0.00    -0.194 C  
BRANCH  23  24
HETATM   24  C   UNL     1      -7.646  16.644  66.639  1.00  0.00    -0.314 C  
HETATM   25  C   UNL     1      -7.402  18.147  66.569  1.00  0.00    -0.267 C  
ENDBRANCH  23  24
ENDBRANCH  17  23
ENDBRANCH   6  11
BRANCH   9  26
HETATM   26  S   UNL     1      -6.600   9.092  70.372  1.00  0.00    -0.063 S  
HETATM   27  O   UNL     1      -6.627   7.740  70.876  1.00  0.00    -0.038 OA 
HETATM   28  O   UNL     1      -5.868  10.156  71.020  1.00  0.00    -0.100 OA 
BRANCH  26  29
HETATM   29  N   UNL     1      -6.081   8.987  68.745  1.00  0.00    -0.044 N  
HETATM   30  H   UNL     1      -5.495   9.708  68.322  1.00  0.00     0.000 HD 
BRANCH  29  31
HETATM   31  C   UNL     1      -6.522   7.800  67.985  1.00  0.00    -0.055 C  
BRANCH  31  32
HETATM   32  C   UNL     1      -6.858   8.138  66.536  1.00  0.00    -0.067 C  
BRANCH  32  33
HETATM   33  C   UNL     1      -8.293   7.683  66.207  1.00  0.00    -0.133 C  
HETATM   34  C   UNL     1      -8.810   6.610  67.163  1.00  0.00    -0.115 C  
HETATM   35  C   UNL     1     -10.309   6.738  67.034  1.00  0.00    -0.338 C  
HETATM   36  C   UNL     1      -9.472   9.500  65.086  1.00  0.00    -0.236 C  
HETATM   37  N   UNL     1      -9.262   8.783  66.341  1.00  0.00    -0.174 NA 
HETATM   38  C   UNL     1     -10.522   8.232  66.867  1.00  0.00    -0.295 C  
ENDBRANCH  32  33
ENDBRANCH  31  32
ENDBRANCH  29  31
ENDBRANCH  26  29
ENDBRANCH   9  26
ENDBRANCH   4   5
ENDBRANCH   3   4
ENDBRANCH   2   3
TORSDOF 11
ENDMDL
MODEL       79
REMARK 921   NORMALIZED FREE ENERGY PREDICTED BY IDOCK:   -5.51 KCAL/MOL
REMARK 922        TOTAL FREE ENERGY PREDICTED BY IDOCK:  -11.28 KCAL/MOL
REMARK 923 INTER-LIGAND FREE ENERGY PREDICTED BY IDOCK:   -9.34 KCAL/MOL
REMARK 924 INTRA-LIGAND FREE ENERGY PREDICTED BY IDOCK:   -1.94 KCAL/MOL
REMARK 927      BINDING AFFINITY PREDICTED BY RF-SCORE:    0.00 PKD
ROOT
HETATM    1  C   UNL     1      -8.008  10.302  63.440  1.00  0.00    -0.147 C  
HETATM    2  C   UNL     1      -8.196   8.827  63.743  1.00  0.00    -0.163 C  
ENDROOT
BRANCH   2   3
HETATM    3  C   UNL     1      -8.692   8.583  65.159  1.00  0.00    -0.120 C  
BRANCH   3   4
HETATM    4  O   UNL     1      -9.784   9.452  65.511  1.00  0.00    -0.284 OA 
BRANCH   4   5
HETATM    5  C   UNL     1     -10.148   9.406  66.845  1.00  0.00    -0.248 A  
HETATM    6  C   UNL     1     -10.542  10.592  67.512  1.00  0.00    -0.306 A  
HETATM    7  C   UNL     1     -10.844  10.541  68.895  1.00  0.00    -0.275 A  
HETATM    8  C   UNL     1     -10.097   8.208  67.571  1.00  0.00    -0.286 A  
HETATM    9  C   UNL     1     -10.732   9.333  69.596  1.00  0.00    -0.230 A  
HETATM   10  C   UNL     1     -10.344   8.180  68.932  1.00  0.00    -0.225 A  
BRANCH   6  11
HETATM   11  C   UNL     1     -10.632  11.934  66.809  1.00  0.00    -0.229 C  
HETATM   12  C   UNL     1     -11.811  13.317  65.323  1.00  0.00    -0.357 C  
HETATM   13  N   UNL     1     -11.638  12.114  65.990  1.00  0.00    -0.379 N  
HETATM   14  H   UNL     1     -12.303  11.357  65.839  1.00  0.00     0.000 HD 
HETATM   15  N   UNL     1      -9.642  12.870  67.071  1.00  0.00    -0.224 NA 
HETATM   16  N   UNL     1      -9.587  16.194  65.748  1.00  0.00    -0.441 NA 
HETATM   17  C   UNL     1      -9.020  15.252  66.522  1.00  0.00    -0.305 A  
HETATM   18  C   UNL     1     -10.818  14.295  65.638  1.00  0.00    -0.309 A  
HETATM   19  O   UNL     1     -12.727  13.522  64.534  1.00  0.00    -0.635 OA 
HETATM   20  C   UNL     1     -11.557  16.335  64.358  1.00  0.00    -0.056 C  
HETATM   21  C   UNL     1      -9.771  14.064  66.479  1.00  0.00    -0.295 A  
HETATM   22  N   UNL     1     -10.684  15.586  65.229  1.00  0.00    -0.396 NA 
BRANCH  17  23
HETATM   23  C   UNL     1      -7.767  15.562  67.269  1.00  0.00    -0.244 C  
BRANCH  23  24
HETATM   24  C   UNL     1      -7.030  16.805  66.766  1.00  0.00    -0.269 C  
HETATM   25  C   UNL     1      -6.718  17.816  67.863  1.00  0.00    -0.192 C  
ENDBRANCH  23  24
ENDBRANCH  17  23
ENDBRANCH   6  11
BRANCH   9  26
HETATM   26  S   UNL     1     -10.995   9.240  71.354  1.00  0.00    -0.370 S  
HETATM   27  O   UNL     1     -12.037  10.184  71.681  1.00  0.00    -0.375 OA 
HETATM   28  O   UNL     1      -9.691   9.264  71.976  1.00  0.00    -0.222 OA 
BRANCH  26  29
HETATM   29  N   UNL     1     -11.673   7.685  71.569  1.00  0.00    -0.272 N  
HETATM   30  H   UNL     1     -12.262   7.254  70.856  1.00  0.00     0.000 HD 
BRANCH  29  31
HETATM   31  C   UNL     1     -11.361   6.996  72.838  1.00  0.00    -0.181 C  
BRANCH  31  32
HETATM   32  C   UNL     1     -11.352   5.479  72.682  1.00  0.00    -0.346 C  
BRANCH  32  33
HETATM   33  C   UNL     1     -10.056   5.029  71.981  1.00  0.00    -0.196 C  
HETATM   34  C   UNL     1     -10.234   4.821  70.479  1.00  0.00    -0.252 C  
HETATM   35  C   UNL     1      -8.826   4.956  69.951  1.00  0.00    -0.126 C  
HETATM   36  C   UNL     1      -8.137   5.846  73.246  1.00  0.00    -0.116 C  
HETATM   37  N   UNL     1      -8.995   6.046  72.082  1.00  0.00    -0.142 NA 
HETATM   38  C   UNL     1      -8.221   6.036  70.830  1.00  0.00    -0.125 C  
ENDBRANCH  32  33
ENDBRANCH  31  32
ENDBRANCH  29  31
ENDBRANCH  26  29
ENDBRANCH   9  26
ENDBRANCH   4   5
ENDBRANCH   3   4
ENDBRANCH   2   3
TORSDOF 11
ENDMDL
MODEL       80
REMARK 921   NORMALIZED FREE ENERGY PREDICTED BY IDOCK:   -5.50 KCAL/MOL
REMARK 922        TOTAL FREE ENERGY PREDICTED BY IDOCK:  -11.28 KCAL/MOL
REMARK 923 INTER-LIGAND FREE ENERGY PREDICTED BY IDOCK:  -10.37 KCAL/MOL
REMARK 924 INTRA-LIGAND FREE ENERGY PREDICTED BY IDOCK:   -0.91 KCAL/MOL
REMARK 927      BINDING AFFINITY PREDICTED BY RF-SCORE:    0.00 PKD
ROOT
HETATM    1  C   UNL     1      -9.724  16.026  68.794  1.00  0.00    -0.226 C  
HETATM    2  C   UNL     1     -10.164  14.991  69.813  1.00  0.00    -0.142 C  
ENDROOT
BRANCH   2   3
HETATM    3  C   UNL     1     -11.643  14.660  69.704  1.00  0.00    -0.307 C  
BRANCH   3   4
HETATM    4  O   UNL     1     -11.881  13.489  68.900  1.00  0.00    -0.309 OA 
BRANCH   4   5
HETATM    5  C   UNL     1     -12.114  12.333  69.624  1.00  0.00    -0.212 A  
HETATM    6  C   UNL     1     -11.832  11.069  69.049  1.00  0.00    -0.399 A  
HETATM    7  C   UNL     1     -12.141   9.893  69.775  1.00  0.00     0.140 A  
HETATM    8  C   UNL     1     -12.664  12.381  70.912  1.00  0.00    -0.273 A  
HETATM    9  C   UNL     1     -12.738   9.983  71.040  1.00  0.00    -0.362 A  
HETATM   10  C   UNL     1     -13.009  11.226  71.591  1.00  0.00    -0.537 A  
BRANCH   6  11
HETATM   11  C   UNL     1     -11.232  10.917  67.663  1.00  0.00    -0.309 C  
HETATM   12  C   UNL     1      -9.827   9.691  66.237  1.00  0.00    -0.256 C  
HETATM   13  N   UNL     1     -10.404   9.920  67.476  1.00  0.00    -0.220 N  
HETATM   14  H   UNL     1     -10.180   9.301  68.255  1.00  0.00     0.000 HD 
HETATM   15  N   UNL     1     -11.588  11.847  66.697  1.00  0.00    -0.528 NA 
HETATM   16  N   UNL     1     -10.525  11.738  63.283  1.00  0.00    -0.404 NA 
HETATM   17  C   UNL     1     -11.237  12.342  64.248  1.00  0.00    -0.350 A  
HETATM   18  C   UNL     1     -10.240  10.620  65.233  1.00  0.00    -0.282 A  
HETATM   19  O   UNL     1      -9.034   8.781  66.023  1.00  0.00    -0.167 OA 
HETATM   20  C   UNL     1      -9.101   9.791  63.143  1.00  0.00    -0.243 C  
HETATM   21  C   UNL     1     -11.086  11.662  65.469  1.00  0.00    -0.237 A  
HETATM   22  N   UNL     1      -9.934  10.688  63.908  1.00  0.00    -0.332 NA 
BRANCH  17  23
HETATM   23  C   UNL     1     -12.036  13.560  63.928  1.00  0.00    -0.493 C  
BRANCH  23  24
HETATM   24  C   UNL     1     -11.850  14.710  64.922  1.00  0.00    -0.403 C  
HETATM   25  C   UNL     1     -10.391  15.034  65.215  1.00  0.00    -0.424 C  
ENDBRANCH  23  24
ENDBRANCH  17  23
ENDBRANCH   6  11
BRANCH   9  26
HETATM   26  S   UNL     1     -13.243   8.536  71.944  1.00  0.00    -0.383 S  
HETATM   27  O   UNL     1     -13.370   7.459  70.992  1.00  0.00    -0.243 OA 
HETATM   28  O   UNL     1     -14.320   8.941  72.819  1.00  0.00    -0.600 OA 
BRANCH  26  29
HETATM   29  N   UNL     1     -11.873   8.171  72.901  1.00  0.00    -0.540 N  
HETATM   30  H   UNL     1     -11.913   8.182  73.920  1.00  0.00     0.000 HD 
BRANCH  29  31
HETATM   31  C   UNL     1     -10.629   7.840  72.176  1.00  0.00    -0.240 C  
BRANCH  31  32
HETATM   32  C   UNL     1      -9.560   7.267  73.101  1.00  0.00    -0.237 C  
BRANCH  32  33
HETATM   33  C   UNL     1      -9.360   5.767  72.813  1.00  0.00    -0.145 C  
HETATM   34  C   UNL     1      -7.896   5.339  72.881  1.00  0.00    -0.098 C  
HETATM   35  C   UNL     1      -7.991   3.854  73.138  1.00  0.00    -0.087 C  
HETATM   36  C   UNL     1     -11.390   4.559  73.422  1.00  0.00    -0.286 C  
HETATM   37  N   UNL     1     -10.031   4.922  73.815  1.00  0.00    -0.151 NA 
HETATM   38  C   UNL     1      -9.198   3.731  74.051  1.00  0.00    -0.088 C  
ENDBRANCH  32  33
ENDBRANCH  31  32
ENDBRANCH  29  31
ENDBRANCH  26  29
ENDBRANCH   9  26
ENDBRANCH   4   5
ENDBRANCH   3   4
ENDBRANCH   2   3
TORSDOF 11
ENDMDL
MODEL       81
REMARK 921   NORMALIZED FREE ENERGY PREDICTED BY IDOCK:   -5.50 KCAL/MOL
REMARK 922        TOTAL FREE ENERGY PREDICTED BY IDOCK:  -11.27 KCAL/MOL
REMARK 923 INTER-LIGAND FREE ENERGY PREDICTED BY IDOCK:   -9.35 KCAL/MOL
REMARK 924 INTRA-LIGAND FREE ENERGY PREDICTED BY IDOCK:   -1.93 KCAL/MOL
REMARK 927      BINDING AFFINITY PREDICTED BY RF-SCORE:    0.00 PKD
ROOT
HETATM    1  C   UNL     1      -7.176   9.907  67.611  1.00  0.00    -0.089 C  
HETATM    2  C   UNL     1      -7.959   9.780  66.318  1.00  0.00    -0.109 C  
ENDROOT
BRANCH   2   3
HETATM    3  C   UNL     1      -8.803   8.516  66.272  1.00  0.00    -0.156 C  
BRANCH   3   4
HETATM    4  O   UNL     1     -10.191   8.777  66.551  1.00  0.00    -0.288 OA 
BRANCH   4   5
HETATM    5  C   UNL     1     -10.560   8.577  67.868  1.00  0.00    -0.156 A  
HETATM    6  C   UNL     1     -10.902   9.683  68.684  1.00  0.00    -0.203 A  
HETATM    7  C   UNL     1     -11.210   9.469  70.050  1.00  0.00    -0.243 A  
HETATM    8  C   UNL     1     -10.566   7.294  68.433  1.00  0.00    -0.209 A  
HETATM    9  C   UNL     1     -11.155   8.176  70.589  1.00  0.00    -0.254 A  
HETATM   10  C   UNL     1     -10.819   7.102  69.780  1.00  0.00    -0.261 A  
BRANCH   6  11
HETATM   11  C   UNL     1     -10.928  11.108  68.161  1.00  0.00    -0.238 C  
HETATM   12  C   UNL     1     -10.234  13.333  68.438  1.00  0.00    -0.249 C  
HETATM   13  N   UNL     1     -10.283  12.011  68.854  1.00  0.00    -0.407 N  
HETATM   14  H   UNL     1      -9.809  11.739  69.715  1.00  0.00     0.000 HD 
HETATM   15  N   UNL     1     -11.641  11.357  66.997  1.00  0.00    -0.514 NA 
HETATM   16  N   UNL     1     -11.807  14.533  65.358  1.00  0.00    -0.356 NA 
HETATM   17  C   UNL     1     -12.150  13.235  65.391  1.00  0.00    -0.422 A  
HETATM   18  C   UNL     1     -10.925  13.572  67.211  1.00  0.00    -0.280 A  
HETATM   19  O   UNL     1      -9.656  14.214  69.066  1.00  0.00    -0.109 OA 
HETATM   20  C   UNL     1     -10.486  16.009  66.741  1.00  0.00    -0.308 C  
HETATM   21  C   UNL     1     -11.607  12.611  66.527  1.00  0.00    -0.381 A  
HETATM   22  N   UNL     1     -11.055  14.710  66.474  1.00  0.00    -0.323 NA 
BRANCH  17  23
HETATM   23  C   UNL     1     -12.997  12.664  64.303  1.00  0.00    -0.204 C  
BRANCH  23  24
HETATM   24  C   UNL     1     -12.224  11.822  63.285  1.00  0.00    -0.400 C  
HETATM   25  C   UNL     1     -10.714  12.006  63.360  1.00  0.00    -0.475 C  
ENDBRANCH  23  24
ENDBRANCH  17  23
ENDBRANCH   6  11
BRANCH   9  26
HETATM   26  S   UNL     1     -11.428   7.870  72.321  1.00  0.00    -0.373 S  
HETATM   27  O   UNL     1     -12.689   8.480  72.670  1.00  0.00    -0.341 OA 
HETATM   28  O   UNL     1     -10.192   8.178  73.002  1.00  0.00    -0.309 OA 
BRANCH  26  29
HETATM   29  N   UNL     1     -11.679   6.179  72.387  1.00  0.00    -0.425 N  
HETATM   30  H   UNL     1     -12.188   5.685  71.654  1.00  0.00     0.000 HD 
BRANCH  29  31
HETATM   31  C   UNL     1     -11.121   5.472  73.557  1.00  0.00    -0.167 C  
BRANCH  31  32
HETATM   32  C   UNL     1     -10.860   3.998  73.267  1.00  0.00    -0.301 C  
BRANCH  32  33
HETATM   33  C   UNL     1      -9.540   3.839  72.488  1.00  0.00    -0.134 C  
HETATM   34  C   UNL     1      -9.754   3.672  70.985  1.00  0.00    -0.243 C  
HETATM   35  C   UNL     1      -8.427   4.100  70.406  1.00  0.00    -0.098 C  
HETATM   36  C   UNL     1      -7.748   4.950  73.714  1.00  0.00    -0.095 C  
HETATM   37  N   UNL     1      -8.689   5.035  72.601  1.00  0.00    -0.119 NA 
HETATM   38  C   UNL     1      -7.994   5.234  71.318  1.00  0.00    -0.109 C  
ENDBRANCH  32  33
ENDBRANCH  31  32
ENDBRANCH  29  31
ENDBRANCH  26  29
ENDBRANCH   9  26
ENDBRANCH   4   5
ENDBRANCH   3   4
ENDBRANCH   2   3
TORSDOF 11
ENDMDL
MODEL       82
REMARK 921   NORMALIZED FREE ENERGY PREDICTED BY IDOCK:   -5.50 KCAL/MOL
REMARK 922        TOTAL FREE ENERGY PREDICTED BY IDOCK:  -11.26 KCAL/MOL
REMARK 923 INTER-LIGAND FREE ENERGY PREDICTED BY IDOCK:   -9.95 KCAL/MOL
REMARK 924 INTRA-LIGAND FREE ENERGY PREDICTED BY IDOCK:   -1.31 KCAL/MOL
REMARK 927      BINDING AFFINITY PREDICTED BY RF-SCORE:    0.00 PKD
ROOT
HETATM    1  C   UNL     1      -9.162   8.786  71.650  1.00  0.00    -0.333 C  
HETATM    2  C   UNL     1      -8.687   9.042  70.231  1.00  0.00    -0.202 C  
ENDROOT
BRANCH   2   3
HETATM    3  C   UNL     1      -9.398  10.221  69.586  1.00  0.00    -0.139 C  
BRANCH   3   4
HETATM    4  O   UNL     1     -10.579   9.818  68.868  1.00  0.00    -0.207 OA 
BRANCH   4   5
HETATM    5  C   UNL     1     -10.933  10.657  67.827  1.00  0.00    -0.306 A  
HETATM    6  C   UNL     1     -10.541  10.347  66.502  1.00  0.00    -0.220 A  
HETATM    7  C   UNL     1     -10.851  11.251  65.457  1.00  0.00    -0.244 A  
HETATM    8  C   UNL     1     -11.645  11.842  68.060  1.00  0.00    -0.386 A  
HETATM    9  C   UNL     1     -11.520  12.450  65.739  1.00  0.00    -0.370 A  
HETATM   10  C   UNL     1     -11.897  12.742  67.040  1.00  0.00    -0.428 A  
BRANCH   6  11
HETATM   11  C   UNL     1      -9.772   9.085  66.152  1.00  0.00    -0.283 C  
HETATM   12  C   UNL     1      -8.066   8.095  64.880  1.00  0.00    -0.153 C  
HETATM   13  N   UNL     1      -8.833   9.190  65.245  1.00  0.00    -0.191 N  
HETATM   14  H   UNL     1      -8.664  10.092  64.800  1.00  0.00     0.000 HD 
HETATM   15  N   UNL     1     -10.123   7.911  66.802  1.00  0.00    -0.276 NA 
HETATM   16  N   UNL     1      -8.449   4.777  66.379  1.00  0.00    -0.110 NA 
HETATM   17  C   UNL     1      -9.413   5.497  66.978  1.00  0.00    -0.131 A  
HETATM   18  C   UNL     1      -8.396   6.901  65.592  1.00  0.00    -0.146 A  
HETATM   19  O   UNL     1      -7.189   8.145  64.023  1.00  0.00    -0.083 OA 
HETATM   20  C   UNL     1      -6.716   5.219  64.755  1.00  0.00    -0.048 C  
HETATM   21  C   UNL     1      -9.397   6.823  66.513  1.00  0.00    -0.161 A  
HETATM   22  N   UNL     1      -7.840   5.660  65.546  1.00  0.00    -0.096 NA 
BRANCH  17  23
HETATM   23  C   UNL     1     -10.308   4.848  67.979  1.00  0.00    -0.044 C  
BRANCH  23  24
HETATM   24  C   UNL     1     -10.177   5.413  69.395  1.00  0.00    -0.334 C  
HETATM   25  C   UNL     1     -11.329   6.326  69.798  1.00  0.00    -0.506 C  
ENDBRANCH  23  24
ENDBRANCH  17  23
ENDBRANCH   6  11
BRANCH   9  26
HETATM   26  S   UNL     1     -11.835  13.667  64.480  1.00  0.00    -0.432 S  
HETATM   27  O   UNL     1     -13.076  14.323  64.819  1.00  0.00    -0.599 OA 
HETATM   28  O   UNL     1     -11.612  13.022  63.206  1.00  0.00    -0.446 OA 
BRANCH  26  29
HETATM   29  N   UNL     1     -10.599  14.822  64.730  1.00  0.00    -0.563 N  
HETATM   30  H   UNL     1      -9.744  14.820  64.174  1.00  0.00     0.000 HD 
BRANCH  29  31
HETATM   31  C   UNL     1     -10.832  15.822  65.791  1.00  0.00    -0.280 C  
BRANCH  31  32
HETATM   32  C   UNL     1      -9.571  16.108  66.600  1.00  0.00    -0.263 C  
BRANCH  32  33
HETATM   33  C   UNL     1      -9.168  17.586  66.446  1.00  0.00    -0.245 C  
HETATM   34  C   UNL     1     -10.368  18.530  66.424  1.00  0.00    -0.456 C  
HETATM   35  C   UNL     1      -9.765  19.852  66.836  1.00  0.00    -0.532 C  
HETATM   36  C   UNL     1      -6.926  17.903  67.353  1.00  0.00    -0.186 C  
HETATM   37  N   UNL     1      -8.359  18.056  67.584  1.00  0.00    -0.236 NA 
HETATM   38  C   UNL     1      -8.717  19.457  67.861  1.00  0.00    -0.317 C  
ENDBRANCH  32  33
ENDBRANCH  31  32
ENDBRANCH  29  31
ENDBRANCH  26  29
ENDBRANCH   9  26
ENDBRANCH   4   5
ENDBRANCH   3   4
ENDBRANCH   2   3
TORSDOF 11
ENDMDL
MODEL       83
REMARK 921   NORMALIZED FREE ENERGY PREDICTED BY IDOCK:   -5.50 KCAL/MOL
REMARK 922        TOTAL FREE ENERGY PREDICTED BY IDOCK:  -11.26 KCAL/MOL
REMARK 923 INTER-LIGAND FREE ENERGY PREDICTED BY IDOCK:   -9.07 KCAL/MOL
REMARK 924 INTRA-LIGAND FREE ENERGY PREDICTED BY IDOCK:   -2.20 KCAL/MOL
REMARK 927      BINDING AFFINITY PREDICTED BY RF-SCORE:    0.00 PKD
ROOT
HETATM    1  C   UNL     1      -6.748  10.162  67.078  1.00  0.00    -0.078 C  
HETATM    2  C   UNL     1      -7.628  10.226  65.844  1.00  0.00    -0.134 C  
ENDROOT
BRANCH   2   3
HETATM    3  C   UNL     1      -8.582   9.047  65.749  1.00  0.00    -0.160 C  
BRANCH   3   4
HETATM    4  O   UNL     1      -9.945   9.426  66.013  1.00  0.00    -0.293 OA 
BRANCH   4   5
HETATM    5  C   UNL     1     -10.337   9.279  67.332  1.00  0.00    -0.263 A  
HETATM    6  C   UNL     1     -10.712  10.415  68.090  1.00  0.00    -0.277 A  
HETATM    7  C   UNL     1     -11.043  10.257  69.458  1.00  0.00    -0.310 A  
HETATM    8  C   UNL     1     -10.334   8.023  67.954  1.00  0.00    -0.282 A  
HETATM    9  C   UNL     1     -10.979   8.991  70.056  1.00  0.00    -0.214 A  
HETATM   10  C   UNL     1     -10.610   7.888  69.303  1.00  0.00    -0.195 A  
BRANCH   6  11
HETATM   11  C   UNL     1     -10.750  11.814  67.502  1.00  0.00    -0.221 C  
HETATM   12  C   UNL     1     -10.802  13.151  65.574  1.00  0.00    -0.283 C  
HETATM   13  N   UNL     1     -10.746  11.914  66.196  1.00  0.00    -0.268 N  
HETATM   14  H   UNL     1     -10.700  11.068  65.629  1.00  0.00     0.000 HD 
HETATM   15  N   UNL     1     -10.773  12.886  68.382  1.00  0.00    -0.248 NA 
HETATM   16  N   UNL     1     -11.032  16.316  67.399  1.00  0.00    -0.236 NA 
HETATM   17  C   UNL     1     -10.944  15.403  68.381  1.00  0.00    -0.284 A  
HETATM   18  C   UNL     1     -10.880  14.248  66.485  1.00  0.00    -0.304 A  
HETATM   19  O   UNL     1     -10.782  13.292  64.355  1.00  0.00    -0.382 OA 
HETATM   20  C   UNL     1     -11.103  16.261  64.985  1.00  0.00    -0.254 C  
HETATM   21  C   UNL     1     -10.858  14.108  67.840  1.00  0.00    -0.245 A  
HETATM   22  N   UNL     1     -10.998  15.585  66.256  1.00  0.00    -0.287 NA 
BRANCH  17  23
HETATM   23  C   UNL     1     -10.949  15.843  69.806  1.00  0.00    -0.328 C  
BRANCH  23  24
HETATM   24  C   UNL     1     -12.258  15.558  70.545  1.00  0.00    -0.444 C  
HETATM   25  C   UNL     1     -12.227  15.949  72.017  1.00  0.00    -0.570 C  
ENDBRANCH  23  24
ENDBRANCH  17  23
ENDBRANCH   6  11
BRANCH   9  26
HETATM   26  S   UNL     1     -11.280   8.758  71.794  1.00  0.00    -0.362 S  
HETATM   27  O   UNL     1     -12.452   9.531  72.133  1.00  0.00    -0.357 OA 
HETATM   28  O   UNL     1     -10.012   8.922  72.467  1.00  0.00    -0.184 OA 
BRANCH  26  29
HETATM   29  N   UNL     1     -11.743   7.115  71.897  1.00  0.00    -0.282 N  
HETATM   30  H   UNL     1     -12.345   6.684  71.196  1.00  0.00     0.000 HD 
BRANCH  29  31
HETATM   31  C   UNL     1     -11.226   6.352  73.052  1.00  0.00    -0.143 C  
BRANCH  31  32
HETATM   32  C   UNL     1     -11.118   4.861  72.753  1.00  0.00    -0.283 C  
BRANCH  32  33
HETATM   33  C   UNL     1      -9.791   4.562  72.029  1.00  0.00    -0.178 C  
HETATM   34  C   UNL     1      -9.960   4.407  70.519  1.00  0.00    -0.256 C  
HETATM   35  C   UNL     1      -8.573   4.693  69.994  1.00  0.00    -0.101 C  
HETATM   36  C   UNL     1      -7.946   5.493  73.325  1.00  0.00    -0.107 C  
HETATM   37  N   UNL     1      -8.827   5.666  72.173  1.00  0.00    -0.137 NA 
HETATM   38  C   UNL     1      -8.063   5.783  70.920  1.00  0.00    -0.119 C  
ENDBRANCH  32  33
ENDBRANCH  31  32
ENDBRANCH  29  31
ENDBRANCH  26  29
ENDBRANCH   9  26
ENDBRANCH   4   5
ENDBRANCH   3   4
ENDBRANCH   2   3
TORSDOF 11
ENDMDL
MODEL       84
REMARK 921   NORMALIZED FREE ENERGY PREDICTED BY IDOCK:   -5.50 KCAL/MOL
REMARK 922        TOTAL FREE ENERGY PREDICTED BY IDOCK:  -11.26 KCAL/MOL
REMARK 923 INTER-LIGAND FREE ENERGY PREDICTED BY IDOCK:   -9.11 KCAL/MOL
REMARK 924 INTRA-LIGAND FREE ENERGY PREDICTED BY IDOCK:   -2.15 KCAL/MOL
REMARK 927      BINDING AFFINITY PREDICTED BY RF-SCORE:    0.00 PKD
ROOT
HETATM    1  C   UNL     1     -13.474  13.926  72.563  1.00  0.00    -0.676 C  
HETATM    2  C   UNL     1     -12.936  13.146  71.377  1.00  0.00    -0.386 C  
ENDROOT
BRANCH   2   3
HETATM    3  C   UNL     1     -13.149  11.648  71.523  1.00  0.00    -0.302 C  
BRANCH   3   4
HETATM    4  O   UNL     1     -12.718  10.920  70.358  1.00  0.00    -0.309 OA 
BRANCH   4   5
HETATM    5  C   UNL     1     -11.437  10.404  70.444  1.00  0.00    -0.337 A  
HETATM    6  C   UNL     1     -10.464  10.761  69.479  1.00  0.00    -0.205 A  
HETATM    7  C   UNL     1      -9.178  10.171  69.539  1.00  0.00    -0.223 A  
HETATM    8  C   UNL     1     -11.086   9.496  71.452  1.00  0.00    -0.438 A  
HETATM    9  C   UNL     1      -8.883   9.228  70.533  1.00  0.00    -0.241 A  
HETATM   10  C   UNL     1      -9.844   8.887  71.471  1.00  0.00    -0.384 A  
BRANCH   6  11
HETATM   11  C   UNL     1     -10.749  11.740  68.354  1.00  0.00    -0.219 C  
HETATM   12  C   UNL     1     -11.736  12.116  66.257  1.00  0.00    -0.320 C  
HETATM   13  N   UNL     1     -11.412  11.286  67.320  1.00  0.00    -0.257 N  
HETATM   14  H   UNL     1     -11.693  10.307  67.295  1.00  0.00     0.000 HD 
HETATM   15  N   UNL     1     -10.280  13.038  68.490  1.00  0.00    -0.237 NA 
HETATM   16  N   UNL     1     -10.884  15.675  66.148  1.00  0.00    -0.298 NA 
HETATM   17  C   UNL     1     -10.338  15.265  67.305  1.00  0.00    -0.264 A  
HETATM   18  C   UNL     1     -11.296  13.464  66.429  1.00  0.00    -0.313 A  
HETATM   19  O   UNL     1     -12.339  11.728  65.262  1.00  0.00    -0.223 OA 
HETATM   20  C   UNL     1     -12.186  14.649  64.390  1.00  0.00    -0.452 C  
HETATM   21  C   UNL     1     -10.587  13.896  67.509  1.00  0.00    -0.256 A  
HETATM   22  N   UNL     1     -11.468  14.560  65.639  1.00  0.00    -0.338 NA 
BRANCH  17  23
HETATM   23  C   UNL     1      -9.595  16.236  68.159  1.00  0.00    -0.219 C  
BRANCH  23  24
HETATM   24  C   UNL     1      -9.787  16.023  69.663  1.00  0.00    -0.196 C  
HETATM   25  C   UNL     1     -11.230  16.190  70.124  1.00  0.00    -0.374 C  
ENDBRANCH  23  24
ENDBRANCH  17  23
ENDBRANCH   6  11
BRANCH   9  26
HETATM   26  S   UNL     1      -7.320   8.379  70.586  1.00  0.00    -0.062 S  
HETATM   27  O   UNL     1      -7.168   7.843  71.918  1.00  0.00    -0.064 OA 
HETATM   28  O   UNL     1      -6.344   9.254  69.977  1.00  0.00    -0.040 OA 
BRANCH  26  29
HETATM   29  N   UNL     1      -7.566   7.036  69.555  1.00  0.00    -0.096 N  
HETATM   30  H   UNL     1      -7.903   7.150  68.599  1.00  0.00     0.000 HD 
BRANCH  29  31
HETATM   31  C   UNL     1      -7.266   5.705  70.118  1.00  0.00    -0.068 C  
BRANCH  31  32
HETATM   32  C   UNL     1      -8.022   4.592  69.399  1.00  0.00    -0.066 C  
BRANCH  32  33
HETATM   33  C   UNL     1      -9.340   4.287  70.136  1.00  0.00    -0.158 C  
HETATM   34  C   UNL     1      -9.123   3.584  71.474  1.00  0.00    -0.174 C  
HETATM   35  C   UNL     1     -10.394   3.897  72.229  1.00  0.00    -0.170 C  
HETATM   36  C   UNL     1     -11.029   5.912  69.461  1.00  0.00    -0.368 C  
HETATM   37  N   UNL     1     -10.070   5.517  70.488  1.00  0.00    -0.210 NA 
HETATM   38  C   UNL     1     -10.724   5.313  71.791  1.00  0.00    -0.170 C  
ENDBRANCH  32  33
ENDBRANCH  31  32
ENDBRANCH  29  31
ENDBRANCH  26  29
ENDBRANCH   9  26
ENDBRANCH   4   5
ENDBRANCH   3   4
ENDBRANCH   2   3
TORSDOF 11
ENDMDL
MODEL       85
REMARK 921   NORMALIZED FREE ENERGY PREDICTED BY IDOCK:   -5.49 KCAL/MOL
REMARK 922        TOTAL FREE ENERGY PREDICTED BY IDOCK:  -11.26 KCAL/MOL
REMARK 923 INTER-LIGAND FREE ENERGY PREDICTED BY IDOCK:   -9.37 KCAL/MOL
REMARK 924 INTRA-LIGAND FREE ENERGY PREDICTED BY IDOCK:   -1.89 KCAL/MOL
REMARK 927      BINDING AFFINITY PREDICTED BY RF-SCORE:    0.00 PKD
ROOT
HETATM    1  C   UNL     1     -10.828   5.948  72.830  1.00  0.00    -0.289 C  
HETATM    2  C   UNL     1     -11.137   7.412  72.575  1.00  0.00    -0.350 C  
ENDROOT
BRANCH   2   3
HETATM    3  C   UNL     1     -11.736   7.647  71.198  1.00  0.00    -0.290 C  
BRANCH   3   4
HETATM    4  O   UNL     1     -11.616   9.019  70.779  1.00  0.00    -0.276 OA 
BRANCH   4   5
HETATM    5  C   UNL     1     -10.964   9.197  69.572  1.00  0.00    -0.123 A  
HETATM    6  C   UNL     1     -10.934  10.476  68.965  1.00  0.00    -0.289 A  
HETATM    7  C   UNL     1     -10.323  10.628  67.696  1.00  0.00    -0.246 A  
HETATM    8  C   UNL     1     -10.358   8.121  68.909  1.00  0.00    -0.225 A  
HETATM    9  C   UNL     1      -9.773   9.516  67.043  1.00  0.00    -0.176 A  
HETATM   10  C   UNL     1      -9.809   8.270  67.648  1.00  0.00    -0.218 A  
BRANCH   6  11
HETATM   11  C   UNL     1     -11.558  11.702  69.608  1.00  0.00    -0.330 C  
HETATM   12  C   UNL     1     -12.856  12.576  71.358  1.00  0.00    -0.260 C  
HETATM   13  N   UNL     1     -12.269  11.512  70.692  1.00  0.00    -0.383 N  
HETATM   14  H   UNL     1     -12.392  10.565  71.051  1.00  0.00     0.000 HD 
HETATM   15  N   UNL     1     -11.347  12.931  69.001  1.00  0.00    -0.276 NA 
HETATM   16  N   UNL     1     -12.504  16.061  70.293  1.00  0.00    -0.211 NA 
HETATM   17  C   UNL     1     -11.835  15.382  69.345  1.00  0.00    -0.351 A  
HETATM   18  C   UNL     1     -12.589  13.845  70.758  1.00  0.00    -0.354 A  
HETATM   19  O   UNL     1     -13.543  12.441  72.365  1.00  0.00    -0.478 OA 
HETATM   20  C   UNL     1     -13.692  15.489  72.317  1.00  0.00    -0.535 C  
HETATM   21  C   UNL     1     -11.865  14.003  69.615  1.00  0.00    -0.330 A  
HETATM   22  N   UNL     1     -12.946  15.100  71.145  1.00  0.00    -0.385 NA 
BRANCH  17  23
HETATM   23  C   UNL     1     -11.197  16.119  68.217  1.00  0.00    -0.343 C  
BRANCH  23  24
HETATM   24  C   UNL     1     -10.035  17.023  68.636  1.00  0.00    -0.294 C  
HETATM   25  C   UNL     1      -8.705  16.291  68.759  1.00  0.00    -0.244 C  
ENDBRANCH  23  24
ENDBRANCH  17  23
ENDBRANCH   6  11
BRANCH   9  26
HETATM   26  S   UNL     1      -9.092   9.634  65.403  1.00  0.00    -0.232 S  
HETATM   27  O   UNL     1      -7.730  10.095  65.537  1.00  0.00    -0.133 OA 
HETATM   28  O   UNL     1     -10.073  10.313  64.588  1.00  0.00    -0.345 OA 
BRANCH  26  29
HETATM   29  N   UNL     1      -8.999   8.003  64.898  1.00  0.00    -0.347 N  
HETATM   30  H   UNL     1      -9.822   7.495  64.574  1.00  0.00     0.000 HD 
BRANCH  29  31
HETATM   31  C   UNL     1      -7.666   7.368  64.953  1.00  0.00    -0.113 C  
BRANCH  31  32
HETATM   32  C   UNL     1      -7.660   5.988  64.305  1.00  0.00    -0.093 C  
BRANCH  32  33
HETATM   33  C   UNL     1      -8.221   4.940  65.285  1.00  0.00    -0.122 C  
HETATM   34  C   UNL     1      -7.824   5.211  66.735  1.00  0.00    -0.100 C  
HETATM   35  C   UNL     1      -8.885   4.474  67.518  1.00  0.00    -0.115 C  
HETATM   36  C   UNL     1     -10.269   3.994  64.359  1.00  0.00    -0.198 C  
HETATM   37  N   UNL     1      -9.694   4.943  65.307  1.00  0.00    -0.088 NA 
HETATM   38  C   UNL     1     -10.139   4.671  66.684  1.00  0.00    -0.234 C  
ENDBRANCH  32  33
ENDBRANCH  31  32
ENDBRANCH  29  31
ENDBRANCH  26  29
ENDBRANCH   9  26
ENDBRANCH   4   5
ENDBRANCH   3   4
ENDBRANCH   2   3
TORSDOF 11
ENDMDL
MODEL       86
REMARK 921   NORMALIZED FREE ENERGY PREDICTED BY IDOCK:   -5.49 KCAL/MOL
REMARK 922        TOTAL FREE ENERGY PREDICTED BY IDOCK:  -11.25 KCAL/MOL
REMARK 923 INTER-LIGAND FREE ENERGY PREDICTED BY IDOCK:   -9.83 KCAL/MOL
REMARK 924 INTRA-LIGAND FREE ENERGY PREDICTED BY IDOCK:   -1.42 KCAL/MOL
REMARK 927      BINDING AFFINITY PREDICTED BY RF-SCORE:    0.00 PKD
ROOT
HETATM    1  C   UNL     1     -13.618   7.357  71.473  1.00  0.00    -0.454 C  
HETATM    2  C   UNL     1     -12.827   8.360  72.290  1.00  0.00    -0.359 C  
ENDROOT
BRANCH   2   3
HETATM    3  C   UNL     1     -12.833   9.748  71.671  1.00  0.00    -0.421 C  
BRANCH   3   4
HETATM    4  O   UNL     1     -11.535  10.134  71.184  1.00  0.00    -0.357 OA 
BRANCH   4   5
HETATM    5  C   UNL     1     -11.525  10.609  69.885  1.00  0.00    -0.317 A  
HETATM    6  C   UNL     1     -10.986   9.815  68.844  1.00  0.00    -0.183 A  
HETATM    7  C   UNL     1     -10.920  10.343  67.532  1.00  0.00    -0.358 A  
HETATM    8  C   UNL     1     -12.007  11.889  69.577  1.00  0.00    -0.355 A  
HETATM    9  C   UNL     1     -11.365  11.647  67.275  1.00  0.00    -0.305 A  
HETATM   10  C   UNL     1     -11.890  12.414  68.303  1.00  0.00    -0.364 A  
BRANCH   6  11
HETATM   11  C   UNL     1     -10.445   8.416  69.080  1.00  0.00    -0.201 C  
HETATM   12  C   UNL     1      -9.452   6.901  70.573  1.00  0.00    -0.169 C  
HETATM   13  N   UNL     1      -9.947   8.159  70.263  1.00  0.00    -0.188 N  
HETATM   14  H   UNL     1      -9.922   8.895  70.967  1.00  0.00     0.000 HD 
HETATM   15  N   UNL     1     -10.504   7.514  68.028  1.00  0.00    -0.208 NA 
HETATM   16  N   UNL     1      -9.491   4.088  68.231  1.00  0.00    -0.164 NA 
HETATM   17  C   UNL     1     -10.002   5.097  67.505  1.00  0.00    -0.174 A  
HETATM   18  C   UNL     1      -9.565   5.962  69.503  1.00  0.00    -0.140 A  
HETATM   19  O   UNL     1      -8.961   6.622  71.662  1.00  0.00    -0.141 OA 
HETATM   20  C   UNL     1      -8.703   3.813  70.498  1.00  0.00    -0.073 C  
HETATM   21  C   UNL     1     -10.068   6.272  68.275  1.00  0.00    -0.153 A  
HETATM   22  N   UNL     1      -9.241   4.641  69.445  1.00  0.00    -0.108 NA 
BRANCH  17  23
HETATM   23  C   UNL     1     -10.403   4.862  66.088  1.00  0.00    -0.329 C  
BRANCH  23  24
HETATM   24  C   UNL     1      -9.235   4.548  65.150  1.00  0.00    -0.157 C  
HETATM   25  C   UNL     1      -9.482   3.346  64.248  1.00  0.00    -0.143 C  
ENDBRANCH  23  24
ENDBRANCH  17  23
ENDBRANCH   6  11
BRANCH   9  26
HETATM   26  S   UNL     1     -11.203  12.394  65.668  1.00  0.00    -0.335 S  
HETATM   27  O   UNL     1     -12.425  12.126  64.946  1.00  0.00    -0.467 OA 
HETATM   28  O   UNL     1      -9.899  12.030  65.164  1.00  0.00    -0.248 OA 
BRANCH  26  29
HETATM   29  N   UNL     1     -11.207  14.070  66.011  1.00  0.00    -0.306 N  
HETATM   30  H   UNL     1     -12.072  14.575  66.205  1.00  0.00     0.000 HD 
BRANCH  29  31
HETATM   31  C   UNL     1      -9.895  14.748  66.012  1.00  0.00    -0.324 C  
BRANCH  31  32
HETATM   32  C   UNL     1      -9.997  16.197  65.546  1.00  0.00    -0.251 C  
BRANCH  32  33
HETATM   33  C   UNL     1      -9.189  17.112  66.485  1.00  0.00    -0.266 C  
HETATM   34  C   UNL     1      -7.681  16.909  66.361  1.00  0.00    -0.345 C  
HETATM   35  C   UNL     1      -7.121  18.211  66.883  1.00  0.00    -0.217 C  
HETATM   36  C   UNL     1     -10.478  19.134  66.935  1.00  0.00    -0.437 C  
HETATM   37  N   UNL     1      -9.389  18.537  66.168  1.00  0.00    -0.493 NA 
HETATM   38  C   UNL     1      -8.117  19.246  66.391  1.00  0.00    -0.316 C  
ENDBRANCH  32  33
ENDBRANCH  31  32
ENDBRANCH  29  31
ENDBRANCH  26  29
ENDBRANCH   9  26
ENDBRANCH   4   5
ENDBRANCH   3   4
ENDBRANCH   2   3
TORSDOF 11
ENDMDL
MODEL       87
REMARK 921   NORMALIZED FREE ENERGY PREDICTED BY IDOCK:   -5.47 KCAL/MOL
REMARK 922        TOTAL FREE ENERGY PREDICTED BY IDOCK:  -11.22 KCAL/MOL
REMARK 923 INTER-LIGAND FREE ENERGY PREDICTED BY IDOCK:  -10.07 KCAL/MOL
REMARK 924 INTRA-LIGAND FREE ENERGY PREDICTED BY IDOCK:   -1.14 KCAL/MOL
REMARK 927      BINDING AFFINITY PREDICTED BY RF-SCORE:    0.00 PKD
ROOT
HETATM    1  C   UNL     1      -6.628  10.673  66.308  1.00  0.00    -0.126 C  
HETATM    2  C   UNL     1      -6.631  10.821  67.818  1.00  0.00    -0.064 C  
ENDROOT
BRANCH   2   3
HETATM    3  C   UNL     1      -6.659  12.275  68.260  1.00  0.00    -0.058 C  
BRANCH   3   4
HETATM    4  O   UNL     1      -7.939  12.657  68.797  1.00  0.00    -0.059 OA 
BRANCH   4   5
HETATM    5  C   UNL     1      -8.433  13.853  68.310  1.00  0.00    -0.169 A  
HETATM    6  C   UNL     1      -9.778  14.219  68.562  1.00  0.00    -0.225 A  
HETATM    7  C   UNL     1     -10.289  15.414  67.998  1.00  0.00    -0.249 A  
HETATM    8  C   UNL     1      -7.637  14.704  67.531  1.00  0.00    -0.215 A  
HETATM    9  C   UNL     1      -9.475  16.211  67.182  1.00  0.00    -0.223 A  
HETATM   10  C   UNL     1      -8.161  15.841  66.943  1.00  0.00    -0.288 A  
BRANCH   6  11
HETATM   11  C   UNL     1     -10.715  13.366  69.399  1.00  0.00     0.120 C  
HETATM   12  C   UNL     1     -11.373  11.211  70.058  1.00  0.00    -0.243 C  
HETATM   13  N   UNL     1     -10.576  12.066  69.313  1.00  0.00    -0.442 N  
HETATM   14  H   UNL     1      -9.872  11.677  68.687  1.00  0.00     0.000 HD 
HETATM   15  N   UNL     1     -11.657  14.015  70.182  1.00  0.00    -0.240 NA 
HETATM   16  N   UNL     1     -13.925  12.375  72.411  1.00  0.00    -0.083 NA 
HETATM   17  C   UNL     1     -13.452  13.517  71.883  1.00  0.00    -0.442 A  
HETATM   18  C   UNL     1     -12.305  11.888  70.903  1.00  0.00    -0.300 A  
HETATM   19  O   UNL     1     -11.289   9.989  69.995  1.00  0.00    -0.253 OA 
HETATM   20  C   UNL     1     -13.437  10.022  72.164  1.00  0.00    -0.318 C  
HETATM   21  C   UNL     1     -12.438  13.243  70.949  1.00  0.00    -0.342 A  
HETATM   22  N   UNL     1     -13.203  11.400  71.802  1.00  0.00    -0.439 NA 
BRANCH  17  23
HETATM   23  C   UNL     1     -14.019  14.825  72.319  1.00  0.00    -0.598 C  
BRANCH  23  24
HETATM   24  C   UNL     1     -12.987  15.788  72.912  1.00  0.00    -0.600 C  
HETATM   25  C   UNL     1     -11.983  15.113  73.838  1.00  0.00    -0.496 C  
ENDBRANCH  23  24
ENDBRANCH  17  23
ENDBRANCH   6  11
BRANCH   9  26
HETATM   26  S   UNL     1     -10.102  17.662  66.364  1.00  0.00    -0.353 S  
HETATM   27  O   UNL     1      -8.973  18.339  65.770  1.00  0.00    -0.440 OA 
HETATM   28  O   UNL     1     -11.008  18.307  67.285  1.00  0.00    -0.312 OA 
BRANCH  26  29
HETATM   29  N   UNL     1     -11.012  17.019  65.065  1.00  0.00    -0.158 N  
HETATM   30  H   UNL     1     -11.622  17.606  64.497  1.00  0.00     0.000 HD 
BRANCH  29  31
HETATM   31  C   UNL     1     -10.868  15.571  64.809  1.00  0.00    -0.363 C  
BRANCH  31  32
HETATM   32  C   UNL     1     -12.126  14.794  65.180  1.00  0.00    -0.240 C  
BRANCH  32  33
HETATM   33  C   UNL     1     -11.934  13.298  64.870  1.00  0.00    -0.378 C  
HETATM   34  C   UNL     1     -12.734  12.835  63.654  1.00  0.00    -0.259 C  
HETATM   35  C   UNL     1     -11.992  11.596  63.214  1.00  0.00    -0.235 C  
HETATM   36  C   UNL     1      -9.749  12.586  65.687  1.00  0.00    -0.158 C  
HETATM   37  N   UNL     1     -10.537  12.984  64.525  1.00  0.00    -0.371 NA 
HETATM   38  C   UNL     1     -10.538  11.939  63.487  1.00  0.00    -0.453 C  
ENDBRANCH  32  33
ENDBRANCH  31  32
ENDBRANCH  29  31
ENDBRANCH  26  29
ENDBRANCH   9  26
ENDBRANCH   4   5
ENDBRANCH   3   4
ENDBRANCH   2   3
TORSDOF 11
ENDMDL
MODEL       88
REMARK 921   NORMALIZED FREE ENERGY PREDICTED BY IDOCK:   -5.47 KCAL/MOL
REMARK 922        TOTAL FREE ENERGY PREDICTED BY IDOCK:  -11.22 KCAL/MOL
REMARK 923 INTER-LIGAND FREE ENERGY PREDICTED BY IDOCK:   -9.02 KCAL/MOL
REMARK 924 INTRA-LIGAND FREE ENERGY PREDICTED BY IDOCK:   -2.19 KCAL/MOL
REMARK 927      BINDING AFFINITY PREDICTED BY RF-SCORE:    0.00 PKD
ROOT
HETATM    1  C   UNL     1     -12.051  14.375  64.398  1.00  0.00    -0.491 C  
HETATM    2  C   UNL     1     -10.963  15.151  65.118  1.00  0.00    -0.428 C  
ENDROOT
BRANCH   2   3
HETATM    3  C   UNL     1     -11.026  14.974  66.626  1.00  0.00    -0.325 C  
BRANCH   3   4
HETATM    4  O   UNL     1     -10.179  13.905  67.086  1.00  0.00    -0.254 OA 
BRANCH   4   5
HETATM    5  C   UNL     1     -10.726  13.130  68.092  1.00  0.00    -0.242 A  
HETATM    6  C   UNL     1     -10.786  11.722  67.949  1.00  0.00    -0.241 A  
HETATM    7  C   UNL     1     -11.412  10.949  68.957  1.00  0.00    -0.371 A  
HETATM    8  C   UNL     1     -11.264  13.715  69.247  1.00  0.00    -0.284 A  
HETATM    9  C   UNL     1     -11.983  11.576  70.072  1.00  0.00    -0.357 A  
HETATM   10  C   UNL     1     -11.918  12.954  70.200  1.00  0.00    -0.373 A  
BRANCH   6  11
HETATM   11  C   UNL     1     -10.225  10.999  66.737  1.00  0.00    -0.229 C  
HETATM   12  C   UNL     1      -9.803  11.037  64.428  1.00  0.00    -0.298 C  
HETATM   13  N   UNL     1     -10.309  11.613  65.583  1.00  0.00    -0.251 N  
HETATM   14  H   UNL     1     -10.754  12.529  65.534  1.00  0.00     0.000 HD 
HETATM   15  N   UNL     1      -9.678   9.740  66.930  1.00  0.00    -0.182 NA 
HETATM   16  N   UNL     1      -8.113   7.790  64.371  1.00  0.00    -0.124 NA 
HETATM   17  C   UNL     1      -8.480   7.921  65.657  1.00  0.00    -0.147 A  
HETATM   18  C   UNL     1      -9.193   9.763  64.644  1.00  0.00    -0.255 A  
HETATM   19  O   UNL     1      -9.876  11.568  63.325  1.00  0.00    -0.352 OA 
HETATM   20  C   UNL     1      -8.296   9.137  62.373  1.00  0.00    -0.179 C  
HETATM   21  C   UNL     1      -9.145   9.144  65.856  1.00  0.00    -0.205 A  
HETATM   22  N   UNL     1      -8.553   8.930  63.778  1.00  0.00    -0.140 NA 
BRANCH  17  23
HETATM   23  C   UNL     1      -8.161   6.839  66.633  1.00  0.00    -0.110 C  
BRANCH  23  24
HETATM   24  C   UNL     1      -8.366   5.424  66.088  1.00  0.00    -0.117 C  
HETATM   25  C   UNL     1      -7.341   4.418  66.598  1.00  0.00    -0.081 C  
ENDBRANCH  23  24
ENDBRANCH  17  23
ENDBRANCH   6  11
BRANCH   9  26
HETATM   26  S   UNL     1     -12.874  10.659  71.310  1.00  0.00    -0.453 S  
HETATM   27  O   UNL     1     -13.761   9.755  70.616  1.00  0.00    -0.102 OA 
HETATM   28  O   UNL     1     -13.338  11.614  72.289  1.00  0.00    -0.443 OA 
BRANCH  26  29
HETATM   29  N   UNL     1     -11.664   9.686  72.027  1.00  0.00    -0.159 N  
HETATM   30  H   UNL     1     -10.797  10.087  72.385  1.00  0.00     0.000 HD 
BRANCH  29  31
HETATM   31  C   UNL     1     -11.937   8.237  72.102  1.00  0.00    -0.369 C  
BRANCH  31  32
HETATM   32  C   UNL     1     -10.814   7.475  72.797  1.00  0.00    -0.397 C  
BRANCH  32  33
HETATM   33  C   UNL     1      -9.547   7.485  71.920  1.00  0.00    -0.148 C  
HETATM   34  C   UNL     1      -9.850   7.727  70.442  1.00  0.00    -0.183 C  
HETATM   35  C   UNL     1      -8.536   8.249  69.911  1.00  0.00    -0.125 C  
HETATM   36  C   UNL     1      -7.641   8.175  73.275  1.00  0.00    -0.146 C  
HETATM   37  N   UNL     1      -8.634   8.581  72.286  1.00  0.00    -0.308 NA 
HETATM   38  C   UNL     1      -8.001   9.089  71.058  1.00  0.00    -0.150 C  
ENDBRANCH  32  33
ENDBRANCH  31  32
ENDBRANCH  29  31
ENDBRANCH  26  29
ENDBRANCH   9  26
ENDBRANCH   4   5
ENDBRANCH   3   4
ENDBRANCH   2   3
TORSDOF 11
ENDMDL
MODEL       89
REMARK 921   NORMALIZED FREE ENERGY PREDICTED BY IDOCK:   -5.45 KCAL/MOL
REMARK 922        TOTAL FREE ENERGY PREDICTED BY IDOCK:  -11.19 KCAL/MOL
REMARK 923 INTER-LIGAND FREE ENERGY PREDICTED BY IDOCK:   -9.16 KCAL/MOL
REMARK 924 INTRA-LIGAND FREE ENERGY PREDICTED BY IDOCK:   -2.03 KCAL/MOL
REMARK 927      BINDING AFFINITY PREDICTED BY RF-SCORE:    0.00 PKD
ROOT
HETATM    1  C   UNL     1      -8.517   6.185  74.216  1.00  0.00    -0.116 C  
HETATM    2  C   UNL     1      -9.914   6.777  74.236  1.00  0.00    -0.354 C  
ENDROOT
BRANCH   2   3
HETATM    3  C   UNL     1     -10.081   7.907  73.234  1.00  0.00    -0.245 C  
BRANCH   3   4
HETATM    4  O   UNL     1     -11.122   7.638  72.277  1.00  0.00    -0.249 OA 
BRANCH   4   5
HETATM    5  C   UNL     1     -10.671   7.322  71.009  1.00  0.00    -0.231 A  
HETATM    6  C   UNL     1     -10.771   8.273  69.964  1.00  0.00    -0.239 A  
HETATM    7  C   UNL     1     -10.369   7.910  68.655  1.00  0.00    -0.224 A  
HETATM    8  C   UNL     1     -10.145   6.055  70.720  1.00  0.00    -0.248 A  
HETATM    9  C   UNL     1      -9.897   6.616  68.397  1.00  0.00    -0.138 A  
HETATM   10  C   UNL     1      -9.804   5.695  69.429  1.00  0.00    -0.232 A  
BRANCH   6  11
HETATM   11  C   UNL     1     -11.322   9.671  70.180  1.00  0.00    -0.227 C  
HETATM   12  C   UNL     1     -12.767  11.064  71.398  1.00  0.00    -0.429 C  
HETATM   13  N   UNL     1     -12.226   9.819  71.116  1.00  0.00    -0.338 N  
HETATM   14  H   UNL     1     -12.538   9.005  71.645  1.00  0.00     0.000 HD 
HETATM   15  N   UNL     1     -10.843  10.688  69.369  1.00  0.00    -0.230 NA 
HETATM   16  N   UNL     1     -11.762  14.133  69.673  1.00  0.00    -0.297 NA 
HETATM   17  C   UNL     1     -11.041  13.184  69.053  1.00  0.00    -0.234 A  
HETATM   18  C   UNL     1     -12.229  12.117  70.595  1.00  0.00    -0.300 A  
HETATM   19  O   UNL     1     -13.628  11.245  72.252  1.00  0.00    -0.244 OA 
HETATM   20  C   UNL     1     -13.345  14.188  71.497  1.00  0.00    -0.351 C  
HETATM   21  C   UNL     1     -11.305  11.921  69.613  1.00  0.00    -0.195 A  
HETATM   22  N   UNL     1     -12.470  13.456  70.613  1.00  0.00    -0.334 NA 
BRANCH  17  23
HETATM   23  C   UNL     1     -10.123  13.559  67.938  1.00  0.00    -0.248 C  
BRANCH  23  24
HETATM   24  C   UNL     1     -10.172  15.041  67.559  1.00  0.00    -0.234 C  
HETATM   25  C   UNL     1     -11.048  15.333  66.347  1.00  0.00    -0.273 C  
ENDBRANCH  23  24
ENDBRANCH  17  23
ENDBRANCH   6  11
BRANCH   9  26
HETATM   26  S   UNL     1      -9.482   6.078  66.752  1.00  0.00    -0.148 S  
HETATM   27  O   UNL     1     -10.589   5.286  66.269  1.00  0.00    -0.283 OA 
HETATM   28  O   UNL     1      -8.126   5.583  66.800  1.00  0.00    -0.104 OA 
BRANCH  26  29
HETATM   29  N   UNL     1      -9.501   7.530  65.848  1.00  0.00    -0.404 N  
HETATM   30  H   UNL     1     -10.344   7.855  65.375  1.00  0.00     0.000 HD 
BRANCH  29  31
HETATM   31  C   UNL     1      -8.235   8.289  65.787  1.00  0.00    -0.123 C  
BRANCH  31  32
HETATM   32  C   UNL     1      -8.468   9.796  65.775  1.00  0.00    -0.141 C  
BRANCH  32  33
HETATM   33  C   UNL     1      -9.539  10.157  64.728  1.00  0.00    -0.314 C  
HETATM   34  C   UNL     1     -10.430  11.318  65.166  1.00  0.00    -0.351 C  
HETATM   35  C   UNL     1     -10.964  11.845  63.855  1.00  0.00    -0.473 C  
HETATM   36  C   UNL     1      -8.735   9.531  62.512  1.00  0.00    -0.227 C  
HETATM   37  N   UNL     1      -8.938  10.618  63.465  1.00  0.00    -0.197 NA 
HETATM   38  C   UNL     1      -9.793  11.678  62.904  1.00  0.00    -0.185 C  
ENDBRANCH  32  33
ENDBRANCH  31  32
ENDBRANCH  29  31
ENDBRANCH  26  29
ENDBRANCH   9  26
ENDBRANCH   4   5
ENDBRANCH   3   4
ENDBRANCH   2   3
TORSDOF 11
ENDMDL
MODEL       90
REMARK 921   NORMALIZED FREE ENERGY PREDICTED BY IDOCK:   -5.44 KCAL/MOL
REMARK 922        TOTAL FREE ENERGY PREDICTED BY IDOCK:  -11.17 KCAL/MOL
REMARK 923 INTER-LIGAND FREE ENERGY PREDICTED BY IDOCK:   -9.55 KCAL/MOL
REMARK 924 INTRA-LIGAND FREE ENERGY PREDICTED BY IDOCK:   -1.62 KCAL/MOL
REMARK 927      BINDING AFFINITY PREDICTED BY RF-SCORE:    0.00 PKD
ROOT
HETATM    1  C   UNL     1      -8.784   7.641  72.685  1.00  0.00    -0.182 C  
HETATM    2  C   UNL     1      -9.287   8.276  71.402  1.00  0.00    -0.223 C  
ENDROOT
BRANCH   2   3
HETATM    3  C   UNL     1     -10.472   9.198  71.636  1.00  0.00    -0.332 C  
BRANCH   3   4
HETATM    4  O   UNL     1     -11.416   9.160  70.550  1.00  0.00    -0.262 OA 
BRANCH   4   5
HETATM    5  C   UNL     1     -11.515  10.339  69.833  1.00  0.00    -0.273 A  
HETATM    6  C   UNL     1     -11.051  10.396  68.496  1.00  0.00    -0.318 A  
HETATM    7  C   UNL     1     -11.095  11.629  67.799  1.00  0.00    -0.309 A  
HETATM    8  C   UNL     1     -12.034  11.502  70.418  1.00  0.00    -0.459 A  
HETATM    9  C   UNL     1     -11.574  12.781  68.437  1.00  0.00    -0.325 A  
HETATM   10  C   UNL     1     -12.024  12.712  69.746  1.00  0.00    -0.365 A  
BRANCH   6  11
HETATM   11  C   UNL     1     -10.478   9.188  67.777  1.00  0.00    -0.247 C  
HETATM   12  C   UNL     1     -10.558   6.868  67.429  1.00  0.00    -0.303 C  
HETATM   13  N   UNL     1     -11.004   8.022  68.055  1.00  0.00    -0.460 N  
HETATM   14  H   UNL     1     -11.753   7.961  68.744  1.00  0.00     0.000 HD 
HETATM   15  N   UNL     1      -9.433   9.399  66.889  1.00  0.00    -0.149 NA 
HETATM   16  N   UNL     1      -7.927   6.847  64.884  1.00  0.00    -0.122 NA 
HETATM   17  C   UNL     1      -7.990   8.139  65.247  1.00  0.00    -0.126 A  
HETATM   18  C   UNL     1      -9.519   7.099  66.476  1.00  0.00    -0.156 A  
HETATM   19  O   UNL     1     -11.010   5.754  67.672  1.00  0.00    -0.240 OA 
HETATM   20  C   UNL     1      -9.099   4.822  65.482  1.00  0.00    -0.152 C  
HETATM   21  C   UNL     1      -8.979   8.325  66.229  1.00  0.00    -0.183 A  
HETATM   22  N   UNL     1      -8.874   6.238  65.642  1.00  0.00    -0.120 NA 
BRANCH  17  23
HETATM   23  C   UNL     1      -7.077   9.133  64.613  1.00  0.00    -0.090 C  
BRANCH  23  24
HETATM   24  C   UNL     1      -7.795  10.317  63.961  1.00  0.00    -0.114 C  
HETATM   25  C   UNL     1      -7.378  10.564  62.516  1.00  0.00    -0.142 C  
ENDBRANCH  23  24
ENDBRANCH  17  23
ENDBRANCH   6  11
BRANCH   9  26
HETATM   26  S   UNL     1     -11.549  14.373  67.641  1.00  0.00    -0.386 S  
HETATM   27  O   UNL     1     -11.939  15.351  68.629  1.00  0.00    -0.319 OA 
HETATM   28  O   UNL     1     -12.229  14.222  66.376  1.00  0.00    -0.436 OA 
BRANCH  26  29
HETATM   29  N   UNL     1      -9.886  14.635  67.338  1.00  0.00    -0.221 N  
HETATM   30  H   UNL     1      -9.288  13.899  66.961  1.00  0.00     0.000 HD 
BRANCH  29  31
HETATM   31  C   UNL     1      -9.360  15.979  67.650  1.00  0.00    -0.214 C  
BRANCH  31  32
HETATM   32  C   UNL     1      -8.615  16.593  66.469  1.00  0.00    -0.320 C  
BRANCH  32  33
HETATM   33  C   UNL     1      -9.073  18.048  66.254  1.00  0.00    -0.178 C  
HETATM   34  C   UNL     1     -10.513  18.289  66.699  1.00  0.00    -0.382 C  
HETATM   35  C   UNL     1     -10.547  19.781  66.935  1.00  0.00    -0.588 C  
HETATM   36  C   UNL     1      -7.128  19.518  66.332  1.00  0.00    -0.229 C  
HETATM   37  N   UNL     1      -8.282  18.996  67.057  1.00  0.00    -0.265 NA 
HETATM   38  C   UNL     1      -9.173  20.078  67.508  1.00  0.00    -0.364 C  
ENDBRANCH  32  33
ENDBRANCH  31  32
ENDBRANCH  29  31
ENDBRANCH  26  29
ENDBRANCH   9  26
ENDBRANCH   4   5
ENDBRANCH   3   4
ENDBRANCH   2   3
TORSDOF 11
ENDMDL
MODEL       91
REMARK 921   NORMALIZED FREE ENERGY PREDICTED BY IDOCK:   -5.43 KCAL/MOL
REMARK 922        TOTAL FREE ENERGY PREDICTED BY IDOCK:  -11.15 KCAL/MOL
REMARK 923 INTER-LIGAND FREE ENERGY PREDICTED BY IDOCK:   -9.63 KCAL/MOL
REMARK 924 INTRA-LIGAND FREE ENERGY PREDICTED BY IDOCK:   -1.52 KCAL/MOL
REMARK 927      BINDING AFFINITY PREDICTED BY RF-SCORE:    0.00 PKD
ROOT
HETATM    1  C   UNL     1      -7.447   9.701  63.109  1.00  0.00    -0.114 C  
HETATM    2  C   UNL     1      -8.897   9.494  62.713  1.00  0.00    -0.244 C  
ENDROOT
BRANCH   2   3
HETATM    3  C   UNL     1      -9.723  10.762  62.848  1.00  0.00    -0.304 C  
BRANCH   3   4
HETATM    4  O   UNL     1     -10.547  10.753  64.028  1.00  0.00    -0.332 OA 
BRANCH   4   5
HETATM    5  C   UNL     1     -10.361  11.836  64.868  1.00  0.00    -0.289 A  
HETATM    6  C   UNL     1     -10.144  11.631  66.252  1.00  0.00    -0.254 A  
HETATM    7  C   UNL     1     -10.025  12.751  67.110  1.00  0.00    -0.218 A  
HETATM    8  C   UNL     1     -10.423  13.150  64.382  1.00  0.00    -0.427 A  
HETATM    9  C   UNL     1     -10.143  14.049  66.593  1.00  0.00    -0.276 A  
HETATM   10  C   UNL     1     -10.357  14.237  65.236  1.00  0.00    -0.417 A  
BRANCH   6  11
HETATM   11  C   UNL     1     -10.057  10.246  66.869  1.00  0.00    -0.221 C  
HETATM   12  C   UNL     1      -9.424   8.000  66.614  1.00  0.00    -0.212 C  
HETATM   13  N   UNL     1      -9.561   9.290  66.124  1.00  0.00    -0.239 N  
HETATM   14  H   UNL     1      -9.272   9.497  65.169  1.00  0.00     0.000 HD 
HETATM   15  N   UNL     1     -10.519  10.085  68.167  1.00  0.00    -0.198 NA 
HETATM   16  N   UNL     1     -10.337   7.033  70.025  1.00  0.00    -0.198 NA 
HETATM   17  C   UNL     1     -10.685   8.330  69.971  1.00  0.00    -0.239 A  
HETATM   18  C   UNL     1      -9.851   7.854  67.969  1.00  0.00    -0.165 A  
HETATM   19  O   UNL     1      -8.981   7.071  65.946  1.00  0.00    -0.143 OA 
HETATM   20  C   UNL     1      -9.316   5.451  68.511  1.00  0.00    -0.118 C  
HETATM   21  C   UNL     1     -10.385   8.867  68.707  1.00  0.00    -0.211 A  
HETATM   22  N   UNL     1      -9.825   6.772  68.795  1.00  0.00    -0.142 NA 
BRANCH  17  23
HETATM   23  C   UNL     1     -11.297   8.983  71.164  1.00  0.00    -0.375 C  
BRANCH  23  24
HETATM   24  C   UNL     1     -12.711   8.496  71.489  1.00  0.00    -0.340 C  
HETATM   25  C   UNL     1     -13.653   9.607  71.934  1.00  0.00    -0.446 C  
ENDBRANCH  23  24
ENDBRANCH  17  23
ENDBRANCH   6  11
BRANCH   9  26
HETATM   26  S   UNL     1     -10.110  15.484  67.644  1.00  0.00    -0.246 S  
HETATM   27  O   UNL     1      -9.202  15.198  68.730  1.00  0.00    -0.183 OA 
HETATM   28  O   UNL     1     -11.482  15.885  67.853  1.00  0.00    -0.299 OA 
BRANCH  26  29
HETATM   29  N   UNL     1      -9.339  16.664  66.674  1.00  0.00    -0.237 N  
HETATM   30  H   UNL     1      -9.874  17.334  66.121  1.00  0.00     0.000 HD 
BRANCH  29  31
HETATM   31  C   UNL     1      -7.862  16.664  66.679  1.00  0.00    -0.281 C  
BRANCH  31  32
HETATM   32  C   UNL     1      -7.285  17.861  65.931  1.00  0.00    -0.277 C  
BRANCH  32  33
HETATM   33  C   UNL     1      -7.682  19.170  66.641  1.00  0.00    -0.251 C  
HETATM   34  C   UNL     1      -9.040  19.702  66.191  1.00  0.00    -0.380 C  
HETATM   35  C   UNL     1      -9.459  20.579  67.347  1.00  0.00    -0.551 C  
HETATM   36  C   UNL     1      -6.597  19.256  68.824  1.00  0.00    -0.273 C  
HETATM   37  N   UNL     1      -7.831  18.982  68.095  1.00  0.00    -0.289 NA 
HETATM   38  C   UNL     1      -8.938  19.833  68.562  1.00  0.00    -0.236 C  
ENDBRANCH  32  33
ENDBRANCH  31  32
ENDBRANCH  29  31
ENDBRANCH  26  29
ENDBRANCH   9  26
ENDBRANCH   4   5
ENDBRANCH   3   4
ENDBRANCH   2   3
TORSDOF 11
ENDMDL
MODEL       92
REMARK 921   NORMALIZED FREE ENERGY PREDICTED BY IDOCK:   -5.42 KCAL/MOL
REMARK 922        TOTAL FREE ENERGY PREDICTED BY IDOCK:  -11.15 KCAL/MOL
REMARK 923 INTER-LIGAND FREE ENERGY PREDICTED BY IDOCK:   -8.59 KCAL/MOL
REMARK 924 INTRA-LIGAND FREE ENERGY PREDICTED BY IDOCK:   -2.56 KCAL/MOL
REMARK 927      BINDING AFFINITY PREDICTED BY RF-SCORE:    0.00 PKD
ROOT
HETATM    1  C   UNL     1      -5.941  13.133  67.756  1.00  0.00    -0.148 C  
HETATM    2  C   UNL     1      -5.138  11.988  67.169  1.00  0.00    -0.095 C  
ENDROOT
BRANCH   2   3
HETATM    3  C   UNL     1      -5.965  10.724  67.002  1.00  0.00    -0.063 C  
BRANCH   3   4
HETATM    4  O   UNL     1      -7.244  10.819  67.656  1.00  0.00    -0.089 OA 
BRANCH   4   5
HETATM    5  C   UNL     1      -8.004   9.664  67.603  1.00  0.00    -0.106 A  
HETATM    6  C   UNL     1      -9.335   9.714  67.123  1.00  0.00    -0.168 A  
HETATM    7  C   UNL     1     -10.123   8.537  67.141  1.00  0.00    -0.331 A  
HETATM    8  C   UNL     1      -7.495   8.439  68.056  1.00  0.00    -0.097 A  
HETATM    9  C   UNL     1      -9.594   7.343  67.649  1.00  0.00    -0.138 A  
HETATM   10  C   UNL     1      -8.290   7.308  68.117  1.00  0.00    -0.124 A  
BRANCH   6  11
HETATM   11  C   UNL     1      -9.971  10.993  66.608  1.00  0.00    -0.209 C  
HETATM   12  C   UNL     1     -10.806  12.188  64.768  1.00  0.00    -0.307 C  
HETATM   13  N   UNL     1     -10.207  11.067  65.322  1.00  0.00    -0.270 N  
HETATM   14  H   UNL     1      -9.945  10.289  64.718  1.00  0.00     0.000 HD 
HETATM   15  N   UNL     1     -10.246  11.995  67.526  1.00  0.00    -0.196 NA 
HETATM   16  N   UNL     1     -11.885  15.077  66.741  1.00  0.00    -0.172 NA 
HETATM   17  C   UNL     1     -11.320  14.274  67.658  1.00  0.00    -0.324 A  
HETATM   18  C   UNL     1     -11.135  13.194  65.728  1.00  0.00    -0.273 A  
HETATM   19  O   UNL     1     -11.028  12.307  63.568  1.00  0.00    -0.425 OA 
HETATM   20  C   UNL     1     -12.307  14.962  64.365  1.00  0.00    -0.323 C  
HETATM   21  C   UNL     1     -10.853  13.092  67.057  1.00  0.00    -0.264 A  
HETATM   22  N   UNL     1     -11.766  14.391  65.576  1.00  0.00    -0.347 NA 
BRANCH  17  23
HETATM   23  C   UNL     1     -11.263  14.704  69.086  1.00  0.00    -0.291 C  
BRANCH  23  24
HETATM   24  C   UNL     1     -12.470  14.269  69.919  1.00  0.00    -0.315 C  
HETATM   25  C   UNL     1     -12.806  15.228  71.055  1.00  0.00    -0.505 C  
ENDBRANCH  23  24
ENDBRANCH  17  23
ENDBRANCH   6  11
BRANCH   9  26
HETATM   26  S   UNL     1     -10.577   5.867  67.793  1.00  0.00    -0.253 S  
HETATM   27  O   UNL     1      -9.703   4.814  68.252  1.00  0.00    -0.143 OA 
HETATM   28  O   UNL     1     -11.361   5.764  66.584  1.00  0.00     0.003 OA 
BRANCH  26  29
HETATM   29  N   UNL     1     -11.628   6.220  69.096  1.00  0.00    -0.485 N  
HETATM   30  H   UNL     1     -12.514   6.705  68.952  1.00  0.00     0.000 HD 
BRANCH  29  31
HETATM   31  C   UNL     1     -11.188   5.787  70.437  1.00  0.00    -0.140 C  
BRANCH  31  32
HETATM   32  C   UNL     1     -11.948   6.501  71.550  1.00  0.00    -0.383 C  
BRANCH  32  33
HETATM   33  C   UNL     1     -11.432   7.944  71.701  1.00  0.00    -0.263 C  
HETATM   34  C   UNL     1      -9.968   8.097  71.294  1.00  0.00    -0.225 C  
HETATM   35  C   UNL     1      -9.858   9.569  70.978  1.00  0.00    -0.236 C  
HETATM   36  C   UNL     1     -13.304   9.492  71.472  1.00  0.00    -0.393 C  
HETATM   37  N   UNL     1     -12.151   8.879  70.818  1.00  0.00    -0.178 NA 
HETATM   38  C   UNL     1     -11.197   9.894  70.340  1.00  0.00    -0.313 C  
ENDBRANCH  32  33
ENDBRANCH  31  32
ENDBRANCH  29  31
ENDBRANCH  26  29
ENDBRANCH   9  26
ENDBRANCH   4   5
ENDBRANCH   3   4
ENDBRANCH   2   3
TORSDOF 11
ENDMDL
MODEL       93
REMARK 921   NORMALIZED FREE ENERGY PREDICTED BY IDOCK:   -5.41 KCAL/MOL
REMARK 922        TOTAL FREE ENERGY PREDICTED BY IDOCK:  -11.12 KCAL/MOL
REMARK 923 INTER-LIGAND FREE ENERGY PREDICTED BY IDOCK:   -9.74 KCAL/MOL
REMARK 924 INTRA-LIGAND FREE ENERGY PREDICTED BY IDOCK:   -1.38 KCAL/MOL
REMARK 927      BINDING AFFINITY PREDICTED BY RF-SCORE:    0.00 PKD
ROOT
HETATM    1  C   UNL     1     -10.473  14.245  66.190  1.00  0.00    -0.294 C  
HETATM    2  C   UNL     1     -11.890  14.177  66.729  1.00  0.00    -0.449 C  
ENDROOT
BRANCH   2   3
HETATM    3  C   UNL     1     -11.936  13.772  68.193  1.00  0.00    -0.358 C  
BRANCH   3   4
HETATM    4  O   UNL     1     -10.976  12.746  68.505  1.00  0.00    -0.237 OA 
BRANCH   4   5
HETATM    5  C   UNL     1     -11.447  11.755  69.348  1.00  0.00    -0.307 A  
HETATM    6  C   UNL     1     -11.201  10.393  69.047  1.00  0.00    -0.289 A  
HETATM    7  C   UNL     1     -11.750   9.389  69.882  1.00  0.00     0.111 A  
HETATM    8  C   UNL     1     -12.204  12.070  70.485  1.00  0.00    -0.414 A  
HETATM    9  C   UNL     1     -12.544   9.744  70.981  1.00  0.00    -0.314 A  
HETATM   10  C   UNL     1     -12.777  11.080  71.264  1.00  0.00    -0.537 A  
BRANCH   6  11
HETATM   11  C   UNL     1     -10.389   9.956  67.841  1.00  0.00    -0.212 C  
HETATM   12  C   UNL     1      -8.867   8.419  66.930  1.00  0.00    -0.142 C  
HETATM   13  N   UNL     1      -9.625   8.902  67.985  1.00  0.00    -0.146 N  
HETATM   14  H   UNL     1      -9.587   8.430  68.888  1.00  0.00     0.000 HD 
HETATM   15  N   UNL     1     -10.500  10.705  66.679  1.00  0.00    -0.244 NA 
HETATM   16  N   UNL     1      -8.886   9.910  63.587  1.00  0.00    -0.218 NA 
HETATM   17  C   UNL     1      -9.700  10.717  64.286  1.00  0.00    -0.302 A  
HETATM   18  C   UNL     1      -9.027   9.163  65.721  1.00  0.00    -0.193 A  
HETATM   19  O   UNL     1      -8.125   7.447  67.026  1.00  0.00    -0.110 OA 
HETATM   20  C   UNL     1      -7.621   7.904  64.051  1.00  0.00    -0.120 C  
HETATM   21  C   UNL     1      -9.813  10.271  65.615  1.00  0.00    -0.268 A  
HETATM   22  N   UNL     1      -8.496   8.968  64.483  1.00  0.00    -0.176 NA 
BRANCH  17  23
HETATM   23  C   UNL     1     -10.332  11.892  63.619  1.00  0.00    -0.477 C  
BRANCH  23  24
HETATM   24  C   UNL     1     -11.862  11.859  63.608  1.00  0.00    -0.573 C  
HETATM   25  C   UNL     1     -12.501  13.214  63.333  1.00  0.00    -0.328 C  
ENDBRANCH  23  24
ENDBRANCH  17  23
ENDBRANCH   6  11
BRANCH   9  26
HETATM   26  S   UNL     1     -13.343   8.519  71.994  1.00  0.00    -0.368 S  
HETATM   27  O   UNL     1     -13.660   7.398  71.142  1.00  0.00    -0.307 OA 
HETATM   28  O   UNL     1     -14.337   9.209  72.783  1.00  0.00    -0.563 OA 
BRANCH  26  29
HETATM   29  N   UNL     1     -12.092   7.991  73.035  1.00  0.00    -0.514 N  
HETATM   30  H   UNL     1     -11.984   8.368  73.976  1.00  0.00     0.000 HD 
BRANCH  29  31
HETATM   31  C   UNL     1     -11.176   6.963  72.501  1.00  0.00    -0.267 C  
BRANCH  31  32
HETATM   32  C   UNL     1     -10.302   6.350  73.589  1.00  0.00    -0.301 C  
BRANCH  32  33
HETATM   33  C   UNL     1      -9.616   5.076  73.062  1.00  0.00    -0.142 C  
HETATM   34  C   UNL     1     -10.328   4.475  71.853  1.00  0.00    -0.198 C  
HETATM   35  C   UNL     1      -9.243   3.657  71.194  1.00  0.00    -0.196 C  
HETATM   36  C   UNL     1      -7.242   5.159  73.616  1.00  0.00    -0.083 C  
HETATM   37  N   UNL     1      -8.251   5.348  72.579  1.00  0.00    -0.113 NA 
HETATM   38  C   UNL     1      -7.993   4.492  71.409  1.00  0.00    -0.087 C  
ENDBRANCH  32  33
ENDBRANCH  31  32
ENDBRANCH  29  31
ENDBRANCH  26  29
ENDBRANCH   9  26
ENDBRANCH   4   5
ENDBRANCH   3   4
ENDBRANCH   2   3
TORSDOF 11
ENDMDL
MODEL       94
REMARK 921   NORMALIZED FREE ENERGY PREDICTED BY IDOCK:   -5.40 KCAL/MOL
REMARK 922        TOTAL FREE ENERGY PREDICTED BY IDOCK:  -11.10 KCAL/MOL
REMARK 923 INTER-LIGAND FREE ENERGY PREDICTED BY IDOCK:   -8.09 KCAL/MOL
REMARK 924 INTRA-LIGAND FREE ENERGY PREDICTED BY IDOCK:   -3.01 KCAL/MOL
REMARK 927      BINDING AFFINITY PREDICTED BY RF-SCORE:    0.00 PKD
ROOT
HETATM    1  C   UNL     1      -9.456   6.276  67.909  1.00  0.00    -0.115 C  
HETATM    2  C   UNL     1     -10.094   7.273  66.960  1.00  0.00    -0.316 C  
ENDROOT
BRANCH   2   3
HETATM    3  C   UNL     1      -9.081   8.235  66.361  1.00  0.00    -0.182 C  
BRANCH   3   4
HETATM    4  O   UNL     1      -8.028   8.562  67.286  1.00  0.00    -0.100 OA 
BRANCH   4   5
HETATM    5  C   UNL     1      -7.816   9.918  67.460  1.00  0.00    -0.098 A  
HETATM    6  C   UNL     1      -8.281  10.563  68.632  1.00  0.00    -0.130 A  
HETATM    7  C   UNL     1      -8.118  11.964  68.764  1.00  0.00    -0.021 A  
HETATM    8  C   UNL     1      -7.179  10.685  66.475  1.00  0.00    -0.134 A  
HETATM    9  C   UNL     1      -7.521  12.703  67.733  1.00  0.00    -0.131 A  
HETATM   10  C   UNL     1      -7.071  12.060  66.591  1.00  0.00     0.145 A  
BRANCH   6  11
HETATM   11  C   UNL     1      -8.977   9.815  69.755  1.00  0.00    -0.221 C  
HETATM   12  C   UNL     1      -8.872   8.107  71.361  1.00  0.00    -0.149 C  
HETATM   13  N   UNL     1      -8.322   8.829  70.313  1.00  0.00    -0.124 N  
HETATM   14  H   UNL     1      -7.392   8.588  69.971  1.00  0.00     0.000 HD 
HETATM   15  N   UNL     1     -10.259  10.217  70.103  1.00  0.00    -0.234 NA 
HETATM   16  N   UNL     1     -12.164   8.825  72.793  1.00  0.00    -0.188 NA 
HETATM   17  C   UNL     1     -12.066   9.713  71.789  1.00  0.00    -0.369 A  
HETATM   18  C   UNL     1     -10.170   8.560  71.749  1.00  0.00    -0.282 A  
HETATM   19  O   UNL     1      -8.300   7.165  71.900  1.00  0.00    -0.105 OA 
HETATM   20  C   UNL     1     -10.743   7.110  73.729  1.00  0.00    -0.150 C  
HETATM   21  C   UNL     1     -10.833   9.576  71.129  1.00  0.00    -0.355 A  
HETATM   22  N   UNL     1     -10.991   8.141  72.751  1.00  0.00    -0.372 NA 
BRANCH  17  23
HETATM   23  C   UNL     1     -13.191  10.656  71.522  1.00  0.00    -0.460 C  
BRANCH  23  24
HETATM   24  C   UNL     1     -12.932  12.088  71.996  1.00  0.00    -0.374 C  
HETATM   25  C   UNL     1     -12.470  13.025  70.888  1.00  0.00    -0.396 C  
ENDBRANCH  23  24
ENDBRANCH  17  23
ENDBRANCH   6  11
BRANCH   9  26
HETATM   26  S   UNL     1      -7.393  14.476  67.804  1.00  0.00    -0.190 S  
HETATM   27  O   UNL     1      -5.991  14.808  67.700  1.00  0.00    -0.271 OA 
HETATM   28  O   UNL     1      -8.222  14.915  68.902  1.00  0.00    -0.156 OA 
BRANCH  26  29
HETATM   29  N   UNL     1      -8.115  14.982  66.338  1.00  0.00    -0.216 N  
HETATM   30  H   UNL     1      -7.569  15.101  65.485  1.00  0.00     0.000 HD 
BRANCH  29  31
HETATM   31  C   UNL     1      -9.569  15.238  66.371  1.00  0.00    -0.292 C  
BRANCH  31  32
HETATM   32  C   UNL     1     -10.233  14.953  65.028  1.00  0.00    -0.365 C  
BRANCH  32  33
HETATM   33  C   UNL     1     -10.905  13.566  65.055  1.00  0.00    -0.340 C  
HETATM   34  C   UNL     1     -10.093  12.499  64.324  1.00  0.00    -0.298 C  
HETATM   35  C   UNL     1     -10.595  11.214  64.939  1.00  0.00    -0.356 C  
HETATM   36  C   UNL     1     -12.312  13.397  67.040  1.00  0.00    -0.177 C  
HETATM   37  N   UNL     1     -11.034  13.046  66.427  1.00  0.00    -0.278 NA 
HETATM   38  C   UNL     1     -10.832  11.588  66.392  1.00  0.00    -0.285 C  
ENDBRANCH  32  33
ENDBRANCH  31  32
ENDBRANCH  29  31
ENDBRANCH  26  29
ENDBRANCH   9  26
ENDBRANCH   4   5
ENDBRANCH   3   4
ENDBRANCH   2   3
TORSDOF 11
ENDMDL
MODEL       95
REMARK 921   NORMALIZED FREE ENERGY PREDICTED BY IDOCK:   -5.37 KCAL/MOL
REMARK 922        TOTAL FREE ENERGY PREDICTED BY IDOCK:  -11.05 KCAL/MOL
REMARK 923 INTER-LIGAND FREE ENERGY PREDICTED BY IDOCK:   -8.73 KCAL/MOL
REMARK 924 INTRA-LIGAND FREE ENERGY PREDICTED BY IDOCK:   -2.33 KCAL/MOL
REMARK 927      BINDING AFFINITY PREDICTED BY RF-SCORE:    0.00 PKD
ROOT
HETATM    1  C   UNL     1     -10.618   3.717  63.678  1.00  0.00    -0.279 C  
HETATM    2  C   UNL     1      -9.857   3.774  64.989  1.00  0.00    -0.175 C  
ENDROOT
BRANCH   2   3
HETATM    3  C   UNL     1     -10.541   4.658  66.020  1.00  0.00    -0.200 C  
BRANCH   3   4
HETATM    4  O   UNL     1      -9.787   5.851  66.302  1.00  0.00    -0.148 OA 
BRANCH   4   5
HETATM    5  C   UNL     1      -9.138   5.844  67.524  1.00  0.00    -0.106 A  
HETATM    6  C   UNL     1      -9.060   7.033  68.291  1.00  0.00    -0.126 A  
HETATM    7  C   UNL     1      -8.333   7.028  69.506  1.00  0.00    -0.133 A  
HETATM    8  C   UNL     1      -8.515   4.686  68.009  1.00  0.00    -0.103 A  
HETATM    9  C   UNL     1      -7.681   5.862  69.931  1.00  0.00    -0.088 A  
HETATM   10  C   UNL     1      -7.765   4.706  69.172  1.00  0.00    -0.067 A  
BRANCH   6  11
HETATM   11  C   UNL     1      -9.707   8.334  67.850  1.00  0.00    -0.161 C  
HETATM   12  C   UNL     1     -10.189   9.809  66.089  1.00  0.00    -0.208 C  
HETATM   13  N   UNL     1      -9.609   8.651  66.583  1.00  0.00    -0.200 N  
HETATM   14  H   UNL     1      -9.098   8.036  65.950  1.00  0.00     0.000 HD 
HETATM   15  N   UNL     1     -10.341   9.101  68.816  1.00  0.00    -0.211 NA 
HETATM   16  N   UNL     1     -12.119  12.135  68.155  1.00  0.00    -0.417 NA 
HETATM   17  C   UNL     1     -11.708  11.210  69.038  1.00  0.00    -0.339 A  
HETATM   18  C   UNL     1     -10.887  10.567  67.078  1.00  0.00    -0.225 A  
HETATM   19  O   UNL     1     -10.107  10.153  64.914  1.00  0.00    -0.330 OA 
HETATM   20  C   UNL     1     -11.892  12.475  65.773  1.00  0.00    -0.437 C  
HETATM   21  C   UNL     1     -10.948  10.218  68.394  1.00  0.00    -0.260 A  
HETATM   22  N   UNL     1     -11.612  11.714  66.968  1.00  0.00    -0.547 NA 
BRANCH  17  23
HETATM   23  C   UNL     1     -12.080  11.342  70.477  1.00  0.00    -0.481 C  
BRANCH  23  24
HETATM   24  C   UNL     1     -12.486  12.758  70.891  1.00  0.00    -0.373 C  
HETATM   25  C   UNL     1     -13.431  12.798  72.086  1.00  0.00    -0.591 C  
ENDBRANCH  23  24
ENDBRANCH  17  23
ENDBRANCH   6  11
BRANCH   9  26
HETATM   26  S   UNL     1      -6.667   5.834  71.393  1.00  0.00    -0.063 S  
HETATM   27  O   UNL     1      -5.411   6.462  71.055  1.00  0.00    -0.021 OA 
HETATM   28  O   UNL     1      -6.754   4.500  71.941  1.00  0.00    -0.028 OA 
BRANCH  26  29
HETATM   29  N   UNL     1      -7.471   6.912  72.451  1.00  0.00    -0.086 N  
HETATM   30  H   UNL     1      -7.439   7.922  72.312  1.00  0.00     0.000 HD 
BRANCH  29  31
HETATM   31  C   UNL     1      -8.215   6.306  73.573  1.00  0.00    -0.117 C  
BRANCH  31  32
HETATM   32  C   UNL     1      -9.228   7.271  74.180  1.00  0.00    -0.272 C  
BRANCH  32  33
HETATM   33  C   UNL     1     -10.577   7.150  73.447  1.00  0.00    -0.382 C  
HETATM   34  C   UNL     1     -10.805   8.268  72.432  1.00  0.00    -0.421 C  
HETATM   35  C   UNL     1     -11.822   7.667  71.491  1.00  0.00    -0.323 C  
HETATM   36  C   UNL     1     -11.251   4.806  73.393  1.00  0.00    -0.343 C  
HETATM   37  N   UNL     1     -10.660   5.915  72.649  1.00  0.00    -0.209 NA 
HETATM   38  C   UNL     1     -11.415   6.206  71.419  1.00  0.00    -0.254 C  
ENDBRANCH  32  33
ENDBRANCH  31  32
ENDBRANCH  29  31
ENDBRANCH  26  29
ENDBRANCH   9  26
ENDBRANCH   4   5
ENDBRANCH   3   4
ENDBRANCH   2   3
TORSDOF 11
ENDMDL
MODEL       96
REMARK 921   NORMALIZED FREE ENERGY PREDICTED BY IDOCK:   -5.37 KCAL/MOL
REMARK 922        TOTAL FREE ENERGY PREDICTED BY IDOCK:  -11.05 KCAL/MOL
REMARK 923 INTER-LIGAND FREE ENERGY PREDICTED BY IDOCK:   -9.50 KCAL/MOL
REMARK 924 INTRA-LIGAND FREE ENERGY PREDICTED BY IDOCK:   -1.54 KCAL/MOL
REMARK 927      BINDING AFFINITY PREDICTED BY RF-SCORE:    0.00 PKD
ROOT
HETATM    1  C   UNL     1     -10.387   5.535  66.330  1.00  0.00    -0.272 C  
HETATM    2  C   UNL     1      -9.113   6.330  66.113  1.00  0.00    -0.153 C  
ENDROOT
BRANCH   2   3
HETATM    3  C   UNL     1      -9.307   7.817  66.358  1.00  0.00    -0.181 C  
BRANCH   3   4
HETATM    4  O   UNL     1     -10.565   8.105  66.995  1.00  0.00    -0.329 OA 
BRANCH   4   5
HETATM    5  C   UNL     1     -10.690   9.400  67.463  1.00  0.00    -0.222 A  
HETATM    6  C   UNL     1     -10.821   9.642  68.852  1.00  0.00    -0.201 A  
HETATM    7  C   UNL     1     -11.018  10.968  69.310  1.00  0.00    -0.305 A  
HETATM    8  C   UNL     1     -10.729  10.490  66.582  1.00  0.00    -0.222 A  
HETATM    9  C   UNL     1     -11.102  12.024  68.393  1.00  0.00    -0.245 A  
HETATM   10  C   UNL     1     -10.973  11.774  67.036  1.00  0.00    -0.333 A  
BRANCH   6  11
HETATM   11  C   UNL     1     -10.786   8.528  69.883  1.00  0.00    -0.224 C  
HETATM   12  C   UNL     1     -11.986   7.174  71.379  1.00  0.00    -0.328 C  
HETATM   13  N   UNL     1     -11.921   8.196  70.444  1.00  0.00    -0.464 N  
HETATM   14  H   UNL     1     -12.772   8.698  70.190  1.00  0.00     0.000 HD 
HETATM   15  N   UNL     1      -9.558   7.949  70.169  1.00  0.00    -0.175 NA 
HETATM   16  N   UNL     1      -9.082   5.196  72.404  1.00  0.00    -0.134 NA 
HETATM   17  C   UNL     1      -8.557   6.088  71.547  1.00  0.00    -0.132 A  
HETATM   18  C   UNL     1     -10.728   6.546  71.628  1.00  0.00    -0.230 A  
HETATM   19  O   UNL     1     -13.025   6.844  71.942  1.00  0.00    -0.325 OA 
HETATM   20  C   UNL     1     -11.291   4.694  73.242  1.00  0.00    -0.304 C  
HETATM   21  C   UNL     1      -9.560   6.934  71.043  1.00  0.00    -0.170 A  
HETATM   22  N   UNL     1     -10.406   5.493  72.428  1.00  0.00    -0.199 NA 
BRANCH  17  23
HETATM   23  C   UNL     1      -7.093   6.069  71.261  1.00  0.00    -0.074 C  
BRANCH  23  24
HETATM   24  C   UNL     1      -6.743   5.770  69.802  1.00  0.00    -0.052 C  
HETATM   25  C   UNL     1      -7.406   4.509  69.261  1.00  0.00    -0.052 C  
ENDBRANCH  23  24
ENDBRANCH  17  23
ENDBRANCH   6  11
BRANCH   9  26
HETATM   26  S   UNL     1     -11.456  13.690  68.909  1.00  0.00    -0.326 S  
HETATM   27  O   UNL     1     -12.206  13.606  70.140  1.00  0.00    -0.330 OA 
HETATM   28  O   UNL     1     -11.936  14.399  67.746  1.00  0.00    -0.370 OA 
BRANCH  26  29
HETATM   29  N   UNL     1      -9.917  14.307  69.328  1.00  0.00    -0.427 N  
HETATM   30  H   UNL     1      -9.108  13.697  69.440  1.00  0.00     0.000 HD 
BRANCH  29  31
HETATM   31  C   UNL     1      -9.819  15.769  69.517  1.00  0.00    -0.283 C  
BRANCH  31  32
HETATM   32  C   UNL     1      -8.569  16.351  68.866  1.00  0.00    -0.250 C  
BRANCH  32  33
HETATM   33  C   UNL     1      -8.924  17.639  68.098  1.00  0.00    -0.269 C  
HETATM   34  C   UNL     1     -10.405  17.725  67.736  1.00  0.00    -0.382 C  
HETATM   35  C   UNL     1     -10.618  19.208  67.540  1.00  0.00    -0.567 C  
HETATM   36  C   UNL     1      -7.341  19.393  68.704  1.00  0.00    -0.340 C  
HETATM   37  N   UNL     1      -8.679  18.845  68.908  1.00  0.00    -0.279 NA 
HETATM   38  C   UNL     1      -9.723  19.835  68.595  1.00  0.00    -0.357 C  
ENDBRANCH  32  33
ENDBRANCH  31  32
ENDBRANCH  29  31
ENDBRANCH  26  29
ENDBRANCH   9  26
ENDBRANCH   4   5
ENDBRANCH   3   4
ENDBRANCH   2   3
TORSDOF 11
ENDMDL
MODEL       97
REMARK 921   NORMALIZED FREE ENERGY PREDICTED BY IDOCK:   -5.36 KCAL/MOL
REMARK 922        TOTAL FREE ENERGY PREDICTED BY IDOCK:  -11.04 KCAL/MOL
REMARK 923 INTER-LIGAND FREE ENERGY PREDICTED BY IDOCK:   -8.99 KCAL/MOL
REMARK 924 INTRA-LIGAND FREE ENERGY PREDICTED BY IDOCK:   -2.05 KCAL/MOL
REMARK 927      BINDING AFFINITY PREDICTED BY RF-SCORE:    0.00 PKD
ROOT
HETATM    1  C   UNL     1      -6.128  14.455  69.474  1.00  0.00    -0.114 C  
HETATM    2  C   UNL     1      -5.931  12.952  69.393  1.00  0.00    -0.103 C  
ENDROOT
BRANCH   2   3
HETATM    3  C   UNL     1      -5.190  12.531  68.134  1.00  0.00    -0.069 C  
BRANCH   3   4
HETATM    4  O   UNL     1      -6.054  12.486  66.983  1.00  0.00    -0.259 OA 
BRANCH   4   5
HETATM    5  C   UNL     1      -6.911  11.402  66.950  1.00  0.00    -0.140 A  
HETATM    6  C   UNL     1      -8.305  11.595  67.114  1.00  0.00    -0.164 A  
HETATM    7  C   UNL     1      -9.162  10.468  67.147  1.00  0.00    -0.158 A  
HETATM    8  C   UNL     1      -6.425  10.096  66.794  1.00  0.00    -0.071 A  
HETATM    9  C   UNL     1      -8.630   9.176  67.039  1.00  0.00    -0.123 A  
HETATM   10  C   UNL     1      -7.265   9.000  66.880  1.00  0.00    -0.086 A  
BRANCH   6  11
HETATM   11  C   UNL     1      -8.925  12.971  67.284  1.00  0.00    -0.212 C  
HETATM   12  C   UNL     1      -9.007  15.207  66.577  1.00  0.00    -0.291 C  
HETATM   13  N   UNL     1      -8.482  13.926  66.506  1.00  0.00    -0.385 N  
HETATM   14  H   UNL     1      -7.738  13.725  65.838  1.00  0.00     0.000 HD 
HETATM   15  N   UNL     1      -9.903  13.124  68.255  1.00  0.00    -0.227 NA 
HETATM   16  N   UNL     1     -11.716  16.151  68.851  1.00  0.00    -0.323 NA 
HETATM   17  C   UNL     1     -11.495  14.861  69.157  1.00  0.00    -0.302 A  
HETATM   18  C   UNL     1     -10.051  15.346  67.541  1.00  0.00    -0.233 A  
HETATM   19  O   UNL     1      -8.609  16.136  65.880  1.00  0.00    -0.307 OA 
HETATM   20  C   UNL     1     -10.814  17.731  67.262  1.00  0.00    -0.155 C  
HETATM   21  C   UNL     1     -10.471  14.333  68.351  1.00  0.00    -0.249 A  
HETATM   22  N   UNL     1     -10.829  16.417  67.858  1.00  0.00    -0.340 NA 
BRANCH  17  23
HETATM   23  C   UNL     1     -12.299  14.205  70.228  1.00  0.00    -0.421 C  
BRANCH  23  24
HETATM   24  C   UNL     1     -13.100  15.179  71.095  1.00  0.00    -0.515 C  
HETATM   25  C   UNL     1     -13.523  14.596  72.438  1.00  0.00    -0.534 C  
ENDBRANCH  23  24
ENDBRANCH  17  23
ENDBRANCH   6  11
BRANCH   9  26
HETATM   26  S   UNL     1      -9.652   7.726  67.184  1.00  0.00    -0.185 S  
HETATM   27  O   UNL     1      -9.191   6.777  66.198  1.00  0.00    -0.154 OA 
HETATM   28  O   UNL     1     -11.021   8.181  67.254  1.00  0.00    -0.154 OA 
BRANCH  26  29
HETATM   29  N   UNL     1      -9.212   7.085  68.708  1.00  0.00    -0.133 N  
HETATM   30  H   UNL     1      -8.271   7.198  69.084  1.00  0.00     0.000 HD 
BRANCH  29  31
HETATM   31  C   UNL     1     -10.264   6.362  69.451  1.00  0.00    -0.192 C  
BRANCH  31  32
HETATM   32  C   UNL     1     -10.515   6.967  70.828  1.00  0.00    -0.231 C  
BRANCH  32  33
HETATM   33  C   UNL     1     -11.857   7.724  70.836  1.00  0.00    -0.239 C  
HETATM   34  C   UNL     1     -12.991   6.916  71.462  1.00  0.00    -0.362 C  
HETATM   35  C   UNL     1     -13.977   7.983  71.874  1.00  0.00    -0.445 C  
HETATM   36  C   UNL     1     -11.421  10.124  70.871  1.00  0.00    -0.360 C  
HETATM   37  N   UNL     1     -11.791   8.948  71.653  1.00  0.00    -0.320 NA 
HETATM   38  C   UNL     1     -13.089   9.130  72.323  1.00  0.00    -0.438 C  
ENDBRANCH  32  33
ENDBRANCH  31  32
ENDBRANCH  29  31
ENDBRANCH  26  29
ENDBRANCH   9  26
ENDBRANCH   4   5
ENDBRANCH   3   4
ENDBRANCH   2   3
TORSDOF 11
ENDMDL
MODEL       98
REMARK 921   NORMALIZED FREE ENERGY PREDICTED BY IDOCK:   -5.33 KCAL/MOL
REMARK 922        TOTAL FREE ENERGY PREDICTED BY IDOCK:  -11.00 KCAL/MOL
REMARK 923 INTER-LIGAND FREE ENERGY PREDICTED BY IDOCK:   -8.66 KCAL/MOL
REMARK 924 INTRA-LIGAND FREE ENERGY PREDICTED BY IDOCK:   -2.33 KCAL/MOL
REMARK 927      BINDING AFFINITY PREDICTED BY RF-SCORE:    0.00 PKD
ROOT
HETATM    1  C   UNL     1      -5.997  13.469  69.280  1.00  0.00    -0.091 C  
HETATM    2  C   UNL     1      -5.761  11.988  69.043  1.00  0.00    -0.057 C  
ENDROOT
BRANCH   2   3
HETATM    3  C   UNL     1      -5.341  11.689  67.614  1.00  0.00    -0.059 C  
BRANCH   3   4
HETATM    4  O   UNL     1      -6.462  11.658  66.711  1.00  0.00    -0.143 OA 
BRANCH   4   5
HETATM    5  C   UNL     1      -7.377  10.653  66.967  1.00  0.00    -0.102 A  
HETATM    6  C   UNL     1      -8.686  10.980  67.399  1.00  0.00    -0.132 A  
HETATM    7  C   UNL     1      -9.590   9.939  67.724  1.00  0.00    -0.163 A  
HETATM    8  C   UNL     1      -7.025   9.301  66.845  1.00  0.00    -0.081 A  
HETATM    9  C   UNL     1      -9.182   8.601  67.637  1.00  0.00    -0.134 A  
HETATM   10  C   UNL     1      -7.899   8.294  67.213  1.00  0.00    -0.105 A  
BRANCH   6  11
HETATM   11  C   UNL     1      -9.160  12.413  67.556  1.00  0.00    -0.185 C  
HETATM   12  C   UNL     1      -9.051  14.631  66.795  1.00  0.00    -0.264 C  
HETATM   13  N   UNL     1      -8.658  13.303  66.738  1.00  0.00    -0.421 N  
HETATM   14  H   UNL     1      -7.966  13.014  66.047  1.00  0.00     0.000 HD 
HETATM   15  N   UNL     1     -10.078  12.685  68.560  1.00  0.00    -0.209 NA 
HETATM   16  N   UNL     1     -11.560  15.889  69.146  1.00  0.00    -0.380 NA 
HETATM   17  C   UNL     1     -11.454  14.591  69.477  1.00  0.00    -0.288 A  
HETATM   18  C   UNL     1     -10.037  14.894  67.795  1.00  0.00    -0.234 A  
HETATM   19  O   UNL     1      -8.594  15.499  66.059  1.00  0.00    -0.192 OA 
HETATM   20  C   UNL     1     -10.572  17.336  67.483  1.00  0.00    -0.329 C  
HETATM   21  C   UNL     1     -10.520  13.946  68.647  1.00  0.00    -0.246 A  
HETATM   22  N   UNL     1     -10.692  16.044  68.113  1.00  0.00    -0.299 NA 
BRANCH  17  23
HETATM   23  C   UNL     1     -12.274  14.042  70.595  1.00  0.00    -0.442 C  
BRANCH  23  24
HETATM   24  C   UNL     1     -13.068  15.099  71.367  1.00  0.00    -0.499 C  
HETATM   25  C   UNL     1     -14.354  14.565  71.985  1.00  0.00    -0.639 C  
ENDBRANCH  23  24
ENDBRANCH  17  23
ENDBRANCH   6  11
BRANCH   9  26
HETATM   26  S   UNL     1     -10.243   7.262  68.137  1.00  0.00    -0.194 S  
HETATM   27  O   UNL     1      -9.437   6.338  68.898  1.00  0.00    -0.128 OA 
HETATM   28  O   UNL     1     -11.000   6.867  66.971  1.00  0.00    -0.379 OA 
BRANCH  26  29
HETATM   29  N   UNL     1     -11.308   8.001  69.253  1.00  0.00    -0.290 N  
HETATM   30  H   UNL     1     -11.797   8.869  69.033  1.00  0.00     0.000 HD 
BRANCH  29  31
HETATM   31  C   UNL     1     -11.486   7.317  70.550  1.00  0.00    -0.279 C  
BRANCH  31  32
HETATM   32  C   UNL     1     -11.533   8.300  71.716  1.00  0.00    -0.353 C  
BRANCH  32  33
HETATM   33  C   UNL     1     -10.270   8.149  72.585  1.00  0.00    -0.318 C  
HETATM   34  C   UNL     1     -10.429   7.105  73.688  1.00  0.00    -0.412 C  
HETATM   35  C   UNL     1      -9.001   6.728  74.004  1.00  0.00    -0.196 C  
HETATM   36  C   UNL     1      -8.313   8.767  71.267  1.00  0.00    -0.176 C  
HETATM   37  N   UNL     1      -9.118   7.672  71.800  1.00  0.00    -0.131 NA 
HETATM   38  C   UNL     1      -8.317   6.775  72.649  1.00  0.00    -0.111 C  
ENDBRANCH  32  33
ENDBRANCH  31  32
ENDBRANCH  29  31
ENDBRANCH  26  29
ENDBRANCH   9  26
ENDBRANCH   4   5
ENDBRANCH   3   4
ENDBRANCH   2   3
TORSDOF 11
ENDMDL
MODEL       99
REMARK 921   NORMALIZED FREE ENERGY PREDICTED BY IDOCK:   -5.31 KCAL/MOL
REMARK 922        TOTAL FREE ENERGY PREDICTED BY IDOCK:  -10.96 KCAL/MOL
REMARK 923 INTER-LIGAND FREE ENERGY PREDICTED BY IDOCK:  -10.01 KCAL/MOL
REMARK 924 INTRA-LIGAND FREE ENERGY PREDICTED BY IDOCK:   -0.95 KCAL/MOL
REMARK 927      BINDING AFFINITY PREDICTED BY RF-SCORE:    0.00 PKD
ROOT
HETATM    1  C   UNL     1     -10.151   8.044  73.095  1.00  0.00    -0.302 C  
HETATM    2  C   UNL     1     -10.425   7.332  71.784  1.00  0.00    -0.218 C  
ENDROOT
BRANCH   2   3
HETATM    3  C   UNL     1     -11.754   7.737  71.169  1.00  0.00    -0.284 C  
BRANCH   3   4
HETATM    4  O   UNL     1     -11.752   9.105  70.720  1.00  0.00    -0.280 OA 
BRANCH   4   5
HETATM    5  C   UNL     1     -11.056   9.324  69.545  1.00  0.00    -0.080 A  
HETATM    6  C   UNL     1     -10.906  10.641  69.046  1.00  0.00    -0.277 A  
HETATM    7  C   UNL     1     -10.252  10.842  67.805  1.00  0.00    -0.212 A  
HETATM    8  C   UNL     1     -10.525   8.257  68.807  1.00  0.00    -0.200 A  
HETATM    9  C   UNL     1      -9.779   9.744  67.073  1.00  0.00    -0.183 A  
HETATM   10  C   UNL     1      -9.934   8.461  67.572  1.00  0.00    -0.259 A  
BRANCH   6  11
HETATM   11  C   UNL     1     -11.443  11.859  69.776  1.00  0.00    -0.229 C  
HETATM   12  C   UNL     1     -12.919  12.708  71.391  1.00  0.00    -0.258 C  
HETATM   13  N   UNL     1     -12.387  11.657  70.661  1.00  0.00    -0.363 N  
HETATM   14  H   UNL     1     -12.736  10.712  70.814  1.00  0.00     0.000 HD 
HETATM   15  N   UNL     1     -10.910  13.097  69.450  1.00  0.00    -0.008 NA 
HETATM   16  N   UNL     1     -11.785  16.173  71.054  1.00  0.00    -0.407 NA 
HETATM   17  C   UNL     1     -11.052  15.520  70.137  1.00  0.00    -0.323 A  
HETATM   18  C   UNL     1     -12.328  13.973  71.088  1.00  0.00    -0.365 A  
HETATM   19  O   UNL     1     -13.816  12.567  72.216  1.00  0.00    -0.406 OA 
HETATM   20  C   UNL     1     -13.451  15.559  72.693  1.00  0.00    -0.547 C  
HETATM   21  C   UNL     1     -11.363  14.149  70.143  1.00  0.00    -0.087 A  
HETATM   22  N   UNL     1     -12.548  15.205  71.624  1.00  0.00    -0.325 NA 
BRANCH  17  23
HETATM   23  C   UNL     1     -10.078  16.273  69.294  1.00  0.00    -0.267 C  
BRANCH  23  24
HETATM   24  C   UNL     1     -10.727  17.204  68.267  1.00  0.00    -0.363 C  
HETATM   25  C   UNL     1     -10.057  18.569  68.170  1.00  0.00    -0.408 C  
ENDBRANCH  23  24
ENDBRANCH  17  23
ENDBRANCH   6  11
BRANCH   9  26
HETATM   26  S   UNL     1      -9.049   9.936  65.462  1.00  0.00    -0.207 S  
HETATM   27  O   UNL     1      -8.786   8.611  64.951  1.00  0.00    -0.169 OA 
HETATM   28  O   UNL     1      -8.025  10.948  65.581  1.00  0.00    -0.133 OA 
BRANCH  26  29
HETATM   29  N   UNL     1     -10.331  10.566  64.521  1.00  0.00    -0.301 N  
HETATM   30  H   UNL     1     -11.139   9.998  64.268  1.00  0.00     0.000 HD 
BRANCH  29  31
HETATM   31  C   UNL     1     -10.209  11.975  64.095  1.00  0.00    -0.339 C  
BRANCH  31  32
HETATM   32  C   UNL     1     -11.534  12.542  63.597  1.00  0.00    -0.568 C  
BRANCH  32  33
HETATM   33  C   UNL     1     -12.106  13.534  64.627  1.00  0.00    -0.409 C  
HETATM   34  C   UNL     1     -12.513  12.861  65.937  1.00  0.00    -0.252 C  
HETATM   35  C   UNL     1     -12.484  14.003  66.925  1.00  0.00    -0.187 C  
HETATM   36  C   UNL     1     -11.167  15.747  64.214  1.00  0.00    -0.105 C  
HETATM   37  N   UNL     1     -11.109  14.540  65.033  1.00  0.00    -0.365 NA 
HETATM   38  C   UNL     1     -11.308  14.842  66.460  1.00  0.00    -0.319 C  
ENDBRANCH  32  33
ENDBRANCH  31  32
ENDBRANCH  29  31
ENDBRANCH  26  29
ENDBRANCH   9  26
ENDBRANCH   4   5
ENDBRANCH   3   4
ENDBRANCH   2   3
TORSDOF 11
ENDMDL
MODEL      100
REMARK 921   NORMALIZED FREE ENERGY PREDICTED BY IDOCK:   -5.30 KCAL/MOL
REMARK 922        TOTAL FREE ENERGY PREDICTED BY IDOCK:  -10.93 KCAL/MOL
REMARK 923 INTER-LIGAND FREE ENERGY PREDICTED BY IDOCK:   -8.65 KCAL/MOL
REMARK 924 INTRA-LIGAND FREE ENERGY PREDICTED BY IDOCK:   -2.28 KCAL/MOL
REMARK 927      BINDING AFFINITY PREDICTED BY RF-SCORE:    0.00 PKD
ROOT
HETATM    1  C   UNL     1     -10.204  10.755  64.372  1.00  0.00    -0.432 C  
HETATM    2  C   UNL     1     -10.276  10.052  65.714  1.00  0.00    -0.270 C  
ENDROOT
BRANCH   2   3
HETATM    3  C   UNL     1      -9.167   9.028  65.893  1.00  0.00    -0.230 C  
BRANCH   3   4
HETATM    4  O   UNL     1      -8.612   9.052  67.221  1.00  0.00    -0.114 OA 
BRANCH   4   5
HETATM    5  C   UNL     1      -7.964  10.228  67.552  1.00  0.00    -0.106 A  
HETATM    6  C   UNL     1      -8.395  10.985  68.669  1.00  0.00    -0.153 A  
HETATM    7  C   UNL     1      -7.766  12.221  68.954  1.00  0.00     0.059 A  
HETATM    8  C   UNL     1      -6.902  10.715  66.777  1.00  0.00    -0.108 A  
HETATM    9  C   UNL     1      -6.742  12.698  68.123  1.00  0.00    -0.082 A  
HETATM   10  C   UNL     1      -6.330  11.948  67.033  1.00  0.00    -0.141 A  
BRANCH   6  11
HETATM   11  C   UNL     1      -9.532  10.537  69.571  1.00  0.00    -0.080 C  
HETATM   12  C   UNL     1     -11.792  10.755  70.165  1.00  0.00    -0.343 C  
HETATM   13  N   UNL     1     -10.693  11.118  69.402  1.00  0.00    -0.361 N  
HETATM   14  H   UNL     1     -10.790  11.850  68.699  1.00  0.00     0.000 HD 
HETATM   15  N   UNL     1      -9.262   9.557  70.515  1.00  0.00    -0.253 NA 
HETATM   16  N   UNL     1     -11.699   8.120  72.705  1.00  0.00    -0.398 NA 
HETATM   17  C   UNL     1     -10.429   8.170  72.269  1.00  0.00    -0.302 A  
HETATM   18  C   UNL     1     -11.520   9.708  71.099  1.00  0.00    -0.384 A  
HETATM   19  O   UNL     1     -12.892  11.286  70.053  1.00  0.00    -0.071 OA 
HETATM   20  C   UNL     1     -13.760   9.259  72.163  1.00  0.00    -0.453 C  
HETATM   21  C   UNL     1     -10.292   9.143  71.264  1.00  0.00    -0.334 A  
HETATM   22  N   UNL     1     -12.343   9.062  71.970  1.00  0.00    -0.373 NA 
BRANCH  17  23
HETATM   23  C   UNL     1      -9.407   7.259  72.860  1.00  0.00    -0.194 C  
BRANCH  23  24
HETATM   24  C   UNL     1      -8.693   7.830  74.087  1.00  0.00    -0.293 C  
HETATM   25  C   UNL     1      -7.177   7.686  74.035  1.00  0.00    -0.136 C  
ENDBRANCH  23  24
ENDBRANCH  17  23
ENDBRANCH   6  11
BRANCH   9  26
HETATM   26  S   UNL     1      -5.996  14.293  68.375  1.00  0.00    -0.114 S  
HETATM   27  O   UNL     1      -5.185  14.575  67.214  1.00  0.00    -0.282 OA 
HETATM   28  O   UNL     1      -5.469  14.304  69.720  1.00  0.00    -0.092 OA 
BRANCH  26  29
HETATM   29  N   UNL     1      -7.326  15.366  68.302  1.00  0.00    -0.109 N  
HETATM   30  H   UNL     1      -7.698  15.815  69.139  1.00  0.00     0.000 HD 
BRANCH  29  31
HETATM   31  C   UNL     1      -7.909  15.609  66.967  1.00  0.00    -0.231 C  
BRANCH  31  32
HETATM   32  C   UNL     1      -9.024  16.648  67.006  1.00  0.00    -0.227 C  
BRANCH  32  33
HETATM   33  C   UNL     1     -10.368  15.995  66.634  1.00  0.00    -0.298 C  
HETATM   34  C   UNL     1     -10.318  15.248  65.303  1.00  0.00    -0.430 C  
HETATM   35  C   UNL     1     -11.464  14.272  65.422  1.00  0.00    -0.332 C  
HETATM   36  C   UNL     1     -11.611  15.504  68.675  1.00  0.00    -0.368 C  
HETATM   37  N   UNL     1     -10.768  14.967  67.611  1.00  0.00    -0.268 NA 
HETATM   38  C   UNL     1     -11.439  13.874  66.887  1.00  0.00    -0.351 C  
ENDBRANCH  32  33
ENDBRANCH  31  32
ENDBRANCH  29  31
ENDBRANCH  26  29
ENDBRANCH   9  26
ENDBRANCH   4   5
ENDBRANCH   3   4
ENDBRANCH   2   3
TORSDOF 11
ENDMDL
MODEL      101
REMARK 921   NORMALIZED FREE ENERGY PREDICTED BY IDOCK:   -5.29 KCAL/MOL
REMARK 922        TOTAL FREE ENERGY PREDICTED BY IDOCK:  -10.93 KCAL/MOL
REMARK 923 INTER-LIGAND FREE ENERGY PREDICTED BY IDOCK:   -8.20 KCAL/MOL
REMARK 924 INTRA-LIGAND FREE ENERGY PREDICTED BY IDOCK:   -2.73 KCAL/MOL
REMARK 927      BINDING AFFINITY PREDICTED BY RF-SCORE:    0.00 PKD
ROOT
HETATM    1  C   UNL     1      -8.781   3.893  65.834  1.00  0.00    -0.114 C  
HETATM    2  C   UNL     1      -9.416   5.032  66.609  1.00  0.00    -0.148 C  
ENDROOT
BRANCH   2   3
HETATM    3  C   UNL     1      -8.795   6.379  66.276  1.00  0.00    -0.145 C  
BRANCH   3   4
HETATM    4  O   UNL     1      -7.794   6.769  67.234  1.00  0.00    -0.106 OA 
BRANCH   4   5
HETATM    5  C   UNL     1      -7.669   8.135  67.412  1.00  0.00    -0.102 A  
HETATM    6  C   UNL     1      -8.333   8.773  68.488  1.00  0.00    -0.129 A  
HETATM    7  C   UNL     1      -8.253  10.181  68.616  1.00  0.00    -0.111 A  
HETATM    8  C   UNL     1      -6.925   8.918  66.519  1.00  0.00    -0.080 A  
HETATM    9  C   UNL     1      -7.540  10.934  67.673  1.00  0.00    -0.096 A  
HETATM   10  C   UNL     1      -6.896  10.298  66.624  1.00  0.00    -0.091 A  
BRANCH   6  11
HETATM   11  C   UNL     1      -9.158   8.008  69.508  1.00  0.00    -0.152 C  
HETATM   12  C   UNL     1      -9.301   6.173  70.965  1.00  0.00    -0.164 C  
HETATM   13  N   UNL     1      -8.629   6.921  70.011  1.00  0.00    -0.140 N  
HETATM   14  H   UNL     1      -7.707   6.619  69.696  1.00  0.00     0.000 HD 
HETATM   15  N   UNL     1     -10.414   8.502  69.826  1.00  0.00    -0.218 NA 
HETATM   16  N   UNL     1     -12.588   7.089  72.292  1.00  0.00    -0.094 NA 
HETATM   17  C   UNL     1     -12.353   8.041  71.373  1.00  0.00    -0.306 A  
HETATM   18  C   UNL     1     -10.572   6.717  71.328  1.00  0.00    -0.219 A  
HETATM   19  O   UNL     1      -8.851   5.140  71.450  1.00  0.00    -0.129 OA 
HETATM   20  C   UNL     1     -11.387   5.175  73.147  1.00  0.00    -0.313 C  
HETATM   21  C   UNL     1     -11.102   7.839  70.765  1.00  0.00    -0.257 A  
HETATM   22  N   UNL     1     -11.484   6.301  72.249  1.00  0.00    -0.294 NA 
BRANCH  17  23
HETATM   23  C   UNL     1     -13.369   9.107  71.134  1.00  0.00    -0.195 C  
BRANCH  23  24
HETATM   24  C   UNL     1     -13.030  10.451  71.782  1.00  0.00    -0.580 C  
HETATM   25  C   UNL     1     -12.580  11.513  70.787  1.00  0.00    -0.390 C  
ENDBRANCH  23  24
ENDBRANCH  17  23
ENDBRANCH   6  11
BRANCH   9  26
HETATM   26  S   UNL     1      -7.500  12.712  67.728  1.00  0.00    -0.147 S  
HETATM   27  O   UNL     1      -6.205  13.126  67.243  1.00  0.00    -0.298 OA 
HETATM   28  O   UNL     1      -8.016  13.105  69.019  1.00  0.00     0.086 OA 
BRANCH  26  29
HETATM   29  N   UNL     1      -8.630  13.168  66.528  1.00  0.00    -0.424 N  
HETATM   30  H   UNL     1      -8.396  13.144  65.536  1.00  0.00     0.000 HD 
BRANCH  29  31
HETATM   31  C   UNL     1      -9.962  13.598  67.002  1.00  0.00    -0.248 C  
BRANCH  31  32
HETATM   32  C   UNL     1     -10.924  12.425  67.154  1.00  0.00    -0.304 C  
BRANCH  32  33
HETATM   33  C   UNL     1     -11.445  11.986  65.772  1.00  0.00    -0.320 C  
HETATM   34  C   UNL     1     -12.083  13.130  64.987  1.00  0.00    -0.458 C  
HETATM   35  C   UNL     1     -11.987  12.652  63.558  1.00  0.00    -0.630 C  
HETATM   36  C   UNL     1     -10.147  10.071  64.999  1.00  0.00    -0.157 C  
HETATM   37  N   UNL     1     -10.356  11.513  64.900  1.00  0.00    -0.273 NA 
HETATM   38  C   UNL     1     -10.656  11.924  63.518  1.00  0.00    -0.453 C  
ENDBRANCH  32  33
ENDBRANCH  31  32
ENDBRANCH  29  31
ENDBRANCH  26  29
ENDBRANCH   9  26
ENDBRANCH   4   5
ENDBRANCH   3   4
ENDBRANCH   2   3
TORSDOF 11
ENDMDL
MODEL      102
REMARK 921   NORMALIZED FREE ENERGY PREDICTED BY IDOCK:   -5.28 KCAL/MOL
REMARK 922        TOTAL FREE ENERGY PREDICTED BY IDOCK:  -10.92 KCAL/MOL
REMARK 923 INTER-LIGAND FREE ENERGY PREDICTED BY IDOCK:   -9.22 KCAL/MOL
REMARK 924 INTRA-LIGAND FREE ENERGY PREDICTED BY IDOCK:   -1.70 KCAL/MOL
REMARK 927      BINDING AFFINITY PREDICTED BY RF-SCORE:    0.00 PKD
ROOT
HETATM    1  C   UNL     1     -10.713  10.876  64.609  1.00  0.00    -0.254 C  
HETATM    2  C   UNL     1      -9.749  10.739  65.772  1.00  0.00    -0.278 C  
ENDROOT
BRANCH   2   3
HETATM    3  C   UNL     1     -10.369  10.019  66.959  1.00  0.00    -0.243 C  
BRANCH   3   4
HETATM    4  O   UNL     1     -11.689  10.505  67.262  1.00  0.00    -0.217 OA 
BRANCH   4   5
HETATM    5  C   UNL     1     -11.717  11.651  68.036  1.00  0.00    -0.281 A  
HETATM    6  C   UNL     1     -11.654  11.554  69.447  1.00  0.00    -0.388 A  
HETATM    7  C   UNL     1     -11.753  12.731  70.229  1.00  0.00    -0.188 A  
HETATM    8  C   UNL     1     -11.847  12.918  67.452  1.00  0.00    -0.418 A  
HETATM    9  C   UNL     1     -11.934  13.975  69.608  1.00  0.00    -0.339 A  
HETATM   10  C   UNL     1     -11.995  14.056  68.226  1.00  0.00    -0.384 A  
BRANCH   6  11
HETATM   11  C   UNL     1     -11.508  10.227  70.170  1.00  0.00    -0.309 C  
HETATM   12  C   UNL     1     -12.556   8.485  71.344  1.00  0.00    -0.283 C  
HETATM   13  N   UNL     1     -12.592   9.705  70.687  1.00  0.00    -0.507 N  
HETATM   14  H   UNL     1     -13.477  10.205  70.606  1.00  0.00     0.000 HD 
HETATM   15  N   UNL     1     -10.242   9.665  70.244  1.00  0.00    -0.261 NA 
HETATM   16  N   UNL     1      -9.512   6.484  71.709  1.00  0.00    -0.153 NA 
HETATM   17  C   UNL     1      -9.080   7.585  71.073  1.00  0.00    -0.148 A  
HETATM   18  C   UNL     1     -11.259   7.887  71.371  1.00  0.00    -0.247 A  
HETATM   19  O   UNL     1     -13.543   7.970  71.859  1.00  0.00    -0.338 OA 
HETATM   20  C   UNL     1     -11.643   5.670  72.505  1.00  0.00    -0.246 C  
HETATM   21  C   UNL     1     -10.147   8.471  70.842  1.00  0.00    -0.201 A  
HETATM   22  N   UNL     1     -10.844   6.691  71.871  1.00  0.00    -0.230 NA 
BRANCH  17  23
HETATM   23  C   UNL     1      -7.636   7.719  70.721  1.00  0.00    -0.078 C  
BRANCH  23  24
HETATM   24  C   UNL     1      -7.368   7.847  69.220  1.00  0.00    -0.082 C  
HETATM   25  C   UNL     1      -7.749   6.606  68.422  1.00  0.00    -0.105 C  
ENDBRANCH  23  24
ENDBRANCH  17  23
ENDBRANCH   6  11
BRANCH   9  26
HETATM   26  S   UNL     1     -12.173  15.466  70.548  1.00  0.00    -0.422 S  
HETATM   27  O   UNL     1     -11.150  15.499  71.566  1.00  0.00    -0.359 OA 
HETATM   28  O   UNL     1     -13.583  15.552  70.850  1.00  0.00    -0.520 OA 
BRANCH  26  29
HETATM   29  N   UNL     1     -11.778  16.702  69.432  1.00  0.00    -0.085 N  
HETATM   30  H   UNL     1     -12.433  16.999  68.709  1.00  0.00     0.000 HD 
BRANCH  29  31
HETATM   31  C   UNL     1     -10.442  17.316  69.570  1.00  0.00    -0.054 C  
BRANCH  31  32
HETATM   32  C   UNL     1      -9.850  17.711  68.222  1.00  0.00    -0.324 C  
BRANCH  32  33
HETATM   33  C   UNL     1      -8.731  16.728  67.827  1.00  0.00    -0.210 C  
HETATM   34  C   UNL     1      -7.870  16.300  69.014  1.00  0.00    -0.235 C  
HETATM   35  C   UNL     1      -7.276  14.993  68.546  1.00  0.00    -0.115 C  
HETATM   36  C   UNL     1      -9.423  15.481  65.848  1.00  0.00    -0.342 C  
HETATM   37  N   UNL     1      -9.273  15.463  67.300  1.00  0.00    -0.203 NA 
HETATM   38  C   UNL     1      -8.400  14.363  67.741  1.00  0.00    -0.169 C  
ENDBRANCH  32  33
ENDBRANCH  31  32
ENDBRANCH  29  31
ENDBRANCH  26  29
ENDBRANCH   9  26
ENDBRANCH   4   5
ENDBRANCH   3   4
ENDBRANCH   2   3
TORSDOF 11
ENDMDL
MODEL      103
REMARK 921   NORMALIZED FREE ENERGY PREDICTED BY IDOCK:   -5.28 KCAL/MOL
REMARK 922        TOTAL FREE ENERGY PREDICTED BY IDOCK:  -10.91 KCAL/MOL
REMARK 923 INTER-LIGAND FREE ENERGY PREDICTED BY IDOCK:   -9.92 KCAL/MOL
REMARK 924 INTRA-LIGAND FREE ENERGY PREDICTED BY IDOCK:   -0.99 KCAL/MOL
REMARK 927      BINDING AFFINITY PREDICTED BY RF-SCORE:    0.00 PKD
ROOT
HETATM    1  C   UNL     1      -8.072   8.458  62.800  1.00  0.00    -0.170 C  
HETATM    2  C   UNL     1      -7.767   8.112  64.246  1.00  0.00    -0.128 C  
ENDROOT
BRANCH   2   3
HETATM    3  C   UNL     1      -8.978   8.276  65.150  1.00  0.00     0.109 C  
BRANCH   3   4
HETATM    4  O   UNL     1      -8.848   9.404  66.035  1.00  0.00    -0.142 OA 
BRANCH   4   5
HETATM    5  C   UNL     1      -9.625  10.496  65.692  1.00  0.00    -0.226 A  
HETATM    6  C   UNL     1     -10.641  10.946  66.569  1.00  0.00    -0.295 A  
HETATM    7  C   UNL     1     -11.474  12.021  66.173  1.00  0.00    -0.401 A  
HETATM    8  C   UNL     1      -9.453  11.152  64.465  1.00  0.00    -0.254 A  
HETATM    9  C   UNL     1     -11.303  12.617  64.916  1.00  0.00    -0.311 A  
HETATM   10  C   UNL     1     -10.304  12.167  64.067  1.00  0.00    -0.412 A  
BRANCH   6  11
HETATM   11  C   UNL     1     -10.899  10.303  67.920  1.00  0.00    -0.284 C  
HETATM   12  C   UNL     1     -11.970  10.435  70.005  1.00  0.00    -0.247 C  
HETATM   13  N   UNL     1     -11.662  10.958  68.758  1.00  0.00    -0.390 N  
HETATM   14  H   UNL     1     -12.037  11.867  68.490  1.00  0.00     0.000 HD 
HETATM   15  N   UNL     1     -10.301   9.078  68.179  1.00  0.00    -0.208 NA 
HETATM   16  N   UNL     1     -10.792   7.168  71.164  1.00  0.00    -0.237 NA 
HETATM   17  C   UNL     1     -10.219   7.289  69.955  1.00  0.00    -0.201 A  
HETATM   18  C   UNL     1     -11.394   9.149  70.244  1.00  0.00    -0.188 A  
HETATM   19  O   UNL     1     -12.666  11.022  70.827  1.00  0.00    -0.341 OA 
HETATM   20  C   UNL     1     -12.289   8.504  72.510  1.00  0.00    -0.306 C  
HETATM   21  C   UNL     1     -10.584   8.507  69.357  1.00  0.00    -0.195 A  
HETATM   22  N   UNL     1     -11.508   8.312  71.311  1.00  0.00    -0.267 NA 
BRANCH  17  23
HETATM   23  C   UNL     1      -9.337   6.201  69.441  1.00  0.00    -0.147 C  
BRANCH  23  24
HETATM   24  C   UNL     1      -9.968   4.807  69.493  1.00  0.00    -0.287 C  
HETATM   25  C   UNL     1      -9.528   3.895  68.354  1.00  0.00    -0.210 C  
ENDBRANCH  23  24
ENDBRANCH  17  23
ENDBRANCH   6  11
BRANCH   9  26
HETATM   26  S   UNL     1     -12.391  13.897  64.329  1.00  0.00    -0.288 S  
HETATM   27  O   UNL     1     -13.343  14.165  65.380  1.00  0.00    -0.705 OA 
HETATM   28  O   UNL     1     -12.786  13.532  62.988  1.00  0.00    -0.668 OA 
BRANCH  26  29
HETATM   29  N   UNL     1     -11.373  15.270  64.242  1.00  0.00    -0.697 N  
HETATM   30  H   UNL     1     -11.505  15.990  63.532  1.00  0.00     0.000 HD 
BRANCH  29  31
HETATM   31  C   UNL     1     -10.296  15.359  65.248  1.00  0.00    -0.390 C  
BRANCH  31  32
HETATM   32  C   UNL     1     -10.729  16.136  66.487  1.00  0.00    -0.220 C  
BRANCH  32  33
HETATM   33  C   UNL     1     -10.306  15.379  67.760  1.00  0.00    -0.253 C  
HETATM   34  C   UNL     1      -9.012  15.915  68.369  1.00  0.00    -0.189 C  
HETATM   35  C   UNL     1      -9.104  15.463  69.807  1.00  0.00    -0.069 C  
HETATM   36  C   UNL     1     -12.290  14.450  68.834  1.00  0.00    -0.069 C  
HETATM   37  N   UNL     1     -11.299  15.522  68.839  1.00  0.00    -0.302 NA 
HETATM   38  C   UNL     1     -10.583  15.592  70.123  1.00  0.00    -0.334 C  
ENDBRANCH  32  33
ENDBRANCH  31  32
ENDBRANCH  29  31
ENDBRANCH  26  29
ENDBRANCH   9  26
ENDBRANCH   4   5
ENDBRANCH   3   4
ENDBRANCH   2   3
TORSDOF 11
ENDMDL
MODEL      104
REMARK 921   NORMALIZED FREE ENERGY PREDICTED BY IDOCK:   -5.26 KCAL/MOL
REMARK 922        TOTAL FREE ENERGY PREDICTED BY IDOCK:  -10.87 KCAL/MOL
REMARK 923 INTER-LIGAND FREE ENERGY PREDICTED BY IDOCK:  -10.41 KCAL/MOL
REMARK 924 INTRA-LIGAND FREE ENERGY PREDICTED BY IDOCK:   -0.47 KCAL/MOL
REMARK 927      BINDING AFFINITY PREDICTED BY RF-SCORE:    0.00 PKD
ROOT
HETATM    1  C   UNL     1     -11.041  11.389  64.312  1.00  0.00    -0.356 C  
HETATM    2  C   UNL     1      -9.840  10.712  64.948  1.00  0.00    -0.363 C  
ENDROOT
BRANCH   2   3
HETATM    3  C   UNL     1     -10.062  10.399  66.419  1.00  0.00    -0.228 C  
BRANCH   3   4
HETATM    4  O   UNL     1     -11.390  10.744  66.856  1.00  0.00    -0.303 OA 
BRANCH   4   5
HETATM    5  C   UNL     1     -11.454  11.854  67.678  1.00  0.00    -0.317 A  
HETATM    6  C   UNL     1     -11.482  11.693  69.085  1.00  0.00    -0.364 A  
HETATM    7  C   UNL     1     -11.619  12.836  69.911  1.00  0.00    -0.243 A  
HETATM    8  C   UNL     1     -11.533  13.148  67.145  1.00  0.00    -0.378 A  
HETATM    9  C   UNL     1     -11.746  14.108  69.337  1.00  0.00    -0.313 A  
HETATM   10  C   UNL     1     -11.717  14.252  67.959  1.00  0.00    -0.386 A  
BRANCH   6  11
HETATM   11  C   UNL     1     -11.398  10.333  69.754  1.00  0.00    -0.273 C  
HETATM   12  C   UNL     1     -12.072   8.953  71.529  1.00  0.00    -0.330 C  
HETATM   13  N   UNL     1     -12.073  10.169  70.863  1.00  0.00    -0.328 N  
HETATM   14  H   UNL     1     -12.609  10.949  71.244  1.00  0.00     0.000 HD 
HETATM   15  N   UNL     1     -10.604   9.365  69.156  1.00  0.00    -0.220 NA 
HETATM   16  N   UNL     1     -10.276   6.000  70.325  1.00  0.00    -0.196 NA 
HETATM   17  C   UNL     1      -9.957   6.941  69.421  1.00  0.00    -0.160 A  
HETATM   18  C   UNL     1     -11.297   7.945  70.879  1.00  0.00    -0.277 A  
HETATM   19  O   UNL     1     -12.676   8.762  72.579  1.00  0.00    -0.396 OA 
HETATM   20  C   UNL     1     -11.662   5.897  72.300  1.00  0.00    -0.252 C  
HETATM   21  C   UNL     1     -10.586   8.159  69.736  1.00  0.00    -0.231 A  
HETATM   22  N   UNL     1     -11.099   6.637  71.197  1.00  0.00    -0.266 NA 
BRANCH  17  23
HETATM   23  C   UNL     1      -9.048   6.603  68.287  1.00  0.00    -0.123 C  
BRANCH  23  24
HETATM   24  C   UNL     1      -8.174   5.371  68.531  1.00  0.00    -0.094 C  
HETATM   25  C   UNL     1      -6.751   5.707  68.960  1.00  0.00    -0.060 C  
ENDBRANCH  23  24
ENDBRANCH  17  23
ENDBRANCH   6  11
BRANCH   9  26
HETATM   26  S   UNL     1     -12.028  15.559  70.327  1.00  0.00    -0.391 S  
HETATM   27  O   UNL     1     -11.115  15.500  71.444  1.00  0.00    -0.357 OA 
HETATM   28  O   UNL     1     -13.458  15.687  70.489  1.00  0.00    -0.398 OA 
BRANCH  26  29
HETATM   29  N   UNL     1     -11.478  16.832  69.325  1.00  0.00    -0.163 N  
HETATM   30  H   UNL     1     -12.110  17.335  68.702  1.00  0.00     0.000 HD 
BRANCH  29  31
HETATM   31  C   UNL     1     -10.042  17.166  69.408  1.00  0.00    -0.116 C  
BRANCH  31  32
HETATM   32  C   UNL     1      -9.295  16.819  68.124  1.00  0.00    -0.234 C  
BRANCH  32  33
HETATM   33  C   UNL     1      -9.185  18.065  67.224  1.00  0.00    -0.255 C  
HETATM   34  C   UNL     1     -10.321  18.166  66.209  1.00  0.00    -0.407 C  
HETATM   35  C   UNL     1     -10.340  19.638  65.871  1.00  0.00    -0.584 C  
HETATM   36  C   UNL     1      -7.975  19.812  68.421  1.00  0.00    -0.280 C  
HETATM   37  N   UNL     1      -9.281  19.313  68.000  1.00  0.00    -0.310 NA 
HETATM   38  C   UNL     1     -10.006  20.307  67.193  1.00  0.00    -0.453 C  
ENDBRANCH  32  33
ENDBRANCH  31  32
ENDBRANCH  29  31
ENDBRANCH  26  29
ENDBRANCH   9  26
ENDBRANCH   4   5
ENDBRANCH   3   4
ENDBRANCH   2   3
TORSDOF 11
ENDMDL
MODEL      105
REMARK 921   NORMALIZED FREE ENERGY PREDICTED BY IDOCK:   -5.26 KCAL/MOL
REMARK 922        TOTAL FREE ENERGY PREDICTED BY IDOCK:  -10.87 KCAL/MOL
REMARK 923 INTER-LIGAND FREE ENERGY PREDICTED BY IDOCK:   -9.23 KCAL/MOL
REMARK 924 INTRA-LIGAND FREE ENERGY PREDICTED BY IDOCK:   -1.63 KCAL/MOL
REMARK 927      BINDING AFFINITY PREDICTED BY RF-SCORE:    0.00 PKD
ROOT
HETATM    1  C   UNL     1      -5.909   8.217  70.442  1.00  0.00    -0.028 C  
HETATM    2  C   UNL     1      -5.250   9.540  70.786  1.00  0.00    -0.039 C  
ENDROOT
BRANCH   2   3
HETATM    3  C   UNL     1      -6.077  10.734  70.339  1.00  0.00    -0.135 C  
BRANCH   3   4
HETATM    4  O   UNL     1      -6.421  10.667  68.942  1.00  0.00    -0.047 OA 
BRANCH   4   5
HETATM    5  C   UNL     1      -7.347  11.609  68.532  1.00  0.00    -0.102 A  
HETATM    6  C   UNL     1      -8.721  11.271  68.469  1.00  0.00    -0.156 A  
HETATM    7  C   UNL     1      -9.647  12.224  67.980  1.00  0.00    -0.206 A  
HETATM    8  C   UNL     1      -6.948  12.893  68.135  1.00  0.00    -0.102 A  
HETATM    9  C   UNL     1      -9.202  13.480  67.545  1.00  0.00    -0.219 A  
HETATM   10  C   UNL     1      -7.855  13.798  67.612  1.00  0.00    -0.185 A  
BRANCH   6  11
HETATM   11  C   UNL     1      -9.247   9.908  68.881  1.00  0.00    -0.160 C  
HETATM   12  C   UNL     1      -9.249   7.590  68.511  1.00  0.00    -0.143 C  
HETATM   13  N   UNL     1      -8.837   8.875  68.190  1.00  0.00    -0.134 N  
HETATM   14  H   UNL     1      -8.205   9.017  67.403  1.00  0.00     0.000 HD 
HETATM   15  N   UNL     1     -10.133   9.852  69.947  1.00  0.00    -0.245 NA 
HETATM   16  N   UNL     1     -11.464   6.829  71.324  1.00  0.00    -0.285 NA 
HETATM   17  C   UNL     1     -11.382   8.170  71.353  1.00  0.00    -0.259 A  
HETATM   18  C   UNL     1     -10.118   7.534  69.643  1.00  0.00    -0.189 A  
HETATM   19  O   UNL     1      -8.903   6.597  67.880  1.00  0.00    -0.117 OA 
HETATM   20  C   UNL     1     -10.513   5.067  69.973  1.00  0.00    -0.156 C  
HETATM   21  C   UNL     1     -10.544   8.634  70.325  1.00  0.00    -0.223 A  
HETATM   22  N   UNL     1     -10.678   6.468  70.278  1.00  0.00    -0.236 NA 
BRANCH  17  23
HETATM   23  C   UNL     1     -12.131   8.936  72.391  1.00  0.00    -0.344 C  
BRANCH  23  24
HETATM   24  C   UNL     1     -13.521   9.398  71.948  1.00  0.00    -0.500 C  
HETATM   25  C   UNL     1     -14.397   8.271  71.414  1.00  0.00    -0.461 C  
ENDBRANCH  23  24
ENDBRANCH  17  23
ENDBRANCH   6  11
BRANCH   9  26
HETATM   26  S   UNL     1     -10.311  14.670  66.824  1.00  0.00    -0.273 S  
HETATM   27  O   UNL     1     -11.514  13.964  66.453  1.00  0.00    -0.322 OA 
HETATM   28  O   UNL     1      -9.538  15.450  65.884  1.00  0.00    -0.319 OA 
BRANCH  26  29
HETATM   29  N   UNL     1     -10.730  15.670  68.147  1.00  0.00    -0.277 N  
HETATM   30  H   UNL     1     -10.142  16.453  68.433  1.00  0.00     0.000 HD 
BRANCH  29  31
HETATM   31  C   UNL     1     -11.986  15.343  68.852  1.00  0.00    -0.273 C  
BRANCH  31  32
HETATM   32  C   UNL     1     -11.840  14.119  69.749  1.00  0.00    -0.381 C  
BRANCH  32  33
HETATM   33  C   UNL     1     -12.105  14.505  71.217  1.00  0.00    -0.354 C  
HETATM   34  C   UNL     1     -11.976  16.005  71.470  1.00  0.00    -0.539 C  
HETATM   35  C   UNL     1     -12.794  16.207  72.723  1.00  0.00    -0.446 C  
HETATM   36  C   UNL     1     -13.600  12.858  72.218  1.00  0.00    -0.515 C  
HETATM   37  N   UNL     1     -13.484  14.187  71.626  1.00  0.00    -0.355 NA 
HETATM   38  C   UNL     1     -13.947  15.235  72.551  1.00  0.00    -0.511 C  
ENDBRANCH  32  33
ENDBRANCH  31  32
ENDBRANCH  29  31
ENDBRANCH  26  29
ENDBRANCH   9  26
ENDBRANCH   4   5
ENDBRANCH   3   4
ENDBRANCH   2   3
TORSDOF 11
ENDMDL
MODEL      106
REMARK 921   NORMALIZED FREE ENERGY PREDICTED BY IDOCK:   -5.25 KCAL/MOL
REMARK 922        TOTAL FREE ENERGY PREDICTED BY IDOCK:  -10.87 KCAL/MOL
REMARK 923 INTER-LIGAND FREE ENERGY PREDICTED BY IDOCK:   -9.16 KCAL/MOL
REMARK 924 INTRA-LIGAND FREE ENERGY PREDICTED BY IDOCK:   -1.71 KCAL/MOL
REMARK 927      BINDING AFFINITY PREDICTED BY RF-SCORE:    0.00 PKD
ROOT
HETATM    1  C   UNL     1     -12.337  15.130  73.044  1.00  0.00    -0.510 C  
HETATM    2  C   UNL     1     -12.374  14.275  71.790  1.00  0.00    -0.362 C  
ENDROOT
BRANCH   2   3
HETATM    3  C   UNL     1     -13.077  12.947  72.014  1.00  0.00    -0.379 C  
BRANCH   3   4
HETATM    4  O   UNL     1     -13.244  12.206  70.791  1.00  0.00     0.136 OA 
BRANCH   4   5
HETATM    5  C   UNL     1     -12.509  11.036  70.722  1.00  0.00    -0.396 A  
HETATM    6  C   UNL     1     -11.737  10.751  69.570  1.00  0.00    -0.384 A  
HETATM    7  C   UNL     1     -11.046   9.518  69.485  1.00  0.00    -0.168 A  
HETATM    8  C   UNL     1     -12.542  10.097  71.762  1.00  0.00    -0.500 A  
HETATM    9  C   UNL     1     -11.145   8.583  70.525  1.00  0.00    -0.244 A  
HETATM   10  C   UNL     1     -11.904   8.874  71.647  1.00  0.00    -0.415 A  
BRANCH   6  11
HETATM   11  C   UNL     1     -11.637  11.709  68.395  1.00  0.00    -0.312 C  
HETATM   12  C   UNL     1     -11.791  13.920  67.624  1.00  0.00    -0.386 C  
HETATM   13  N   UNL     1     -11.882  12.973  68.632  1.00  0.00    -0.320 N  
HETATM   14  H   UNL     1     -12.144  13.265  69.573  1.00  0.00     0.000 HD 
HETATM   15  N   UNL     1     -11.308  11.181  67.156  1.00  0.00    -0.438 NA 
HETATM   16  N   UNL     1     -10.813  13.119  64.189  1.00  0.00    -0.400 NA 
HETATM   17  C   UNL     1     -10.823  11.918  64.792  1.00  0.00    -0.307 A  
HETATM   18  C   UNL     1     -11.400  13.378  66.362  1.00  0.00    -0.313 A  
HETATM   19  O   UNL     1     -12.030  15.111  67.798  1.00  0.00    -0.250 OA 
HETATM   20  C   UNL     1     -11.219  15.401  64.870  1.00  0.00    -0.403 C  
HETATM   21  C   UNL     1     -11.176  12.051  66.147  1.00  0.00    -0.343 A  
HETATM   22  N   UNL     1     -11.160  13.990  65.170  1.00  0.00    -0.325 NA 
BRANCH  17  23
HETATM   23  C   UNL     1     -10.486  10.693  64.011  1.00  0.00    -0.150 C  
BRANCH  23  24
HETATM   24  C   UNL     1      -9.617  10.956  62.779  1.00  0.00    -0.339 C  
HETATM   25  C   UNL     1      -8.345  10.118  62.738  1.00  0.00    -0.171 C  
ENDBRANCH  23  24
ENDBRANCH  17  23
ENDBRANCH   6  11
BRANCH   9  26
HETATM   26  S   UNL     1     -10.385   6.978  70.418  1.00  0.00    -0.205 S  
HETATM   27  O   UNL     1     -11.258   6.045  71.091  1.00  0.00    -0.293 OA 
HETATM   28  O   UNL     1      -8.995   7.146  70.773  1.00  0.00    -0.151 OA 
BRANCH  26  29
HETATM   29  N   UNL     1     -10.480   6.607  68.751  1.00  0.00    -0.197 N  
HETATM   30  H   UNL     1     -11.274   6.902  68.182  1.00  0.00     0.000 HD 
BRANCH  29  31
HETATM   31  C   UNL     1      -9.357   5.838  68.178  1.00  0.00    -0.109 C  
BRANCH  31  32
HETATM   32  C   UNL     1      -9.081   6.219  66.728  1.00  0.00    -0.141 C  
BRANCH  32  33
HETATM   33  C   UNL     1      -7.639   6.743  66.584  1.00  0.00    -0.086 C  
HETATM   34  C   UNL     1      -6.671   5.682  66.064  1.00  0.00    -0.056 C  
HETATM   35  C   UNL     1      -5.548   6.508  65.482  1.00  0.00    -0.025 C  
HETATM   36  C   UNL     1      -7.698   9.151  66.201  1.00  0.00    -0.095 C  
HETATM   37  N   UNL     1      -7.547   7.831  65.596  1.00  0.00    -0.081 NA 
HETATM   38  C   UNL     1      -6.265   7.705  64.883  1.00  0.00    -0.038 C  
ENDBRANCH  32  33
ENDBRANCH  31  32
ENDBRANCH  29  31
ENDBRANCH  26  29
ENDBRANCH   9  26
ENDBRANCH   4   5
ENDBRANCH   3   4
ENDBRANCH   2   3
TORSDOF 11
ENDMDL
MODEL      107
REMARK 921   NORMALIZED FREE ENERGY PREDICTED BY IDOCK:   -5.25 KCAL/MOL
REMARK 922        TOTAL FREE ENERGY PREDICTED BY IDOCK:  -10.85 KCAL/MOL
REMARK 923 INTER-LIGAND FREE ENERGY PREDICTED BY IDOCK:   -8.95 KCAL/MOL
REMARK 924 INTRA-LIGAND FREE ENERGY PREDICTED BY IDOCK:   -1.90 KCAL/MOL
REMARK 927      BINDING AFFINITY PREDICTED BY RF-SCORE:    0.00 PKD
ROOT
HETATM    1  C   UNL     1     -10.861   5.976  68.680  1.00  0.00    -0.379 C  
HETATM    2  C   UNL     1      -9.638   6.491  67.945  1.00  0.00    -0.119 C  
ENDROOT
BRANCH   2   3
HETATM    3  C   UNL     1      -9.981   7.567  66.928  1.00  0.00    -0.248 C  
BRANCH   3   4
HETATM    4  O   UNL     1      -9.023   8.641  66.926  1.00  0.00    -0.131 OA 
BRANCH   4   5
HETATM    5  C   UNL     1      -9.571   9.902  67.073  1.00  0.00    -0.175 A  
HETATM    6  C   UNL     1      -9.751  10.450  68.366  1.00  0.00    -0.167 A  
HETATM    7  C   UNL     1     -10.379  11.712  68.504  1.00  0.00    -0.224 A  
HETATM    8  C   UNL     1      -9.995  10.643  65.961  1.00  0.00    -0.295 A  
HETATM    9  C   UNL     1     -10.834  12.399  67.370  1.00  0.00    -0.238 A  
HETATM   10  C   UNL     1     -10.652  11.852  66.110  1.00  0.00    -0.295 A  
BRANCH   6  11
HETATM   11  C   UNL     1      -9.321   9.724  69.629  1.00  0.00    -0.219 C  
HETATM   12  C   UNL     1      -7.554   9.031  71.010  1.00  0.00    -0.115 C  
HETATM   13  N   UNL     1      -8.036   9.654  69.869  1.00  0.00    -0.148 N  
HETATM   14  H   UNL     1      -7.378  10.065  69.207  1.00  0.00     0.000 HD 
HETATM   15  N   UNL     1     -10.311   9.176  70.430  1.00  0.00    -0.207 NA 
HETATM   16  N   UNL     1      -9.720   7.540  73.557  1.00  0.00    -0.286 NA 
HETATM   17  C   UNL     1     -10.591   7.966  72.626  1.00  0.00    -0.329 A  
HETATM   18  C   UNL     1      -8.582   8.516  71.858  1.00  0.00    -0.188 A  
HETATM   19  O   UNL     1      -6.359   8.928  71.265  1.00  0.00    -0.052 OA 
HETATM   20  C   UNL     1      -7.322   7.608  73.843  1.00  0.00    -0.116 C  
HETATM   21  C   UNL     1      -9.910   8.585  71.563  1.00  0.00    -0.239 A  
HETATM   22  N   UNL     1      -8.505   7.894  73.067  1.00  0.00    -0.159 NA 
BRANCH  17  23
HETATM   23  C   UNL     1     -12.053   7.747  72.824  1.00  0.00    -0.103 C  
BRANCH  23  24
HETATM   24  C   UNL     1     -12.768   7.158  71.605  1.00  0.00    -0.415 C  
HETATM   25  C   UNL     1     -14.284   7.112  71.749  1.00  0.00    -0.484 C  
ENDBRANCH  23  24
ENDBRANCH  17  23
ENDBRANCH   6  11
BRANCH   9  26
HETATM   26  S   UNL     1     -11.723  13.935  67.498  1.00  0.00    -0.400 S  
HETATM   27  O   UNL     1     -12.400  13.933  68.773  1.00  0.00    -0.288 OA 
HETATM   28  O   UNL     1     -12.415  14.127  66.244  1.00  0.00    -0.466 OA 
BRANCH  26  29
HETATM   29  N   UNL     1     -10.478  15.102  67.618  1.00  0.00    -0.249 N  
HETATM   30  H   UNL     1     -10.122  15.413  68.521  1.00  0.00     0.000 HD 
BRANCH  29  31
HETATM   31  C   UNL     1      -9.946  15.635  66.347  1.00  0.00    -0.281 C  
BRANCH  31  32
HETATM   32  C   UNL     1      -8.441  15.876  66.411  1.00  0.00    -0.348 C  
BRANCH  32  33
HETATM   33  C   UNL     1      -8.156  17.360  66.709  1.00  0.00    -0.250 C  
HETATM   34  C   UNL     1      -9.227  18.295  66.149  1.00  0.00    -0.135 C  
HETATM   35  C   UNL     1      -9.072  19.532  67.000  1.00  0.00    -0.378 C  
HETATM   36  C   UNL     1      -6.824  17.526  68.745  1.00  0.00    -0.233 C  
HETATM   37  N   UNL     1      -8.154  17.639  68.155  1.00  0.00    -0.243 NA 
HETATM   38  C   UNL     1      -8.731  18.976  68.372  1.00  0.00    -0.346 C  
ENDBRANCH  32  33
ENDBRANCH  31  32
ENDBRANCH  29  31
ENDBRANCH  26  29
ENDBRANCH   9  26
ENDBRANCH   4   5
ENDBRANCH   3   4
ENDBRANCH   2   3
TORSDOF 11
ENDMDL
MODEL      108
REMARK 921   NORMALIZED FREE ENERGY PREDICTED BY IDOCK:   -5.23 KCAL/MOL
REMARK 922        TOTAL FREE ENERGY PREDICTED BY IDOCK:  -10.82 KCAL/MOL
REMARK 923 INTER-LIGAND FREE ENERGY PREDICTED BY IDOCK:   -8.71 KCAL/MOL
REMARK 924 INTRA-LIGAND FREE ENERGY PREDICTED BY IDOCK:   -2.12 KCAL/MOL
REMARK 927      BINDING AFFINITY PREDICTED BY RF-SCORE:    0.00 PKD
ROOT
HETATM    1  C   UNL     1      -5.234  10.773  64.684  1.00  0.00    -0.107 C  
HETATM    2  C   UNL     1      -6.048   9.496  64.786  1.00  0.00    -0.079 C  
ENDROOT
BRANCH   2   3
HETATM    3  C   UNL     1      -6.864   9.226  63.532  1.00  0.00    -0.091 C  
BRANCH   3   4
HETATM    4  O   UNL     1      -8.210   8.816  63.835  1.00  0.00    -0.159 OA 
BRANCH   4   5
HETATM    5  C   UNL     1      -9.109   9.856  63.981  1.00  0.00    -0.259 A  
HETATM    6  C   UNL     1      -9.837   9.999  65.187  1.00  0.00    -0.388 A  
HETATM    7  C   UNL     1     -10.806  11.027  65.295  1.00  0.00    -0.172 A  
HETATM    8  C   UNL     1      -9.349  10.760  62.937  1.00  0.00    -0.355 A  
HETATM    9  C   UNL     1     -11.052  11.879  64.210  1.00  0.00    -0.356 A  
HETATM   10  C   UNL     1     -10.333  11.728  63.035  1.00  0.00    -0.237 A  
BRANCH   6  11
HETATM   11  C   UNL     1      -9.643   9.072  66.374  1.00  0.00    -0.244 C  
HETATM   12  C   UNL     1     -10.407   7.206  67.576  1.00  0.00    -0.236 C  
HETATM   13  N   UNL     1     -10.520   8.113  66.533  1.00  0.00    -0.414 N  
HETATM   14  H   UNL     1     -11.298   8.031  65.879  1.00  0.00     0.000 HD 
HETATM   15  N   UNL     1      -8.564   9.311  67.212  1.00  0.00    -0.124 NA 
HETATM   16  N   UNL     1      -7.671   7.264  70.008  1.00  0.00    -0.094 NA 
HETATM   17  C   UNL     1      -7.415   8.332  69.234  1.00  0.00    -0.085 A  
HETATM   18  C   UNL     1      -9.264   7.425  68.404  1.00  0.00    -0.138 A  
HETATM   19  O   UNL     1     -11.215   6.304  67.772  1.00  0.00    -0.325 OA 
HETATM   20  C   UNL     1      -9.347   5.524  70.056  1.00  0.00    -0.148 C  
HETATM   21  C   UNL     1      -8.385   8.450  68.223  1.00  0.00    -0.131 A  
HETATM   22  N   UNL     1      -8.798   6.726  69.475  1.00  0.00    -0.139 NA 
BRANCH  17  23
HETATM   23  C   UNL     1      -6.228   9.189  69.521  1.00  0.00    -0.040 C  
BRANCH  23  24
HETATM   24  C   UNL     1      -6.548  10.452  70.323  1.00  0.00    -0.141 C  
HETATM   25  C   UNL     1      -5.945  11.720  69.732  1.00  0.00    -0.126 C  
ENDBRANCH  23  24
ENDBRANCH  17  23
ENDBRANCH   6  11
BRANCH   9  26
HETATM   26  S   UNL     1     -12.331  13.114  64.258  1.00  0.00    -0.327 S  
HETATM   27  O   UNL     1     -13.518  12.482  64.784  1.00  0.00    -0.645 OA 
HETATM   28  O   UNL     1     -12.306  13.797  62.986  1.00  0.00    -0.661 OA 
BRANCH  26  29
HETATM   29  N   UNL     1     -11.789  14.195  65.468  1.00  0.00    -0.351 N  
HETATM   30  H   UNL     1     -12.370  14.435  66.272  1.00  0.00     0.000 HD 
BRANCH  29  31
HETATM   31  C   UNL     1     -10.437  14.764  65.290  1.00  0.00    -0.404 C  
BRANCH  31  32
HETATM   32  C   UNL     1     -10.271  16.091  66.022  1.00  0.00    -0.360 C  
BRANCH  32  33
HETATM   33  C   UNL     1     -10.160  15.848  67.540  1.00  0.00    -0.247 C  
HETATM   34  C   UNL     1     -11.491  16.022  68.268  1.00  0.00    -0.291 C  
HETATM   35  C   UNL     1     -11.290  15.219  69.532  1.00  0.00    -0.299 C  
HETATM   36  C   UNL     1      -8.313  14.314  67.970  1.00  0.00    -0.157 C  
HETATM   37  N   UNL     1      -9.760  14.463  67.845  1.00  0.00    -0.219 NA 
HETATM   38  C   UNL     1     -10.457  14.037  69.070  1.00  0.00    -0.156 C  
ENDBRANCH  32  33
ENDBRANCH  31  32
ENDBRANCH  29  31
ENDBRANCH  26  29
ENDBRANCH   9  26
ENDBRANCH   4   5
ENDBRANCH   3   4
ENDBRANCH   2   3
TORSDOF 11
ENDMDL
MODEL      109
REMARK 921   NORMALIZED FREE ENERGY PREDICTED BY IDOCK:   -5.23 KCAL/MOL
REMARK 922        TOTAL FREE ENERGY PREDICTED BY IDOCK:  -10.82 KCAL/MOL
REMARK 923 INTER-LIGAND FREE ENERGY PREDICTED BY IDOCK:   -8.94 KCAL/MOL
REMARK 924 INTRA-LIGAND FREE ENERGY PREDICTED BY IDOCK:   -1.88 KCAL/MOL
REMARK 927      BINDING AFFINITY PREDICTED BY RF-SCORE:    0.00 PKD
ROOT
HETATM    1  C   UNL     1      -8.329   5.735  65.865  1.00  0.00    -0.130 C  
HETATM    2  C   UNL     1      -8.723   6.911  66.740  1.00  0.00    -0.122 C  
ENDROOT
BRANCH   2   3
HETATM    3  C   UNL     1      -9.020   8.163  65.931  1.00  0.00    -0.151 C  
BRANCH   3   4
HETATM    4  O   UNL     1     -10.297   8.738  66.266  1.00  0.00    -0.231 OA 
BRANCH   4   5
HETATM    5  C   UNL     1     -10.322  10.121  66.267  1.00  0.00    -0.175 A  
HETATM    6  C   UNL     1     -10.345  10.828  67.494  1.00  0.00    -0.244 A  
HETATM    7  C   UNL     1     -10.442  12.241  67.478  1.00  0.00    -0.230 A  
HETATM    8  C   UNL     1     -10.365  10.847  65.068  1.00  0.00    -0.356 A  
HETATM    9  C   UNL     1     -10.534  12.927  66.259  1.00  0.00    -0.270 A  
HETATM   10  C   UNL     1     -10.511  12.223  65.065  1.00  0.00    -0.322 A  
BRANCH   6  11
HETATM   11  C   UNL     1     -10.297  10.130  68.841  1.00  0.00    -0.206 C  
HETATM   12  C   UNL     1     -11.487   9.081  70.572  1.00  0.00    -0.212 C  
HETATM   13  N   UNL     1     -11.438   9.747  69.357  1.00  0.00    -0.446 N  
HETATM   14  H   UNL     1     -12.305   9.941  68.857  1.00  0.00     0.000 HD 
HETATM   15  N   UNL     1      -9.057   9.958  69.437  1.00  0.00    -0.192 NA 
HETATM   16  N   UNL     1      -8.507   8.222  72.517  1.00  0.00    -0.181 NA 
HETATM   17  C   UNL     1      -8.004   8.894  71.468  1.00  0.00    -0.066 A  
HETATM   18  C   UNL     1     -10.201   8.860  71.155  1.00  0.00    -0.266 A  
HETATM   19  O   UNL     1     -12.534   8.721  71.099  1.00  0.00    -0.280 OA 
HETATM   20  C   UNL     1     -10.707   7.529  73.235  1.00  0.00    -0.382 C  
HETATM   21  C   UNL     1      -9.035   9.294  70.601  1.00  0.00    -0.243 A  
HETATM   22  N   UNL     1      -9.846   8.209  72.297  1.00  0.00    -0.233 NA 
BRANCH  17  23
HETATM   23  C   UNL     1      -6.532   9.114  71.365  1.00  0.00    -0.067 C  
BRANCH  23  24
HETATM   24  C   UNL     1      -5.822   8.155  70.406  1.00  0.00    -0.028 C  
HETATM   25  C   UNL     1      -5.694   8.693  68.987  1.00  0.00    -0.039 C  
ENDBRANCH  23  24
ENDBRANCH  17  23
ENDBRANCH   6  11
BRANCH   9  26
HETATM   26  S   UNL     1     -10.766  14.689  66.189  1.00  0.00    -0.324 S  
HETATM   27  O   UNL     1     -11.760  15.030  67.180  1.00  0.00    -0.327 OA 
HETATM   28  O   UNL     1     -10.897  15.042  64.795  1.00  0.00    -0.394 OA 
BRANCH  26  29
HETATM   29  N   UNL     1      -9.280  15.305  66.771  1.00  0.00    -0.232 N  
HETATM   30  H   UNL     1      -8.808  14.892  67.575  1.00  0.00     0.000 HD 
BRANCH  29  31
HETATM   31  C   UNL     1      -8.715  16.463  66.049  1.00  0.00    -0.239 C  
BRANCH  31  32
HETATM   32  C   UNL     1      -7.858  17.342  66.953  1.00  0.00    -0.258 C  
BRANCH  32  33
HETATM   33  C   UNL     1      -8.690  18.527  67.481  1.00  0.00    -0.262 C  
HETATM   34  C   UNL     1      -8.834  19.653  66.460  1.00  0.00    -0.410 C  
HETATM   35  C   UNL     1     -10.075  20.375  66.928  1.00  0.00    -0.503 C  
HETATM   36  C   UNL     1     -10.253  17.717  69.170  1.00  0.00    -0.238 C  
HETATM   37  N   UNL     1     -10.078  18.132  67.781  1.00  0.00    -0.344 NA 
HETATM   38  C   UNL     1     -10.965  19.254  67.435  1.00  0.00    -0.337 C  
ENDBRANCH  32  33
ENDBRANCH  31  32
ENDBRANCH  29  31
ENDBRANCH  26  29
ENDBRANCH   9  26
ENDBRANCH   4   5
ENDBRANCH   3   4
ENDBRANCH   2   3
TORSDOF 11
ENDMDL
MODEL      110
REMARK 921   NORMALIZED FREE ENERGY PREDICTED BY IDOCK:   -5.23 KCAL/MOL
REMARK 922        TOTAL FREE ENERGY PREDICTED BY IDOCK:  -10.82 KCAL/MOL
REMARK 923 INTER-LIGAND FREE ENERGY PREDICTED BY IDOCK:   -9.50 KCAL/MOL
REMARK 924 INTRA-LIGAND FREE ENERGY PREDICTED BY IDOCK:   -1.32 KCAL/MOL
REMARK 927      BINDING AFFINITY PREDICTED BY RF-SCORE:    0.00 PKD
ROOT
HETATM    1  C   UNL     1     -12.234  11.846  63.350  1.00  0.00    -0.561 C  
HETATM    2  C   UNL     1     -10.725  11.687  63.306  1.00  0.00    -0.404 C  
ENDROOT
BRANCH   2   3
HETATM    3  C   UNL     1     -10.123  11.471  64.684  1.00  0.00    -0.271 C  
BRANCH   3   4
HETATM    4  O   UNL     1     -11.130  11.320  65.701  1.00  0.00    -0.195 OA 
BRANCH   4   5
HETATM    5  C   UNL     1     -11.111  12.298  66.679  1.00  0.00    -0.297 A  
HETATM    6  C   UNL     1     -10.878  11.945  68.031  1.00  0.00    -0.256 A  
HETATM    7  C   UNL     1     -10.930  12.948  69.029  1.00  0.00    -0.244 A  
HETATM    8  C   UNL     1     -11.358  13.642  66.366  1.00  0.00    -0.331 A  
HETATM    9  C   UNL     1     -11.231  14.272  68.681  1.00  0.00    -0.264 A  
HETATM   10  C   UNL     1     -11.458  14.604  67.355  1.00  0.00    -0.384 A  
BRANCH   6  11
HETATM   11  C   UNL     1     -10.596  10.517  68.465  1.00  0.00    -0.206 C  
HETATM   12  C   UNL     1      -9.464   8.505  68.043  1.00  0.00    -0.140 C  
HETATM   13  N   UNL     1      -9.795   9.809  67.710  1.00  0.00    -0.155 N  
HETATM   14  H   UNL     1      -9.407  10.224  66.863  1.00  0.00     0.000 HD 
HETATM   15  N   UNL     1     -11.215  10.058  69.619  1.00  0.00    -0.249 NA 
HETATM   16  N   UNL     1     -10.683   6.827  71.060  1.00  0.00    -0.226 NA 
HETATM   17  C   UNL     1     -11.287   8.025  71.112  1.00  0.00    -0.266 A  
HETATM   18  C   UNL     1     -10.062   8.056  69.261  1.00  0.00    -0.198 A  
HETATM   19  O   UNL     1      -8.732   7.801  67.356  1.00  0.00    -0.127 OA 
HETATM   20  C   UNL     1      -9.118   5.740  69.574  1.00  0.00    -0.130 C  
HETATM   21  C   UNL     1     -10.912   8.813  70.010  1.00  0.00    -0.209 A  
HETATM   22  N   UNL     1      -9.936   6.875  69.927  1.00  0.00    -0.175 NA 
BRANCH  17  23
HETATM   23  C   UNL     1     -12.208   8.344  72.242  1.00  0.00    -0.449 C  
BRANCH  23  24
HETATM   24  C   UNL     1     -13.442   9.152  71.835  1.00  0.00    -0.492 C  
HETATM   25  C   UNL     1     -13.287  10.653  72.045  1.00  0.00    -0.409 C  
ENDBRANCH  23  24
ENDBRANCH  17  23
ENDBRANCH   6  11
BRANCH   9  26
HETATM   26  S   UNL     1     -11.415  15.546  69.910  1.00  0.00    -0.359 S  
HETATM   27  O   UNL     1     -10.713  15.105  71.092  1.00  0.00    -0.162 OA 
HETATM   28  O   UNL     1     -12.810  15.922  69.921  1.00  0.00    -0.150 OA 
BRANCH  26  29
HETATM   29  N   UNL     1     -10.506  16.845  69.269  1.00  0.00    -0.331 N  
HETATM   30  H   UNL     1     -10.956  17.669  68.872  1.00  0.00     0.000 HD 
BRANCH  29  31
HETATM   31  C   UNL     1      -9.036  16.713  69.320  1.00  0.00    -0.052 C  
BRANCH  31  32
HETATM   32  C   UNL     1      -8.435  16.435  67.946  1.00  0.00    -0.171 C  
BRANCH  32  33
HETATM   33  C   UNL     1      -7.700  17.686  67.428  1.00  0.00    -0.200 C  
HETATM   34  C   UNL     1      -8.385  18.321  66.220  1.00  0.00    -0.230 C  
HETATM   35  C   UNL     1      -7.877  19.743  66.254  1.00  0.00    -0.340 C  
HETATM   36  C   UNL     1      -6.476  18.714  69.271  1.00  0.00    -0.270 C  
HETATM   37  N   UNL     1      -7.671  18.762  68.434  1.00  0.00    -0.304 NA 
HETATM   38  C   UNL     1      -7.795  20.053  67.738  1.00  0.00    -0.295 C  
ENDBRANCH  32  33
ENDBRANCH  31  32
ENDBRANCH  29  31
ENDBRANCH  26  29
ENDBRANCH   9  26
ENDBRANCH   4   5
ENDBRANCH   3   4
ENDBRANCH   2   3
TORSDOF 11
ENDMDL
MODEL      111
REMARK 921   NORMALIZED FREE ENERGY PREDICTED BY IDOCK:   -5.22 KCAL/MOL
REMARK 922        TOTAL FREE ENERGY PREDICTED BY IDOCK:  -10.82 KCAL/MOL
REMARK 923 INTER-LIGAND FREE ENERGY PREDICTED BY IDOCK:   -8.82 KCAL/MOL
REMARK 924 INTRA-LIGAND FREE ENERGY PREDICTED BY IDOCK:   -2.00 KCAL/MOL
REMARK 927      BINDING AFFINITY PREDICTED BY RF-SCORE:    0.00 PKD
ROOT
HETATM    1  C   UNL     1     -12.738  15.555  71.765  1.00  0.00    -0.494 C  
HETATM    2  C   UNL     1     -12.604  14.369  70.828  1.00  0.00    -0.426 C  
ENDROOT
BRANCH   2   3
HETATM    3  C   UNL     1     -12.652  13.039  71.562  1.00  0.00    -0.178 C  
BRANCH   3   4
HETATM    4  O   UNL     1     -13.144  11.974  70.728  1.00  0.00     0.008 OA 
BRANCH   4   5
HETATM    5  C   UNL     1     -12.566  10.741  70.971  1.00  0.00    -0.420 A  
HETATM    6  C   UNL     1     -11.785  10.114  69.970  1.00  0.00    -0.294 A  
HETATM    7  C   UNL     1     -11.259   8.821  70.208  1.00  0.00    -0.212 A  
HETATM    8  C   UNL     1     -12.770  10.070  72.186  1.00  0.00    -0.354 A  
HETATM    9  C   UNL     1     -11.528   8.163  71.416  1.00  0.00    -0.263 A  
HETATM   10  C   UNL     1     -12.295   8.787  72.388  1.00  0.00    -0.414 A  
BRANCH   6  11
HETATM   11  C   UNL     1     -11.505  10.763  68.626  1.00  0.00    -0.295 C  
HETATM   12  C   UNL     1     -11.763  12.641  67.242  1.00  0.00    -0.370 C  
HETATM   13  N   UNL     1     -11.989  11.964  68.430  1.00  0.00    -0.272 N  
HETATM   14  H   UNL     1     -12.541  12.408  69.163  1.00  0.00     0.000 HD 
HETATM   15  N   UNL     1     -10.772  10.039  67.697  1.00  0.00    -0.268 NA 
HETATM   16  N   UNL     1      -9.765  11.276  64.494  1.00  0.00    -0.245 NA 
HETATM   17  C   UNL     1      -9.766  10.280  65.397  1.00  0.00    -0.278 A  
HETATM   18  C   UNL     1     -10.962  11.912  66.311  1.00  0.00    -0.302 A  
HETATM   19  O   UNL     1     -12.212  13.759  67.010  1.00  0.00    -0.401 OA 
HETATM   20  C   UNL     1     -10.674  13.512  64.385  1.00  0.00    -0.388 C  
HETATM   21  C   UNL     1     -10.495  10.653  66.539  1.00  0.00    -0.224 A  
HETATM   22  N   UNL     1     -10.494  12.260  65.080  1.00  0.00    -0.279 NA 
BRANCH  17  23
HETATM   23  C   UNL     1      -9.050   9.007  65.095  1.00  0.00    -0.203 C  
BRANCH  23  24
HETATM   24  C   UNL     1      -7.846   8.736  66.001  1.00  0.00    -0.105 C  
HETATM   25  C   UNL     1      -6.982   7.571  65.537  1.00  0.00    -0.060 C  
ENDBRANCH  23  24
ENDBRANCH  17  23
ENDBRANCH   6  11
BRANCH   9  26
HETATM   26  S   UNL     1     -10.982   6.497  71.719  1.00  0.00    -0.259 S  
HETATM   27  O   UNL     1     -11.993   5.855  72.526  1.00  0.00    -0.274 OA 
HETATM   28  O   UNL     1      -9.595   6.574  72.116  1.00  0.00    -0.150 OA 
BRANCH  26  29
HETATM   29  N   UNL     1     -11.067   5.768  70.174  1.00  0.00    -0.313 N  
HETATM   30  H   UNL     1     -11.881   5.885  69.571  1.00  0.00     0.000 HD 
BRANCH  29  31
HETATM   31  C   UNL     1      -9.903   4.960  69.758  1.00  0.00    -0.221 C  
BRANCH  31  32
HETATM   32  C   UNL     1      -8.875   5.786  68.992  1.00  0.00    -0.111 C  
BRANCH  32  33
HETATM   33  C   UNL     1      -9.100   5.637  67.476  1.00  0.00    -0.106 C  
HETATM   34  C   UNL     1      -8.442   4.386  66.897  1.00  0.00    -0.104 C  
HETATM   35  C   UNL     1      -9.229   4.147  65.630  1.00  0.00    -0.149 C  
HETATM   36  C   UNL     1     -11.181   6.754  66.863  1.00  0.00    -0.047 C  
HETATM   37  N   UNL     1     -10.528   5.479  67.146  1.00  0.00    -0.249 NA 
HETATM   38  C   UNL     1     -10.643   4.548  66.012  1.00  0.00    -0.100 C  
ENDBRANCH  32  33
ENDBRANCH  31  32
ENDBRANCH  29  31
ENDBRANCH  26  29
ENDBRANCH   9  26
ENDBRANCH   4   5
ENDBRANCH   3   4
ENDBRANCH   2   3
TORSDOF 11
ENDMDL
MODEL      112
REMARK 921   NORMALIZED FREE ENERGY PREDICTED BY IDOCK:   -5.19 KCAL/MOL
REMARK 922        TOTAL FREE ENERGY PREDICTED BY IDOCK:  -10.77 KCAL/MOL
REMARK 923 INTER-LIGAND FREE ENERGY PREDICTED BY IDOCK:   -9.45 KCAL/MOL
REMARK 924 INTRA-LIGAND FREE ENERGY PREDICTED BY IDOCK:   -1.31 KCAL/MOL
REMARK 927      BINDING AFFINITY PREDICTED BY RF-SCORE:    0.00 PKD
ROOT
HETATM    1  C   UNL     1     -10.002  16.346  68.969  1.00  0.00    -0.267 C  
HETATM    2  C   UNL     1     -10.307  15.016  69.633  1.00  0.00    -0.201 C  
ENDROOT
BRANCH   2   3
HETATM    3  C   UNL     1     -11.711  14.521  69.325  1.00  0.00    -0.310 C  
BRANCH   3   4
HETATM    4  O   UNL     1     -11.703  13.290  68.579  1.00  0.00    -0.310 OA 
BRANCH   4   5
HETATM    5  C   UNL     1     -11.742  12.146  69.357  1.00  0.00    -0.329 A  
HETATM    6  C   UNL     1     -11.177  10.941  68.873  1.00  0.00    -0.327 A  
HETATM    7  C   UNL     1     -11.286   9.763  69.650  1.00  0.00    -0.216 A  
HETATM    8  C   UNL     1     -12.368  12.142  70.611  1.00  0.00    -0.385 A  
HETATM    9  C   UNL     1     -11.965   9.789  70.876  1.00  0.00    -0.328 A  
HETATM   10  C   UNL     1     -12.513  10.975  71.338  1.00  0.00    -0.436 A  
BRANCH   6  11
HETATM   11  C   UNL     1     -10.475  10.849  67.530  1.00  0.00    -0.215 C  
HETATM   12  C   UNL     1      -8.585  10.147  66.326  1.00  0.00    -0.131 C  
HETATM   13  N   UNL     1      -9.289  10.293  67.512  1.00  0.00    -0.147 N  
HETATM   14  H   UNL     1      -8.877   9.964  68.384  1.00  0.00     0.000 HD 
HETATM   15  N   UNL     1     -11.126  11.369  66.421  1.00  0.00    -0.277 NA 
HETATM   16  N   UNL     1      -9.885  11.199  63.070  1.00  0.00    -0.341 NA 
HETATM   17  C   UNL     1     -10.853  11.577  63.922  1.00  0.00    -0.401 A  
HETATM   18  C   UNL     1      -9.285  10.635  65.181  1.00  0.00    -0.207 A  
HETATM   19  O   UNL     1      -7.466   9.649  66.267  1.00  0.00    -0.096 OA 
HETATM   20  C   UNL     1      -7.760  10.066  63.258  1.00  0.00    -0.147 C  
HETATM   21  C   UNL     1     -10.510  11.230  65.240  1.00  0.00    -0.282 A  
HETATM   22  N   UNL     1      -8.947  10.621  63.862  1.00  0.00    -0.192 NA 
BRANCH  17  23
HETATM   23  C   UNL     1     -12.071  12.262  63.402  1.00  0.00    -0.615 C  
BRANCH  23  24
HETATM   24  C   UNL     1     -12.139  13.755  63.732  1.00  0.00    -0.385 C  
HETATM   25  C   UNL     1     -12.641  14.048  65.141  1.00  0.00    -0.453 C  
ENDBRANCH  23  24
ENDBRANCH  17  23
ENDBRANCH   6  11
BRANCH   9  26
HETATM   26  S   UNL     1     -12.222   8.314  71.838  1.00  0.00    -0.359 S  
HETATM   27  O   UNL     1     -12.255   7.202  70.916  1.00  0.00    -0.344 OA 
HETATM   28  O   UNL     1     -13.295   8.596  72.763  1.00  0.00    -0.296 OA 
BRANCH  26  29
HETATM   29  N   UNL     1     -10.766   8.161  72.722  1.00  0.00    -0.354 N  
HETATM   30  H   UNL     1     -10.750   7.766  73.662  1.00  0.00     0.000 HD 
BRANCH  29  31
HETATM   31  C   UNL     1      -9.534   8.629  72.055  1.00  0.00    -0.300 C  
BRANCH  31  32
HETATM   32  C   UNL     1      -8.282   7.990  72.645  1.00  0.00    -0.203 C  
BRANCH  32  33
HETATM   33  C   UNL     1      -7.064   8.287  71.750  1.00  0.00    -0.085 C  
HETATM   34  C   UNL     1      -7.452   8.615  70.310  1.00  0.00    -0.066 C  
HETATM   35  C   UNL     1      -6.257   9.392  69.809  1.00  0.00    -0.039 C  
HETATM   36  C   UNL     1      -5.247   9.147  73.132  1.00  0.00    -0.082 C  
HETATM   37  N   UNL     1      -6.326   9.478  72.206  1.00  0.00    -0.270 NA 
HETATM   38  C   UNL     1      -5.824  10.195  71.022  1.00  0.00    -0.059 C  
ENDBRANCH  32  33
ENDBRANCH  31  32
ENDBRANCH  29  31
ENDBRANCH  26  29
ENDBRANCH   9  26
ENDBRANCH   4   5
ENDBRANCH   3   4
ENDBRANCH   2   3
TORSDOF 11
ENDMDL
MODEL      113
REMARK 921   NORMALIZED FREE ENERGY PREDICTED BY IDOCK:   -5.18 KCAL/MOL
REMARK 922        TOTAL FREE ENERGY PREDICTED BY IDOCK:  -10.75 KCAL/MOL
REMARK 923 INTER-LIGAND FREE ENERGY PREDICTED BY IDOCK:   -8.90 KCAL/MOL
REMARK 924 INTRA-LIGAND FREE ENERGY PREDICTED BY IDOCK:   -1.85 KCAL/MOL
REMARK 927      BINDING AFFINITY PREDICTED BY RF-SCORE:    0.00 PKD
ROOT
HETATM    1  C   UNL     1      -7.996  10.059  63.856  1.00  0.00    -0.151 C  
HETATM    2  C   UNL     1      -9.426  10.306  63.413  1.00  0.00    -0.340 C  
ENDROOT
BRANCH   2   3
HETATM    3  C   UNL     1     -10.330  10.708  64.567  1.00  0.00    -0.282 C  
BRANCH   3   4
HETATM    4  O   UNL     1      -9.586  11.030  65.756  1.00  0.00    -0.203 OA 
BRANCH   4   5
HETATM    5  C   UNL     1     -10.016  10.378  66.897  1.00  0.00    -0.206 A  
HETATM    6  C   UNL     1     -10.366  11.123  68.050  1.00  0.00    -0.208 A  
HETATM    7  C   UNL     1     -10.738  10.438  69.232  1.00  0.00    -0.270 A  
HETATM    8  C   UNL     1     -10.077   8.978  66.955  1.00  0.00    -0.338 A  
HETATM    9  C   UNL     1     -10.737   9.037  69.264  1.00  0.00    -0.174 A  
HETATM   10  C   UNL     1     -10.392   8.319  68.130  1.00  0.00    -0.253 A  
BRANCH   6  11
HETATM   11  C   UNL     1     -10.336  12.641  68.082  1.00  0.00    -0.234 C  
HETATM   12  C   UNL     1      -9.551  14.627  67.109  1.00  0.00    -0.233 C  
HETATM   13  N   UNL     1      -9.618  13.244  67.169  1.00  0.00    -0.232 N  
HETATM   14  H   UNL     1      -9.098  12.687  66.491  1.00  0.00     0.000 HD 
HETATM   15  N   UNL     1     -11.057  13.281  69.079  1.00  0.00    -0.258 NA 
HETATM   16  N   UNL     1     -11.373  16.831  69.395  1.00  0.00     0.020 NA 
HETATM   17  C   UNL     1     -11.678  15.603  69.846  1.00  0.00    -0.362 A  
HETATM   18  C   UNL     1     -10.338  15.282  68.105  1.00  0.00    -0.242 A  
HETATM   19  O   UNL     1      -8.877  15.232  66.282  1.00  0.00    -0.297 OA 
HETATM   20  C   UNL     1     -10.062  17.730  67.576  1.00  0.00    -0.340 C  
HETATM   21  C   UNL     1     -11.056  14.621  69.056  1.00  0.00    -0.259 A  
HETATM   22  N   UNL     1     -10.562  16.606  68.330  1.00  0.00    -0.321 NA 
BRANCH  17  23
HETATM   23  C   UNL     1     -12.569  15.450  71.033  1.00  0.00    -0.491 C  
BRANCH  23  24
HETATM   24  C   UNL     1     -11.824  15.358  72.367  1.00  0.00    -0.558 C  
HETATM   25  C   UNL     1     -12.677  15.740  73.570  1.00  0.00    -0.696 C  
ENDBRANCH  23  24
ENDBRANCH  17  23
ENDBRANCH   6  11
BRANCH   9  26
HETATM   26  S   UNL     1     -11.091   8.132  70.755  1.00  0.00    -0.259 S  
HETATM   27  O   UNL     1     -12.127   7.177  70.440  1.00  0.00    -0.213 OA 
HETATM   28  O   UNL     1     -11.215   9.102  71.817  1.00  0.00    -0.355 OA 
BRANCH  26  29
HETATM   29  N   UNL     1      -9.664   7.223  71.010  1.00  0.00    -0.169 N  
HETATM   30  H   UNL     1      -8.769   7.673  71.200  1.00  0.00     0.000 HD 
BRANCH  29  31
HETATM   31  C   UNL     1      -9.795   5.753  70.944  1.00  0.00    -0.179 C  
BRANCH  31  32
HETATM   32  C   UNL     1      -8.440   5.054  70.956  1.00  0.00    -0.122 C  
BRANCH  32  33
HETATM   33  C   UNL     1      -8.075   4.583  69.536  1.00  0.00    -0.061 C  
HETATM   34  C   UNL     1      -9.018   3.504  69.008  1.00  0.00    -0.182 C  
HETATM   35  C   UNL     1      -8.853   3.615  67.511  1.00  0.00    -0.145 C  
HETATM   36  C   UNL     1      -6.926   6.387  68.364  1.00  0.00    -0.080 C  
HETATM   37  N   UNL     1      -8.185   5.673  68.551  1.00  0.00    -0.106 NA 
HETATM   38  C   UNL     1      -8.680   5.106  67.285  1.00  0.00    -0.103 C  
ENDBRANCH  32  33
ENDBRANCH  31  32
ENDBRANCH  29  31
ENDBRANCH  26  29
ENDBRANCH   9  26
ENDBRANCH   4   5
ENDBRANCH   3   4
ENDBRANCH   2   3
TORSDOF 11
ENDMDL
MODEL      114
REMARK 921   NORMALIZED FREE ENERGY PREDICTED BY IDOCK:   -5.18 KCAL/MOL
REMARK 922        TOTAL FREE ENERGY PREDICTED BY IDOCK:  -10.75 KCAL/MOL
REMARK 923 INTER-LIGAND FREE ENERGY PREDICTED BY IDOCK:  -10.02 KCAL/MOL
REMARK 924 INTRA-LIGAND FREE ENERGY PREDICTED BY IDOCK:   -0.73 KCAL/MOL
REMARK 927      BINDING AFFINITY PREDICTED BY RF-SCORE:    0.00 PKD
ROOT
HETATM    1  C   UNL     1     -13.496   7.450  71.625  1.00  0.00    -0.437 C  
HETATM    2  C   UNL     1     -12.483   8.373  72.277  1.00  0.00    -0.417 C  
ENDROOT
BRANCH   2   3
HETATM    3  C   UNL     1     -12.487   9.765  71.666  1.00  0.00    -0.410 C  
BRANCH   3   4
HETATM    4  O   UNL     1     -11.254  10.066  70.988  1.00  0.00    -0.341 OA 
BRANCH   4   5
HETATM    5  C   UNL     1     -11.405  10.754  69.797  1.00  0.00    -0.300 A  
HETATM    6  C   UNL     1     -11.003  10.156  68.578  1.00  0.00    -0.278 A  
HETATM    7  C   UNL     1     -11.099  10.899  67.376  1.00  0.00    -0.373 A  
HETATM    8  C   UNL     1     -11.917  12.058  69.773  1.00  0.00    -0.370 A  
HETATM    9  C   UNL     1     -11.568  12.219  67.401  1.00  0.00    -0.355 A  
HETATM   10  C   UNL     1     -11.958  12.793  68.601  1.00  0.00    -0.272 A  
BRANCH   6  11
HETATM   11  C   UNL     1     -10.442   8.747  68.504  1.00  0.00    -0.175 C  
HETATM   12  C   UNL     1      -9.626   7.008  67.155  1.00  0.00    -0.149 C  
HETATM   13  N   UNL     1     -10.163   8.276  67.315  1.00  0.00    -0.247 N  
HETATM   14  H   UNL     1     -10.344   8.851  66.493  1.00  0.00     0.000 HD 
HETATM   15  N   UNL     1     -10.277   8.053  69.694  1.00  0.00    -0.203 NA 
HETATM   16  N   UNL     1      -8.837   4.788  69.957  1.00  0.00    -0.085 NA 
HETATM   17  C   UNL     1      -9.378   5.860  70.560  1.00  0.00    -0.163 A  
HETATM   18  C   UNL     1      -9.408   6.319  68.388  1.00  0.00    -0.113 A  
HETATM   19  O   UNL     1      -9.366   6.521  66.060  1.00  0.00    -0.115 OA 
HETATM   20  C   UNL     1      -8.317   4.159  67.683  1.00  0.00    -0.098 C  
HETATM   21  C   UNL     1      -9.733   6.831  69.608  1.00  0.00    -0.155 A  
HETATM   22  N   UNL     1      -8.860   5.097  68.636  1.00  0.00    -0.096 NA 
BRANCH  17  23
HETATM   23  C   UNL     1      -9.521   5.883  72.044  1.00  0.00    -0.164 C  
BRANCH  23  24
HETATM   24  C   UNL     1     -10.384   4.752  72.608  1.00  0.00    -0.253 C  
HETATM   25  C   UNL     1      -9.604   3.748  73.448  1.00  0.00    -0.136 C  
ENDBRANCH  23  24
ENDBRANCH  17  23
ENDBRANCH   6  11
BRANCH   9  26
HETATM   26  S   UNL     1     -11.606  13.229  65.936  1.00  0.00    -0.364 S  
HETATM   27  O   UNL     1     -12.885  13.015  65.301  1.00  0.00    -0.642 OA 
HETATM   28  O   UNL     1     -10.349  13.028  65.254  1.00  0.00    -0.294 OA 
BRANCH  26  29
HETATM   29  N   UNL     1     -11.640  14.822  66.558  1.00  0.00    -0.337 N  
HETATM   30  H   UNL     1     -12.519  15.305  66.746  1.00  0.00     0.000 HD 
BRANCH  29  31
HETATM   31  C   UNL     1     -10.333  15.464  66.807  1.00  0.00    -0.279 C  
BRANCH  31  32
HETATM   32  C   UNL     1     -10.059  16.607  65.836  1.00  0.00    -0.341 C  
BRANCH  32  33
HETATM   33  C   UNL     1      -9.228  17.703  66.531  1.00  0.00    -0.269 C  
HETATM   34  C   UNL     1      -7.737  17.606  66.217  1.00  0.00    -0.324 C  
HETATM   35  C   UNL     1      -7.244  19.007  66.490  1.00  0.00    -0.243 C  
HETATM   36  C   UNL     1     -10.639  19.656  66.911  1.00  0.00    -0.484 C  
HETATM   37  N   UNL     1      -9.607  19.051  66.074  1.00  0.00    -0.471 NA 
HETATM   38  C   UNL     1      -8.393  19.883  66.023  1.00  0.00    -0.273 C  
ENDBRANCH  32  33
ENDBRANCH  31  32
ENDBRANCH  29  31
ENDBRANCH  26  29
ENDBRANCH   9  26
ENDBRANCH   4   5
ENDBRANCH   3   4
ENDBRANCH   2   3
TORSDOF 11
ENDMDL
MODEL      115
REMARK 921   NORMALIZED FREE ENERGY PREDICTED BY IDOCK:   -5.17 KCAL/MOL
REMARK 922        TOTAL FREE ENERGY PREDICTED BY IDOCK:  -10.73 KCAL/MOL
REMARK 923 INTER-LIGAND FREE ENERGY PREDICTED BY IDOCK:   -9.21 KCAL/MOL
REMARK 924 INTRA-LIGAND FREE ENERGY PREDICTED BY IDOCK:   -1.52 KCAL/MOL
REMARK 927      BINDING AFFINITY PREDICTED BY RF-SCORE:    0.00 PKD
ROOT
HETATM    1  C   UNL     1      -9.577   5.918  67.267  1.00  0.00    -0.122 C  
HETATM    2  C   UNL     1     -10.278   7.025  66.501  1.00  0.00    -0.127 C  
ENDROOT
BRANCH   2   3
HETATM    3  C   UNL     1      -9.408   8.260  66.340  1.00  0.00    -0.213 C  
BRANCH   3   4
HETATM    4  O   UNL     1      -8.630   8.538  67.519  1.00  0.00    -0.127 OA 
BRANCH   4   5
HETATM    5  C   UNL     1      -8.275   9.865  67.675  1.00  0.00    -0.114 A  
HETATM    6  C   UNL     1      -8.968  10.680  68.603  1.00  0.00    -0.170 A  
HETATM    7  C   UNL     1      -8.640  12.054  68.701  1.00  0.00    -0.011 A  
HETATM    8  C   UNL     1      -7.260  10.441  66.898  1.00  0.00    -0.099 A  
HETATM    9  C   UNL     1      -7.653  12.603  67.870  1.00  0.00    -0.132 A  
HETATM   10  C   UNL     1      -6.983  11.795  66.965  1.00  0.00    -0.135 A  
BRANCH   6  11
HETATM   11  C   UNL     1     -10.077  10.145  69.491  1.00  0.00    -0.235 C  
HETATM   12  C   UNL     1     -12.004  10.608  70.750  1.00  0.00    -0.374 C  
HETATM   13  N   UNL     1     -10.945  11.011  69.951  1.00  0.00    -0.449 N  
HETATM   14  H   UNL     1     -10.839  11.998  69.719  1.00  0.00     0.000 HD 
HETATM   15  N   UNL     1     -10.090   8.785  69.764  1.00  0.00    -0.190 NA 
HETATM   16  N   UNL     1     -12.619   7.118  71.668  1.00  0.00    -0.360 NA 
HETATM   17  C   UNL     1     -11.483   7.051  70.953  1.00  0.00    -0.308 A  
HETATM   18  C   UNL     1     -12.041   9.199  70.983  1.00  0.00    -0.263 A  
HETATM   19  O   UNL     1     -12.828  11.388  71.217  1.00  0.00    -0.403 OA 
HETATM   20  C   UNL     1     -14.146   8.870  72.329  1.00  0.00    -0.442 C  
HETATM   21  C   UNL     1     -11.107   8.330  70.507  1.00  0.00    -0.249 A  
HETATM   22  N   UNL     1     -12.941   8.437  71.664  1.00  0.00    -0.331 NA 
BRANCH  17  23
HETATM   23  C   UNL     1     -10.819   5.732  70.740  1.00  0.00    -0.330 C  
BRANCH  23  24
HETATM   24  C   UNL     1      -9.894   5.305  71.882  1.00  0.00    -0.227 C  
HETATM   25  C   UNL     1     -10.504   4.254  72.801  1.00  0.00    -0.249 C  
ENDBRANCH  23  24
ENDBRANCH  17  23
ENDBRANCH   6  11
BRANCH   9  26
HETATM   26  S   UNL     1      -7.281  14.343  67.878  1.00  0.00    -0.178 S  
HETATM   27  O   UNL     1      -5.896  14.486  67.494  1.00  0.00    -0.340 OA 
HETATM   28  O   UNL     1      -7.813  14.881  69.109  1.00  0.00    -0.159 OA 
BRANCH  26  29
HETATM   29  N   UNL     1      -8.205  14.949  66.573  1.00  0.00    -0.337 N  
HETATM   30  H   UNL     1      -7.764  15.361  65.751  1.00  0.00     0.000 HD 
BRANCH  29  31
HETATM   31  C   UNL     1      -9.673  14.846  66.697  1.00  0.00    -0.261 C  
BRANCH  31  32
HETATM   32  C   UNL     1     -10.363  14.800  65.337  1.00  0.00    -0.410 C  
BRANCH  32  33
HETATM   33  C   UNL     1     -11.115  13.466  65.171  1.00  0.00    -0.301 C  
HETATM   34  C   UNL     1     -12.612  13.654  64.935  1.00  0.00    -0.380 C  
HETATM   35  C   UNL     1     -13.011  12.363  64.260  1.00  0.00    -0.257 C  
HETATM   36  C   UNL     1      -9.578  11.784  64.302  1.00  0.00    -0.067 C  
HETATM   37  N   UNL     1     -10.653  12.719  63.988  1.00  0.00    -0.414 NA 
HETATM   38  C   UNL     1     -11.811  12.034  63.390  1.00  0.00    -0.447 C  
ENDBRANCH  32  33
ENDBRANCH  31  32
ENDBRANCH  29  31
ENDBRANCH  26  29
ENDBRANCH   9  26
ENDBRANCH   4   5
ENDBRANCH   3   4
ENDBRANCH   2   3
TORSDOF 11
ENDMDL
MODEL      116
REMARK 921   NORMALIZED FREE ENERGY PREDICTED BY IDOCK:   -5.16 KCAL/MOL
REMARK 922        TOTAL FREE ENERGY PREDICTED BY IDOCK:  -10.72 KCAL/MOL
REMARK 923 INTER-LIGAND FREE ENERGY PREDICTED BY IDOCK:   -8.78 KCAL/MOL
REMARK 924 INTRA-LIGAND FREE ENERGY PREDICTED BY IDOCK:   -1.94 KCAL/MOL
REMARK 927      BINDING AFFINITY PREDICTED BY RF-SCORE:    0.00 PKD
ROOT
HETATM    1  C   UNL     1     -10.239  10.803  64.290  1.00  0.00    -0.422 C  
HETATM    2  C   UNL     1     -10.270  10.063  65.614  1.00  0.00    -0.258 C  
ENDROOT
BRANCH   2   3
HETATM    3  C   UNL     1      -9.108   9.096  65.767  1.00  0.00    -0.213 C  
BRANCH   3   4
HETATM    4  O   UNL     1      -8.552   9.117  67.095  1.00  0.00    -0.119 OA 
BRANCH   4   5
HETATM    5  C   UNL     1      -7.941  10.308  67.443  1.00  0.00    -0.107 A  
HETATM    6  C   UNL     1      -8.363  11.010  68.598  1.00  0.00    -0.153 A  
HETATM    7  C   UNL     1      -7.775  12.262  68.903  1.00  0.00     0.059 A  
HETATM    8  C   UNL     1      -6.928  10.863  66.648  1.00  0.00    -0.135 A  
HETATM    9  C   UNL     1      -6.801  12.807  68.055  1.00  0.00    -0.100 A  
HETATM   10  C   UNL     1      -6.397  12.110  66.927  1.00  0.00    -0.011 A  
BRANCH   6  11
HETATM   11  C   UNL     1      -9.448  10.487  69.522  1.00  0.00    -0.080 C  
HETATM   12  C   UNL     1     -11.698  10.578  70.186  1.00  0.00    -0.326 C  
HETATM   13  N   UNL     1     -10.641  11.012  69.400  1.00  0.00    -0.358 N  
HETATM   14  H   UNL     1     -10.796  11.752  68.716  1.00  0.00     0.000 HD 
HETATM   15  N   UNL     1      -9.101   9.503  70.436  1.00  0.00    -0.253 NA 
HETATM   16  N   UNL     1     -11.397   7.899  72.663  1.00  0.00    -0.388 NA 
HETATM   17  C   UNL     1     -10.145   8.022  72.192  1.00  0.00    -0.234 A  
HETATM   18  C   UNL     1     -11.346   9.527  71.088  1.00  0.00    -0.370 A  
HETATM   19  O   UNL     1     -12.826  11.054  70.118  1.00  0.00    -0.197 OA 
HETATM   20  C   UNL     1     -13.528   8.943  72.207  1.00  0.00    -0.455 C  
HETATM   21  C   UNL     1     -10.087   9.021  71.205  1.00  0.00    -0.295 A  
HETATM   22  N   UNL     1     -12.109   8.822  71.968  1.00  0.00    -0.355 NA 
BRANCH  17  23
HETATM   23  C   UNL     1      -9.061   7.152  72.733  1.00  0.00    -0.163 C  
BRANCH  23  24
HETATM   24  C   UNL     1      -8.703   7.432  74.194  1.00  0.00    -0.267 C  
HETATM   25  C   UNL     1      -7.575   8.443  74.364  1.00  0.00    -0.260 C  
ENDBRANCH  23  24
ENDBRANCH  17  23
ENDBRANCH   6  11
BRANCH   9  26
HETATM   26  S   UNL     1      -6.112  14.423  68.334  1.00  0.00    -0.113 S  
HETATM   27  O   UNL     1      -5.256  14.724  67.211  1.00  0.00    -0.296 OA 
HETATM   28  O   UNL     1      -5.649  14.453  69.702  1.00  0.00    -0.092 OA 
BRANCH  26  29
HETATM   29  N   UNL     1      -7.466  15.458  68.195  1.00  0.00    -0.110 N  
HETATM   30  H   UNL     1      -7.928  15.849  69.016  1.00  0.00     0.000 HD 
BRANCH  29  31
HETATM   31  C   UNL     1      -7.933  15.758  66.825  1.00  0.00    -0.238 C  
BRANCH  31  32
HETATM   32  C   UNL     1      -7.449  17.119  66.338  1.00  0.00    -0.341 C  
BRANCH  32  33
HETATM   33  C   UNL     1      -8.403  18.225  66.828  1.00  0.00    -0.255 C  
HETATM   34  C   UNL     1      -9.853  17.987  66.411  1.00  0.00    -0.340 C  
HETATM   35  C   UNL     1     -10.631  18.799  67.419  1.00  0.00    -0.505 C  
HETATM   36  C   UNL     1      -7.487  19.235  68.851  1.00  0.00    -0.361 C  
HETATM   37  N   UNL     1      -8.456  18.293  68.299  1.00  0.00    -0.288 NA 
HETATM   38  C   UNL     1      -9.831  18.633  68.699  1.00  0.00    -0.385 C  
ENDBRANCH  32  33
ENDBRANCH  31  32
ENDBRANCH  29  31
ENDBRANCH  26  29
ENDBRANCH   9  26
ENDBRANCH   4   5
ENDBRANCH   3   4
ENDBRANCH   2   3
TORSDOF 11
ENDMDL
MODEL      117
REMARK 921   NORMALIZED FREE ENERGY PREDICTED BY IDOCK:   -5.13 KCAL/MOL
REMARK 922        TOTAL FREE ENERGY PREDICTED BY IDOCK:  -10.65 KCAL/MOL
REMARK 923 INTER-LIGAND FREE ENERGY PREDICTED BY IDOCK:   -9.58 KCAL/MOL
REMARK 924 INTRA-LIGAND FREE ENERGY PREDICTED BY IDOCK:   -1.07 KCAL/MOL
REMARK 927      BINDING AFFINITY PREDICTED BY RF-SCORE:    0.00 PKD
ROOT
HETATM    1  C   UNL     1     -11.274  15.857  64.369  1.00  0.00    -0.242 C  
HETATM    2  C   UNL     1     -12.185  14.658  64.185  1.00  0.00    -0.343 C  
ENDROOT
BRANCH   2   3
HETATM    3  C   UNL     1     -12.563  14.008  65.506  1.00  0.00    -0.516 C  
BRANCH   3   4
HETATM    4  O   UNL     1     -11.695  14.412  66.580  1.00  0.00    -0.371 OA 
BRANCH   4   5
HETATM    5  C   UNL     1     -11.199  13.369  67.342  1.00  0.00    -0.288 A  
HETATM    6  C   UNL     1      -9.852  13.390  67.779  1.00  0.00    -0.234 A  
HETATM    7  C   UNL     1      -9.338  12.283  68.497  1.00  0.00    -0.101 A  
HETATM    8  C   UNL     1     -11.995  12.261  67.661  1.00  0.00    -0.218 A  
HETATM    9  C   UNL     1     -10.153  11.171  68.753  1.00  0.00    -0.201 A  
HETATM   10  C   UNL     1     -11.469  11.163  68.319  1.00  0.00    -0.373 A  
BRANCH   6  11
HETATM   11  C   UNL     1      -8.915  14.548  67.486  1.00  0.00    -0.188 C  
HETATM   12  C   UNL     1      -6.701  15.308  67.304  1.00  0.00    -0.024 C  
HETATM   13  N   UNL     1      -7.629  14.315  67.577  1.00  0.00    -0.177 N  
HETATM   14  H   UNL     1      -7.306  13.389  67.854  1.00  0.00     0.000 HD 
HETATM   15  N   UNL     1      -9.480  15.771  67.156  1.00  0.00    -0.211 NA 
HETATM   16  N   UNL     1      -7.622  18.688  66.238  1.00  0.00    -0.259 NA 
HETATM   17  C   UNL     1      -8.811  18.096  66.441  1.00  0.00    -0.236 A  
HETATM   18  C   UNL     1      -7.289  16.550  66.913  1.00  0.00    -0.225 A  
HETATM   19  O   UNL     1      -5.490  15.139  67.395  1.00  0.00    -0.341 OA 
HETATM   20  C   UNL     1      -5.306  18.012  66.382  1.00  0.00    -0.161 C  
HETATM   21  C   UNL     1      -8.634  16.763  66.852  1.00  0.00    -0.212 A  
HETATM   22  N   UNL     1      -6.713  17.721  66.526  1.00  0.00    -0.201 NA 
BRANCH  17  23
HETATM   23  C   UNL     1     -10.069  18.867  66.221  1.00  0.00    -0.460 C  
BRANCH  23  24
HETATM   24  C   UNL     1     -10.225  20.084  67.135  1.00  0.00    -0.580 C  
HETATM   25  C   UNL     1     -10.149  19.748  68.619  1.00  0.00    -0.546 C  
ENDBRANCH  23  24
ENDBRANCH  17  23
ENDBRANCH   6  11
BRANCH   9  26
HETATM   26  S   UNL     1      -9.525   9.712  69.556  1.00  0.00    -0.212 S  
HETATM   27  O   UNL     1      -8.194  10.021  70.024  1.00  0.00    -0.178 OA 
HETATM   28  O   UNL     1      -9.810   8.596  68.684  1.00  0.00    -0.161 OA 
BRANCH  26  29
HETATM   29  N   UNL     1     -10.504   9.579  70.952  1.00  0.00    -0.307 N  
HETATM   30  H   UNL     1     -11.414  10.037  71.013  1.00  0.00     0.000 HD 
BRANCH  29  31
HETATM   31  C   UNL     1      -9.967   8.767  72.062  1.00  0.00    -0.321 C  
BRANCH  31  32
HETATM   32  C   UNL     1     -10.914   7.639  72.460  1.00  0.00    -0.377 C  
BRANCH  32  33
HETATM   33  C   UNL     1     -10.441   6.309  71.844  1.00  0.00    -0.209 C  
HETATM   34  C   UNL     1     -11.132   5.989  70.519  1.00  0.00    -0.385 C  
HETATM   35  C   UNL     1     -10.166   5.034  69.859  1.00  0.00    -0.340 C  
HETATM   36  C   UNL     1      -8.166   5.845  72.591  1.00  0.00    -0.112 C  
HETATM   37  N   UNL     1      -9.008   6.340  71.506  1.00  0.00    -0.142 NA 
HETATM   38  C   UNL     1      -8.806   5.569  70.268  1.00  0.00    -0.130 C  
ENDBRANCH  32  33
ENDBRANCH  31  32
ENDBRANCH  29  31
ENDBRANCH  26  29
ENDBRANCH   9  26
ENDBRANCH   4   5
ENDBRANCH   3   4
ENDBRANCH   2   3
TORSDOF 11
ENDMDL
MODEL      118
REMARK 921   NORMALIZED FREE ENERGY PREDICTED BY IDOCK:   -5.10 KCAL/MOL
REMARK 922        TOTAL FREE ENERGY PREDICTED BY IDOCK:  -10.62 KCAL/MOL
REMARK 923 INTER-LIGAND FREE ENERGY PREDICTED BY IDOCK:   -8.54 KCAL/MOL
REMARK 924 INTRA-LIGAND FREE ENERGY PREDICTED BY IDOCK:   -2.07 KCAL/MOL
REMARK 927      BINDING AFFINITY PREDICTED BY RF-SCORE:    0.00 PKD
ROOT
HETATM    1  C   UNL     1     -10.751  15.012  66.544  1.00  0.00    -0.312 C  
HETATM    2  C   UNL     1     -11.533  13.747  66.845  1.00  0.00    -0.368 C  
ENDROOT
BRANCH   2   3
HETATM    3  C   UNL     1     -12.123  13.748  68.245  1.00  0.00    -0.279 C  
BRANCH   3   4
HETATM    4  O   UNL     1     -11.176  13.309  69.236  1.00  0.00    -0.253 OA 
BRANCH   4   5
HETATM    5  C   UNL     1     -11.552  12.170  69.926  1.00  0.00    -0.221 A  
HETATM    6  C   UNL     1     -10.934  10.930  69.635  1.00  0.00    -0.311 A  
HETATM    7  C   UNL     1     -11.378   9.761  70.300  1.00  0.00    -0.333 A  
HETATM    8  C   UNL     1     -12.569  12.208  70.890  1.00  0.00    -0.340 A  
HETATM    9  C   UNL     1     -12.433   9.832  71.220  1.00  0.00    -0.367 A  
HETATM   10  C   UNL     1     -13.029  11.053  71.496  1.00  0.00    -0.553 A  
BRANCH   6  11
HETATM   11  C   UNL     1      -9.821  10.791  68.611  1.00  0.00    -0.184 C  
HETATM   12  C   UNL     1      -7.946  11.756  67.581  1.00  0.00    -0.143 C  
HETATM   13  N   UNL     1      -9.004  11.804  68.475  1.00  0.00    -0.292 N  
HETATM   14  H   UNL     1      -9.148  12.644  69.036  1.00  0.00     0.000 HD 
HETATM   15  N   UNL     1      -9.754   9.612  67.884  1.00  0.00    -0.143 NA 
HETATM   16  N   UNL     1      -7.195   8.833  65.507  1.00  0.00    -0.083 NA 
HETATM   17  C   UNL     1      -8.311   8.467  66.160  1.00  0.00    -0.125 A  
HETATM   18  C   UNL     1      -7.850  10.518  66.874  1.00  0.00    -0.117 A  
HETATM   19  O   UNL     1      -7.168  12.688  67.409  1.00  0.00    -0.141 OA 
HETATM   20  C   UNL     1      -5.763  10.779  65.486  1.00  0.00    -0.121 C  
HETATM   21  C   UNL     1      -8.735   9.492  67.024  1.00  0.00    -0.128 A  
HETATM   22  N   UNL     1      -6.933  10.084  65.967  1.00  0.00    -0.103 NA 
BRANCH  17  23
HETATM   23  C   UNL     1      -8.911   7.125  65.907  1.00  0.00    -0.128 C  
BRANCH  23  24
HETATM   24  C   UNL     1      -9.996   6.725  66.909  1.00  0.00    -0.252 C  
HETATM   25  C   UNL     1     -10.577   5.338  66.660  1.00  0.00    -0.334 C  
ENDBRANCH  23  24
ENDBRANCH  17  23
ENDBRANCH   6  11
BRANCH   9  26
HETATM   26  S   UNL     1     -13.098   8.378  72.000  1.00  0.00    -0.342 S  
HETATM   27  O   UNL     1     -13.049   7.311  71.028  1.00  0.00    -0.295 OA 
HETATM   28  O   UNL     1     -14.317   8.776  72.665  1.00  0.00    -0.585 OA 
BRANCH  26  29
HETATM   29  N   UNL     1     -11.928   7.998  73.188  1.00  0.00    -0.368 N  
HETATM   30  H   UNL     1     -12.193   7.770  74.147  1.00  0.00     0.000 HD 
BRANCH  29  31
HETATM   31  C   UNL     1     -10.516   8.015  72.756  1.00  0.00    -0.345 C  
BRANCH  31  32
HETATM   32  C   UNL     1      -9.998   6.619  72.426  1.00  0.00    -0.180 C  
BRANCH  32  33
HETATM   33  C   UNL     1      -9.461   6.582  70.983  1.00  0.00    -0.164 C  
HETATM   34  C   UNL     1      -8.368   7.618  70.729  1.00  0.00    -0.117 C  
HETATM   35  C   UNL     1      -7.635   7.049  69.537  1.00  0.00    -0.098 C  
HETATM   36  C   UNL     1      -9.747   4.334  70.081  1.00  0.00    -0.212 C  
HETATM   37  N   UNL     1      -8.818   5.294  70.670  1.00  0.00    -0.128 NA 
HETATM   38  C   UNL     1      -7.670   5.551  69.784  1.00  0.00    -0.078 C  
ENDBRANCH  32  33
ENDBRANCH  31  32
ENDBRANCH  29  31
ENDBRANCH  26  29
ENDBRANCH   9  26
ENDBRANCH   4   5
ENDBRANCH   3   4
ENDBRANCH   2   3
TORSDOF 11
ENDMDL
MODEL      119
REMARK 921   NORMALIZED FREE ENERGY PREDICTED BY IDOCK:   -5.09 KCAL/MOL
REMARK 922        TOTAL FREE ENERGY PREDICTED BY IDOCK:  -10.60 KCAL/MOL
REMARK 923 INTER-LIGAND FREE ENERGY PREDICTED BY IDOCK:   -9.71 KCAL/MOL
REMARK 924 INTRA-LIGAND FREE ENERGY PREDICTED BY IDOCK:   -0.90 KCAL/MOL
REMARK 927      BINDING AFFINITY PREDICTED BY RF-SCORE:    0.00 PKD
ROOT
HETATM    1  C   UNL     1     -12.760  11.886  63.700  1.00  0.00    -0.509 C  
HETATM    2  C   UNL     1     -11.250  11.751  63.648  1.00  0.00    -0.519 C  
ENDROOT
BRANCH   2   3
HETATM    3  C   UNL     1     -10.649  11.429  65.007  1.00  0.00    -0.299 C  
BRANCH   3   4
HETATM    4  O   UNL     1     -11.650  11.327  66.036  1.00  0.00    -0.170 OA 
BRANCH   4   5
HETATM    5  C   UNL     1     -11.596  12.326  66.991  1.00  0.00    -0.349 A  
HETATM    6  C   UNL     1     -11.076  12.047  68.279  1.00  0.00    -0.290 A  
HETATM    7  C   UNL     1     -11.092  13.060  69.268  1.00  0.00    -0.194 A  
HETATM    8  C   UNL     1     -12.085  13.612  66.725  1.00  0.00    -0.445 A  
HETATM    9  C   UNL     1     -11.637  14.319  68.978  1.00  0.00    -0.305 A  
HETATM   10  C   UNL     1     -12.143  14.579  67.714  1.00  0.00    -0.269 A  
BRANCH   6  11
HETATM   11  C   UNL     1     -10.520  10.686  68.659  1.00  0.00    -0.191 C  
HETATM   12  C   UNL     1      -9.994   9.169  70.371  1.00  0.00    -0.218 C  
HETATM   13  N   UNL     1     -10.466  10.397  69.935  1.00  0.00    -0.376 N  
HETATM   14  H   UNL     1     -10.775  11.087  70.619  1.00  0.00     0.000 HD 
HETATM   15  N   UNL     1     -10.098   9.850  67.635  1.00  0.00    -0.185 NA 
HETATM   16  N   UNL     1      -8.887   6.516  68.103  1.00  0.00    -0.116 NA 
HETATM   17  C   UNL     1      -9.197   7.522  67.269  1.00  0.00    -0.131 A  
HETATM   18  C   UNL     1      -9.611   8.293  69.309  1.00  0.00    -0.164 A  
HETATM   19  O   UNL     1      -9.909   8.864  71.556  1.00  0.00    -0.266 OA 
HETATM   20  C   UNL     1      -8.960   6.165  70.492  1.00  0.00    -0.146 C  
HETATM   21  C   UNL     1      -9.659   8.636  67.992  1.00  0.00    -0.149 A  
HETATM   22  N   UNL     1      -9.156   7.010  69.339  1.00  0.00    -0.145 NA 
BRANCH  17  23
HETATM   23  C   UNL     1      -9.027   7.345  65.798  1.00  0.00    -0.061 C  
BRANCH  23  24
HETATM   24  C   UNL     1      -8.026   8.312  65.162  1.00  0.00    -0.128 C  
HETATM   25  C   UNL     1      -8.409   8.750  63.754  1.00  0.00    -0.140 C  
ENDBRANCH  23  24
ENDBRANCH  17  23
ENDBRANCH   6  11
BRANCH   9  26
HETATM   26  S   UNL     1     -11.778  15.588  70.216  1.00  0.00    -0.379 S  
HETATM   27  O   UNL     1     -10.832  15.274  71.261  1.00  0.00    -0.264 OA 
HETATM   28  O   UNL     1     -13.188  15.777  70.467  1.00  0.00    -0.449 OA 
BRANCH  26  29
HETATM   29  N   UNL     1     -11.174  16.979  69.425  1.00  0.00    -0.183 N  
HETATM   30  H   UNL     1     -11.796  17.706  69.071  1.00  0.00     0.000 HD 
BRANCH  29  31
HETATM   31  C   UNL     1      -9.707  17.075  69.281  1.00  0.00    -0.083 C  
BRANCH  31  32
HETATM   32  C   UNL     1      -9.255  16.849  67.843  1.00  0.00    -0.234 C  
BRANCH  32  33
HETATM   33  C   UNL     1      -9.080  18.201  67.126  1.00  0.00    -0.257 C  
HETATM   34  C   UNL     1     -10.258  18.550  66.218  1.00  0.00    -0.446 C  
HETATM   35  C   UNL     1     -10.157  20.052  66.099  1.00  0.00    -0.588 C  
HETATM   36  C   UNL     1      -7.644  19.641  68.474  1.00  0.00    -0.337 C  
HETATM   37  N   UNL     1      -9.013  19.323  68.079  1.00  0.00    -0.306 NA 
HETATM   38  C   UNL     1      -9.687  20.485  67.476  1.00  0.00    -0.414 C  
ENDBRANCH  32  33
ENDBRANCH  31  32
ENDBRANCH  29  31
ENDBRANCH  26  29
ENDBRANCH   9  26
ENDBRANCH   4   5
ENDBRANCH   3   4
ENDBRANCH   2   3
TORSDOF 11
ENDMDL
MODEL      120
REMARK 921   NORMALIZED FREE ENERGY PREDICTED BY IDOCK:   -5.08 KCAL/MOL
REMARK 922        TOTAL FREE ENERGY PREDICTED BY IDOCK:  -10.58 KCAL/MOL
REMARK 923 INTER-LIGAND FREE ENERGY PREDICTED BY IDOCK:   -8.59 KCAL/MOL
REMARK 924 INTRA-LIGAND FREE ENERGY PREDICTED BY IDOCK:   -1.99 KCAL/MOL
REMARK 927      BINDING AFFINITY PREDICTED BY RF-SCORE:    0.00 PKD
ROOT
HETATM    1  C   UNL     1     -11.437   7.319  70.208  1.00  0.00    -0.242 C  
HETATM    2  C   UNL     1     -10.914   8.573  70.884  1.00  0.00    -0.292 C  
ENDROOT
BRANCH   2   3
HETATM    3  C   UNL     1     -11.469   9.843  70.260  1.00  0.00    -0.281 C  
BRANCH   3   4
HETATM    4  O   UNL     1     -10.440  10.650  69.658  1.00  0.00    -0.228 OA 
BRANCH   4   5
HETATM    5  C   UNL     1     -10.728  11.089  68.379  1.00  0.00    -0.203 A  
HETATM    6  C   UNL     1     -10.043  10.537  67.269  1.00  0.00    -0.242 A  
HETATM    7  C   UNL     1     -10.299  11.047  65.972  1.00  0.00    -0.311 A  
HETATM    8  C   UNL     1     -11.666  12.107  68.155  1.00  0.00    -0.402 A  
HETATM    9  C   UNL     1     -11.207  12.100  65.797  1.00  0.00    -0.339 A  
HETATM   10  C   UNL     1     -11.870  12.632  66.891  1.00  0.00    -0.425 A  
BRANCH   6  11
HETATM   11  C   UNL     1      -9.015   9.429  67.412  1.00  0.00    -0.124 C  
HETATM   12  C   UNL     1      -6.940   8.751  68.276  1.00  0.00    -0.073 C  
HETATM   13  N   UNL     1      -7.923   9.709  68.077  1.00  0.00    -0.097 N  
HETATM   14  H   UNL     1      -7.792  10.647  68.454  1.00  0.00     0.000 HD 
HETATM   15  N   UNL     1      -9.294   8.206  66.819  1.00  0.00    -0.170 NA 
HETATM   16  N   UNL     1      -7.214   5.306  67.067  1.00  0.00    -0.077 NA 
HETATM   17  C   UNL     1      -8.338   5.881  66.609  1.00  0.00    -0.110 A  
HETATM   18  C   UNL     1      -7.259   7.479  67.710  1.00  0.00    -0.094 A  
HETATM   19  O   UNL     1      -5.895   8.975  68.877  1.00  0.00    -0.040 OA 
HETATM   20  C   UNL     1      -5.327   6.015  68.399  1.00  0.00    -0.007 C  
HETATM   21  C   UNL     1      -8.396   7.230  67.002  1.00  0.00    -0.118 A  
HETATM   22  N   UNL     1      -6.579   6.300  67.741  1.00  0.00    -0.059 NA 
BRANCH  17  23
HETATM   23  C   UNL     1      -9.306   5.080  65.805  1.00  0.00    -0.167 C  
BRANCH  23  24
HETATM   24  C   UNL     1      -8.652   4.159  64.773  1.00  0.00    -0.119 C  
HETATM   25  C   UNL     1      -8.937   2.681  65.005  1.00  0.00    -0.131 C  
ENDBRANCH  23  24
ENDBRANCH  17  23
ENDBRANCH   6  11
BRANCH   9  26
HETATM   26  S   UNL     1     -11.481  12.846  64.205  1.00  0.00    -0.426 S  
HETATM   27  O   UNL     1     -12.879  13.201  64.134  1.00  0.00    -0.651 OA 
HETATM   28  O   UNL     1     -10.837  12.001  63.227  1.00  0.00    -0.397 OA 
BRANCH  26  29
HETATM   29  N   UNL     1     -10.618  14.319  64.306  1.00  0.00    -0.475 N  
HETATM   30  H   UNL     1      -9.663  14.405  63.958  1.00  0.00     0.000 HD 
BRANCH  29  31
HETATM   31  C   UNL     1     -11.324  15.460  64.923  1.00  0.00    -0.363 C  
BRANCH  31  32
HETATM   32  C   UNL     1     -10.394  16.324  65.767  1.00  0.00    -0.393 C  
BRANCH  32  33
HETATM   33  C   UNL     1      -9.952  15.552  67.025  1.00  0.00    -0.239 C  
HETATM   34  C   UNL     1      -8.435  15.423  67.140  1.00  0.00    -0.241 C  
HETATM   35  C   UNL     1      -8.228  15.181  68.616  1.00  0.00    -0.154 C  
HETATM   36  C   UNL     1     -11.652  15.804  68.756  1.00  0.00    -0.395 C  
HETATM   37  N   UNL     1     -10.351  16.245  68.262  1.00  0.00    -0.261 NA 
HETATM   38  C   UNL     1      -9.293  16.046  69.267  1.00  0.00    -0.244 C  
ENDBRANCH  32  33
ENDBRANCH  31  32
ENDBRANCH  29  31
ENDBRANCH  26  29
ENDBRANCH   9  26
ENDBRANCH   4   5
ENDBRANCH   3   4
ENDBRANCH   2   3
TORSDOF 11
ENDMDL
MODEL      121
REMARK 921   NORMALIZED FREE ENERGY PREDICTED BY IDOCK:   -5.07 KCAL/MOL
REMARK 922        TOTAL FREE ENERGY PREDICTED BY IDOCK:  -10.57 KCAL/MOL
REMARK 923 INTER-LIGAND FREE ENERGY PREDICTED BY IDOCK:   -8.35 KCAL/MOL
REMARK 924 INTRA-LIGAND FREE ENERGY PREDICTED BY IDOCK:   -2.23 KCAL/MOL
REMARK 927      BINDING AFFINITY PREDICTED BY RF-SCORE:    0.00 PKD
ROOT
HETATM    1  C   UNL     1      -5.300   8.857  74.095  1.00  0.00    -0.112 C  
HETATM    2  C   UNL     1      -6.156   7.652  73.750  1.00  0.00    -0.069 C  
ENDROOT
BRANCH   2   3
HETATM    3  C   UNL     1      -7.440   8.038  73.035  1.00  0.00    -0.127 C  
BRANCH   3   4
HETATM    4  O   UNL     1      -7.406   7.703  71.635  1.00  0.00    -0.065 OA 
BRANCH   4   5
HETATM    5  C   UNL     1      -7.217   8.782  70.790  1.00  0.00    -0.073 A  
HETATM    6  C   UNL     1      -8.333   9.431  70.209  1.00  0.00    -0.217 A  
HETATM    7  C   UNL     1      -8.121  10.489  69.292  1.00  0.00    -0.152 A  
HETATM    8  C   UNL     1      -5.930   9.228  70.460  1.00  0.00    -0.047 A  
HETATM    9  C   UNL     1      -6.817  10.872  68.949  1.00  0.00    -0.076 A  
HETATM   10  C   UNL     1      -5.733  10.228  69.524  1.00  0.00    -0.038 A  
BRANCH   6  11
HETATM   11  C   UNL     1      -9.764   9.022  70.509  1.00  0.00    -0.216 C  
HETATM   12  C   UNL     1     -11.332   7.283  70.687  1.00  0.00    -0.284 C  
HETATM   13  N   UNL     1     -10.056   7.749  70.409  1.00  0.00    -0.193 N  
HETATM   14  H   UNL     1      -9.333   7.090  70.121  1.00  0.00     0.000 HD 
HETATM   15  N   UNL     1     -10.664  10.019  70.855  1.00  0.00    -0.243 NA 
HETATM   16  N   UNL     1     -14.070   9.448  71.792  1.00  0.00    -0.194 NA 
HETATM   17  C   UNL     1     -13.060  10.311  71.590  1.00  0.00    -0.449 A  
HETATM   18  C   UNL     1     -12.239   8.308  71.094  1.00  0.00    -0.233 A  
HETATM   19  O   UNL     1     -11.652   6.103  70.588  1.00  0.00    -0.321 OA 
HETATM   20  C   UNL     1     -14.359   7.055  71.629  1.00  0.00    -0.296 C  
HETATM   21  C   UNL     1     -11.907   9.628  71.164  1.00  0.00    -0.367 A  
HETATM   22  N   UNL     1     -13.540   8.235  71.490  1.00  0.00    -0.327 NA 
BRANCH  17  23
HETATM   23  C   UNL     1     -13.273  11.768  71.824  1.00  0.00    -0.434 C  
BRANCH  23  24
HETATM   24  C   UNL     1     -12.493  12.676  70.870  1.00  0.00    -0.368 C  
HETATM   25  C   UNL     1     -12.537  14.150  71.256  1.00  0.00    -0.438 C  
ENDBRANCH  23  24
ENDBRANCH  17  23
ENDBRANCH   6  11
BRANCH   9  26
HETATM   26  S   UNL     1      -6.498  12.120  67.722  1.00  0.00    -0.110 S  
HETATM   27  O   UNL     1      -6.092  11.440  66.515  1.00  0.00    -0.142 OA 
HETATM   28  O   UNL     1      -5.693  13.139  68.356  1.00  0.00    -0.069 OA 
BRANCH  26  29
HETATM   29  N   UNL     1      -8.049  12.769  67.408  1.00  0.00    -0.178 N  
HETATM   30  H   UNL     1      -8.668  12.360  66.708  1.00  0.00     0.000 HD 
BRANCH  29  31
HETATM   31  C   UNL     1      -8.446  13.950  68.201  1.00  0.00    -0.171 C  
BRANCH  31  32
HETATM   32  C   UNL     1      -9.947  13.983  68.469  1.00  0.00    -0.230 C  
BRANCH  32  33
HETATM   33  C   UNL     1     -10.702  14.408  67.195  1.00  0.00    -0.283 C  
HETATM   34  C   UNL     1     -10.092  15.638  66.526  1.00  0.00    -0.293 C  
HETATM   35  C   UNL     1     -10.581  15.523  65.102  1.00  0.00    -0.455 C  
HETATM   36  C   UNL     1     -11.788  12.454  66.220  1.00  0.00    -0.364 C  
HETATM   37  N   UNL     1     -10.651  13.367  66.154  1.00  0.00    -0.289 NA 
HETATM   38  C   UNL     1     -10.561  14.028  64.841  1.00  0.00    -0.424 C  
ENDBRANCH  32  33
ENDBRANCH  31  32
ENDBRANCH  29  31
ENDBRANCH  26  29
ENDBRANCH   9  26
ENDBRANCH   4   5
ENDBRANCH   3   4
ENDBRANCH   2   3
TORSDOF 11
ENDMDL
MODEL      122
REMARK 921   NORMALIZED FREE ENERGY PREDICTED BY IDOCK:   -5.06 KCAL/MOL
REMARK 922        TOTAL FREE ENERGY PREDICTED BY IDOCK:  -10.55 KCAL/MOL
REMARK 923 INTER-LIGAND FREE ENERGY PREDICTED BY IDOCK:   -9.16 KCAL/MOL
REMARK 924 INTRA-LIGAND FREE ENERGY PREDICTED BY IDOCK:   -1.39 KCAL/MOL
REMARK 927      BINDING AFFINITY PREDICTED BY RF-SCORE:    0.00 PKD
ROOT
HETATM    1  C   UNL     1      -8.992  14.361  67.932  1.00  0.00    -0.186 C  
HETATM    2  C   UNL     1      -9.814  15.371  68.710  1.00  0.00    -0.211 C  
ENDROOT
BRANCH   2   3
HETATM    3  C   UNL     1     -11.008  14.737  69.405  1.00  0.00    -0.265 C  
BRANCH   3   4
HETATM    4  O   UNL     1     -11.563  13.646  68.648  1.00  0.00    -0.282 OA 
BRANCH   4   5
HETATM    5  C   UNL     1     -11.804  12.500  69.384  1.00  0.00    -0.308 A  
HETATM    6  C   UNL     1     -11.606  11.226  68.796  1.00  0.00    -0.383 A  
HETATM    7  C   UNL     1     -11.924  10.063  69.539  1.00  0.00     0.096 A  
HETATM    8  C   UNL     1     -12.282  12.569  70.699  1.00  0.00    -0.365 A  
HETATM    9  C   UNL     1     -12.448  10.176  70.834  1.00  0.00    -0.360 A  
HETATM   10  C   UNL     1     -12.637  11.429  71.397  1.00  0.00    -0.439 A  
BRANCH   6  11
HETATM   11  C   UNL     1     -11.088  11.051  67.380  1.00  0.00    -0.305 C  
HETATM   12  C   UNL     1     -11.011  11.872  65.183  1.00  0.00    -0.312 C  
HETATM   13  N   UNL     1     -11.456  11.941  66.494  1.00  0.00    -0.346 N  
HETATM   14  H   UNL     1     -12.079  12.698  66.773  1.00  0.00     0.000 HD 
HETATM   15  N   UNL     1     -10.275   9.957  67.119  1.00  0.00    -0.214 NA 
HETATM   16  N   UNL     1      -8.724   9.286  63.966  1.00  0.00    -0.198 NA 
HETATM   17  C   UNL     1      -8.925   8.938  65.248  1.00  0.00    -0.162 A  
HETATM   18  C   UNL     1     -10.131  10.774  64.934  1.00  0.00    -0.322 A  
HETATM   19  O   UNL     1     -11.345  12.674  64.317  1.00  0.00    -0.321 OA 
HETATM   20  C   UNL     1      -9.455  11.082  62.526  1.00  0.00    -0.225 C  
HETATM   21  C   UNL     1      -9.789   9.852  65.876  1.00  0.00    -0.274 A  
HETATM   22  N   UNL     1      -9.464  10.412  63.804  1.00  0.00    -0.285 NA 
BRANCH  17  23
HETATM   23  C   UNL     1      -8.258   7.722  65.799  1.00  0.00    -0.132 C  
BRANCH  23  24
HETATM   24  C   UNL     1      -9.139   6.898  66.741  1.00  0.00    -0.162 C  
HETATM   25  C   UNL     1      -8.688   6.943  68.196  1.00  0.00    -0.126 C  
ENDBRANCH  23  24
ENDBRANCH  17  23
ENDBRANCH   6  11
BRANCH   9  26
HETATM   26  S   UNL     1     -12.964   8.751  71.765  1.00  0.00    -0.382 S  
HETATM   27  O   UNL     1     -14.383   8.884  72.001  1.00  0.00    -0.392 OA 
HETATM   28  O   UNL     1     -12.005   8.575  72.832  1.00  0.00    -0.243 OA 
BRANCH  26  29
HETATM   29  N   UNL     1     -12.782   7.466  70.651  1.00  0.00    -0.576 N  
HETATM   30  H   UNL     1     -13.491   7.264  69.946  1.00  0.00     0.000 HD 
BRANCH  29  31
HETATM   31  C   UNL     1     -11.547   6.664  70.761  1.00  0.00    -0.376 C  
BRANCH  31  32
HETATM   32  C   UNL     1     -11.574   5.729  71.966  1.00  0.00    -0.226 C  
BRANCH  32  33
HETATM   33  C   UNL     1     -10.149   5.240  72.287  1.00  0.00    -0.189 C  
HETATM   34  C   UNL     1      -9.898   5.086  73.785  1.00  0.00    -0.167 C  
HETATM   35  C   UNL     1      -8.746   4.110  73.835  1.00  0.00    -0.093 C  
HETATM   36  C   UNL     1      -9.305   3.941  70.402  1.00  0.00    -0.161 C  
HETATM   37  N   UNL     1      -9.893   3.897  71.738  1.00  0.00    -0.176 NA 
HETATM   38  C   UNL     1      -9.035   3.164  72.684  1.00  0.00    -0.087 C  
ENDBRANCH  32  33
ENDBRANCH  31  32
ENDBRANCH  29  31
ENDBRANCH  26  29
ENDBRANCH   9  26
ENDBRANCH   4   5
ENDBRANCH   3   4
ENDBRANCH   2   3
TORSDOF 11
ENDMDL
MODEL      123
REMARK 921   NORMALIZED FREE ENERGY PREDICTED BY IDOCK:   -5.05 KCAL/MOL
REMARK 922        TOTAL FREE ENERGY PREDICTED BY IDOCK:  -10.54 KCAL/MOL
REMARK 923 INTER-LIGAND FREE ENERGY PREDICTED BY IDOCK:   -9.28 KCAL/MOL
REMARK 924 INTRA-LIGAND FREE ENERGY PREDICTED BY IDOCK:   -1.26 KCAL/MOL
REMARK 927      BINDING AFFINITY PREDICTED BY RF-SCORE:    0.00 PKD
ROOT
HETATM    1  C   UNL     1     -11.211  15.778  64.586  1.00  0.00    -0.373 C  
HETATM    2  C   UNL     1     -11.780  14.395  64.326  1.00  0.00    -0.328 C  
ENDROOT
BRANCH   2   3
HETATM    3  C   UNL     1     -12.677  13.914  65.454  1.00  0.00    -0.490 C  
BRANCH   3   4
HETATM    4  O   UNL     1     -12.655  12.481  65.595  1.00  0.00    -0.612 OA 
BRANCH   4   5
HETATM    5  C   UNL     1     -11.389  11.924  65.609  1.00  0.00    -0.284 A  
HETATM    6  C   UNL     1     -10.518  12.174  66.698  1.00  0.00    -0.248 A  
HETATM    7  C   UNL     1      -9.201  11.654  66.665  1.00  0.00    -0.196 A  
HETATM    8  C   UNL     1     -10.928  11.142  64.541  1.00  0.00    -0.255 A  
HETATM    9  C   UNL     1      -8.762  10.919  65.556  1.00  0.00    -0.171 A  
HETATM   10  C   UNL     1      -9.624  10.683  64.497  1.00  0.00    -0.341 A  
BRANCH   6  11
HETATM   11  C   UNL     1     -10.929  13.004  67.900  1.00  0.00    -0.241 C  
HETATM   12  C   UNL     1     -12.032  13.082  69.971  1.00  0.00    -0.312 C  
HETATM   13  N   UNL     1     -11.633  12.406  68.828  1.00  0.00    -0.303 N  
HETATM   14  H   UNL     1     -11.893  11.427  68.708  1.00  0.00     0.000 HD 
HETATM   15  N   UNL     1     -10.545  14.337  67.928  1.00  0.00    -0.238 NA 
HETATM   16  N   UNL     1     -11.172  16.575  70.649  1.00  0.00    -0.218 NA 
HETATM   17  C   UNL     1     -10.640  16.359  69.434  1.00  0.00    -0.317 A  
HETATM   18  C   UNL     1     -11.587  14.438  70.019  1.00  0.00    -0.275 A  
HETATM   19  O   UNL     1     -12.707  12.565  70.856  1.00  0.00    -0.285 OA 
HETATM   20  C   UNL     1     -12.383  15.252  72.267  1.00  0.00    -0.370 C  
HETATM   21  C   UNL     1     -10.876  15.036  69.022  1.00  0.00    -0.242 A  
HETATM   22  N   UNL     1     -11.736  15.386  70.984  1.00  0.00    -0.327 NA 
BRANCH  17  23
HETATM   23  C   UNL     1      -9.923  17.463  68.732  1.00  0.00    -0.329 C  
BRANCH  23  24
HETATM   24  C   UNL     1     -10.746  18.148  67.639  1.00  0.00    -0.364 C  
HETATM   25  C   UNL     1     -10.569  19.661  67.597  1.00  0.00    -0.556 C  
ENDBRANCH  23  24
ENDBRANCH  17  23
ENDBRANCH   6  11
BRANCH   9  26
HETATM   26  S   UNL     1      -7.085  10.338  65.419  1.00  0.00    -0.122 S  
HETATM   27  O   UNL     1      -6.290  11.101  66.353  1.00  0.00    -0.127 OA 
HETATM   28  O   UNL     1      -6.780  10.261  64.009  1.00  0.00    -0.126 OA 
BRANCH  26  29
HETATM   29  N   UNL     1      -7.167   8.749  66.047  1.00  0.00    -0.087 N  
HETATM   30  H   UNL     1      -6.649   7.979  65.623  1.00  0.00     0.000 HD 
BRANCH  29  31
HETATM   31  C   UNL     1      -8.023   8.549  67.233  1.00  0.00    -0.102 C  
BRANCH  31  32
HETATM   32  C   UNL     1      -9.235   7.676  66.927  1.00  0.00    -0.179 C  
BRANCH  32  33
HETATM   33  C   UNL     1      -8.879   6.189  67.119  1.00  0.00    -0.108 C  
HETATM   34  C   UNL     1      -9.879   5.448  68.003  1.00  0.00    -0.183 C  
HETATM   35  C   UNL     1      -9.682   4.006  67.598  1.00  0.00    -0.164 C  
HETATM   36  C   UNL     1      -7.599   5.418  65.191  1.00  0.00    -0.079 C  
HETATM   37  N   UNL     1      -8.904   5.450  65.845  1.00  0.00    -0.144 NA 
HETATM   38  C   UNL     1      -9.413   4.093  66.106  1.00  0.00    -0.183 C  
ENDBRANCH  32  33
ENDBRANCH  31  32
ENDBRANCH  29  31
ENDBRANCH  26  29
ENDBRANCH   9  26
ENDBRANCH   4   5
ENDBRANCH   3   4
ENDBRANCH   2   3
TORSDOF 11
ENDMDL
MODEL      124
REMARK 921   NORMALIZED FREE ENERGY PREDICTED BY IDOCK:   -5.05 KCAL/MOL
REMARK 922        TOTAL FREE ENERGY PREDICTED BY IDOCK:  -10.53 KCAL/MOL
REMARK 923 INTER-LIGAND FREE ENERGY PREDICTED BY IDOCK:   -8.88 KCAL/MOL
REMARK 924 INTRA-LIGAND FREE ENERGY PREDICTED BY IDOCK:   -1.65 KCAL/MOL
REMARK 927      BINDING AFFINITY PREDICTED BY RF-SCORE:    0.00 PKD
ROOT
HETATM    1  C   UNL     1     -11.752   6.450  70.379  1.00  0.00    -0.389 C  
HETATM    2  C   UNL     1     -11.419   7.461  71.461  1.00  0.00    -0.292 C  
ENDROOT
BRANCH   2   3
HETATM    3  C   UNL     1     -12.213   8.749  71.317  1.00  0.00    -0.287 C  
BRANCH   3   4
HETATM    4  O   UNL     1     -11.397   9.918  71.517  1.00  0.00    -0.343 OA 
BRANCH   4   5
HETATM    5  C   UNL     1     -11.375  10.794  70.447  1.00  0.00    -0.255 A  
HETATM    6  C   UNL     1     -10.398  10.649  69.433  1.00  0.00    -0.234 A  
HETATM    7  C   UNL     1     -10.344  11.595  68.380  1.00  0.00    -0.215 A  
HETATM    8  C   UNL     1     -12.283  11.859  70.362  1.00  0.00    -0.399 A  
HETATM    9  C   UNL     1     -11.238  12.675  68.359  1.00  0.00    -0.279 A  
HETATM   10  C   UNL     1     -12.189  12.806  69.358  1.00  0.00    -0.131 A  
BRANCH   6  11
HETATM   11  C   UNL     1      -9.376   9.525  69.436  1.00  0.00    -0.180 C  
HETATM   12  C   UNL     1      -7.733   8.347  70.628  1.00  0.00    -0.083 C  
HETATM   13  N   UNL     1      -8.671   9.362  70.528  1.00  0.00    -0.230 N  
HETATM   14  H   UNL     1      -8.815   9.992  71.317  1.00  0.00     0.000 HD 
HETATM   15  N   UNL     1      -9.250   8.761  68.286  1.00  0.00    -0.140 NA 
HETATM   16  N   UNL     1      -7.085   5.932  67.954  1.00  0.00    -0.069 NA 
HETATM   17  C   UNL     1      -8.006   6.747  67.413  1.00  0.00    -0.114 A  
HETATM   18  C   UNL     1      -7.646   7.530  69.459  1.00  0.00    -0.095 A  
HETATM   19  O   UNL     1      -7.039   8.169  71.624  1.00  0.00    -0.063 OA 
HETATM   20  C   UNL     1      -5.966   5.759  70.088  1.00  0.00    -0.025 C  
HETATM   21  C   UNL     1      -8.379   7.745  68.331  1.00  0.00    -0.125 A  
HETATM   22  N   UNL     1      -6.890   6.427  69.203  1.00  0.00    -0.060 NA 
BRANCH  17  23
HETATM   23  C   UNL     1      -8.478   6.510  66.018  1.00  0.00    -0.145 C  
BRANCH  23  24
HETATM   24  C   UNL     1      -9.362   5.271  65.858  1.00  0.00    -0.165 C  
HETATM   25  C   UNL     1     -10.638   5.319  66.689  1.00  0.00    -0.334 C  
ENDBRANCH  23  24
ENDBRANCH  17  23
ENDBRANCH   6  11
BRANCH   9  26
HETATM   26  S   UNL     1     -11.141  13.948  67.120  1.00  0.00    -0.309 S  
HETATM   27  O   UNL     1     -12.377  13.915  66.374  1.00  0.00    -0.448 OA 
HETATM   28  O   UNL     1      -9.844  13.829  66.494  1.00  0.00    -0.273 OA 
BRANCH  26  29
HETATM   29  N   UNL     1     -11.173  15.392  68.036  1.00  0.00    -0.315 N  
HETATM   30  H   UNL     1     -11.871  15.549  68.763  1.00  0.00     0.000 HD 
BRANCH  29  31
HETATM   31  C   UNL     1     -10.139  16.399  67.722  1.00  0.00    -0.262 C  
BRANCH  31  32
HETATM   32  C   UNL     1     -10.399  17.094  66.390  1.00  0.00    -0.307 C  
BRANCH  32  33
HETATM   33  C   UNL     1      -9.781  18.505  66.400  1.00  0.00    -0.336 C  
HETATM   34  C   UNL     1     -10.626  19.518  67.169  1.00  0.00    -0.605 C  
HETATM   35  C   UNL     1      -9.624  20.589  67.528  1.00  0.00    -0.545 C  
HETATM   36  C   UNL     1      -7.360  18.319  66.169  1.00  0.00    -0.263 C  
HETATM   37  N   UNL     1      -8.477  18.528  67.085  1.00  0.00    -0.260 NA 
HETATM   38  C   UNL     1      -8.355  19.805  67.808  1.00  0.00    -0.306 C  
ENDBRANCH  32  33
ENDBRANCH  31  32
ENDBRANCH  29  31
ENDBRANCH  26  29
ENDBRANCH   9  26
ENDBRANCH   4   5
ENDBRANCH   3   4
ENDBRANCH   2   3
TORSDOF 11
ENDMDL
MODEL      125
REMARK 921   NORMALIZED FREE ENERGY PREDICTED BY IDOCK:   -5.05 KCAL/MOL
REMARK 922        TOTAL FREE ENERGY PREDICTED BY IDOCK:  -10.53 KCAL/MOL
REMARK 923 INTER-LIGAND FREE ENERGY PREDICTED BY IDOCK:   -7.93 KCAL/MOL
REMARK 924 INTRA-LIGAND FREE ENERGY PREDICTED BY IDOCK:   -2.60 KCAL/MOL
REMARK 927      BINDING AFFINITY PREDICTED BY RF-SCORE:    0.00 PKD
ROOT
HETATM    1  C   UNL     1      -6.772  14.146  67.745  1.00  0.00    -0.190 C  
HETATM    2  C   UNL     1      -7.484  13.084  68.562  1.00  0.00    -0.123 C  
ENDROOT
BRANCH   2   3
HETATM    3  C   UNL     1      -6.543  12.345  69.500  1.00  0.00    -0.048 C  
BRANCH   3   4
HETATM    4  O   UNL     1      -6.930  10.972  69.689  1.00  0.00    -0.127 OA 
BRANCH   4   5
HETATM    5  C   UNL     1      -7.106  10.258  68.518  1.00  0.00    -0.074 A  
HETATM    6  C   UNL     1      -8.315   9.555  68.292  1.00  0.00    -0.118 A  
HETATM    7  C   UNL     1      -8.454   8.772  67.120  1.00  0.00    -0.110 A  
HETATM    8  C   UNL     1      -6.090  10.179  67.556  1.00  0.00    -0.057 A  
HETATM    9  C   UNL     1      -7.395   8.679  66.207  1.00  0.00    -0.086 A  
HETATM   10  C   UNL     1      -6.217   9.371  66.440  1.00  0.00    -0.064 A  
BRANCH   6  11
HETATM   11  C   UNL     1      -9.473   9.584  69.273  1.00  0.00    -0.169 C  
HETATM   12  C   UNL     1     -11.333  10.747  70.110  1.00  0.00    -0.309 C  
HETATM   13  N   UNL     1     -10.239  10.646  69.264  1.00  0.00    -0.245 N  
HETATM   14  H   UNL     1     -10.027  11.411  68.624  1.00  0.00     0.000 HD 
HETATM   15  N   UNL     1      -9.633   8.495  70.118  1.00  0.00    -0.167 NA 
HETATM   16  N   UNL     1     -12.322   8.108  72.447  1.00  0.00    -0.324 NA 
HETATM   17  C   UNL     1     -11.203   7.618  71.887  1.00  0.00    -0.257 A  
HETATM   18  C   UNL     1     -11.523   9.600  70.939  1.00  0.00    -0.353 A  
HETATM   19  O   UNL     1     -12.065  11.730  70.146  1.00  0.00    -0.320 OA 
HETATM   20  C   UNL     1     -13.646  10.113  72.196  1.00  0.00    -0.193 C  
HETATM   21  C   UNL     1     -10.691   8.521  70.940  1.00  0.00    -0.224 A  
HETATM   22  N   UNL     1     -12.498   9.313  71.845  1.00  0.00    -0.366 NA 
BRANCH  17  23
HETATM   23  C   UNL     1     -10.687   6.283  72.309  1.00  0.00    -0.263 C  
BRANCH  23  24
HETATM   24  C   UNL     1      -9.265   6.311  72.872  1.00  0.00    -0.133 C  
HETATM   25  C   UNL     1      -9.070   7.329  73.989  1.00  0.00    -0.284 C  
ENDBRANCH  23  24
ENDBRANCH  17  23
ENDBRANCH   6  11
BRANCH   9  26
HETATM   26  S   UNL     1      -7.479   7.624  64.776  1.00  0.00    -0.101 S  
HETATM   27  O   UNL     1      -8.089   6.383  65.195  1.00  0.00    -0.127 OA 
HETATM   28  O   UNL     1      -6.188   7.684  64.132  1.00  0.00    -0.048 OA 
BRANCH  26  29
HETATM   29  N   UNL     1      -8.625   8.407  63.776  1.00  0.00    -0.411 N  
HETATM   30  H   UNL     1      -9.404   7.900  63.356  1.00  0.00     0.000 HD 
BRANCH  29  31
HETATM   31  C   UNL     1      -8.429   9.854  63.553  1.00  0.00    -0.183 C  
BRANCH  31  32
HETATM   32  C   UNL     1      -9.707  10.540  63.083  1.00  0.00    -0.351 C  
BRANCH  32  33
HETATM   33  C   UNL     1     -10.413  11.217  64.273  1.00  0.00    -0.362 C  
HETATM   34  C   UNL     1      -9.437  11.710  65.340  1.00  0.00    -0.190 C  
HETATM   35  C   UNL     1     -10.233  12.776  66.056  1.00  0.00    -0.290 C  
HETATM   36  C   UNL     1     -12.534  12.153  63.518  1.00  0.00    -0.555 C  
HETATM   37  N   UNL     1     -11.143  12.428  63.862  1.00  0.00    -0.378 NA 
HETATM   38  C   UNL     1     -11.038  13.423  64.943  1.00  0.00    -0.335 C  
ENDBRANCH  32  33
ENDBRANCH  31  32
ENDBRANCH  29  31
ENDBRANCH  26  29
ENDBRANCH   9  26
ENDBRANCH   4   5
ENDBRANCH   3   4
ENDBRANCH   2   3
TORSDOF 11
ENDMDL
MODEL      126
REMARK 921   NORMALIZED FREE ENERGY PREDICTED BY IDOCK:   -5.04 KCAL/MOL
REMARK 922        TOTAL FREE ENERGY PREDICTED BY IDOCK:  -10.51 KCAL/MOL
REMARK 923 INTER-LIGAND FREE ENERGY PREDICTED BY IDOCK:   -8.89 KCAL/MOL
REMARK 924 INTRA-LIGAND FREE ENERGY PREDICTED BY IDOCK:   -1.61 KCAL/MOL
REMARK 927      BINDING AFFINITY PREDICTED BY RF-SCORE:    0.00 PKD
ROOT
HETATM    1  C   UNL     1     -12.282  15.992  72.093  1.00  0.00    -0.597 C  
HETATM    2  C   UNL     1     -13.228  15.308  71.124  1.00  0.00    -0.567 C  
ENDROOT
BRANCH   2   3
HETATM    3  C   UNL     1     -12.612  14.075  70.483  1.00  0.00    -0.329 C  
BRANCH   3   4
HETATM    4  O   UNL     1     -12.276  14.290  69.100  1.00  0.00    -0.316 OA 
BRANCH   4   5
HETATM    5  C   UNL     1     -11.516  13.285  68.530  1.00  0.00    -0.312 A  
HETATM    6  C   UNL     1     -10.243  13.582  67.985  1.00  0.00    -0.243 A  
HETATM    7  C   UNL     1      -9.507  12.556  67.343  1.00  0.00    -0.184 A  
HETATM    8  C   UNL     1     -11.997  11.971  68.443  1.00  0.00    -0.256 A  
HETATM    9  C   UNL     1     -10.045  11.267  67.232  1.00  0.00    -0.186 A  
HETATM   10  C   UNL     1     -11.292  10.989  67.769  1.00  0.00    -0.365 A  
BRANCH   6  11
HETATM   11  C   UNL     1      -9.636  14.973  68.036  1.00  0.00    -0.208 C  
HETATM   12  C   UNL     1      -9.848  17.247  67.495  1.00  0.00    -0.275 C  
HETATM   13  N   UNL     1     -10.315  15.942  67.476  1.00  0.00    -0.277 N  
HETATM   14  H   UNL     1     -11.202  15.733  67.018  1.00  0.00     0.000 HD 
HETATM   15  N   UNL     1      -8.404  15.120  68.656  1.00  0.00    -0.151 NA 
HETATM   16  N   UNL     1      -6.727  18.245  69.127  1.00  0.00    -0.262 NA 
HETATM   17  C   UNL     1      -6.752  16.913  69.303  1.00  0.00    -0.238 A  
HETATM   18  C   UNL     1      -8.605  17.400  68.183  1.00  0.00    -0.248 A  
HETATM   19  O   UNL     1     -10.443  18.181  66.968  1.00  0.00    -0.372 OA 
HETATM   20  C   UNL     1      -8.184  19.884  68.114  1.00  0.00    -0.243 C  
HETATM   21  C   UNL     1      -7.914  16.363  68.733  1.00  0.00    -0.233 A  
HETATM   22  N   UNL     1      -7.871  18.515  68.449  1.00  0.00    -0.302 NA 
BRANCH  17  23
HETATM   23  C   UNL     1      -5.633  16.239  70.023  1.00  0.00    -0.183 C  
BRANCH  23  24
HETATM   24  C   UNL     1      -5.504  14.744  69.722  1.00  0.00    -0.096 C  
HETATM   25  C   UNL     1      -5.140  13.905  70.940  1.00  0.00    -0.116 C  
ENDBRANCH  23  24
ENDBRANCH  17  23
ENDBRANCH   6  11
BRANCH   9  26
HETATM   26  S   UNL     1      -9.209   9.974  66.341  1.00  0.00    -0.161 S  
HETATM   27  O   UNL     1      -7.802  10.301  66.333  1.00  0.00    -0.111 OA 
HETATM   28  O   UNL     1      -9.965   9.737  65.133  1.00  0.00    -0.309 OA 
BRANCH  26  29
HETATM   29  N   UNL     1      -9.379   8.615  67.367  1.00  0.00    -0.141 N  
HETATM   30  H   UNL     1      -9.127   8.655  68.354  1.00  0.00     0.000 HD 
BRANCH  29  31
HETATM   31  C   UNL     1      -9.911   7.383  66.750  1.00  0.00    -0.220 C  
BRANCH  31  32
HETATM   32  C   UNL     1     -11.031   6.763  67.579  1.00  0.00    -0.375 C  
BRANCH  32  33
HETATM   33  C   UNL     1     -10.443   5.791  68.619  1.00  0.00    -0.229 C  
HETATM   34  C   UNL     1      -9.255   4.995  68.084  1.00  0.00    -0.143 C  
HETATM   35  C   UNL     1      -8.529   4.586  69.343  1.00  0.00    -0.093 C  
HETATM   36  C   UNL     1     -10.889   6.650  70.858  1.00  0.00    -0.252 C  
HETATM   37  N   UNL     1      -9.904   6.502  69.791  1.00  0.00    -0.164 NA 
HETATM   38  C   UNL     1      -8.704   5.786  70.257  1.00  0.00    -0.137 C  
ENDBRANCH  32  33
ENDBRANCH  31  32
ENDBRANCH  29  31
ENDBRANCH  26  29
ENDBRANCH   9  26
ENDBRANCH   4   5
ENDBRANCH   3   4
ENDBRANCH   2   3
TORSDOF 11
ENDMDL
MODEL      127
REMARK 921   NORMALIZED FREE ENERGY PREDICTED BY IDOCK:   -5.03 KCAL/MOL
REMARK 922        TOTAL FREE ENERGY PREDICTED BY IDOCK:  -10.50 KCAL/MOL
REMARK 923 INTER-LIGAND FREE ENERGY PREDICTED BY IDOCK:   -8.67 KCAL/MOL
REMARK 924 INTRA-LIGAND FREE ENERGY PREDICTED BY IDOCK:   -1.82 KCAL/MOL
REMARK 927      BINDING AFFINITY PREDICTED BY RF-SCORE:    0.00 PKD
ROOT
HETATM    1  C   UNL     1      -9.101   5.876  74.248  1.00  0.00    -0.126 C  
HETATM    2  C   UNL     1     -10.390   6.652  74.048  1.00  0.00    -0.377 C  
ENDROOT
BRANCH   2   3
HETATM    3  C   UNL     1     -10.214   7.841  73.119  1.00  0.00    -0.335 C  
BRANCH   3   4
HETATM    4  O   UNL     1     -11.211   7.875  72.081  1.00  0.00    -0.266 OA 
BRANCH   4   5
HETATM    5  C   UNL     1     -10.758   7.477  70.836  1.00  0.00    -0.235 A  
HETATM    6  C   UNL     1     -10.817   8.373  69.741  1.00  0.00    -0.184 A  
HETATM    7  C   UNL     1     -10.416   7.928  68.458  1.00  0.00    -0.202 A  
HETATM    8  C   UNL     1     -10.274   6.179  70.621  1.00  0.00    -0.250 A  
HETATM    9  C   UNL     1      -9.985   6.607  68.275  1.00  0.00    -0.144 A  
HETATM   10  C   UNL     1      -9.933   5.739  69.354  1.00  0.00    -0.244 A  
BRANCH   6  11
HETATM   11  C   UNL     1     -11.322   9.799  69.878  1.00  0.00    -0.192 C  
HETATM   12  C   UNL     1     -12.461  11.380  71.186  1.00  0.00    -0.360 C  
HETATM   13  N   UNL     1     -11.984  10.097  70.967  1.00  0.00    -0.348 N  
HETATM   14  H   UNL     1     -12.152   9.373  71.666  1.00  0.00     0.000 HD 
HETATM   15  N   UNL     1     -11.060  10.680  68.840  1.00  0.00    -0.242 NA 
HETATM   16  N   UNL     1     -11.931  14.151  68.853  1.00  0.00    -0.347 NA 
HETATM   17  C   UNL     1     -11.362  13.109  68.225  1.00  0.00    -0.297 A  
HETATM   18  C   UNL     1     -12.142  12.296  70.138  1.00  0.00    -0.287 A  
HETATM   19  O   UNL     1     -13.101  11.698  72.183  1.00  0.00    -0.457 OA 
HETATM   20  C   UNL     1     -13.045  14.497  70.969  1.00  0.00    -0.366 C  
HETATM   21  C   UNL     1     -11.470  11.945  69.005  1.00  0.00    -0.297 A  
HETATM   22  N   UNL     1     -12.391  13.629  70.019  1.00  0.00    -0.309 NA 
BRANCH  17  23
HETATM   23  C   UNL     1     -10.736  13.303  66.885  1.00  0.00    -0.274 C  
BRANCH  23  24
HETATM   24  C   UNL     1     -11.377  12.475  65.768  1.00  0.00    -0.373 C  
HETATM   25  C   UNL     1     -10.846  12.808  64.379  1.00  0.00    -0.395 C  
ENDBRANCH  23  24
ENDBRANCH  17  23
ENDBRANCH   6  11
BRANCH   9  26
HETATM   26  S   UNL     1      -9.574   5.969  66.665  1.00  0.00    -0.155 S  
HETATM   27  O   UNL     1     -10.744   5.289  66.162  1.00  0.00    -0.266 OA 
HETATM   28  O   UNL     1      -8.285   5.328  66.782  1.00  0.00    -0.108 OA 
BRANCH  26  29
HETATM   29  N   UNL     1      -9.396   7.381  65.716  1.00  0.00    -0.389 N  
HETATM   30  H   UNL     1      -9.949   7.532  64.872  1.00  0.00     0.000 HD 
BRANCH  29  31
HETATM   31  C   UNL     1      -8.404   8.372  66.181  1.00  0.00    -0.125 C  
BRANCH  31  32
HETATM   32  C   UNL     1      -8.689   9.769  65.641  1.00  0.00    -0.168 C  
BRANCH  32  33
HETATM   33  C   UNL     1      -7.570  10.738  66.065  1.00  0.00    -0.130 C  
HETATM   34  C   UNL     1      -7.716  11.220  67.507  1.00  0.00    -0.122 C  
HETATM   35  C   UNL     1      -6.311  11.643  67.865  1.00  0.00    -0.054 C  
HETATM   36  C   UNL     1      -5.568  10.273  64.751  1.00  0.00    -0.129 C  
HETATM   37  N   UNL     1      -6.245  10.095  66.032  1.00  0.00    -0.078 NA 
HETATM   38  C   UNL     1      -5.443  10.625  67.147  1.00  0.00    -0.042 C  
ENDBRANCH  32  33
ENDBRANCH  31  32
ENDBRANCH  29  31
ENDBRANCH  26  29
ENDBRANCH   9  26
ENDBRANCH   4   5
ENDBRANCH   3   4
ENDBRANCH   2   3
TORSDOF 11
ENDMDL
MODEL      128
REMARK 921   NORMALIZED FREE ENERGY PREDICTED BY IDOCK:   -5.01 KCAL/MOL
REMARK 922        TOTAL FREE ENERGY PREDICTED BY IDOCK:  -10.47 KCAL/MOL
REMARK 923 INTER-LIGAND FREE ENERGY PREDICTED BY IDOCK:   -8.67 KCAL/MOL
REMARK 924 INTRA-LIGAND FREE ENERGY PREDICTED BY IDOCK:   -1.80 KCAL/MOL
REMARK 927      BINDING AFFINITY PREDICTED BY RF-SCORE:    0.00 PKD
ROOT
HETATM    1  C   UNL     1     -11.284   4.894  73.364  1.00  0.00    -0.415 C  
HETATM    2  C   UNL     1     -10.346   6.068  73.572  1.00  0.00    -0.255 C  
ENDROOT
BRANCH   2   3
HETATM    3  C   UNL     1     -10.971   7.391  73.162  1.00  0.00    -0.359 C  
BRANCH   3   4
HETATM    4  O   UNL     1     -11.673   7.297  71.908  1.00  0.00    -0.270 OA 
BRANCH   4   5
HETATM    5  C   UNL     1     -11.683   8.464  71.166  1.00  0.00    -0.280 A  
HETATM    6  C   UNL     1     -11.034   8.510  69.908  1.00  0.00    -0.165 A  
HETATM    7  C   UNL     1     -10.993   9.731  69.193  1.00  0.00    -0.205 A  
HETATM    8  C   UNL     1     -12.294   9.628  71.653  1.00  0.00    -0.489 A  
HETATM    9  C   UNL     1     -11.573  10.886  69.737  1.00  0.00    -0.322 A  
HETATM   10  C   UNL     1     -12.204  10.828  70.969  1.00  0.00    -0.485 A  
BRANCH   6  11
HETATM   11  C   UNL     1     -10.349   7.300  69.298  1.00  0.00    -0.205 C  
HETATM   12  C   UNL     1      -9.757   5.039  69.515  1.00  0.00    -0.189 C  
HETATM   13  N   UNL     1     -10.340   6.198  70.004  1.00  0.00    -0.193 N  
HETATM   14  H   UNL     1     -10.768   6.192  70.930  1.00  0.00     0.000 HD 
HETATM   15  N   UNL     1      -9.771   7.447  68.045  1.00  0.00    -0.141 NA 
HETATM   16  N   UNL     1      -8.214   4.804  66.203  1.00  0.00    -0.107 NA 
HETATM   17  C   UNL     1      -8.587   6.093  66.277  1.00  0.00    -0.136 A  
HETATM   18  C   UNL     1      -9.211   5.183  68.203  1.00  0.00    -0.116 A  
HETATM   19  O   UNL     1      -9.711   3.991  70.150  1.00  0.00    -0.196 OA 
HETATM   20  C   UNL     1      -8.393   2.867  67.637  1.00  0.00    -0.082 C  
HETATM   21  C   UNL     1      -9.217   6.353  67.506  1.00  0.00    -0.112 A  
HETATM   22  N   UNL     1      -8.614   4.271  67.387  1.00  0.00    -0.103 NA 
BRANCH  17  23
HETATM   23  C   UNL     1      -8.306   7.011  65.135  1.00  0.00    -0.078 C  
BRANCH  23  24
HETATM   24  C   UNL     1      -7.929   6.297  63.835  1.00  0.00    -0.095 C  
HETATM   25  C   UNL     1      -7.319   7.219  62.787  1.00  0.00    -0.090 C  
ENDBRANCH  23  24
ENDBRANCH  17  23
ENDBRANCH   6  11
BRANCH   9  26
HETATM   26  S   UNL     1     -11.454  12.466  68.928  1.00  0.00    -0.329 S  
HETATM   27  O   UNL     1     -12.020  13.448  69.822  1.00  0.00    -0.309 OA 
HETATM   28  O   UNL     1     -11.916  12.281  67.572  1.00  0.00    -0.513 OA 
BRANCH  26  29
HETATM   29  N   UNL     1      -9.770  12.765  68.894  1.00  0.00    -0.405 N  
HETATM   30  H   UNL     1      -9.258  13.040  69.732  1.00  0.00     0.000 HD 
BRANCH  29  31
HETATM   31  C   UNL     1      -9.095  12.603  67.590  1.00  0.00    -0.192 C  
BRANCH  31  32
HETATM   32  C   UNL     1      -8.028  13.668  67.359  1.00  0.00    -0.177 C  
BRANCH  32  33
HETATM   33  C   UNL     1      -8.689  15.000  66.956  1.00  0.00    -0.237 C  
HETATM   34  C   UNL     1      -9.797  14.823  65.920  1.00  0.00    -0.363 C  
HETATM   35  C   UNL     1     -10.633  16.067  66.105  1.00  0.00    -0.302 C  
HETATM   36  C   UNL     1      -8.489  16.582  68.801  1.00  0.00    -0.248 C  
HETATM   37  N   UNL     1      -9.360  15.646  68.096  1.00  0.00    -0.193 NA 
HETATM   38  C   UNL     1     -10.581  16.307  67.604  1.00  0.00    -0.311 C  
ENDBRANCH  32  33
ENDBRANCH  31  32
ENDBRANCH  29  31
ENDBRANCH  26  29
ENDBRANCH   9  26
ENDBRANCH   4   5
ENDBRANCH   3   4
ENDBRANCH   2   3
TORSDOF 11
ENDMDL
MODEL      129
REMARK 921   NORMALIZED FREE ENERGY PREDICTED BY IDOCK:   -5.01 KCAL/MOL
REMARK 922        TOTAL FREE ENERGY PREDICTED BY IDOCK:  -10.47 KCAL/MOL
REMARK 923 INTER-LIGAND FREE ENERGY PREDICTED BY IDOCK:   -8.72 KCAL/MOL
REMARK 924 INTRA-LIGAND FREE ENERGY PREDICTED BY IDOCK:   -1.75 KCAL/MOL
REMARK 927      BINDING AFFINITY PREDICTED BY RF-SCORE:    0.00 PKD
ROOT
HETATM    1  C   UNL     1     -13.234  15.082  71.518  1.00  0.00    -0.484 C  
HETATM    2  C   UNL     1     -12.351  15.691  70.445  1.00  0.00    -0.427 C  
ENDROOT
BRANCH   2   3
HETATM    3  C   UNL     1     -12.069  14.724  69.307  1.00  0.00    -0.261 C  
BRANCH   3   4
HETATM    4  O   UNL     1     -11.182  13.661  69.702  1.00  0.00    -0.193 OA 
BRANCH   4   5
HETATM    5  C   UNL     1     -10.749  12.857  68.663  1.00  0.00    -0.247 A  
HETATM    6  C   UNL     1      -9.555  13.176  67.972  1.00  0.00    -0.220 A  
HETATM    7  C   UNL     1      -9.161  12.384  66.866  1.00  0.00    -0.209 A  
HETATM    8  C   UNL     1     -11.493  11.744  68.248  1.00  0.00    -0.370 A  
HETATM    9  C   UNL     1      -9.959  11.310  66.450  1.00  0.00    -0.215 A  
HETATM   10  C   UNL     1     -11.126  11.009  67.135  1.00  0.00    -0.333 A  
BRANCH   6  11
HETATM   11  C   UNL     1      -8.681  14.358  68.352  1.00  0.00    -0.180 C  
HETATM   12  C   UNL     1      -6.979  15.201  69.732  1.00  0.00    -0.174 C  
HETATM   13  N   UNL     1      -7.832  14.183  69.333  1.00  0.00    -0.346 N  
HETATM   14  H   UNL     1      -7.798  13.284  69.813  1.00  0.00     0.000 HD 
HETATM   15  N   UNL     1      -8.849  15.541  67.647  1.00  0.00    -0.177 NA 
HETATM   16  N   UNL     1      -6.878  18.489  68.124  1.00  0.00    -0.225 NA 
HETATM   17  C   UNL     1      -7.867  17.858  67.469  1.00  0.00    -0.212 A  
HETATM   18  C   UNL     1      -7.120  16.399  68.966  1.00  0.00    -0.208 A  
HETATM   19  O   UNL     1      -6.182  15.086  70.657  1.00  0.00    -0.100 OA 
HETATM   20  C   UNL     1      -5.335  17.917  69.893  1.00  0.00    -0.223 C  
HETATM   21  C   UNL     1      -8.032  16.553  67.965  1.00  0.00    -0.158 A  
HETATM   22  N   UNL     1      -6.436  17.574  69.025  1.00  0.00    -0.217 NA 
BRANCH  17  23
HETATM   23  C   UNL     1      -8.605  18.565  66.383  1.00  0.00    -0.272 C  
BRANCH  23  24
HETATM   24  C   UNL     1      -9.455  19.742  66.867  1.00  0.00    -0.481 C  
HETATM   25  C   UNL     1     -10.585  19.334  67.805  1.00  0.00    -0.516 C  
ENDBRANCH  23  24
ENDBRANCH  17  23
ENDBRANCH   6  11
BRANCH   9  26
HETATM   26  S   UNL     1      -9.565  10.353  65.002  1.00  0.00    -0.307 S  
HETATM   27  O   UNL     1      -8.135  10.430  64.815  1.00  0.00    -0.160 OA 
HETATM   28  O   UNL     1     -10.511  10.730  63.978  1.00  0.00    -0.358 OA 
BRANCH  26  29
HETATM   29  N   UNL     1      -9.899   8.747  65.489  1.00  0.00    -0.375 N  
HETATM   30  H   UNL     1     -10.835   8.350  65.416  1.00  0.00     0.000 HD 
BRANCH  29  31
HETATM   31  C   UNL     1      -8.763   7.966  66.019  1.00  0.00    -0.158 C  
BRANCH  31  32
HETATM   32  C   UNL     1      -9.214   6.659  66.661  1.00  0.00    -0.179 C  
BRANCH  32  33
HETATM   33  C   UNL     1      -8.888   6.669  68.167  1.00  0.00    -0.119 C  
HETATM   34  C   UNL     1      -7.490   6.137  68.476  1.00  0.00    -0.087 C  
HETATM   35  C   UNL     1      -7.188   6.748  69.824  1.00  0.00    -0.077 C  
HETATM   36  C   UNL     1     -10.186   8.425  69.254  1.00  0.00    -0.208 C  
HETATM   37  N   UNL     1      -8.885   8.035  68.718  1.00  0.00    -0.138 NA 
HETATM   38  C   UNL     1      -7.829   8.121  69.741  1.00  0.00    -0.105 C  
ENDBRANCH  32  33
ENDBRANCH  31  32
ENDBRANCH  29  31
ENDBRANCH  26  29
ENDBRANCH   9  26
ENDBRANCH   4   5
ENDBRANCH   3   4
ENDBRANCH   2   3
TORSDOF 11
ENDMDL
MODEL      130
REMARK 921   NORMALIZED FREE ENERGY PREDICTED BY IDOCK:   -5.00 KCAL/MOL
REMARK 922        TOTAL FREE ENERGY PREDICTED BY IDOCK:  -10.44 KCAL/MOL
REMARK 923 INTER-LIGAND FREE ENERGY PREDICTED BY IDOCK:   -7.97 KCAL/MOL
REMARK 924 INTRA-LIGAND FREE ENERGY PREDICTED BY IDOCK:   -2.47 KCAL/MOL
REMARK 927      BINDING AFFINITY PREDICTED BY RF-SCORE:    0.00 PKD
ROOT
HETATM    1  C   UNL     1      -5.928  13.906  69.970  1.00  0.00    -0.143 C  
HETATM    2  C   UNL     1      -5.356  12.871  70.920  1.00  0.00    -0.176 C  
ENDROOT
BRANCH   2   3
HETATM    3  C   UNL     1      -5.656  11.448  70.477  1.00  0.00    -0.145 C  
BRANCH   3   4
HETATM    4  O   UNL     1      -7.038  11.269  70.116  1.00  0.00    -0.021 OA 
BRANCH   4   5
HETATM    5  C   UNL     1      -7.323  10.057  69.514  1.00  0.00    -0.112 A  
HETATM    6  C   UNL     1      -8.217  10.004  68.416  1.00  0.00    -0.106 A  
HETATM    7  C   UNL     1      -8.552   8.748  67.855  1.00  0.00    -0.130 A  
HETATM    8  C   UNL     1      -6.772   8.861  69.994  1.00  0.00    -0.043 A  
HETATM    9  C   UNL     1      -8.019   7.570  68.397  1.00  0.00    -0.123 A  
HETATM   10  C   UNL     1      -7.146   7.636  69.471  1.00  0.00    -0.064 A  
BRANCH   6  11
HETATM   11  C   UNL     1      -8.859  11.246  67.825  1.00  0.00    -0.141 C  
HETATM   12  C   UNL     1      -9.374  13.523  68.078  1.00  0.00    -0.213 C  
HETATM   13  N   UNL     1      -8.832  12.337  68.549  1.00  0.00    -0.343 N  
HETATM   14  H   UNL     1      -8.405  12.313  69.475  1.00  0.00     0.000 HD 
HETATM   15  N   UNL     1      -9.440  11.140  66.569  1.00  0.00    -0.188 NA 
HETATM   16  N   UNL     1     -10.902  13.864  64.769  1.00  0.00    -0.399 NA 
HETATM   17  C   UNL     1     -10.574  12.562  64.822  1.00  0.00    -0.305 A  
HETATM   18  C   UNL     1      -9.922  13.419  66.763  1.00  0.00    -0.264 A  
HETATM   19  O   UNL     1      -9.385  14.562  68.730  1.00  0.00    -0.204 OA 
HETATM   20  C   UNL     1     -10.660  15.770  66.234  1.00  0.00    -0.310 C  
HETATM   21  C   UNL     1      -9.955  12.260  66.047  1.00  0.00    -0.252 A  
HETATM   22  N   UNL     1     -10.486  14.363  65.961  1.00  0.00    -0.291 NA 
BRANCH  17  23
HETATM   23  C   UNL     1     -10.883  11.672  63.665  1.00  0.00    -0.503 C  
BRANCH  23  24
HETATM   24  C   UNL     1      -9.658  11.265  62.843  1.00  0.00    -0.377 C  
HETATM   25  C   UNL     1      -9.141   9.869  63.168  1.00  0.00    -0.290 C  
ENDBRANCH  23  24
ENDBRANCH  17  23
ENDBRANCH   6  11
BRANCH   9  26
HETATM   26  S   UNL     1      -8.494   5.964  67.798  1.00  0.00    -0.106 S  
HETATM   27  O   UNL     1      -7.396   5.065  68.066  1.00  0.00    -0.072 OA 
HETATM   28  O   UNL     1      -9.048   6.153  66.477  1.00  0.00    -0.139 OA 
BRANCH  26  29
HETATM   29  N   UNL     1      -9.757   5.506  68.857  1.00  0.00    -0.135 N  
HETATM   30  H   UNL     1      -9.612   4.821  69.599  1.00  0.00     0.000 HD 
BRANCH  29  31
HETATM   31  C   UNL     1     -11.067   6.154  68.644  1.00  0.00    -0.294 C  
BRANCH  31  32
HETATM   32  C   UNL     1     -11.724   6.568  69.957  1.00  0.00    -0.388 C  
BRANCH  32  33
HETATM   33  C   UNL     1     -10.645   6.881  71.011  1.00  0.00    -0.220 C  
HETATM   34  C   UNL     1     -10.398   8.379  71.181  1.00  0.00    -0.264 C  
HETATM   35  C   UNL     1      -9.795   8.465  72.563  1.00  0.00    -0.359 C  
HETATM   36  C   UNL     1     -10.577   5.073  72.647  1.00  0.00    -0.220 C  
HETATM   37  N   UNL     1     -11.042   6.425  72.355  1.00  0.00    -0.255 NA 
HETATM   38  C   UNL     1     -10.542   7.397  73.342  1.00  0.00    -0.377 C  
ENDBRANCH  32  33
ENDBRANCH  31  32
ENDBRANCH  29  31
ENDBRANCH  26  29
ENDBRANCH   9  26
ENDBRANCH   4   5
ENDBRANCH   3   4
ENDBRANCH   2   3
TORSDOF 11
ENDMDL
MODEL      131
REMARK 921   NORMALIZED FREE ENERGY PREDICTED BY IDOCK:   -4.99 KCAL/MOL
REMARK 922        TOTAL FREE ENERGY PREDICTED BY IDOCK:  -10.43 KCAL/MOL
REMARK 923 INTER-LIGAND FREE ENERGY PREDICTED BY IDOCK:   -9.10 KCAL/MOL
REMARK 924 INTRA-LIGAND FREE ENERGY PREDICTED BY IDOCK:   -1.33 KCAL/MOL
REMARK 927      BINDING AFFINITY PREDICTED BY RF-SCORE:    0.00 PKD
ROOT
HETATM    1  C   UNL     1     -10.735  16.386  64.751  1.00  0.00    -0.100 C  
HETATM    2  C   UNL     1     -11.337  15.134  65.361  1.00  0.00    -0.298 C  
ENDROOT
BRANCH   2   3
HETATM    3  C   UNL     1     -11.989  14.238  64.322  1.00  0.00    -0.425 C  
BRANCH   3   4
HETATM    4  O   UNL     1     -12.428  12.985  64.880  1.00  0.00    -0.447 OA 
BRANCH   4   5
HETATM    5  C   UNL     1     -11.472  11.986  64.871  1.00  0.00    -0.294 A  
HETATM    6  C   UNL     1     -10.969  11.475  66.093  1.00  0.00    -0.320 A  
HETATM    7  C   UNL     1      -9.941  10.502  66.067  1.00  0.00    -0.295 A  
HETATM    8  C   UNL     1     -10.954  11.487  63.668  1.00  0.00    -0.482 A  
HETATM    9  C   UNL     1      -9.414  10.067  64.844  1.00  0.00    -0.293 A  
HETATM   10  C   UNL     1      -9.914  10.574  63.655  1.00  0.00    -0.299 A  
BRANCH   6  11
HETATM   11  C   UNL     1     -11.471  11.950  67.445  1.00  0.00    -0.323 C  
HETATM   12  C   UNL     1     -12.417  11.382  69.517  1.00  0.00    -0.035 C  
HETATM   13  N   UNL     1     -11.958  11.042  68.254  1.00  0.00    -0.322 N  
HETATM   14  H   UNL     1     -12.000  10.070  67.950  1.00  0.00     0.000 HD 
HETATM   15  N   UNL     1     -11.393  13.306  67.725  1.00  0.00    -0.279 NA 
HETATM   16  N   UNL     1     -12.313  14.791  70.848  1.00  0.00    -0.295 NA 
HETATM   17  C   UNL     1     -11.832  14.935  69.601  1.00  0.00    -0.318 A  
HETATM   18  C   UNL     1     -12.284  12.772  69.820  1.00  0.00    -0.147 A  
HETATM   19  O   UNL     1     -12.896  10.568  70.299  1.00  0.00    -0.295 OA 
HETATM   20  C   UNL     1     -13.084  12.946  72.204  1.00  0.00    -0.361 C  
HETATM   21  C   UNL     1     -11.795  13.693  68.943  1.00  0.00    -0.364 A  
HETATM   22  N   UNL     1     -12.573  13.463  70.957  1.00  0.00    -0.361 NA 
BRANCH  17  23
HETATM   23  C   UNL     1     -11.430  16.286  69.113  1.00  0.00    -0.257 C  
BRANCH  23  24
HETATM   24  C   UNL     1      -9.997  16.358  68.581  1.00  0.00    -0.235 C  
HETATM   25  C   UNL     1      -9.604  17.739  68.070  1.00  0.00    -0.291 C  
ENDBRANCH  23  24
ENDBRANCH  17  23
ENDBRANCH   6  11
BRANCH   9  26
HETATM   26  S   UNL     1      -8.049   8.928  64.762  1.00  0.00    -0.152 S  
HETATM   27  O   UNL     1      -6.976   9.489  65.547  1.00  0.00    -0.084 OA 
HETATM   28  O   UNL     1      -7.894   8.556  63.374  1.00  0.00    -0.135 OA 
BRANCH  26  29
HETATM   29  N   UNL     1      -8.618   7.569  65.630  1.00  0.00    -0.227 N  
HETATM   30  H   UNL     1      -8.975   6.740  65.154  1.00  0.00     0.000 HD 
BRANCH  29  31
HETATM   31  C   UNL     1      -8.566   7.655  67.104  1.00  0.00    -0.121 C  
BRANCH  31  32
HETATM   32  C   UNL     1      -9.321   6.512  67.774  1.00  0.00    -0.118 C  
BRANCH  32  33
HETATM   33  C   UNL     1      -9.296   6.688  69.304  1.00  0.00    -0.142 C  
HETATM   34  C   UNL     1     -10.052   7.930  69.772  1.00  0.00    -0.199 C  
HETATM   35  C   UNL     1     -10.379   7.603  71.210  1.00  0.00    -0.215 C  
HETATM   36  C   UNL     1      -9.046   4.501  70.356  1.00  0.00    -0.111 C  
HETATM   37  N   UNL     1      -9.968   5.574  69.995  1.00  0.00    -0.199 NA 
HETATM   38  C   UNL     1     -10.663   6.112  71.177  1.00  0.00    -0.256 C  
ENDBRANCH  32  33
ENDBRANCH  31  32
ENDBRANCH  29  31
ENDBRANCH  26  29
ENDBRANCH   9  26
ENDBRANCH   4   5
ENDBRANCH   3   4
ENDBRANCH   2   3
TORSDOF 11
ENDMDL
MODEL      132
REMARK 921   NORMALIZED FREE ENERGY PREDICTED BY IDOCK:   -4.97 KCAL/MOL
REMARK 922        TOTAL FREE ENERGY PREDICTED BY IDOCK:  -10.40 KCAL/MOL
REMARK 923 INTER-LIGAND FREE ENERGY PREDICTED BY IDOCK:   -8.65 KCAL/MOL
REMARK 924 INTRA-LIGAND FREE ENERGY PREDICTED BY IDOCK:   -1.74 KCAL/MOL
REMARK 927      BINDING AFFINITY PREDICTED BY RF-SCORE:    0.00 PKD
ROOT
HETATM    1  C   UNL     1     -12.243  14.862  72.195  1.00  0.00    -0.428 C  
HETATM    2  C   UNL     1     -13.432  14.063  71.694  1.00  0.00    -0.438 C  
ENDROOT
BRANCH   2   3
HETATM    3  C   UNL     1     -13.034  12.690  71.181  1.00  0.00    -0.151 C  
BRANCH   3   4
HETATM    4  O   UNL     1     -11.911  12.749  70.281  1.00  0.00    -0.343 OA 
BRANCH   4   5
HETATM    5  C   UNL     1     -11.445  11.516  69.862  1.00  0.00    -0.260 A  
HETATM    6  C   UNL     1     -11.008  11.340  68.526  1.00  0.00    -0.266 A  
HETATM    7  C   UNL     1     -10.600  10.055  68.094  1.00  0.00    -0.268 A  
HETATM    8  C   UNL     1     -11.430  10.413  70.728  1.00  0.00    -0.422 A  
HETATM    9  C   UNL     1     -10.648   8.967  68.976  1.00  0.00    -0.183 A  
HETATM   10  C   UNL     1     -11.078   9.152  70.280  1.00  0.00    -0.272 A  
BRANCH   6  11
HETATM   11  C   UNL     1     -10.983  12.475  67.518  1.00  0.00    -0.251 C  
HETATM   12  C   UNL     1     -12.106  13.637  65.815  1.00  0.00    -0.428 C  
HETATM   13  N   UNL     1     -12.033  12.614  66.748  1.00  0.00    -0.359 N  
HETATM   14  H   UNL     1     -12.809  11.958  66.835  1.00  0.00     0.000 HD 
HETATM   15  N   UNL     1      -9.852  13.276  67.473  1.00  0.00    -0.216 NA 
HETATM   16  N   UNL     1      -9.474  16.141  65.363  1.00  0.00    -0.339 NA 
HETATM   17  C   UNL     1      -8.966  15.331  66.307  1.00  0.00    -0.279 A  
HETATM   18  C   UNL     1     -10.960  14.490  65.811  1.00  0.00    -0.319 A  
HETATM   19  O   UNL     1     -13.062  13.793  65.062  1.00  0.00    -0.751 OA 
HETATM   20  C   UNL     1     -11.538  16.261  64.113  1.00  0.00     0.200 C  
HETATM   21  C   UNL     1      -9.874  14.301  66.611  1.00  0.00    -0.281 A  
HETATM   22  N   UNL     1     -10.692  15.610  65.084  1.00  0.00    -0.424 NA 
BRANCH  17  23
HETATM   23  C   UNL     1      -7.612  15.605  66.869  1.00  0.00    -0.201 C  
BRANCH  23  24
HETATM   24  C   UNL     1      -7.380  17.066  67.261  1.00  0.00    -0.190 C  
HETATM   25  C   UNL     1      -8.370  17.585  68.297  1.00  0.00    -0.265 C  
ENDBRANCH  23  24
ENDBRANCH  17  23
ENDBRANCH   6  11
BRANCH   9  26
HETATM   26  S   UNL     1     -10.249   7.314  68.450  1.00  0.00    -0.185 S  
HETATM   27  O   UNL     1     -10.302   7.300  67.007  1.00  0.00    -0.251 OA 
HETATM   28  O   UNL     1     -11.021   6.413  69.272  1.00  0.00    -0.287 OA 
BRANCH  26  29
HETATM   29  N   UNL     1      -8.598   7.156  68.870  1.00  0.00    -0.129 N  
HETATM   30  H   UNL     1      -8.065   6.318  68.639  1.00  0.00     0.000 HD 
BRANCH  29  31
HETATM   31  C   UNL     1      -7.984   8.294  69.583  1.00  0.00    -0.111 C  
BRANCH  31  32
HETATM   32  C   UNL     1      -6.466   8.314  69.435  1.00  0.00    -0.038 C  
BRANCH  32  33
HETATM   33  C   UNL     1      -6.022   9.600  68.713  1.00  0.00    -0.042 C  
HETATM   34  C   UNL     1      -6.443   9.634  67.246  1.00  0.00    -0.069 C  
HETATM   35  C   UNL     1      -6.432  11.109  66.926  1.00  0.00    -0.117 C  
HETATM   36  C   UNL     1      -5.830  11.406  70.342  1.00  0.00    -0.153 C  
HETATM   37  N   UNL     1      -6.648  10.800  69.296  1.00  0.00    -0.064 NA 
HETATM   38  C   UNL     1      -6.929  11.752  68.208  1.00  0.00    -0.075 C  
ENDBRANCH  32  33
ENDBRANCH  31  32
ENDBRANCH  29  31
ENDBRANCH  26  29
ENDBRANCH   9  26
ENDBRANCH   4   5
ENDBRANCH   3   4
ENDBRANCH   2   3
TORSDOF 11
ENDMDL
MODEL      133
REMARK 921   NORMALIZED FREE ENERGY PREDICTED BY IDOCK:   -4.97 KCAL/MOL
REMARK 922        TOTAL FREE ENERGY PREDICTED BY IDOCK:  -10.39 KCAL/MOL
REMARK 923 INTER-LIGAND FREE ENERGY PREDICTED BY IDOCK:   -8.68 KCAL/MOL
REMARK 924 INTRA-LIGAND FREE ENERGY PREDICTED BY IDOCK:   -1.71 KCAL/MOL
REMARK 927      BINDING AFFINITY PREDICTED BY RF-SCORE:    0.00 PKD
ROOT
HETATM    1  C   UNL     1      -6.598   9.238  64.530  1.00  0.00    -0.081 C  
HETATM    2  C   UNL     1      -6.135  10.123  65.672  1.00  0.00    -0.095 C  
ENDROOT
BRANCH   2   3
HETATM    3  C   UNL     1      -6.344   9.476  67.031  1.00  0.00    -0.066 C  
BRANCH   3   4
HETATM    4  O   UNL     1      -6.964  10.372  67.972  1.00  0.00    -0.076 OA 
BRANCH   4   5
HETATM    5  C   UNL     1      -7.968   9.802  68.733  1.00  0.00    -0.087 A  
HETATM    6  C   UNL     1      -9.288  10.311  68.661  1.00  0.00    -0.162 A  
HETATM    7  C   UNL     1     -10.290   9.762  69.498  1.00  0.00    -0.247 A  
HETATM    8  C   UNL     1      -7.700   8.745  69.615  1.00  0.00    -0.088 A  
HETATM    9  C   UNL     1      -9.970   8.741  70.402  1.00  0.00    -0.189 A  
HETATM   10  C   UNL     1      -8.675   8.252  70.464  1.00  0.00    -0.140 A  
BRANCH   6  11
HETATM   11  C   UNL     1      -9.675  11.449  67.733  1.00  0.00    -0.175 C  
HETATM   12  C   UNL     1     -11.176  12.272  66.127  1.00  0.00    -0.328 C  
HETATM   13  N   UNL     1     -10.736  11.277  66.986  1.00  0.00    -0.247 N  
HETATM   14  H   UNL     1     -11.247  10.396  67.037  1.00  0.00     0.000 HD 
HETATM   15  N   UNL     1      -8.875  12.582  67.730  1.00  0.00    -0.168 NA 
HETATM   16  N   UNL     1      -9.540  15.533  65.819  1.00  0.00    -0.344 NA 
HETATM   17  C   UNL     1      -8.761  14.882  66.699  1.00  0.00    -0.227 A  
HETATM   18  C   UNL     1     -10.379  13.457  66.169  1.00  0.00    -0.295 A  
HETATM   19  O   UNL     1     -12.154  12.146  65.398  1.00  0.00    -0.477 OA 
HETATM   20  C   UNL     1     -11.568  15.035  64.604  1.00  0.00    -0.386 C  
HETATM   21  C   UNL     1      -9.265  13.592  66.942  1.00  0.00    -0.250 A  
HETATM   22  N   UNL     1     -10.522  14.644  65.518  1.00  0.00    -0.331 NA 
BRANCH  17  23
HETATM   23  C   UNL     1      -7.556  15.556  67.263  1.00  0.00    -0.252 C  
BRANCH  23  24
HETATM   24  C   UNL     1      -7.874  16.703  68.226  1.00  0.00    -0.182 C  
HETATM   25  C   UNL     1      -8.999  16.387  69.203  1.00  0.00    -0.197 C  
ENDBRANCH  23  24
ENDBRANCH  17  23
ENDBRANCH   6  11
BRANCH   9  26
HETATM   26  S   UNL     1     -11.167   8.094  71.549  1.00  0.00    -0.272 S  
HETATM   27  O   UNL     1     -10.435   7.512  72.649  1.00  0.00    -0.223 OA 
HETATM   28  O   UNL     1     -12.137   7.355  70.775  1.00  0.00    -0.280 OA 
BRANCH  26  29
HETATM   29  N   UNL     1     -11.919   9.501  72.167  1.00  0.00    -0.219 N  
HETATM   30  H   UNL     1     -11.546   9.996  72.976  1.00  0.00     0.000 HD 
BRANCH  29  31
HETATM   31  C   UNL     1     -13.136   9.962  71.468  1.00  0.00    -0.418 C  
BRANCH  31  32
HETATM   32  C   UNL     1     -13.654  11.283  72.026  1.00  0.00    -0.134 C  
BRANCH  32  33
HETATM   33  C   UNL     1     -12.700  12.429  71.640  1.00  0.00    -0.194 C  
HETATM   34  C   UNL     1     -12.214  12.338  70.195  1.00  0.00    -0.302 C  
HETATM   35  C   UNL     1     -11.810  13.759  69.885  1.00  0.00    -0.394 C  
HETATM   36  C   UNL     1     -13.194  14.380  73.019  1.00  0.00    -0.446 C  
HETATM   37  N   UNL     1     -13.362  13.743  71.716  1.00  0.00    -0.367 NA 
HETATM   38  C   UNL     1     -12.841  14.589  70.629  1.00  0.00    -0.340 C  
ENDBRANCH  32  33
ENDBRANCH  31  32
ENDBRANCH  29  31
ENDBRANCH  26  29
ENDBRANCH   9  26
ENDBRANCH   4   5
ENDBRANCH   3   4
ENDBRANCH   2   3
TORSDOF 11
ENDMDL
MODEL      134
REMARK 921   NORMALIZED FREE ENERGY PREDICTED BY IDOCK:   -4.96 KCAL/MOL
REMARK 922        TOTAL FREE ENERGY PREDICTED BY IDOCK:  -10.39 KCAL/MOL
REMARK 923 INTER-LIGAND FREE ENERGY PREDICTED BY IDOCK:   -9.12 KCAL/MOL
REMARK 924 INTRA-LIGAND FREE ENERGY PREDICTED BY IDOCK:   -1.26 KCAL/MOL
REMARK 927      BINDING AFFINITY PREDICTED BY RF-SCORE:    0.00 PKD
ROOT
HETATM    1  C   UNL     1      -6.403   8.090  67.927  1.00  0.00    -0.052 C  
HETATM    2  C   UNL     1      -5.762   9.107  68.853  1.00  0.00    -0.040 C  
ENDROOT
BRANCH   2   3
HETATM    3  C   UNL     1      -6.782  10.039  69.486  1.00  0.00    -0.059 C  
BRANCH   3   4
HETATM    4  O   UNL     1      -8.093   9.884  68.912  1.00  0.00    -0.095 OA 
BRANCH   4   5
HETATM    5  C   UNL     1      -8.627  11.043  68.378  1.00  0.00    -0.149 A  
HETATM    6  C   UNL     1      -9.961  11.412  68.679  1.00  0.00    -0.209 A  
HETATM    7  C   UNL     1     -10.517  12.563  68.069  1.00  0.00    -0.227 A  
HETATM    8  C   UNL     1      -7.885  11.849  67.504  1.00  0.00    -0.152 A  
HETATM    9  C   UNL     1      -9.758  13.314  67.162  1.00  0.00    -0.236 A  
HETATM   10  C   UNL     1      -8.454  12.942  66.875  1.00  0.00    -0.093 A  
BRANCH   6  11
HETATM   11  C   UNL     1     -10.841  10.605  69.617  1.00  0.00    -0.268 C  
HETATM   12  C   UNL     1     -12.516  10.615  71.261  1.00  0.00    -0.410 C  
HETATM   13  N   UNL     1     -11.660  11.272  70.390  1.00  0.00    -0.472 N  
HETATM   14  H   UNL     1     -11.668  12.290  70.352  1.00  0.00     0.000 HD 
HETATM   15  N   UNL     1     -10.708   9.224  69.601  1.00  0.00    -0.230 NA 
HETATM   16  N   UNL     1     -12.706   6.969  71.532  1.00  0.00    -0.384 NA 
HETATM   17  C   UNL     1     -11.726   7.158  70.631  1.00  0.00    -0.307 A  
HETATM   18  C   UNL     1     -12.412   9.191  71.201  1.00  0.00    -0.254 A  
HETATM   19  O   UNL     1     -13.286  11.201  72.015  1.00  0.00    -0.493 OA 
HETATM   20  C   UNL     1     -14.192   8.393  72.797  1.00  0.00     0.076 C  
HETATM   21  C   UNL     1     -11.530   8.531  70.400  1.00  0.00    -0.126 A  
HETATM   22  N   UNL     1     -13.111   8.224  71.856  1.00  0.00    -0.338 NA 
BRANCH  17  23
HETATM   23  C   UNL     1     -11.028   5.982  70.038  1.00  0.00    -0.450 C  
BRANCH  23  24
HETATM   24  C   UNL     1     -10.066   5.276  70.996  1.00  0.00    -0.289 C  
HETATM   25  C   UNL     1      -9.644   3.889  70.527  1.00  0.00    -0.263 C  
ENDBRANCH  23  24
ENDBRANCH  17  23
ENDBRANCH   6  11
BRANCH   9  26
HETATM   26  S   UNL     1     -10.446  14.704  66.288  1.00  0.00    -0.310 S  
HETATM   27  O   UNL     1     -11.784  14.906  66.791  1.00  0.00    -0.335 OA 
HETATM   28  O   UNL     1     -10.156  14.506  64.887  1.00  0.00    -0.378 OA 
BRANCH  26  29
HETATM   29  N   UNL     1      -9.517  16.024  66.856  1.00  0.00    -0.220 N  
HETATM   30  H   UNL     1      -8.498  15.985  66.893  1.00  0.00     0.000 HD 
BRANCH  29  31
HETATM   31  C   UNL     1     -10.264  17.222  67.287  1.00  0.00    -0.320 C  
BRANCH  31  32
HETATM   32  C   UNL     1      -9.948  18.439  66.424  1.00  0.00    -0.399 C  
BRANCH  32  33
HETATM   33  C   UNL     1      -8.648  19.108  66.908  1.00  0.00    -0.299 C  
HETATM   34  C   UNL     1      -8.638  19.366  68.413  1.00  0.00    -0.397 C  
HETATM   35  C   UNL     1      -7.164  19.464  68.728  1.00  0.00    -0.390 C  
HETATM   36  C   UNL     1      -6.830  18.510  65.396  1.00  0.00    -0.128 C  
HETATM   37  N   UNL     1      -7.472  18.250  66.681  1.00  0.00    -0.216 NA 
HETATM   38  C   UNL     1      -6.537  18.437  67.802  1.00  0.00    -0.213 C  
ENDBRANCH  32  33
ENDBRANCH  31  32
ENDBRANCH  29  31
ENDBRANCH  26  29
ENDBRANCH   9  26
ENDBRANCH   4   5
ENDBRANCH   3   4
ENDBRANCH   2   3
TORSDOF 11
ENDMDL
MODEL      135
REMARK 921   NORMALIZED FREE ENERGY PREDICTED BY IDOCK:   -4.96 KCAL/MOL
REMARK 922        TOTAL FREE ENERGY PREDICTED BY IDOCK:  -10.38 KCAL/MOL
REMARK 923 INTER-LIGAND FREE ENERGY PREDICTED BY IDOCK:   -9.04 KCAL/MOL
REMARK 924 INTRA-LIGAND FREE ENERGY PREDICTED BY IDOCK:   -1.34 KCAL/MOL
REMARK 927      BINDING AFFINITY PREDICTED BY RF-SCORE:    0.00 PKD
ROOT
HETATM    1  C   UNL     1     -10.004  11.909  63.289  1.00  0.00    -0.409 C  
HETATM    2  C   UNL     1     -11.314  12.045  64.042  1.00  0.00    -0.478 C  
ENDROOT
BRANCH   2   3
HETATM    3  C   UNL     1     -11.107  12.391  65.508  1.00  0.00    -0.300 C  
BRANCH   3   4
HETATM    4  O   UNL     1     -11.804  11.487  66.385  1.00  0.00    -0.397 OA 
BRANCH   4   5
HETATM    5  C   UNL     1     -11.002  10.529  66.979  1.00  0.00    -0.180 A  
HETATM    6  C   UNL     1     -10.764  10.571  68.374  1.00  0.00    -0.262 A  
HETATM    7  C   UNL     1      -9.885   9.626  68.957  1.00  0.00    -0.183 A  
HETATM    8  C   UNL     1     -10.381   9.530  66.218  1.00  0.00    -0.226 A  
HETATM    9  C   UNL     1      -9.243   8.674  68.153  1.00  0.00    -0.137 A  
HETATM   10  C   UNL     1      -9.484   8.644  66.789  1.00  0.00    -0.250 A  
BRANCH   6  11
HETATM   11  C   UNL     1     -11.396  11.613  69.281  1.00  0.00    -0.290 C  
HETATM   12  C   UNL     1     -12.693  12.055  71.187  1.00  0.00    -0.266 C  
HETATM   13  N   UNL     1     -12.099  11.175  70.295  1.00  0.00    -0.347 N  
HETATM   14  H   UNL     1     -12.213  10.171  70.430  1.00  0.00     0.000 HD 
HETATM   15  N   UNL     1     -11.198  12.950  68.967  1.00  0.00    -0.267 NA 
HETATM   16  N   UNL     1     -12.376  15.694  70.938  1.00  0.00    -0.410 NA 
HETATM   17  C   UNL     1     -11.706  15.254  69.859  1.00  0.00    -0.323 A  
HETATM   18  C   UNL     1     -12.440  13.429  70.889  1.00  0.00    -0.359 A  
HETATM   19  O   UNL     1     -13.374  11.689  72.139  1.00  0.00    -0.491 OA 
HETATM   20  C   UNL     1     -13.550  14.667  72.783  1.00  0.00    -0.437 C  
HETATM   21  C   UNL     1     -11.723  13.849  69.810  1.00  0.00    -0.309 A  
HETATM   22  N   UNL     1     -12.806  14.561  71.551  1.00  0.00    -0.317 NA 
BRANCH  17  23
HETATM   23  C   UNL     1     -11.080  16.234  68.925  1.00  0.00    -0.345 C  
BRANCH  23  24
HETATM   24  C   UNL     1      -9.561  16.354  69.070  1.00  0.00    -0.264 C  
HETATM   25  C   UNL     1      -8.987  17.623  68.452  1.00  0.00    -0.280 C  
ENDBRANCH  23  24
ENDBRANCH  17  23
ENDBRANCH   6  11
BRANCH   9  26
HETATM   26  S   UNL     1      -8.048   7.536  68.820  1.00  0.00    -0.129 S  
HETATM   27  O   UNL     1      -6.762   8.191  68.777  1.00  0.00    -0.055 OA 
HETATM   28  O   UNL     1      -8.297   6.254  68.201  1.00  0.00    -0.114 OA 
BRANCH  26  29
HETATM   29  N   UNL     1      -8.480   7.436  70.472  1.00  0.00    -0.135 N  
HETATM   30  H   UNL     1      -8.498   8.261  71.072  1.00  0.00     0.000 HD 
BRANCH  29  31
HETATM   31  C   UNL     1      -8.825   6.095  70.987  1.00  0.00    -0.139 C  
BRANCH  31  32
HETATM   32  C   UNL     1      -7.648   5.428  71.689  1.00  0.00    -0.104 C  
BRANCH  32  33
HETATM   33  C   UNL     1      -7.352   6.144  73.021  1.00  0.00    -0.092 C  
HETATM   34  C   UNL     1      -6.160   7.095  72.933  1.00  0.00    -0.055 C  
HETATM   35  C   UNL     1      -6.406   8.049  74.077  1.00  0.00    -0.113 C  
HETATM   36  C   UNL     1      -9.414   6.310  74.314  1.00  0.00    -0.200 C  
HETATM   37  N   UNL     1      -8.471   7.004  73.441  1.00  0.00    -0.125 NA 
HETATM   38  C   UNL     1      -7.916   8.205  74.088  1.00  0.00    -0.249 C  
ENDBRANCH  32  33
ENDBRANCH  31  32
ENDBRANCH  29  31
ENDBRANCH  26  29
ENDBRANCH   9  26
ENDBRANCH   4   5
ENDBRANCH   3   4
ENDBRANCH   2   3
TORSDOF 11
ENDMDL
MODEL      136
REMARK 921   NORMALIZED FREE ENERGY PREDICTED BY IDOCK:   -4.95 KCAL/MOL
REMARK 922        TOTAL FREE ENERGY PREDICTED BY IDOCK:  -10.37 KCAL/MOL
REMARK 923 INTER-LIGAND FREE ENERGY PREDICTED BY IDOCK:   -8.50 KCAL/MOL
REMARK 924 INTRA-LIGAND FREE ENERGY PREDICTED BY IDOCK:   -1.87 KCAL/MOL
REMARK 927      BINDING AFFINITY PREDICTED BY RF-SCORE:    0.00 PKD
ROOT
HETATM    1  C   UNL     1      -8.104   6.574  65.950  1.00  0.00    -0.125 C  
HETATM    2  C   UNL     1      -8.529   7.797  65.158  1.00  0.00    -0.075 C  
ENDROOT
BRANCH   2   3
HETATM    3  C   UNL     1      -9.204   8.845  66.027  1.00  0.00    -0.228 C  
BRANCH   3   4
HETATM    4  O   UNL     1      -8.503   9.059  67.266  1.00  0.00    -0.114 OA 
BRANCH   4   5
HETATM    5  C   UNL     1      -8.023  10.345  67.441  1.00  0.00    -0.107 A  
HETATM    6  C   UNL     1      -8.631  11.205  68.388  1.00  0.00    -0.152 A  
HETATM    7  C   UNL     1      -8.174  12.540  68.506  1.00  0.00    -0.079 A  
HETATM    8  C   UNL     1      -6.963  10.836  66.667  1.00  0.00    -0.129 A  
HETATM    9  C   UNL     1      -7.145  13.008  67.677  1.00  0.00    -0.156 A  
HETATM   10  C   UNL     1      -6.559  12.156  66.754  1.00  0.00     0.114 A  
BRANCH   6  11
HETATM   11  C   UNL     1      -9.781  10.762  69.275  1.00  0.00    -0.120 C  
HETATM   12  C   UNL     1     -10.818   9.013  70.449  1.00  0.00    -0.246 C  
HETATM   13  N   UNL     1      -9.817   9.500  69.622  1.00  0.00    -0.192 N  
HETATM   14  H   UNL     1      -9.097   8.865  69.279  1.00  0.00     0.000 HD 
HETATM   15  N   UNL     1     -10.719  11.715  69.644  1.00  0.00     0.041 NA 
HETATM   16  N   UNL     1     -13.471  11.111  71.849  1.00  0.00    -0.288 NA 
HETATM   17  C   UNL     1     -12.777  11.968  71.082  1.00  0.00    -0.266 A  
HETATM   18  C   UNL     1     -11.749  10.011  70.869  1.00  0.00    -0.374 A  
HETATM   19  O   UNL     1     -10.899   7.836  70.784  1.00  0.00    -0.230 OA 
HETATM   20  C   UNL     1     -13.289   8.774  72.433  1.00  0.00    -0.399 C  
HETATM   21  C   UNL     1     -11.695  11.312  70.468  1.00  0.00    -0.247 A  
HETATM   22  N   UNL     1     -12.819   9.929  71.707  1.00  0.00    -0.413 NA 
BRANCH  17  23
HETATM   23  C   UNL     1     -13.207  13.393  70.986  1.00  0.00    -0.102 C  
BRANCH  23  24
HETATM   24  C   UNL     1     -14.019  13.884  72.186  1.00  0.00    -0.639 C  
HETATM   25  C   UNL     1     -14.102  15.402  72.289  1.00  0.00    -0.660 C  
ENDBRANCH  23  24
ENDBRANCH  17  23
ENDBRANCH   6  11
BRANCH   9  26
HETATM   26  S   UNL     1      -6.611  14.705  67.712  1.00  0.00    -0.159 S  
HETATM   27  O   UNL     1      -7.217  15.367  66.581  1.00  0.00    -0.050 OA 
HETATM   28  O   UNL     1      -5.185  14.692  67.941  1.00  0.00    -0.180 OA 
BRANCH  26  29
HETATM   29  N   UNL     1      -7.382  15.332  69.104  1.00  0.00    -0.156 N  
HETATM   30  H   UNL     1      -7.299  14.876  70.013  1.00  0.00     0.000 HD 
BRANCH  29  31
HETATM   31  C   UNL     1      -8.171  16.567  68.924  1.00  0.00    -0.241 C  
BRANCH  31  32
HETATM   32  C   UNL     1      -9.671  16.295  68.920  1.00  0.00    -0.248 C  
BRANCH  32  33
HETATM   33  C   UNL     1     -10.395  17.338  68.048  1.00  0.00    -0.353 C  
HETATM   34  C   UNL     1     -10.240  18.763  68.574  1.00  0.00    -0.397 C  
HETATM   35  C   UNL     1     -10.497  19.605  67.347  1.00  0.00    -0.596 C  
HETATM   36  C   UNL     1     -10.538  16.507  65.759  1.00  0.00    -0.296 C  
HETATM   37  N   UNL     1      -9.840  17.394  66.684  1.00  0.00    -0.284 NA 
HETATM   38  C   UNL     1      -9.875  18.793  66.225  1.00  0.00    -0.353 C  
ENDBRANCH  32  33
ENDBRANCH  31  32
ENDBRANCH  29  31
ENDBRANCH  26  29
ENDBRANCH   9  26
ENDBRANCH   4   5
ENDBRANCH   3   4
ENDBRANCH   2   3
TORSDOF 11
ENDMDL
MODEL      137
REMARK 921   NORMALIZED FREE ENERGY PREDICTED BY IDOCK:   -4.90 KCAL/MOL
REMARK 922        TOTAL FREE ENERGY PREDICTED BY IDOCK:  -10.29 KCAL/MOL
REMARK 923 INTER-LIGAND FREE ENERGY PREDICTED BY IDOCK:   -9.54 KCAL/MOL
REMARK 924 INTRA-LIGAND FREE ENERGY PREDICTED BY IDOCK:   -0.75 KCAL/MOL
REMARK 927      BINDING AFFINITY PREDICTED BY RF-SCORE:    0.00 PKD
ROOT
HETATM    1  C   UNL     1     -11.625   6.703  70.945  1.00  0.00    -0.416 C  
HETATM    2  C   UNL     1     -11.238   7.757  71.966  1.00  0.00    -0.327 C  
ENDROOT
BRANCH   2   3
HETATM    3  C   UNL     1     -11.974   9.070  71.754  1.00  0.00    -0.368 C  
BRANCH   3   4
HETATM    4  O   UNL     1     -11.976   9.476  70.373  1.00  0.00    -0.195 OA 
BRANCH   4   5
HETATM    5  C   UNL     1     -11.963  10.845  70.177  1.00  0.00    -0.352 A  
HETATM    6  C   UNL     1     -11.298  11.393  69.053  1.00  0.00    -0.345 A  
HETATM    7  C   UNL     1     -11.232  12.800  68.903  1.00  0.00    -0.332 A  
HETATM    8  C   UNL     1     -12.564  11.716  71.096  1.00  0.00    -0.439 A  
HETATM    9  C   UNL     1     -11.803  13.638  69.871  1.00  0.00    -0.320 A  
HETATM   10  C   UNL     1     -12.450  13.089  70.967  1.00  0.00    -0.385 A  
BRANCH   6  11
HETATM   11  C   UNL     1     -10.621  10.530  68.003  1.00  0.00    -0.214 C  
HETATM   12  C   UNL     1      -9.877  10.327  65.786  1.00  0.00    -0.257 C  
HETATM   13  N   UNL     1     -10.501  11.036  66.801  1.00  0.00    -0.241 N  
HETATM   14  H   UNL     1     -10.874  11.965  66.608  1.00  0.00     0.000 HD 
HETATM   15  N   UNL     1     -10.191   9.267  68.381  1.00  0.00    -0.195 NA 
HETATM   16  N   UNL     1      -8.413   7.005  66.255  1.00  0.00    -0.128 NA 
HETATM   17  C   UNL     1      -8.947   7.276  67.457  1.00  0.00    -0.122 A  
HETATM   18  C   UNL     1      -9.388   9.049  66.196  1.00  0.00    -0.232 A  
HETATM   19  O   UNL     1      -9.759  10.755  64.642  1.00  0.00    -0.238 OA 
HETATM   20  C   UNL     1      -8.223   8.165  64.144  1.00  0.00    -0.080 C  
HETATM   21  C   UNL     1      -9.552   8.545  67.451  1.00  0.00    -0.160 A  
HETATM   22  N   UNL     1      -8.689   8.105  65.509  1.00  0.00    -0.150 NA 
BRANCH  17  23
HETATM   23  C   UNL     1      -8.840   6.276  68.559  1.00  0.00    -0.114 C  
BRANCH  23  24
HETATM   24  C   UNL     1      -9.694   5.023  68.352  1.00  0.00    -0.209 C  
HETATM   25  C   UNL     1      -9.453   3.940  69.396  1.00  0.00    -0.260 C  
ENDBRANCH  23  24
ENDBRANCH  17  23
ENDBRANCH   6  11
BRANCH   9  26
HETATM   26  S   UNL     1     -11.653  15.409  69.785  1.00  0.00    -0.351 S  
HETATM   27  O   UNL     1     -12.246  15.948  70.986  1.00  0.00    -0.404 OA 
HETATM   28  O   UNL     1     -12.072  15.803  68.459  1.00  0.00    -0.233 OA 
BRANCH  26  29
HETATM   29  N   UNL     1      -9.968  15.669  69.924  1.00  0.00    -0.278 N  
HETATM   30  H   UNL     1      -9.546  15.987  70.796  1.00  0.00     0.000 HD 
BRANCH  29  31
HETATM   31  C   UNL     1      -9.156  15.408  68.718  1.00  0.00    -0.207 C  
BRANCH  31  32
HETATM   32  C   UNL     1      -9.115  16.611  67.782  1.00  0.00    -0.212 C  
BRANCH  32  33
HETATM   33  C   UNL     1      -8.464  17.813  68.493  1.00  0.00    -0.296 C  
HETATM   34  C   UNL     1      -7.017  17.547  68.903  1.00  0.00    -0.252 C  
HETATM   35  C   UNL     1      -6.442  18.938  69.028  1.00  0.00    -0.300 C  
HETATM   36  C   UNL     1      -9.540  19.868  67.739  1.00  0.00    -0.378 C  
HETATM   37  N   UNL     1      -8.379  18.991  67.613  1.00  0.00    -0.283 NA 
HETATM   38  C   UNL     1      -7.126  19.704  67.910  1.00  0.00    -0.266 C  
ENDBRANCH  32  33
ENDBRANCH  31  32
ENDBRANCH  29  31
ENDBRANCH  26  29
ENDBRANCH   9  26
ENDBRANCH   4   5
ENDBRANCH   3   4
ENDBRANCH   2   3
TORSDOF 11
ENDMDL
MODEL      138
REMARK 921   NORMALIZED FREE ENERGY PREDICTED BY IDOCK:   -4.88 KCAL/MOL
REMARK 922        TOTAL FREE ENERGY PREDICTED BY IDOCK:  -10.26 KCAL/MOL
REMARK 923 INTER-LIGAND FREE ENERGY PREDICTED BY IDOCK:   -8.28 KCAL/MOL
REMARK 924 INTRA-LIGAND FREE ENERGY PREDICTED BY IDOCK:   -1.98 KCAL/MOL
REMARK 927      BINDING AFFINITY PREDICTED BY RF-SCORE:    0.00 PKD
ROOT
HETATM    1  C   UNL     1      -7.216   9.562  64.729  1.00  0.00    -0.112 C  
HETATM    2  C   UNL     1      -8.592   9.454  64.099  1.00  0.00    -0.216 C  
ENDROOT
BRANCH   2   3
HETATM    3  C   UNL     1      -9.710   9.612  65.116  1.00  0.00    -0.217 C  
BRANCH   3   4
HETATM    4  O   UNL     1      -9.276  10.306  66.300  1.00  0.00    -0.153 OA 
BRANCH   4   5
HETATM    5  C   UNL     1      -9.931   9.931  67.459  1.00  0.00    -0.185 A  
HETATM    6  C   UNL     1     -10.510  10.916  68.296  1.00  0.00    -0.205 A  
HETATM    7  C   UNL     1     -11.116  10.522  69.514  1.00  0.00    -0.320 A  
HETATM    8  C   UNL     1     -10.001   8.587  67.850  1.00  0.00    -0.225 A  
HETATM    9  C   UNL     1     -11.121   9.173  69.893  1.00  0.00    -0.159 A  
HETATM   10  C   UNL     1     -10.550   8.219  69.066  1.00  0.00    -0.167 A  
BRANCH   6  11
HETATM   11  C   UNL     1     -10.488  12.395  67.954  1.00  0.00    -0.215 C  
HETATM   12  C   UNL     1     -10.140  14.046  66.322  1.00  0.00    -0.300 C  
HETATM   13  N   UNL     1     -10.163  12.721  66.728  1.00  0.00    -0.236 N  
HETATM   14  H   UNL     1      -9.924  11.987  66.061  1.00  0.00     0.000 HD 
HETATM   15  N   UNL     1     -10.797  13.297  68.962  1.00  0.00    -0.215 NA 
HETATM   16  N   UNL     1     -11.016  16.841  68.519  1.00  0.00    -0.339 NA 
HETATM   17  C   UNL     1     -11.119  15.772  69.327  1.00  0.00    -0.297 A  
HETATM   18  C   UNL     1     -10.512  14.966  67.350  1.00  0.00    -0.255 A  
HETATM   19  O   UNL     1      -9.825  14.396  65.190  1.00  0.00    -0.288 OA 
HETATM   20  C   UNL     1     -10.478  17.204  66.191  1.00  0.00    -0.275 C  
HETATM   21  C   UNL     1     -10.820  14.593  68.623  1.00  0.00    -0.255 A  
HETATM   22  N   UNL     1     -10.652  16.320  67.319  1.00  0.00    -0.311 NA 
BRANCH  17  23
HETATM   23  C   UNL     1     -11.508  15.958  70.755  1.00  0.00    -0.437 C  
BRANCH  23  24
HETATM   24  C   UNL     1     -12.947  15.546  71.071  1.00  0.00    -0.550 C  
HETATM   25  C   UNL     1     -13.049  14.360  72.022  1.00  0.00    -0.444 C  
ENDBRANCH  23  24
ENDBRANCH  17  23
ENDBRANCH   6  11
BRANCH   9  26
HETATM   26  S   UNL     1     -11.772   8.641  71.462  1.00  0.00    -0.328 S  
HETATM   27  O   UNL     1     -12.354   7.335  71.264  1.00  0.00    -0.336 OA 
HETATM   28  O   UNL     1     -12.512   9.755  72.009  1.00  0.00    -0.367 OA 
BRANCH  26  29
HETATM   29  N   UNL     1     -10.368   8.402  72.410  1.00  0.00    -0.326 N  
HETATM   30  H   UNL     1     -10.288   8.781  73.353  1.00  0.00     0.000 HD 
BRANCH  29  31
HETATM   31  C   UNL     1      -9.279   7.618  71.793  1.00  0.00    -0.137 C  
BRANCH  31  32
HETATM   32  C   UNL     1      -7.921   8.294  71.955  1.00  0.00    -0.165 C  
BRANCH  32  33
HETATM   33  C   UNL     1      -7.377   8.722  70.578  1.00  0.00    -0.066 C  
HETATM   34  C   UNL     1      -7.576  10.210  70.297  1.00  0.00    -0.038 C  
HETATM   35  C   UNL     1      -6.525  10.497  69.251  1.00  0.00    -0.055 C  
HETATM   36  C   UNL     1      -5.567   7.220  69.933  1.00  0.00    -0.023 C  
HETATM   37  N   UNL     1      -5.920   8.526  70.480  1.00  0.00    -0.031 NA 
HETATM   38  C   UNL     1      -5.358   9.622  69.673  1.00  0.00    -0.034 C  
ENDBRANCH  32  33
ENDBRANCH  31  32
ENDBRANCH  29  31
ENDBRANCH  26  29
ENDBRANCH   9  26
ENDBRANCH   4   5
ENDBRANCH   3   4
ENDBRANCH   2   3
TORSDOF 11
ENDMDL
MODEL      139
REMARK 921   NORMALIZED FREE ENERGY PREDICTED BY IDOCK:   -4.87 KCAL/MOL
REMARK 922        TOTAL FREE ENERGY PREDICTED BY IDOCK:  -10.24 KCAL/MOL
REMARK 923 INTER-LIGAND FREE ENERGY PREDICTED BY IDOCK:   -8.78 KCAL/MOL
REMARK 924 INTRA-LIGAND FREE ENERGY PREDICTED BY IDOCK:   -1.46 KCAL/MOL
REMARK 927      BINDING AFFINITY PREDICTED BY RF-SCORE:    0.00 PKD
ROOT
HETATM    1  C   UNL     1     -10.627  16.011  70.218  1.00  0.00    -0.204 C  
HETATM    2  C   UNL     1     -12.128  15.791  70.259  1.00  0.00    -0.371 C  
ENDROOT
BRANCH   2   3
HETATM    3  C   UNL     1     -12.497  14.380  70.686  1.00  0.00    -0.350 C  
BRANCH   3   4
HETATM    4  O   UNL     1     -11.596  13.394  70.148  1.00  0.00    -0.220 OA 
BRANCH   4   5
HETATM    5  C   UNL     1     -11.801  13.097  68.812  1.00  0.00    -0.324 A  
HETATM    6  C   UNL     1     -11.248  11.917  68.256  1.00  0.00    -0.317 A  
HETATM    7  C   UNL     1     -11.407  11.663  66.872  1.00  0.00    -0.364 A  
HETATM    8  C   UNL     1     -12.516  13.966  67.977  1.00  0.00     0.239 A  
HETATM    9  C   UNL     1     -12.086  12.582  66.061  1.00  0.00    -0.321 A  
HETATM   10  C   UNL     1     -12.621  13.733  66.617  1.00  0.00    -0.171 A  
BRANCH   6  11
HETATM   11  C   UNL     1     -10.463  10.915  69.082  1.00  0.00    -0.221 C  
HETATM   12  C   UNL     1     -10.392   9.533  70.979  1.00  0.00    -0.283 C  
HETATM   13  N   UNL     1     -11.027  10.468  70.176  1.00  0.00    -0.383 N  
HETATM   14  H   UNL     1     -11.949  10.813  70.442  1.00  0.00     0.000 HD 
HETATM   15  N   UNL     1      -9.202  10.552  68.633  1.00  0.00    -0.164 NA 
HETATM   16  N   UNL     1      -7.112   8.106  70.199  1.00  0.00    -0.047 NA 
HETATM   17  C   UNL     1      -7.306   8.988  69.204  1.00  0.00    -0.072 A  
HETATM   18  C   UNL     1      -9.117   9.123  70.481  1.00  0.00    -0.241 A  
HETATM   19  O   UNL     1     -10.876   9.101  72.020  1.00  0.00    -0.352 OA 
HETATM   20  C   UNL     1      -8.375   7.355  72.117  1.00  0.00    -0.109 C  
HETATM   21  C   UNL     1      -8.549   9.628  69.350  1.00  0.00    -0.158 A  
HETATM   22  N   UNL     1      -8.234   8.203  70.957  1.00  0.00    -0.102 NA 
BRANCH  17  23
HETATM   23  C   UNL     1      -6.261   9.163  68.154  1.00  0.00    -0.054 C  
BRANCH  23  24
HETATM   24  C   UNL     1      -6.512   8.353  66.880  1.00  0.00    -0.057 C  
HETATM   25  C   UNL     1      -7.292   9.113  65.815  1.00  0.00    -0.090 C  
ENDBRANCH  23  24
ENDBRANCH  17  23
ENDBRANCH   6  11
BRANCH   9  26
HETATM   26  S   UNL     1     -12.218  12.361  64.300  1.00  0.00    -0.451 S  
HETATM   27  O   UNL     1     -13.539  11.845  64.031  1.00  0.00    -0.492 OA 
HETATM   28  O   UNL     1     -11.012  11.692  63.868  1.00  0.00    -0.353 OA 
BRANCH  26  29
HETATM   29  N   UNL     1     -12.197  13.962  63.700  1.00  0.00    -0.971 N  
HETATM   30  H   UNL     1     -12.986  14.350  63.183  1.00  0.00     0.000 HD 
BRANCH  29  31
HETATM   31  C   UNL     1     -10.980  14.755  63.969  1.00  0.00     0.715 C  
BRANCH  31  32
HETATM   32  C   UNL     1     -11.303  16.115  64.578  1.00  0.00    -0.273 C  
BRANCH  32  33
HETATM   33  C   UNL     1     -10.459  16.339  65.847  1.00  0.00    -0.345 C  
HETATM   34  C   UNL     1      -9.406  15.254  66.060  1.00  0.00    -0.346 C  
HETATM   35  C   UNL     1      -8.393  15.937  66.947  1.00  0.00    -0.281 C  
HETATM   36  C   UNL     1     -10.394  18.724  66.353  1.00  0.00    -0.439 C  
HETATM   37  N   UNL     1      -9.682  17.588  65.776  1.00  0.00    -0.540 NA 
HETATM   38  C   UNL     1      -8.385  17.368  66.438  1.00  0.00    -0.267 C  
ENDBRANCH  32  33
ENDBRANCH  31  32
ENDBRANCH  29  31
ENDBRANCH  26  29
ENDBRANCH   9  26
ENDBRANCH   4   5
ENDBRANCH   3   4
ENDBRANCH   2   3
TORSDOF 11
ENDMDL
MODEL      140
REMARK 921   NORMALIZED FREE ENERGY PREDICTED BY IDOCK:   -4.86 KCAL/MOL
REMARK 922        TOTAL FREE ENERGY PREDICTED BY IDOCK:  -10.22 KCAL/MOL
REMARK 923 INTER-LIGAND FREE ENERGY PREDICTED BY IDOCK:   -8.11 KCAL/MOL
REMARK 924 INTRA-LIGAND FREE ENERGY PREDICTED BY IDOCK:   -2.11 KCAL/MOL
REMARK 927      BINDING AFFINITY PREDICTED BY RF-SCORE:    0.00 PKD
ROOT
HETATM    1  C   UNL     1      -9.556   3.053  68.570  1.00  0.00    -0.105 C  
HETATM    2  C   UNL     1      -9.157   2.716  67.145  1.00  0.00    -0.181 C  
ENDROOT
BRANCH   2   3
HETATM    3  C   UNL     1      -8.184   3.727  66.561  1.00  0.00    -0.100 C  
BRANCH   3   4
HETATM    4  O   UNL     1      -8.136   4.944  67.328  1.00  0.00    -0.105 OA 
BRANCH   4   5
HETATM    5  C   UNL     1      -8.167   6.102  66.573  1.00  0.00    -0.111 A  
HETATM    6  C   UNL     1      -8.671   7.301  67.133  1.00  0.00    -0.121 A  
HETATM    7  C   UNL     1      -8.761   8.461  66.325  1.00  0.00    -0.164 A  
HETATM    8  C   UNL     1      -7.742   6.108  65.237  1.00  0.00    -0.095 A  
HETATM    9  C   UNL     1      -8.374   8.412  64.979  1.00  0.00    -0.158 A  
HETATM   10  C   UNL     1      -7.883   7.233  64.442  1.00  0.00    -0.126 A  
BRANCH   6  11
HETATM   11  C   UNL     1      -9.149   7.393  68.572  1.00  0.00    -0.136 C  
HETATM   12  C   UNL     1      -8.979   6.590  70.771  1.00  0.00    -0.144 C  
HETATM   13  N   UNL     1      -8.618   6.561  69.432  1.00  0.00    -0.133 N  
HETATM   14  H   UNL     1      -7.929   5.881  69.113  1.00  0.00     0.000 HD 
HETATM   15  N   UNL     1     -10.120   8.337  68.872  1.00  0.00    -0.194 NA 
HETATM   16  N   UNL     1     -11.383   8.977  72.158  1.00  0.00    -0.320 NA 
HETATM   17  C   UNL     1     -11.384   9.268  70.846  1.00  0.00    -0.308 A  
HETATM   18  C   UNL     1      -9.939   7.600  71.084  1.00  0.00    -0.177 A  
HETATM   19  O   UNL     1      -8.520   5.818  71.607  1.00  0.00    -0.126 OA 
HETATM   20  C   UNL     1     -10.213   7.414  73.582  1.00  0.00    -0.329 C  
HETATM   21  C   UNL     1     -10.488   8.434  70.156  1.00  0.00    -0.228 A  
HETATM   22  N   UNL     1     -10.488   7.962  72.275  1.00  0.00    -0.240 NA 
BRANCH  17  23
HETATM   23  C   UNL     1     -12.266  10.355  70.330  1.00  0.00    -0.349 C  
BRANCH  23  24
HETATM   24  C   UNL     1     -13.004  11.134  71.421  1.00  0.00    -0.506 C  
HETATM   25  C   UNL     1     -12.776  12.640  71.357  1.00  0.00    -0.347 C  
ENDBRANCH  23  24
ENDBRANCH  17  23
ENDBRANCH   6  11
BRANCH   9  26
HETATM   26  S   UNL     1      -8.570   9.810  63.896  1.00  0.00    -0.216 S  
HETATM   27  O   UNL     1      -9.346   9.367  62.761  1.00  0.00    -0.112 OA 
HETATM   28  O   UNL     1      -7.270  10.426  63.764  1.00  0.00    -0.098 OA 
BRANCH  26  29
HETATM   29  N   UNL     1      -9.583  10.861  64.788  1.00  0.00    -0.234 N  
HETATM   30  H   UNL     1      -9.324  11.193  65.717  1.00  0.00     0.000 HD 
BRANCH  29  31
HETATM   31  C   UNL     1     -10.850  11.263  64.145  1.00  0.00    -0.337 C  
BRANCH  31  32
HETATM   32  C   UNL     1     -10.956  12.776  63.981  1.00  0.00    -0.454 C  
BRANCH  32  33
HETATM   33  C   UNL     1     -11.208  13.439  65.348  1.00  0.00    -0.288 C  
HETATM   34  C   UNL     1     -11.991  12.545  66.307  1.00  0.00    -0.410 C  
HETATM   35  C   UNL     1     -11.631  13.108  67.661  1.00  0.00    -0.392 C  
HETATM   36  C   UNL     1      -9.440  15.061  65.788  1.00  0.00    -0.225 C  
HETATM   37  N   UNL     1      -9.950  13.721  66.061  1.00  0.00    -0.305 NA 
HETATM   38  C   UNL     1     -10.175  13.510  67.501  1.00  0.00    -0.234 C  
ENDBRANCH  32  33
ENDBRANCH  31  32
ENDBRANCH  29  31
ENDBRANCH  26  29
ENDBRANCH   9  26
ENDBRANCH   4   5
ENDBRANCH   3   4
ENDBRANCH   2   3
TORSDOF 11
ENDMDL
MODEL      141
REMARK 921   NORMALIZED FREE ENERGY PREDICTED BY IDOCK:   -4.86 KCAL/MOL
REMARK 922        TOTAL FREE ENERGY PREDICTED BY IDOCK:  -10.22 KCAL/MOL
REMARK 923 INTER-LIGAND FREE ENERGY PREDICTED BY IDOCK:   -9.29 KCAL/MOL
REMARK 924 INTRA-LIGAND FREE ENERGY PREDICTED BY IDOCK:   -0.93 KCAL/MOL
REMARK 927      BINDING AFFINITY PREDICTED BY RF-SCORE:    0.00 PKD
ROOT
HETATM    1  C   UNL     1     -11.852  16.022  71.656  1.00  0.00    -0.582 C  
HETATM    2  C   UNL     1     -12.975  15.414  70.836  1.00  0.00    -0.539 C  
ENDROOT
BRANCH   2   3
HETATM    3  C   UNL     1     -12.534  14.175  70.075  1.00  0.00    -0.296 C  
BRANCH   3   4
HETATM    4  O   UNL     1     -11.674  14.495  68.965  1.00  0.00    -0.278 OA 
BRANCH   4   5
HETATM    5  C   UNL     1     -11.033  13.406  68.403  1.00  0.00    -0.267 A  
HETATM    6  C   UNL     1      -9.629  13.431  68.213  1.00  0.00    -0.220 A  
HETATM    7  C   UNL     1      -8.997  12.338  67.572  1.00  0.00    -0.180 A  
HETATM    8  C   UNL     1     -11.751  12.280  67.977  1.00  0.00    -0.417 A  
HETATM    9  C   UNL     1      -9.758  11.253  67.115  1.00  0.00    -0.181 A  
HETATM   10  C   UNL     1     -11.130  11.241  67.307  1.00  0.00    -0.367 A  
BRANCH   6  11
HETATM   11  C   UNL     1      -8.767  14.603  68.646  1.00  0.00    -0.174 C  
HETATM   12  C   UNL     1      -6.861  15.339  69.803  1.00  0.00    -0.172 C  
HETATM   13  N   UNL     1      -7.718  14.333  69.382  1.00  0.00    -0.349 N  
HETATM   14  H   UNL     1      -7.528  13.368  69.650  1.00  0.00     0.000 HD 
HETATM   15  N   UNL     1      -9.153  15.874  68.247  1.00  0.00    -0.182 NA 
HETATM   16  N   UNL     1      -7.305  18.863  68.919  1.00  0.00    -0.317 NA 
HETATM   17  C   UNL     1      -8.372  18.270  68.357  1.00  0.00    -0.307 A  
HETATM   18  C   UNL     1      -7.235  16.639  69.343  1.00  0.00    -0.132 A  
HETATM   19  O   UNL     1      -5.878  15.133  70.508  1.00  0.00    -0.140 OA 
HETATM   20  C   UNL     1      -5.387  18.128  70.190  1.00  0.00    -0.241 C  
HETATM   21  C   UNL     1      -8.349  16.885  68.598  1.00  0.00    -0.261 A  
HETATM   22  N   UNL     1      -6.626  17.845  69.506  1.00  0.00    -0.198 NA 
BRANCH  17  23
HETATM   23  C   UNL     1      -9.368  19.091  67.609  1.00  0.00    -0.342 C  
BRANCH  23  24
HETATM   24  C   UNL     1      -8.764  19.939  66.487  1.00  0.00    -0.406 C  
HETATM   25  C   UNL     1      -7.548  19.301  65.826  1.00  0.00    -0.186 C  
ENDBRANCH  23  24
ENDBRANCH  17  23
ENDBRANCH   6  11
BRANCH   9  26
HETATM   26  S   UNL     1      -9.025   9.908  66.209  1.00  0.00    -0.149 S  
HETATM   27  O   UNL     1      -7.805  10.405  65.617  1.00  0.00    -0.146 OA 
HETATM   28  O   UNL     1     -10.080   9.298  65.435  1.00  0.00    -0.062 OA 
BRANCH  26  29
HETATM   29  N   UNL     1      -8.551   8.818  67.439  1.00  0.00    -0.125 N  
HETATM   30  H   UNL     1      -7.721   8.233  67.345  1.00  0.00     0.000 HD 
BRANCH  29  31
HETATM   31  C   UNL     1      -9.403   8.769  68.645  1.00  0.00    -0.141 C  
BRANCH  31  32
HETATM   32  C   UNL     1      -8.657   8.212  69.853  1.00  0.00    -0.130 C  
BRANCH  32  33
HETATM   33  C   UNL     1      -9.660   7.775  70.937  1.00  0.00    -0.167 C  
HETATM   34  C   UNL     1     -10.485   8.937  71.487  1.00  0.00    -0.393 C  
HETATM   35  C   UNL     1     -11.706   8.247  72.048  1.00  0.00    -0.407 C  
HETATM   36  C   UNL     1     -10.268   5.441  70.571  1.00  0.00    -0.256 C  
HETATM   37  N   UNL     1     -10.665   6.836  70.409  1.00  0.00    -0.230 NA 
HETATM   38  C   UNL     1     -11.952   7.113  71.069  1.00  0.00    -0.347 C  
ENDBRANCH  32  33
ENDBRANCH  31  32
ENDBRANCH  29  31
ENDBRANCH  26  29
ENDBRANCH   9  26
ENDBRANCH   4   5
ENDBRANCH   3   4
ENDBRANCH   2   3
TORSDOF 11
ENDMDL
MODEL      142
REMARK 921   NORMALIZED FREE ENERGY PREDICTED BY IDOCK:   -4.86 KCAL/MOL
REMARK 922        TOTAL FREE ENERGY PREDICTED BY IDOCK:  -10.22 KCAL/MOL
REMARK 923 INTER-LIGAND FREE ENERGY PREDICTED BY IDOCK:   -8.69 KCAL/MOL
REMARK 924 INTRA-LIGAND FREE ENERGY PREDICTED BY IDOCK:   -1.53 KCAL/MOL
REMARK 927      BINDING AFFINITY PREDICTED BY RF-SCORE:    0.00 PKD
ROOT
HETATM    1  C   UNL     1      -9.860   8.261  72.228  1.00  0.00    -0.364 C  
HETATM    2  C   UNL     1      -9.568   7.978  70.766  1.00  0.00    -0.174 C  
ENDROOT
BRANCH   2   3
HETATM    3  C   UNL     1     -10.782   8.200  69.878  1.00  0.00    -0.241 C  
BRANCH   3   4
HETATM    4  O   UNL     1     -11.072   9.597  69.690  1.00  0.00    -0.236 OA 
BRANCH   4   5
HETATM    5  C   UNL     1     -10.757  10.087  68.436  1.00  0.00    -0.234 A  
HETATM    6  C   UNL     1     -10.892  11.470  68.160  1.00  0.00    -0.259 A  
HETATM    7  C   UNL     1     -10.633  11.945  66.851  1.00  0.00    -0.264 A  
HETATM    8  C   UNL     1     -10.340   9.231  67.407  1.00  0.00    -0.327 A  
HETATM    9  C   UNL     1     -10.267  11.049  65.837  1.00  0.00    -0.254 A  
HETATM   10  C   UNL     1     -10.139   9.698  66.120  1.00  0.00    -0.328 A  
BRANCH   6  11
HETATM   11  C   UNL     1     -11.332  12.473  69.211  1.00  0.00    -0.245 C  
HETATM   12  C   UNL     1     -12.433  12.853  71.249  1.00  0.00    -0.200 C  
HETATM   13  N   UNL     1     -12.010  12.012  70.231  1.00  0.00    -0.442 N  
HETATM   14  H   UNL     1     -12.232  11.017  70.278  1.00  0.00     0.000 HD 
HETATM   15  N   UNL     1     -11.001  13.805  69.013  1.00  0.00    -0.254 NA 
HETATM   16  N   UNL     1     -11.708  16.441  71.327  1.00  0.00    -0.337 NA 
HETATM   17  C   UNL     1     -11.171  16.045  70.161  1.00  0.00    -0.373 A  
HETATM   18  C   UNL     1     -12.042  14.215  71.066  1.00  0.00    -0.335 A  
HETATM   19  O   UNL     1     -13.085  12.466  72.213  1.00  0.00    -0.395 OA 
HETATM   20  C   UNL     1     -12.864  15.361  73.154  1.00  0.00    -0.493 C  
HETATM   21  C   UNL     1     -11.356  14.664  69.977  1.00  0.00    -0.242 A  
HETATM   22  N   UNL     1     -12.225  15.304  71.861  1.00  0.00    -0.330 NA 
BRANCH  17  23
HETATM   23  C   UNL     1     -10.500  17.043  69.278  1.00  0.00    -0.293 C  
BRANCH  23  24
HETATM   24  C   UNL     1      -9.277  16.500  68.536  1.00  0.00    -0.230 C  
HETATM   25  C   UNL     1      -8.112  16.147  69.452  1.00  0.00    -0.097 C  
ENDBRANCH  23  24
ENDBRANCH  17  23
ENDBRANCH   6  11
BRANCH   9  26
HETATM   26  S   UNL     1     -10.036  11.580  64.155  1.00  0.00    -0.338 S  
HETATM   27  O   UNL     1     -10.064  13.024  64.154  1.00  0.00    -0.344 OA 
HETATM   28  O   UNL     1     -10.915  10.778  63.336  1.00  0.00     0.068 OA 
BRANCH  26  29
HETATM   29  N   UNL     1      -8.420  11.132  63.819  1.00  0.00    -0.355 N  
HETATM   30  H   UNL     1      -7.635  11.532  64.334  1.00  0.00     0.000 HD 
BRANCH  29  31
HETATM   31  C   UNL     1      -8.217  10.137  62.746  1.00  0.00    -0.153 C  
BRANCH  31  32
HETATM   32  C   UNL     1      -6.793   9.594  62.727  1.00  0.00    -0.102 C  
BRANCH  32  33
HETATM   33  C   UNL     1      -6.694   8.337  63.612  1.00  0.00    -0.076 C  
HETATM   34  C   UNL     1      -6.484   8.664  65.088  1.00  0.00    -0.064 C  
HETATM   35  C   UNL     1      -6.976   7.417  65.783  1.00  0.00    -0.061 C  
HETATM   36  C   UNL     1      -7.934   6.519  62.558  1.00  0.00    -0.103 C  
HETATM   37  N   UNL     1      -7.941   7.552  63.589  1.00  0.00    -0.108 NA 
HETATM   38  C   UNL     1      -8.152   6.978  64.929  1.00  0.00    -0.107 C  
ENDBRANCH  32  33
ENDBRANCH  31  32
ENDBRANCH  29  31
ENDBRANCH  26  29
ENDBRANCH   9  26
ENDBRANCH   4   5
ENDBRANCH   3   4
ENDBRANCH   2   3
TORSDOF 11
ENDMDL
MODEL      143
REMARK 921   NORMALIZED FREE ENERGY PREDICTED BY IDOCK:   -4.84 KCAL/MOL
REMARK 922        TOTAL FREE ENERGY PREDICTED BY IDOCK:  -10.19 KCAL/MOL
REMARK 923 INTER-LIGAND FREE ENERGY PREDICTED BY IDOCK:   -8.66 KCAL/MOL
REMARK 924 INTRA-LIGAND FREE ENERGY PREDICTED BY IDOCK:   -1.52 KCAL/MOL
REMARK 927      BINDING AFFINITY PREDICTED BY RF-SCORE:    0.00 PKD
ROOT
HETATM    1  C   UNL     1      -6.018  14.944  70.407  1.00  0.00    -0.150 C  
HETATM    2  C   UNL     1      -5.510  13.640  70.995  1.00  0.00    -0.195 C  
ENDROOT
BRANCH   2   3
HETATM    3  C   UNL     1      -5.865  12.438  70.135  1.00  0.00    -0.163 C  
BRANCH   3   4
HETATM    4  O   UNL     1      -6.899  12.738  69.179  1.00  0.00    -0.102 OA 
BRANCH   4   5
HETATM    5  C   UNL     1      -7.167  11.720  68.283  1.00  0.00    -0.084 A  
HETATM    6  C   UNL     1      -7.987  11.966  67.155  1.00  0.00    -0.172 A  
HETATM    7  C   UNL     1      -8.309  10.896  66.284  1.00  0.00    -0.164 A  
HETATM    8  C   UNL     1      -6.672  10.424  68.488  1.00  0.00    -0.056 A  
HETATM    9  C   UNL     1      -7.836   9.604  66.552  1.00  0.00    -0.108 A  
HETATM   10  C   UNL     1      -7.035   9.376  67.660  1.00  0.00    -0.081 A  
BRANCH   6  11
HETATM   11  C   UNL     1      -8.565  13.336  66.847  1.00  0.00    -0.105 C  
HETATM   12  C   UNL     1      -8.434  15.658  67.167  1.00  0.00    -0.207 C  
HETATM   13  N   UNL     1      -7.988  14.368  67.410  1.00  0.00    -0.194 N  
HETATM   14  H   UNL     1      -7.198  14.220  68.037  1.00  0.00     0.000 HD 
HETATM   15  N   UNL     1      -9.666  13.401  66.007  1.00  0.00    -0.253 NA 
HETATM   16  N   UNL     1     -11.210  16.437  64.912  1.00  0.00    -0.412 NA 
HETATM   17  C   UNL     1     -11.165  15.094  64.888  1.00  0.00    -0.417 A  
HETATM   18  C   UNL     1      -9.535  15.721  66.259  1.00  0.00    -0.317 A  
HETATM   19  O   UNL     1      -7.935  16.650  67.687  1.00  0.00    -0.169 OA 
HETATM   20  C   UNL     1      -9.943  18.193  65.983  1.00  0.00    -0.215 C  
HETATM   21  C   UNL     1     -10.126  14.623  65.710  1.00  0.00    -0.340 A  
HETATM   22  N   UNL     1     -10.202  16.792  65.748  1.00  0.00    -0.530 NA 
BRANCH  17  23
HETATM   23  C   UNL     1     -12.144  14.334  64.059  1.00  0.00    -0.350 C  
BRANCH  23  24
HETATM   24  C   UNL     1     -11.611  13.003  63.523  1.00  0.00    -0.468 C  
HETATM   25  C   UNL     1     -12.678  11.923  63.398  1.00  0.00    -0.496 C  
ENDBRANCH  23  24
ENDBRANCH  17  23
ENDBRANCH   6  11
BRANCH   9  26
HETATM   26  S   UNL     1      -8.302   8.208  65.551  1.00  0.00    -0.156 S  
HETATM   27  O   UNL     1      -7.556   7.069  66.032  1.00  0.00    -0.090 OA 
HETATM   28  O   UNL     1      -8.264   8.646  64.175  1.00  0.00    -0.160 OA 
BRANCH  26  29
HETATM   29  N   UNL     1      -9.932   7.934  65.992  1.00  0.00    -0.405 N  
HETATM   30  H   UNL     1     -10.592   7.492  65.352  1.00  0.00     0.000 HD 
BRANCH  29  31
HETATM   31  C   UNL     1     -10.334   8.369  67.344  1.00  0.00    -0.285 C  
BRANCH  31  32
HETATM   32  C   UNL     1      -9.938   7.358  68.415  1.00  0.00    -0.177 C  
BRANCH  32  33
HETATM   33  C   UNL     1     -10.162   7.957  69.816  1.00  0.00    -0.212 C  
HETATM   34  C   UNL     1     -10.827   9.332  69.776  1.00  0.00    -0.239 C  
HETATM   35  C   UNL     1     -11.442   9.449  71.150  1.00  0.00    -0.422 C  
HETATM   36  C   UNL     1     -10.379   6.146  71.435  1.00  0.00    -0.214 C  
HETATM   37  N   UNL     1     -11.081   7.135  70.624  1.00  0.00    -0.258 NA 
HETATM   38  C   UNL     1     -11.901   8.034  71.453  1.00  0.00    -0.295 C  
ENDBRANCH  32  33
ENDBRANCH  31  32
ENDBRANCH  29  31
ENDBRANCH  26  29
ENDBRANCH   9  26
ENDBRANCH   4   5
ENDBRANCH   3   4
ENDBRANCH   2   3
TORSDOF 11
ENDMDL
MODEL      144
REMARK 921   NORMALIZED FREE ENERGY PREDICTED BY IDOCK:   -4.84 KCAL/MOL
REMARK 922        TOTAL FREE ENERGY PREDICTED BY IDOCK:  -10.19 KCAL/MOL
REMARK 923 INTER-LIGAND FREE ENERGY PREDICTED BY IDOCK:   -9.11 KCAL/MOL
REMARK 924 INTRA-LIGAND FREE ENERGY PREDICTED BY IDOCK:   -1.07 KCAL/MOL
REMARK 927      BINDING AFFINITY PREDICTED BY RF-SCORE:    0.00 PKD
ROOT
HETATM    1  C   UNL     1     -12.909  13.556  71.282  1.00  0.00    -0.420 C  
HETATM    2  C   UNL     1     -13.461  12.400  72.095  1.00  0.00    -0.481 C  
ENDROOT
BRANCH   2   3
HETATM    3  C   UNL     1     -13.081  11.048  71.514  1.00  0.00    -0.396 C  
BRANCH   3   4
HETATM    4  O   UNL     1     -11.851  11.102  70.767  1.00  0.00    -0.315 OA 
BRANCH   4   5
HETATM    5  C   UNL     1     -11.209   9.885  70.628  1.00  0.00    -0.344 A  
HETATM    6  C   UNL     1     -10.684   9.501  69.370  1.00  0.00    -0.244 A  
HETATM    7  C   UNL     1     -10.092   8.222  69.226  1.00  0.00    -0.199 A  
HETATM    8  C   UNL     1     -11.099   8.995  71.705  1.00  0.00    -0.444 A  
HETATM    9  C   UNL     1     -10.047   7.341  70.316  1.00  0.00    -0.192 A  
HETATM   10  C   UNL     1     -10.565   7.729  71.541  1.00  0.00    -0.247 A  
BRANCH   6  11
HETATM   11  C   UNL     1     -10.752  10.398  68.147  1.00  0.00    -0.236 C  
HETATM   12  C   UNL     1     -10.534  10.592  65.818  1.00  0.00    -0.164 C  
HETATM   13  N   UNL     1     -10.475   9.853  66.989  1.00  0.00    -0.240 N  
HETATM   14  H   UNL     1     -10.211   8.869  66.948  1.00  0.00     0.000 HD 
HETATM   15  N   UNL     1     -11.087  11.730  68.339  1.00  0.00    -0.218 NA 
HETATM   16  N   UNL     1     -11.512  14.118  65.709  1.00  0.00    -0.321 NA 
HETATM   17  C   UNL     1     -11.537  13.834  67.022  1.00  0.00    -0.365 A  
HETATM   18  C   UNL     1     -10.932  11.949  66.017  1.00  0.00    -0.309 A  
HETATM   19  O   UNL     1     -10.266  10.126  64.715  1.00  0.00    -0.296 OA 
HETATM   20  C   UNL     1     -11.050  12.889  63.681  1.00  0.00    -0.324 C  
HETATM   21  C   UNL     1     -11.190  12.490  67.241  1.00  0.00    -0.295 A  
HETATM   22  N   UNL     1     -11.148  12.951  65.120  1.00  0.00    -0.287 NA 
BRANCH  17  23
HETATM   23  C   UNL     1     -11.901  14.897  68.003  1.00  0.00    -0.296 C  
BRANCH  23  24
HETATM   24  C   UNL     1     -10.709  15.486  68.760  1.00  0.00    -0.249 C  
HETATM   25  C   UNL     1     -11.101  16.248  70.020  1.00  0.00    -0.351 C  
ENDBRANCH  23  24
ENDBRANCH  17  23
ENDBRANCH   6  11
BRANCH   9  26
HETATM   26  S   UNL     1      -9.412   5.687  70.159  1.00  0.00    -0.165 S  
HETATM   27  O   UNL     1     -10.476   4.783  70.526  1.00  0.00    -0.178 OA 
HETATM   28  O   UNL     1      -8.115   5.671  70.795  1.00  0.00    -0.112 OA 
BRANCH  26  29
HETATM   29  N   UNL     1      -9.193   5.508  68.472  1.00  0.00    -0.117 N  
HETATM   30  H   UNL     1      -8.432   5.975  67.978  1.00  0.00     0.000 HD 
BRANCH  29  31
HETATM   31  C   UNL     1     -10.159   4.642  67.766  1.00  0.00    -0.035 C  
BRANCH  31  32
HETATM   32  C   UNL     1     -10.494   5.168  66.375  1.00  0.00    -0.356 C  
BRANCH  32  33
HETATM   33  C   UNL     1      -9.758   4.338  65.305  1.00  0.00    -0.197 C  
HETATM   34  C   UNL     1     -10.658   3.948  64.134  1.00  0.00    -0.245 C  
HETATM   35  C   UNL     1      -9.669   3.683  63.024  1.00  0.00    -0.126 C  
HETATM   36  C   UNL     1      -7.383   4.892  65.356  1.00  0.00    -0.072 C  
HETATM   37  N   UNL     1      -8.661   5.097  64.681  1.00  0.00    -0.149 NA 
HETATM   38  C   UNL     1      -8.588   4.723  63.258  1.00  0.00    -0.127 C  
ENDBRANCH  32  33
ENDBRANCH  31  32
ENDBRANCH  29  31
ENDBRANCH  26  29
ENDBRANCH   9  26
ENDBRANCH   4   5
ENDBRANCH   3   4
ENDBRANCH   2   3
TORSDOF 11
ENDMDL
MODEL      145
REMARK 921   NORMALIZED FREE ENERGY PREDICTED BY IDOCK:   -4.83 KCAL/MOL
REMARK 922        TOTAL FREE ENERGY PREDICTED BY IDOCK:  -10.17 KCAL/MOL
REMARK 923 INTER-LIGAND FREE ENERGY PREDICTED BY IDOCK:   -8.86 KCAL/MOL
REMARK 924 INTRA-LIGAND FREE ENERGY PREDICTED BY IDOCK:   -1.31 KCAL/MOL
REMARK 927      BINDING AFFINITY PREDICTED BY RF-SCORE:    0.00 PKD
ROOT
HETATM    1  C   UNL     1     -10.853   4.400  73.641  1.00  0.00    -0.367 C  
HETATM    2  C   UNL     1     -10.069   5.696  73.747  1.00  0.00    -0.220 C  
ENDROOT
BRANCH   2   3
HETATM    3  C   UNL     1     -10.882   6.904  73.313  1.00  0.00    -0.290 C  
BRANCH   3   4
HETATM    4  O   UNL     1     -11.483   6.719  72.017  1.00  0.00    -0.259 OA 
BRANCH   4   5
HETATM    5  C   UNL     1     -11.481   7.848  71.217  1.00  0.00    -0.265 A  
HETATM    6  C   UNL     1     -11.036   7.764  69.875  1.00  0.00    -0.194 A  
HETATM    7  C   UNL     1     -10.974   8.942  69.090  1.00  0.00     0.000 A  
HETATM    8  C   UNL     1     -11.878   9.095  71.720  1.00  0.00    -0.453 A  
HETATM    9  C   UNL     1     -11.331  10.178  69.646  1.00  0.00    -0.235 A  
HETATM   10  C   UNL     1     -11.764  10.246  70.961  1.00  0.00    -0.461 A  
BRANCH   6  11
HETATM   11  C   UNL     1     -10.591   6.458  69.241  1.00  0.00    -0.259 C  
HETATM   12  C   UNL     1     -10.444   5.149  67.299  1.00  0.00    -0.132 C  
HETATM   13  N   UNL     1     -10.835   6.300  67.965  1.00  0.00    -0.302 N  
HETATM   14  H   UNL     1     -11.321   7.036  67.452  1.00  0.00     0.000 HD 
HETATM   15  N   UNL     1      -9.973   5.521  70.055  1.00  0.00    -0.199 NA 
HETATM   16  N   UNL     1      -8.639   2.403  68.913  1.00  0.00    -0.067 NA 
HETATM   17  C   UNL     1      -8.858   3.262  69.923  1.00  0.00    -0.089 A  
HETATM   18  C   UNL     1      -9.760   4.210  68.131  1.00  0.00    -0.088 A  
HETATM   19  O   UNL     1     -10.668   4.952  66.109  1.00  0.00    -0.317 OA 
HETATM   20  C   UNL     1      -9.109   2.364  66.544  1.00  0.00    -0.080 C  
HETATM   21  C   UNL     1      -9.545   4.398  69.463  1.00  0.00    -0.201 A  
HETATM   22  N   UNL     1      -9.192   3.010  67.832  1.00  0.00    -0.183 NA 
BRANCH  17  23
HETATM   23  C   UNL     1      -8.381   2.927  71.297  1.00  0.00    -0.085 C  
BRANCH  23  24
HETATM   24  C   UNL     1      -6.966   3.420  71.606  1.00  0.00    -0.031 C  
HETATM   25  C   UNL     1      -6.926   4.814  72.220  1.00  0.00    -0.062 C  
ENDBRANCH  23  24
ENDBRANCH  17  23
ENDBRANCH   6  11
BRANCH   9  26
HETATM   26  S   UNL     1     -11.167  11.698  68.736  1.00  0.00    -0.271 S  
HETATM   27  O   UNL     1     -12.159  11.678  67.687  1.00  0.00    -0.615 OA 
HETATM   28  O   UNL     1      -9.758  11.886  68.479  1.00  0.00    -0.205 OA 
BRANCH  26  29
HETATM   29  N   UNL     1     -11.680  12.884  69.857  1.00  0.00    -0.485 N  
HETATM   30  H   UNL     1     -12.360  12.673  70.587  1.00  0.00     0.000 HD 
BRANCH  29  31
HETATM   31  C   UNL     1     -11.086  14.229  69.715  1.00  0.00    -0.128 C  
BRANCH  31  32
HETATM   32  C   UNL     1     -11.775  15.050  68.629  1.00  0.00    -0.363 C  
BRANCH  32  33
HETATM   33  C   UNL     1     -10.905  15.080  67.358  1.00  0.00    -0.305 C  
HETATM   34  C   UNL     1     -11.634  14.550  66.126  1.00  0.00    -0.366 C  
HETATM   35  C   UNL     1     -10.869  15.178  64.985  1.00  0.00    -0.457 C  
HETATM   36  C   UNL     1      -9.244  16.855  67.569  1.00  0.00    -0.223 C  
HETATM   37  N   UNL     1     -10.523  16.454  66.988  1.00  0.00    -0.301 NA 
HETATM   38  C   UNL     1     -10.505  16.552  65.519  1.00  0.00    -0.301 C  
ENDBRANCH  32  33
ENDBRANCH  31  32
ENDBRANCH  29  31
ENDBRANCH  26  29
ENDBRANCH   9  26
ENDBRANCH   4   5
ENDBRANCH   3   4
ENDBRANCH   2   3
TORSDOF 11
ENDMDL
MODEL      146
REMARK 921   NORMALIZED FREE ENERGY PREDICTED BY IDOCK:   -4.83 KCAL/MOL
REMARK 922        TOTAL FREE ENERGY PREDICTED BY IDOCK:  -10.16 KCAL/MOL
REMARK 923 INTER-LIGAND FREE ENERGY PREDICTED BY IDOCK:   -8.11 KCAL/MOL
REMARK 924 INTRA-LIGAND FREE ENERGY PREDICTED BY IDOCK:   -2.06 KCAL/MOL
REMARK 927      BINDING AFFINITY PREDICTED BY RF-SCORE:    0.00 PKD
ROOT
HETATM    1  C   UNL     1     -13.819  13.904  72.112  1.00  0.00    -0.636 C  
HETATM    2  C   UNL     1     -13.226  12.904  71.137  1.00  0.00    -0.062 C  
ENDROOT
BRANCH   2   3
HETATM    3  C   UNL     1     -12.960  11.553  71.781  1.00  0.00    -0.394 C  
BRANCH   3   4
HETATM    4  O   UNL     1     -12.739  10.518  70.805  1.00  0.00    -0.344 OA 
BRANCH   4   5
HETATM    5  C   UNL     1     -11.846   9.537  71.198  1.00  0.00    -0.358 A  
HETATM    6  C   UNL     1     -10.814   9.126  70.321  1.00  0.00    -0.282 A  
HETATM    7  C   UNL     1      -9.951   8.072  70.711  1.00  0.00    -0.202 A  
HETATM    8  C   UNL     1     -11.965   8.906  72.444  1.00  0.00    -0.320 A  
HETATM    9  C   UNL     1     -10.135   7.432  71.944  1.00  0.00    -0.178 A  
HETATM   10  C   UNL     1     -11.149   7.844  72.793  1.00  0.00    -0.462 A  
BRANCH   6  11
HETATM   11  C   UNL     1     -10.604   9.753  68.954  1.00  0.00    -0.218 C  
HETATM   12  C   UNL     1     -11.361  11.275  67.336  1.00  0.00    -0.276 C  
HETATM   13  N   UNL     1     -11.487  10.635  68.559  1.00  0.00    -0.414 N  
HETATM   14  H   UNL     1     -12.280  10.854  69.161  1.00  0.00     0.000 HD 
HETATM   15  N   UNL     1      -9.504   9.342  68.215  1.00  0.00    -0.138 NA 
HETATM   16  N   UNL     1      -8.573  10.694  65.036  1.00  0.00    -0.181 NA 
HETATM   17  C   UNL     1      -8.322   9.841  66.043  1.00  0.00    -0.120 A  
HETATM   18  C   UNL     1     -10.198  10.887  66.603  1.00  0.00    -0.234 A  
HETATM   19  O   UNL     1     -12.175  12.093  66.919  1.00  0.00    -0.537 OA 
HETATM   20  C   UNL     1     -10.266  12.348  64.551  1.00  0.00    -0.299 C  
HETATM   21  C   UNL     1      -9.312   9.946  67.035  1.00  0.00    -0.147 A  
HETATM   22  N   UNL     1      -9.717  11.324  65.407  1.00  0.00    -0.222 NA 
BRANCH  17  23
HETATM   23  C   UNL     1      -7.120   8.959  65.986  1.00  0.00    -0.088 C  
BRANCH  23  24
HETATM   24  C   UNL     1      -7.434   7.488  65.705  1.00  0.00    -0.083 C  
HETATM   25  C   UNL     1      -6.823   6.528  66.717  1.00  0.00    -0.066 C  
ENDBRANCH  23  24
ENDBRANCH  17  23
ENDBRANCH   6  11
BRANCH   9  26
HETATM   26  S   UNL     1      -9.148   6.034  72.432  1.00  0.00    -0.135 S  
HETATM   27  O   UNL     1     -10.057   4.979  72.812  1.00  0.00    -0.162 OA 
HETATM   28  O   UNL     1      -8.115   6.534  73.311  1.00  0.00    -0.109 OA 
BRANCH  26  29
HETATM   29  N   UNL     1      -8.421   5.535  70.966  1.00  0.00    -0.123 N  
HETATM   30  H   UNL     1      -7.521   5.906  70.661  1.00  0.00     0.000 HD 
BRANCH  29  31
HETATM   31  C   UNL     1      -9.162   4.540  70.165  1.00  0.00    -0.130 C  
BRANCH  31  32
HETATM   32  C   UNL     1      -8.451   4.211  68.856  1.00  0.00    -0.099 C  
BRANCH  32  33
HETATM   33  C   UNL     1      -9.482   4.035  67.725  1.00  0.00    -0.178 C  
HETATM   34  C   UNL     1     -10.199   5.335  67.367  1.00  0.00    -0.240 C  
HETATM   35  C   UNL     1     -10.680   5.077  65.959  1.00  0.00    -0.241 C  
HETATM   36  C   UNL     1      -8.808   2.163  66.314  1.00  0.00    -0.118 C  
HETATM   37  N   UNL     1      -8.846   3.614  66.464  1.00  0.00    -0.122 NA 
HETATM   38  C   UNL     1      -9.559   4.257  65.348  1.00  0.00    -0.187 C  
ENDBRANCH  32  33
ENDBRANCH  31  32
ENDBRANCH  29  31
ENDBRANCH  26  29
ENDBRANCH   9  26
ENDBRANCH   4   5
ENDBRANCH   3   4
ENDBRANCH   2   3
TORSDOF 11
ENDMDL
MODEL      147
REMARK 921   NORMALIZED FREE ENERGY PREDICTED BY IDOCK:   -4.82 KCAL/MOL
REMARK 922        TOTAL FREE ENERGY PREDICTED BY IDOCK:  -10.16 KCAL/MOL
REMARK 923 INTER-LIGAND FREE ENERGY PREDICTED BY IDOCK:   -7.72 KCAL/MOL
REMARK 924 INTRA-LIGAND FREE ENERGY PREDICTED BY IDOCK:   -2.44 KCAL/MOL
REMARK 927      BINDING AFFINITY PREDICTED BY RF-SCORE:    0.00 PKD
ROOT
HETATM    1  C   UNL     1     -10.626   8.500  72.640  1.00  0.00    -0.217 C  
HETATM    2  C   UNL     1     -11.979   8.509  71.954  1.00  0.00    -0.409 C  
ENDROOT
BRANCH   2   3
HETATM    3  C   UNL     1     -11.935   9.183  70.592  1.00  0.00    -0.124 C  
BRANCH   3   4
HETATM    4  O   UNL     1     -10.697   9.884  70.371  1.00  0.00    -0.279 OA 
BRANCH   4   5
HETATM    5  C   UNL     1     -10.039   9.534  69.206  1.00  0.00    -0.198 A  
HETATM    6  C   UNL     1      -9.623  10.539  68.298  1.00  0.00    -0.164 A  
HETATM    7  C   UNL     1      -9.013  10.161  67.077  1.00  0.00    -0.148 A  
HETATM    8  C   UNL     1      -9.805   8.191  68.880  1.00  0.00    -0.178 A  
HETATM    9  C   UNL     1      -8.843   8.805  66.765  1.00  0.00    -0.129 A  
HETATM   10  C   UNL     1      -9.255   7.832  67.662  1.00  0.00    -0.146 A  
BRANCH   6  11
HETATM   11  C   UNL     1      -9.829  12.019  68.567  1.00  0.00    -0.172 C  
HETATM   12  C   UNL     1     -11.253  13.710  69.355  1.00  0.00    -0.196 C  
HETATM   13  N   UNL     1     -10.987  12.383  69.057  1.00  0.00    -0.348 N  
HETATM   14  H   UNL     1     -11.705  11.678  69.223  1.00  0.00     0.000 HD 
HETATM   15  N   UNL     1      -8.787  12.883  68.264  1.00  0.00    -0.186 NA 
HETATM   16  N   UNL     1      -8.816  16.404  68.901  1.00  0.00    -0.252 NA 
HETATM   17  C   UNL     1      -8.165  15.322  68.442  1.00  0.00    -0.146 A  
HETATM   18  C   UNL     1     -10.157  14.587  69.091  1.00  0.00    -0.137 A  
HETATM   19  O   UNL     1     -12.330  14.097  69.798  1.00  0.00    -0.336 OA 
HETATM   20  C   UNL     1     -10.982  16.834  69.880  1.00  0.00    -0.054 C  
HETATM   21  C   UNL     1      -8.973  14.177  68.557  1.00  0.00    -0.174 A  
HETATM   22  N   UNL     1     -10.023  15.926  69.297  1.00  0.00    -0.238 NA 
BRANCH  17  23
HETATM   23  C   UNL     1      -6.778  15.461  67.911  1.00  0.00    -0.177 C  
BRANCH  23  24
HETATM   24  C   UNL     1      -6.095  16.779  68.282  1.00  0.00    -0.132 C  
HETATM   25  C   UNL     1      -5.232  17.355  67.166  1.00  0.00    -0.160 C  
ENDBRANCH  23  24
ENDBRANCH  17  23
ENDBRANCH   6  11
BRANCH   9  26
HETATM   26  S   UNL     1      -8.182   8.279  65.199  1.00  0.00    -0.152 S  
HETATM   27  O   UNL     1      -8.495   6.877  65.052  1.00  0.00    -0.094 OA 
HETATM   28  O   UNL     1      -6.835   8.795  65.116  1.00  0.00    -0.073 OA 
BRANCH  26  29
HETATM   29  N   UNL     1      -9.155   9.108  64.063  1.00  0.00    -0.415 N  
HETATM   30  H   UNL     1     -10.048   8.730  63.745  1.00  0.00     0.000 HD 
BRANCH  29  31
HETATM   31  C   UNL     1      -8.637  10.399  63.565  1.00  0.00    -0.188 C  
BRANCH  31  32
HETATM   32  C   UNL     1      -9.741  11.275  62.982  1.00  0.00    -0.389 C  
BRANCH  32  33
HETATM   33  C   UNL     1     -10.513  11.975  64.116  1.00  0.00    -0.353 C  
HETATM   34  C   UNL     1      -9.707  13.086  64.785  1.00  0.00     0.103 C  
HETATM   35  C   UNL     1     -10.778  13.955  65.402  1.00  0.00    -0.330 C  
HETATM   36  C   UNL     1     -12.907  11.805  63.678  1.00  0.00    -0.217 C  
HETATM   37  N   UNL     1     -11.722  12.655  63.618  1.00  0.00    -0.482 NA 
HETATM   38  C   UNL     1     -11.906  13.897  64.388  1.00  0.00    -0.429 C  
ENDBRANCH  32  33
ENDBRANCH  31  32
ENDBRANCH  29  31
ENDBRANCH  26  29
ENDBRANCH   9  26
ENDBRANCH   4   5
ENDBRANCH   3   4
ENDBRANCH   2   3
TORSDOF 11
ENDMDL
MODEL      148
REMARK 921   NORMALIZED FREE ENERGY PREDICTED BY IDOCK:   -4.81 KCAL/MOL
REMARK 922        TOTAL FREE ENERGY PREDICTED BY IDOCK:  -10.14 KCAL/MOL
REMARK 923 INTER-LIGAND FREE ENERGY PREDICTED BY IDOCK:   -8.99 KCAL/MOL
REMARK 924 INTRA-LIGAND FREE ENERGY PREDICTED BY IDOCK:   -1.15 KCAL/MOL
REMARK 927      BINDING AFFINITY PREDICTED BY RF-SCORE:    0.00 PKD
ROOT
HETATM    1  C   UNL     1     -10.150  11.799  63.468  1.00  0.00    -0.463 C  
HETATM    2  C   UNL     1     -11.367  12.190  64.285  1.00  0.00    -0.426 C  
ENDROOT
BRANCH   2   3
HETATM    3  C   UNL     1     -11.013  12.550  65.718  1.00  0.00    -0.292 C  
BRANCH   3   4
HETATM    4  O   UNL     1     -11.835  11.856  66.674  1.00  0.00    -0.591 OA 
BRANCH   4   5
HETATM    5  C   UNL     1     -11.191  10.838  67.355  1.00  0.00    -0.241 A  
HETATM    6  C   UNL     1     -10.952  10.957  68.746  1.00  0.00    -0.285 A  
HETATM    7  C   UNL     1     -10.230   9.939  69.415  1.00  0.00    -0.231 A  
HETATM    8  C   UNL     1     -10.729   9.696  66.686  1.00  0.00    -0.102 A  
HETATM    9  C   UNL     1      -9.741   8.837  68.700  1.00  0.00    -0.162 A  
HETATM   10  C   UNL     1      -9.981   8.733  67.339  1.00  0.00    -0.267 A  
BRANCH   6  11
HETATM   11  C   UNL     1     -11.418  12.154  69.556  1.00  0.00    -0.265 C  
HETATM   12  C   UNL     1     -12.714  12.953  71.343  1.00  0.00    -0.270 C  
HETATM   13  N   UNL     1     -12.255  11.923  70.536  1.00  0.00    -0.363 N  
HETATM   14  H   UNL     1     -12.574  10.970  70.709  1.00  0.00     0.000 HD 
HETATM   15  N   UNL     1     -10.940  13.405  69.197  1.00  0.00    -0.211 NA 
HETATM   16  N   UNL     1     -11.666  16.438  70.951  1.00  0.00    -0.225 NA 
HETATM   17  C   UNL     1     -11.032  15.813  69.944  1.00  0.00    -0.333 A  
HETATM   18  C   UNL     1     -12.176  14.231  71.001  1.00  0.00    -0.356 A  
HETATM   19  O   UNL     1     -13.512  12.783  72.259  1.00  0.00    -0.565 OA 
HETATM   20  C   UNL     1     -13.130  15.771  72.753  1.00  0.00    -0.503 C  
HETATM   21  C   UNL     1     -11.325  14.438  69.957  1.00  0.00    -0.198 A  
HETATM   22  N   UNL     1     -12.348  15.450  71.583  1.00  0.00    -0.338 NA 
BRANCH  17  23
HETATM   23  C   UNL     1     -10.168  16.595  69.013  1.00  0.00    -0.301 C  
BRANCH  23  24
HETATM   24  C   UNL     1     -10.896  17.725  68.282  1.00  0.00    -0.155 C  
HETATM   25  C   UNL     1     -10.189  18.188  67.014  1.00  0.00    -0.373 C  
ENDBRANCH  23  24
ENDBRANCH  17  23
ENDBRANCH   6  11
BRANCH   9  26
HETATM   26  S   UNL     1      -8.737   7.588  69.473  1.00  0.00    -0.137 S  
HETATM   27  O   UNL     1      -7.381   8.083  69.497  1.00  0.00    -0.081 OA 
HETATM   28  O   UNL     1      -9.099   6.325  68.873  1.00  0.00    -0.125 OA 
BRANCH  26  29
HETATM   29  N   UNL     1      -9.279   7.596  71.096  1.00  0.00    -0.146 N  
HETATM   30  H   UNL     1      -9.321   8.457  71.642  1.00  0.00     0.000 HD 
BRANCH  29  31
HETATM   31  C   UNL     1      -9.683   6.295  71.665  1.00  0.00    -0.161 C  
BRANCH  31  32
HETATM   32  C   UNL     1      -8.566   5.652  72.481  1.00  0.00    -0.124 C  
BRANCH  32  33
HETATM   33  C   UNL     1      -9.026   4.285  73.021  1.00  0.00    -0.108 C  
HETATM   34  C   UNL     1     -10.327   3.801  72.385  1.00  0.00    -0.185 C  
HETATM   35  C   UNL     1     -10.273   2.308  72.601  1.00  0.00    -0.229 C  
HETATM   36  C   UNL     1      -7.078   3.030  73.783  1.00  0.00    -0.037 C  
HETATM   37  N   UNL     1      -8.056   3.220  72.715  1.00  0.00    -0.071 NA 
HETATM   38  C   UNL     1      -8.800   1.980  72.435  1.00  0.00    -0.066 C  
ENDBRANCH  32  33
ENDBRANCH  31  32
ENDBRANCH  29  31
ENDBRANCH  26  29
ENDBRANCH   9  26
ENDBRANCH   4   5
ENDBRANCH   3   4
ENDBRANCH   2   3
TORSDOF 11
ENDMDL
MODEL      149
REMARK 921   NORMALIZED FREE ENERGY PREDICTED BY IDOCK:   -4.79 KCAL/MOL
REMARK 922        TOTAL FREE ENERGY PREDICTED BY IDOCK:  -10.10 KCAL/MOL
REMARK 923 INTER-LIGAND FREE ENERGY PREDICTED BY IDOCK:   -8.50 KCAL/MOL
REMARK 924 INTRA-LIGAND FREE ENERGY PREDICTED BY IDOCK:   -1.60 KCAL/MOL
REMARK 927      BINDING AFFINITY PREDICTED BY RF-SCORE:    0.00 PKD
ROOT
HETATM    1  C   UNL     1     -10.611  11.260  64.094  1.00  0.00    -0.437 C  
HETATM    2  C   UNL     1      -9.801   9.989  64.272  1.00  0.00    -0.152 C  
ENDROOT
BRANCH   2   3
HETATM    3  C   UNL     1      -8.558  10.207  65.119  1.00  0.00    -0.164 C  
BRANCH   3   4
HETATM    4  O   UNL     1      -8.261   9.072  65.954  1.00  0.00    -0.111 OA 
BRANCH   4   5
HETATM    5  C   UNL     1      -8.966   9.033  67.143  1.00  0.00    -0.130 A  
HETATM    6  C   UNL     1      -9.504   7.808  67.608  1.00  0.00    -0.168 A  
HETATM    7  C   UNL     1     -10.282   7.797  68.791  1.00  0.00    -0.212 A  
HETATM    8  C   UNL     1      -9.196  10.198  67.889  1.00  0.00    -0.144 A  
HETATM    9  C   UNL     1     -10.532   8.992  69.481  1.00  0.00    -0.219 A  
HETATM   10  C   UNL     1     -10.001  10.184  69.015  1.00  0.00    -0.216 A  
BRANCH   6  11
HETATM   11  C   UNL     1      -9.303   6.496  66.872  1.00  0.00    -0.146 C  
HETATM   12  C   UNL     1      -8.809   5.415  64.848  1.00  0.00    -0.050 C  
HETATM   13  N   UNL     1      -9.030   6.563  65.593  1.00  0.00    -0.352 N  
HETATM   14  H   UNL     1      -8.980   7.474  65.139  1.00  0.00     0.000 HD 
HETATM   15  N   UNL     1      -9.435   5.320  67.597  1.00  0.00    -0.118 NA 
HETATM   16  N   UNL     1      -8.878   2.044  66.272  1.00  0.00    -0.124 NA 
HETATM   17  C   UNL     1      -9.196   2.824  67.318  1.00  0.00    -0.158 A  
HETATM   18  C   UNL     1      -8.893   4.211  65.612  1.00  0.00    -0.122 A  
HETATM   19  O   UNL     1      -8.568   5.432  63.645  1.00  0.00    -0.105 OA 
HETATM   20  C   UNL     1      -8.302   2.407  63.954  1.00  0.00    -0.082 C  
HETATM   21  C   UNL     1      -9.203   4.178  66.938  1.00  0.00    -0.156 A  
HETATM   22  N   UNL     1      -8.691   2.915  65.248  1.00  0.00    -0.116 NA 
BRANCH  17  23
HETATM   23  C   UNL     1      -9.478   2.206  68.646  1.00  0.00    -0.201 C  
BRANCH  23  24
HETATM   24  C   UNL     1      -8.762   2.882  69.817  1.00  0.00    -0.130 C  
HETATM   25  C   UNL     1      -9.681   3.730  70.688  1.00  0.00    -0.235 C  
ENDBRANCH  23  24
ENDBRANCH  17  23
ENDBRANCH   6  11
BRANCH   9  26
HETATM   26  S   UNL     1     -11.592   9.047  70.909  1.00  0.00    -0.283 S  
HETATM   27  O   UNL     1     -10.807   9.564  72.005  1.00  0.00    -0.105 OA 
HETATM   28  O   UNL     1     -12.283   7.779  70.970  1.00  0.00    -0.293 OA 
BRANCH  26  29
HETATM   29  N   UNL     1     -12.724  10.266  70.512  1.00  0.00    -0.505 N  
HETATM   30  H   UNL     1     -13.471  10.104  69.837  1.00  0.00     0.000 HD 
BRANCH  29  31
HETATM   31  C   UNL     1     -12.565  11.565  71.198  1.00  0.00    -0.359 C  
BRANCH  31  32
HETATM   32  C   UNL     1     -12.410  12.719  70.213  1.00  0.00    -0.277 C  
BRANCH  32  33
HETATM   33  C   UNL     1     -12.853  14.039  70.872  1.00  0.00    -0.318 C  
HETATM   34  C   UNL     1     -13.758  13.824  72.083  1.00  0.00    -0.634 C  
HETATM   35  C   UNL     1     -13.593  15.109  72.859  1.00  0.00    -0.557 C  
HETATM   36  C   UNL     1     -11.170  15.752  70.442  1.00  0.00    -0.369 C  
HETATM   37  N   UNL     1     -11.708  14.797  71.406  1.00  0.00    -0.323 NA 
HETATM   38  C   UNL     1     -12.131  15.462  72.650  1.00  0.00    -0.431 C  
ENDBRANCH  32  33
ENDBRANCH  31  32
ENDBRANCH  29  31
ENDBRANCH  26  29
ENDBRANCH   9  26
ENDBRANCH   4   5
ENDBRANCH   3   4
ENDBRANCH   2   3
TORSDOF 11
ENDMDL
MODEL      150
REMARK 921   NORMALIZED FREE ENERGY PREDICTED BY IDOCK:   -4.78 KCAL/MOL
REMARK 922        TOTAL FREE ENERGY PREDICTED BY IDOCK:  -10.09 KCAL/MOL
REMARK 923 INTER-LIGAND FREE ENERGY PREDICTED BY IDOCK:   -8.47 KCAL/MOL
REMARK 924 INTRA-LIGAND FREE ENERGY PREDICTED BY IDOCK:   -1.62 KCAL/MOL
REMARK 927      BINDING AFFINITY PREDICTED BY RF-SCORE:    0.00 PKD
ROOT
HETATM    1  C   UNL     1      -6.162  14.728  69.465  1.00  0.00    -0.120 C  
HETATM    2  C   UNL     1      -5.895  13.240  69.332  1.00  0.00    -0.094 C  
ENDROOT
BRANCH   2   3
HETATM    3  C   UNL     1      -5.202  12.889  68.025  1.00  0.00    -0.094 C  
BRANCH   3   4
HETATM    4  O   UNL     1      -6.136  12.704  66.945  1.00  0.00    -0.235 OA 
BRANCH   4   5
HETATM    5  C   UNL     1      -7.047  11.682  67.141  1.00  0.00    -0.143 A  
HETATM    6  C   UNL     1      -8.397  11.984  67.442  1.00  0.00    -0.171 A  
HETATM    7  C   UNL     1      -9.302  10.928  67.709  1.00  0.00    -0.162 A  
HETATM    8  C   UNL     1      -6.652  10.338  67.088  1.00  0.00    -0.073 A  
HETATM    9  C   UNL     1      -8.856   9.599  67.695  1.00  0.00    -0.125 A  
HETATM   10  C   UNL     1      -7.531   9.317  67.400  1.00  0.00    -0.087 A  
BRANCH   6  11
HETATM   11  C   UNL     1      -8.919  13.408  67.517  1.00  0.00    -0.207 C  
HETATM   12  C   UNL     1      -8.966  15.554  66.566  1.00  0.00    -0.312 C  
HETATM   13  N   UNL     1      -8.522  14.241  66.588  1.00  0.00    -0.423 N  
HETATM   14  H   UNL     1      -7.874  13.918  65.869  1.00  0.00     0.000 HD 
HETATM   15  N   UNL     1      -9.765  13.733  68.567  1.00  0.00    -0.219 NA 
HETATM   16  N   UNL     1     -11.332  16.921  69.002  1.00  0.00     0.022 NA 
HETATM   17  C   UNL     1     -11.144  15.661  69.432  1.00  0.00    -0.303 A  
HETATM   18  C   UNL     1      -9.879  15.867  67.618  1.00  0.00    -0.233 A  
HETATM   19  O   UNL     1      -8.606  16.371  65.725  1.00  0.00    -0.398 OA 
HETATM   20  C   UNL     1     -10.542  18.252  67.148  1.00  0.00    -0.367 C  
HETATM   21  C   UNL     1     -10.252  14.981  68.584  1.00  0.00    -0.231 A  
HETATM   22  N   UNL     1     -10.556  17.016  67.892  1.00  0.00    -0.358 NA 
BRANCH  17  23
HETATM   23  C   UNL     1     -11.849  15.182  70.656  1.00  0.00    -0.371 C  
BRANCH  23  24
HETATM   24  C   UNL     1     -11.909  16.212  71.787  1.00  0.00    -0.581 C  
HETATM   25  C   UNL     1     -12.104  15.594  73.166  1.00  0.00    -0.598 C  
ENDBRANCH  23  24
ENDBRANCH  17  23
ENDBRANCH   6  11
BRANCH   9  26
HETATM   26  S   UNL     1      -9.926   8.246  68.130  1.00  0.00    -0.198 S  
HETATM   27  O   UNL     1     -10.407   7.667  66.897  1.00  0.00    -0.290 OA 
HETATM   28  O   UNL     1     -10.810   8.724  69.168  1.00  0.00    -0.173 OA 
BRANCH  26  29
HETATM   29  N   UNL     1      -8.855   7.100  68.811  1.00  0.00    -0.130 N  
HETATM   30  H   UNL     1      -8.130   7.373  69.475  1.00  0.00     0.000 HD 
BRANCH  29  31
HETATM   31  C   UNL     1      -9.032   5.695  68.389  1.00  0.00    -0.114 C  
BRANCH  31  32
HETATM   32  C   UNL     1     -10.078   4.971  69.229  1.00  0.00    -0.270 C  
BRANCH  32  33
HETATM   33  C   UNL     1     -10.005   5.447  70.692  1.00  0.00    -0.214 C  
HETATM   34  C   UNL     1     -11.253   6.209  71.132  1.00  0.00    -0.355 C  
HETATM   35  C   UNL     1     -11.221   6.068  72.635  1.00  0.00    -0.326 C  
HETATM   36  C   UNL     1      -8.542   3.952  71.947  1.00  0.00    -0.099 C  
HETATM   37  N   UNL     1      -9.920   4.317  71.633  1.00  0.00    -0.188 NA 
HETATM   38  C   UNL     1     -10.679   4.666  72.846  1.00  0.00    -0.225 C  
ENDBRANCH  32  33
ENDBRANCH  31  32
ENDBRANCH  29  31
ENDBRANCH  26  29
ENDBRANCH   9  26
ENDBRANCH   4   5
ENDBRANCH   3   4
ENDBRANCH   2   3
TORSDOF 11
ENDMDL
MODEL      151
REMARK 921   NORMALIZED FREE ENERGY PREDICTED BY IDOCK:   -4.77 KCAL/MOL
REMARK 922        TOTAL FREE ENERGY PREDICTED BY IDOCK:  -10.07 KCAL/MOL
REMARK 923 INTER-LIGAND FREE ENERGY PREDICTED BY IDOCK:   -8.26 KCAL/MOL
REMARK 924 INTRA-LIGAND FREE ENERGY PREDICTED BY IDOCK:   -1.82 KCAL/MOL
REMARK 927      BINDING AFFINITY PREDICTED BY RF-SCORE:    0.00 PKD
ROOT
HETATM    1  C   UNL     1      -5.490   8.415  74.285  1.00  0.00    -0.096 C  
HETATM    2  C   UNL     1      -5.820   7.526  73.101  1.00  0.00    -0.048 C  
ENDROOT
BRANCH   2   3
HETATM    3  C   UNL     1      -7.180   7.840  72.500  1.00  0.00    -0.084 C  
BRANCH   3   4
HETATM    4  O   UNL     1      -7.513   6.956  71.413  1.00  0.00    -0.080 OA 
BRANCH   4   5
HETATM    5  C   UNL     1      -7.272   7.477  70.154  1.00  0.00    -0.068 A  
HETATM    6  C   UNL     1      -8.302   8.155  69.459  1.00  0.00    -0.122 A  
HETATM    7  C   UNL     1      -8.061   8.620  68.143  1.00  0.00    -0.115 A  
HETATM    8  C   UNL     1      -6.029   7.313  69.527  1.00  0.00    -0.027 A  
HETATM    9  C   UNL     1      -6.821   8.391  67.532  1.00  0.00    -0.070 A  
HETATM   10  C   UNL     1      -5.821   7.726  68.223  1.00  0.00    -0.036 A  
BRANCH   6  11
HETATM   11  C   UNL     1      -9.679   8.385  70.058  1.00  0.00    -0.176 C  
HETATM   12  C   UNL     1     -11.546   7.465  71.141  1.00  0.00    -0.286 C  
HETATM   13  N   UNL     1     -10.297   7.343  70.554  1.00  0.00    -0.212 N  
HETATM   14  H   UNL     1      -9.851   6.427  70.507  1.00  0.00     0.000 HD 
HETATM   15  N   UNL     1     -10.191   9.674  70.027  1.00  0.00    -0.237 NA 
HETATM   16  N   UNL     1     -13.312  10.654  71.476  1.00  0.00    -0.318 NA 
HETATM   17  C   UNL     1     -12.194  10.992  70.812  1.00  0.00    -0.380 A  
HETATM   18  C   UNL     1     -12.045   8.803  71.155  1.00  0.00    -0.267 A  
HETATM   19  O   UNL     1     -12.168   6.512  71.602  1.00  0.00    -0.343 OA 
HETATM   20  C   UNL     1     -14.225   8.619  72.405  1.00  0.00    -0.363 C  
HETATM   21  C   UNL     1     -11.384   9.861  70.606  1.00  0.00    -0.339 A  
HETATM   22  N   UNL     1     -13.191   9.317  71.679  1.00  0.00    -0.368 NA 
BRANCH  17  23
HETATM   23  C   UNL     1     -11.971  12.410  70.408  1.00  0.00    -0.342 C  
BRANCH  23  24
HETATM   24  C   UNL     1     -12.586  13.437  71.362  1.00  0.00    -0.374 C  
HETATM   25  C   UNL     1     -12.862  14.787  70.712  1.00  0.00    -0.418 C  
ENDBRANCH  23  24
ENDBRANCH  17  23
ENDBRANCH   6  11
BRANCH   9  26
HETATM   26  S   UNL     1      -6.506   8.860  65.844  1.00  0.00    -0.057 S  
HETATM   27  O   UNL     1      -5.938   7.711  65.180  1.00  0.00    -0.037 OA 
HETATM   28  O   UNL     1      -5.853  10.148  65.880  1.00  0.00    -0.064 OA 
BRANCH  26  29
HETATM   29  N   UNL     1      -8.075   9.063  65.193  1.00  0.00    -0.123 N  
HETATM   30  H   UNL     1      -8.676   8.265  64.987  1.00  0.00     0.000 HD 
BRANCH  29  31
HETATM   31  C   UNL     1      -8.515  10.451  64.945  1.00  0.00    -0.175 C  
BRANCH  31  32
HETATM   32  C   UNL     1     -10.004  10.534  64.627  1.00  0.00    -0.415 C  
BRANCH  32  33
HETATM   33  C   UNL     1     -10.592  11.843  65.187  1.00  0.00    -0.287 C  
HETATM   34  C   UNL     1      -9.700  12.489  66.245  1.00  0.00    -0.259 C  
HETATM   35  C   UNL     1     -10.139  13.934  66.218  1.00  0.00    -0.306 C  
HETATM   36  C   UNL     1     -12.033  12.858  63.501  1.00  0.00    -0.556 C  
HETATM   37  N   UNL     1     -10.722  12.875  64.145  1.00  0.00    -0.400 NA 
HETATM   38  C   UNL     1     -10.433  14.186  64.750  1.00  0.00    -0.408 C  
ENDBRANCH  32  33
ENDBRANCH  31  32
ENDBRANCH  29  31
ENDBRANCH  26  29
ENDBRANCH   9  26
ENDBRANCH   4   5
ENDBRANCH   3   4
ENDBRANCH   2   3
TORSDOF 11
ENDMDL
MODEL      152
REMARK 921   NORMALIZED FREE ENERGY PREDICTED BY IDOCK:   -4.77 KCAL/MOL
REMARK 922        TOTAL FREE ENERGY PREDICTED BY IDOCK:  -10.07 KCAL/MOL
REMARK 923 INTER-LIGAND FREE ENERGY PREDICTED BY IDOCK:   -8.29 KCAL/MOL
REMARK 924 INTRA-LIGAND FREE ENERGY PREDICTED BY IDOCK:   -1.77 KCAL/MOL
REMARK 927      BINDING AFFINITY PREDICTED BY RF-SCORE:    0.00 PKD
ROOT
HETATM    1  C   UNL     1     -10.701   5.875  73.341  1.00  0.00    -0.293 C  
HETATM    2  C   UNL     1     -10.402   7.352  73.157  1.00  0.00    -0.384 C  
ENDROOT
BRANCH   2   3
HETATM    3  C   UNL     1     -11.635   8.149  72.767  1.00  0.00    -0.304 C  
BRANCH   3   4
HETATM    4  O   UNL     1     -11.961   8.003  71.372  1.00  0.00    -0.288 OA 
BRANCH   4   5
HETATM    5  C   UNL     1     -11.740   9.135  70.608  1.00  0.00    -0.209 A  
HETATM    6  C   UNL     1     -10.924   9.062  69.453  1.00  0.00    -0.082 A  
HETATM    7  C   UNL     1     -10.651  10.243  68.721  1.00  0.00    -0.231 A  
HETATM    8  C   UNL     1     -12.279  10.375  70.977  1.00  0.00    -0.498 A  
HETATM    9  C   UNL     1     -11.167  11.473  69.152  1.00  0.00    -0.274 A  
HETATM   10  C   UNL     1     -11.963  11.531  70.285  1.00  0.00    -0.455 A  
BRANCH   6  11
HETATM   11  C   UNL     1     -10.301   7.763  68.973  1.00  0.00    -0.211 C  
HETATM   12  C   UNL     1     -10.180   6.126  67.295  1.00  0.00    -0.191 C  
HETATM   13  N   UNL     1     -10.711   7.294  67.821  1.00  0.00    -0.399 N  
HETATM   14  H   UNL     1     -11.432   7.795  67.303  1.00  0.00     0.000 HD 
HETATM   15  N   UNL     1      -9.356   7.158  69.788  1.00  0.00    -0.147 NA 
HETATM   16  N   UNL     1      -7.544   4.191  68.941  1.00  0.00    -0.055 NA 
HETATM   17  C   UNL     1      -7.785   5.185  69.813  1.00  0.00    -0.071 A  
HETATM   18  C   UNL     1      -9.168   5.537  68.113  1.00  0.00    -0.109 A  
HETATM   19  O   UNL     1     -10.547   5.642  66.229  1.00  0.00    -0.202 OA 
HETATM   20  C   UNL     1      -8.381   3.560  66.764  1.00  0.00    -0.100 C  
HETATM   21  C   UNL     1      -8.784   6.042  69.319  1.00  0.00    -0.117 A  
HETATM   22  N   UNL     1      -8.395   4.435  67.912  1.00  0.00    -0.094 NA 
BRANCH  17  23
HETATM   23  C   UNL     1      -7.022   5.248  71.094  1.00  0.00    -0.056 C  
BRANCH  23  24
HETATM   24  C   UNL     1      -6.024   6.406  71.172  1.00  0.00    -0.028 C  
HETATM   25  C   UNL     1      -6.507   7.573  72.023  1.00  0.00    -0.042 C  
ENDBRANCH  23  24
ENDBRANCH  17  23
ENDBRANCH   6  11
BRANCH   9  26
HETATM   26  S   UNL     1     -10.764  12.999  68.330  1.00  0.00    -0.261 S  
HETATM   27  O   UNL     1     -11.832  13.280  67.400  1.00  0.00    -0.352 OA 
HETATM   28  O   UNL     1      -9.379  12.909  67.930  1.00  0.00    -0.193 OA 
BRANCH  26  29
HETATM   29  N   UNL     1     -10.896  14.164  69.576  1.00  0.00    -0.423 N  
HETATM   30  H   UNL     1     -11.615  14.097  70.297  1.00  0.00     0.000 HD 
BRANCH  29  31
HETATM   31  C   UNL     1      -9.917  15.270  69.556  1.00  0.00    -0.242 C  
BRANCH  31  32
HETATM   32  C   UNL     1     -10.580  16.619  69.297  1.00  0.00    -0.343 C  
BRANCH  32  33
HETATM   33  C   UNL     1      -9.867  17.345  68.141  1.00  0.00    -0.301 C  
HETATM   34  C   UNL     1      -8.495  17.888  68.536  1.00  0.00    -0.303 C  
HETATM   35  C   UNL     1      -7.789  18.018  67.207  1.00  0.00    -0.224 C  
HETATM   36  C   UNL     1     -10.653  16.433  66.019  1.00  0.00    -0.269 C  
HETATM   37  N   UNL     1      -9.585  16.438  67.014  1.00  0.00    -0.232 NA 
HETATM   38  C   UNL     1      -8.293  16.821  66.422  1.00  0.00    -0.309 C  
ENDBRANCH  32  33
ENDBRANCH  31  32
ENDBRANCH  29  31
ENDBRANCH  26  29
ENDBRANCH   9  26
ENDBRANCH   4   5
ENDBRANCH   3   4
ENDBRANCH   2   3
TORSDOF 11
ENDMDL
MODEL      153
REMARK 921   NORMALIZED FREE ENERGY PREDICTED BY IDOCK:   -4.76 KCAL/MOL
REMARK 922        TOTAL FREE ENERGY PREDICTED BY IDOCK:  -10.06 KCAL/MOL
REMARK 923 INTER-LIGAND FREE ENERGY PREDICTED BY IDOCK:   -7.88 KCAL/MOL
REMARK 924 INTRA-LIGAND FREE ENERGY PREDICTED BY IDOCK:   -2.18 KCAL/MOL
REMARK 927      BINDING AFFINITY PREDICTED BY RF-SCORE:    0.00 PKD
ROOT
HETATM    1  C   UNL     1      -6.972   7.462  70.278  1.00  0.00    -0.059 C  
HETATM    2  C   UNL     1      -7.705   8.773  70.062  1.00  0.00    -0.082 C  
ENDROOT
BRANCH   2   3
HETATM    3  C   UNL     1      -6.776   9.975  70.128  1.00  0.00    -0.128 C  
BRANCH   3   4
HETATM    4  O   UNL     1      -7.345  11.138  69.501  1.00  0.00    -0.108 OA 
BRANCH   4   5
HETATM    5  C   UNL     1      -7.670  10.971  68.166  1.00  0.00    -0.105 A  
HETATM    6  C   UNL     1      -8.988  11.233  67.719  1.00  0.00    -0.141 A  
HETATM    7  C   UNL     1      -9.322  10.990  66.365  1.00  0.00    -0.204 A  
HETATM    8  C   UNL     1      -6.724  10.506  67.242  1.00  0.00    -0.077 A  
HETATM    9  C   UNL     1      -8.360  10.476  65.484  1.00  0.00    -0.170 A  
HETATM   10  C   UNL     1      -7.074  10.224  65.934  1.00  0.00    -0.131 A  
BRANCH   6  11
HETATM   11  C   UNL     1     -10.078  11.743  68.644  1.00  0.00    -0.189 C  
HETATM   12  C   UNL     1     -11.567  11.277  70.398  1.00  0.00    -0.223 C  
HETATM   13  N   UNL     1     -10.584  10.891  69.500  1.00  0.00    -0.375 N  
HETATM   14  H   UNL     1     -10.249   9.928  69.506  1.00  0.00     0.000 HD 
HETATM   15  N   UNL     1     -10.473  13.067  68.512  1.00  0.00    -0.253 NA 
HETATM   16  N   UNL     1     -12.882  14.687  70.602  1.00  0.00    -0.351 NA 
HETATM   17  C   UNL     1     -12.013  14.755  69.580  1.00  0.00    -0.316 A  
HETATM   18  C   UNL     1     -11.931  12.654  70.292  1.00  0.00    -0.284 A  
HETATM   19  O   UNL     1     -12.080  10.507  71.204  1.00  0.00    -0.354 OA 
HETATM   20  C   UNL     1     -13.604  12.977  72.149  1.00  0.00    -0.526 C  
HETATM   21  C   UNL     1     -11.400  13.507  69.372  1.00  0.00    -0.233 A  
HETATM   22  N   UNL     1     -12.806  13.398  71.022  1.00  0.00    -0.288 NA 
BRANCH  17  23
HETATM   23  C   UNL     1     -11.822  16.044  68.854  1.00  0.00    -0.249 C  
BRANCH  23  24
HETATM   24  C   UNL     1     -10.448  16.684  69.063  1.00  0.00    -0.328 C  
HETATM   25  C   UNL     1     -10.244  17.968  68.268  1.00  0.00    -0.402 C  
ENDBRANCH  23  24
ENDBRANCH  17  23
ENDBRANCH   6  11
BRANCH   9  26
HETATM   26  S   UNL     1      -8.759  10.053  63.802  1.00  0.00    -0.238 S  
HETATM   27  O   UNL     1      -7.593  10.340  63.000  1.00  0.00    -0.143 OA 
HETATM   28  O   UNL     1     -10.060  10.616  63.524  1.00  0.00    -0.323 OA 
BRANCH  26  29
HETATM   29  N   UNL     1      -8.901   8.349  63.849  1.00  0.00    -0.318 N  
HETATM   30  H   UNL     1      -9.487   7.842  63.185  1.00  0.00     0.000 HD 
BRANCH  29  31
HETATM   31  C   UNL     1      -8.132   7.648  64.897  1.00  0.00    -0.128 C  
BRANCH  31  32
HETATM   32  C   UNL     1      -8.897   6.462  65.475  1.00  0.00    -0.026 C  
BRANCH  32  33
HETATM   33  C   UNL     1      -9.155   6.681  66.978  1.00  0.00    -0.130 C  
HETATM   34  C   UNL     1     -10.307   7.646  67.249  1.00  0.00    -0.367 C  
HETATM   35  C   UNL     1     -10.734   7.277  68.649  1.00  0.00    -0.172 C  
HETATM   36  C   UNL     1      -8.425   4.707  68.211  1.00  0.00    -0.097 C  
HETATM   37  N   UNL     1      -9.560   5.436  67.652  1.00  0.00    -0.122 NA 
HETATM   38  C   UNL     1     -10.552   5.770  68.688  1.00  0.00    -0.235 C  
ENDBRANCH  32  33
ENDBRANCH  31  32
ENDBRANCH  29  31
ENDBRANCH  26  29
ENDBRANCH   9  26
ENDBRANCH   4   5
ENDBRANCH   3   4
ENDBRANCH   2   3
TORSDOF 11
ENDMDL
MODEL      154
REMARK 921   NORMALIZED FREE ENERGY PREDICTED BY IDOCK:   -4.76 KCAL/MOL
REMARK 922        TOTAL FREE ENERGY PREDICTED BY IDOCK:  -10.05 KCAL/MOL
REMARK 923 INTER-LIGAND FREE ENERGY PREDICTED BY IDOCK:   -8.71 KCAL/MOL
REMARK 924 INTRA-LIGAND FREE ENERGY PREDICTED BY IDOCK:   -1.34 KCAL/MOL
REMARK 927      BINDING AFFINITY PREDICTED BY RF-SCORE:    0.00 PKD
ROOT
HETATM    1  C   UNL     1      -8.005   8.105  63.900  1.00  0.00    -0.138 C  
HETATM    2  C   UNL     1      -7.706   7.756  65.347  1.00  0.00    -0.106 C  
ENDROOT
BRANCH   2   3
HETATM    3  C   UNL     1      -8.906   7.970  66.255  1.00  0.00    -0.162 C  
BRANCH   3   4
HETATM    4  O   UNL     1      -8.565   8.706  67.444  1.00  0.00    -0.131 OA 
BRANCH   4   5
HETATM    5  C   UNL     1      -9.227   9.913  67.583  1.00  0.00    -0.133 A  
HETATM    6  C   UNL     1     -10.060  10.138  68.706  1.00  0.00    -0.198 A  
HETATM    7  C   UNL     1     -10.787  11.351  68.799  1.00  0.00    -0.251 A  
HETATM    8  C   UNL     1      -9.124  10.914  66.608  1.00  0.00    -0.175 A  
HETATM    9  C   UNL     1     -10.695  12.306  67.777  1.00  0.00    -0.217 A  
HETATM   10  C   UNL     1      -9.877  12.072  66.683  1.00  0.00    -0.220 A  
BRANCH   6  11
HETATM   11  C   UNL     1     -10.232   9.116  69.815  1.00  0.00    -0.207 C  
HETATM   12  C   UNL     1     -11.531   7.391  70.735  1.00  0.00    -0.288 C  
HETATM   13  N   UNL     1     -11.305   8.366  69.776  1.00  0.00    -0.445 N  
HETATM   14  H   UNL     1     -11.985   8.502  69.029  1.00  0.00     0.000 HD 
HETATM   15  N   UNL     1      -9.254   9.054  70.796  1.00  0.00    -0.224 NA 
HETATM   16  N   UNL     1      -9.208   6.681  73.474  1.00  0.00    -0.133 NA 
HETATM   17  C   UNL     1      -8.627   7.714  72.840  1.00  0.00    -0.143 A  
HETATM   18  C   UNL     1     -10.493   7.296  71.712  1.00  0.00    -0.197 A  
HETATM   19  O   UNL     1     -12.531   6.679  70.747  1.00  0.00    -0.314 OA 
HETATM   20  C   UNL     1     -11.203   5.356  73.156  1.00  0.00    -0.297 C  
HETATM   21  C   UNL     1      -9.401   8.110  71.735  1.00  0.00    -0.181 A  
HETATM   22  N   UNL     1     -10.338   6.442  72.761  1.00  0.00    -0.193 NA 
BRANCH  17  23
HETATM   23  C   UNL     1      -7.338   8.265  73.348  1.00  0.00    -0.160 C  
BRANCH  23  24
HETATM   24  C   UNL     1      -6.346   7.201  73.824  1.00  0.00    -0.065 C  
HETATM   25  C   UNL     1      -5.329   6.796  72.764  1.00  0.00    -0.037 C  
ENDBRANCH  23  24
ENDBRANCH  17  23
ENDBRANCH   6  11
BRANCH   9  26
HETATM   26  S   UNL     1     -11.669  13.795  67.794  1.00  0.00    -0.373 S  
HETATM   27  O   UNL     1     -12.233  13.922  69.118  1.00  0.00    -0.356 OA 
HETATM   28  O   UNL     1     -12.476  13.784  66.596  1.00  0.00    -0.386 OA 
BRANCH  26  29
HETATM   29  N   UNL     1     -10.498  15.033  67.651  1.00  0.00    -0.244 N  
HETATM   30  H   UNL     1      -9.796  15.192  68.375  1.00  0.00     0.000 HD 
BRANCH  29  31
HETATM   31  C   UNL     1     -10.553  15.859  66.428  1.00  0.00    -0.297 C  
BRANCH  31  32
HETATM   32  C   UNL     1      -9.241  16.592  66.170  1.00  0.00    -0.312 C  
BRANCH  32  33
HETATM   33  C   UNL     1      -9.185  17.885  67.006  1.00  0.00    -0.260 C  
HETATM   34  C   UNL     1      -7.920  17.988  67.855  1.00  0.00    -0.241 C  
HETATM   35  C   UNL     1      -7.803  19.473  68.105  1.00  0.00    -0.347 C  
HETATM   36  C   UNL     1     -10.481  19.620  65.884  1.00  0.00    -0.493 C  
HETATM   37  N   UNL     1      -9.149  19.087  66.156  1.00  0.00    -0.463 NA 
HETATM   38  C   UNL     1      -8.286  20.089  66.804  1.00  0.00    -0.323 C  
ENDBRANCH  32  33
ENDBRANCH  31  32
ENDBRANCH  29  31
ENDBRANCH  26  29
ENDBRANCH   9  26
ENDBRANCH   4   5
ENDBRANCH   3   4
ENDBRANCH   2   3
TORSDOF 11
ENDMDL
MODEL      155
REMARK 921   NORMALIZED FREE ENERGY PREDICTED BY IDOCK:   -4.75 KCAL/MOL
REMARK 922        TOTAL FREE ENERGY PREDICTED BY IDOCK:  -10.04 KCAL/MOL
REMARK 923 INTER-LIGAND FREE ENERGY PREDICTED BY IDOCK:   -8.21 KCAL/MOL
REMARK 924 INTRA-LIGAND FREE ENERGY PREDICTED BY IDOCK:   -1.83 KCAL/MOL
REMARK 927      BINDING AFFINITY PREDICTED BY RF-SCORE:    0.00 PKD
ROOT
HETATM    1  C   UNL     1     -13.136  13.022  71.741  1.00  0.00    -0.469 C  
HETATM    2  C   UNL     1     -13.495  11.610  72.165  1.00  0.00    -0.238 C  
ENDROOT
BRANCH   2   3
HETATM    3  C   UNL     1     -12.671  10.559  71.440  1.00  0.00    -0.442 C  
BRANCH   3   4
HETATM    4  O   UNL     1     -11.580  11.137  70.699  1.00  0.00    -0.286 OA 
BRANCH   4   5
HETATM    5  C   UNL     1     -10.692  10.217  70.171  1.00  0.00    -0.300 A  
HETATM    6  C   UNL     1     -10.009  10.504  68.964  1.00  0.00    -0.223 A  
HETATM    7  C   UNL     1      -9.157   9.523  68.400  1.00  0.00    -0.127 A  
HETATM    8  C   UNL     1     -10.479   8.977  70.789  1.00  0.00    -0.304 A  
HETATM    9  C   UNL     1      -9.010   8.276  69.022  1.00  0.00    -0.147 A  
HETATM   10  C   UNL     1      -9.685   8.008  70.202  1.00  0.00    -0.176 A  
BRANCH   6  11
HETATM   11  C   UNL     1     -10.172  11.820  68.226  1.00  0.00    -0.205 C  
HETATM   12  C   UNL     1     -10.393  14.153  68.361  1.00  0.00    -0.249 C  
HETATM   13  N   UNL     1     -10.266  12.906  68.952  1.00  0.00    -0.432 N  
HETATM   14  H   UNL     1     -10.245  12.832  69.969  1.00  0.00     0.000 HD 
HETATM   15  N   UNL     1     -10.223  11.784  66.840  1.00  0.00    -0.206 NA 
HETATM   16  N   UNL     1     -10.432  14.671  64.737  1.00  0.00    -0.384 NA 
HETATM   17  C   UNL     1     -10.352  13.335  64.855  1.00  0.00    -0.351 A  
HETATM   18  C   UNL     1     -10.391  14.113  66.933  1.00  0.00    -0.269 A  
HETATM   19  O   UNL     1     -10.502  15.193  69.004  1.00  0.00    -0.230 OA 
HETATM   20  C   UNL     1     -10.498  16.541  66.265  1.00  0.00    -0.281 C  
HETATM   21  C   UNL     1     -10.316  12.962  66.210  1.00  0.00    -0.268 A  
HETATM   22  N   UNL     1     -10.446  15.120  66.018  1.00  0.00    -0.303 NA 
BRANCH  17  23
HETATM   23  C   UNL     1     -10.314  12.484  63.630  1.00  0.00    -0.382 C  
BRANCH  23  24
HETATM   24  C   UNL     1     -11.514  11.546  63.482  1.00  0.00    -0.334 C  
HETATM   25  C   UNL     1     -12.859  12.256  63.564  1.00  0.00    -0.409 C  
ENDBRANCH  23  24
ENDBRANCH  17  23
ENDBRANCH   6  11
BRANCH   9  26
HETATM   26  S   UNL     1      -8.038   6.974  68.296  1.00  0.00    -0.124 S  
HETATM   27  O   UNL     1      -8.010   5.883  69.241  1.00  0.00    -0.096 OA 
HETATM   28  O   UNL     1      -6.840   7.587  67.770  1.00  0.00    -0.066 OA 
BRANCH  26  29
HETATM   29  N   UNL     1      -9.002   6.448  66.985  1.00  0.00    -0.117 N  
HETATM   30  H   UNL     1      -9.067   6.983  66.119  1.00  0.00     0.000 HD 
BRANCH  29  31
HETATM   31  C   UNL     1      -9.733   5.178  67.169  1.00  0.00    -0.157 C  
BRANCH  31  32
HETATM   32  C   UNL     1      -9.848   4.387  65.870  1.00  0.00    -0.237 C  
BRANCH  32  33
HETATM   33  C   UNL     1      -8.571   3.554  65.644  1.00  0.00    -0.115 C  
HETATM   34  C   UNL     1      -7.590   4.221  64.682  1.00  0.00    -0.077 C  
HETATM   35  C   UNL     1      -6.273   3.577  65.046  1.00  0.00    -0.024 C  
HETATM   36  C   UNL     1      -8.163   2.167  67.608  1.00  0.00    -0.066 C  
HETATM   37  N   UNL     1      -7.800   3.384  66.887  1.00  0.00    -0.080 NA 
HETATM   38  C   UNL     1      -6.367   3.408  66.552  1.00  0.00    -0.032 C  
ENDBRANCH  32  33
ENDBRANCH  31  32
ENDBRANCH  29  31
ENDBRANCH  26  29
ENDBRANCH   9  26
ENDBRANCH   4   5
ENDBRANCH   3   4
ENDBRANCH   2   3
TORSDOF 11
ENDMDL
MODEL      156
REMARK 921   NORMALIZED FREE ENERGY PREDICTED BY IDOCK:   -4.72 KCAL/MOL
REMARK 922        TOTAL FREE ENERGY PREDICTED BY IDOCK:  -10.00 KCAL/MOL
REMARK 923 INTER-LIGAND FREE ENERGY PREDICTED BY IDOCK:   -8.65 KCAL/MOL
REMARK 924 INTRA-LIGAND FREE ENERGY PREDICTED BY IDOCK:   -1.34 KCAL/MOL
REMARK 927      BINDING AFFINITY PREDICTED BY RF-SCORE:    0.00 PKD
ROOT
HETATM    1  C   UNL     1     -13.229  15.074  71.521  1.00  0.00    -0.484 C  
HETATM    2  C   UNL     1     -12.359  15.687  70.439  1.00  0.00    -0.427 C  
ENDROOT
BRANCH   2   3
HETATM    3  C   UNL     1     -12.083  14.720  69.299  1.00  0.00    -0.261 C  
BRANCH   3   4
HETATM    4  O   UNL     1     -11.198  13.654  69.690  1.00  0.00    -0.193 OA 
BRANCH   4   5
HETATM    5  C   UNL     1     -10.761  12.858  68.647  1.00  0.00    -0.247 A  
HETATM    6  C   UNL     1      -9.561  13.179  67.966  1.00  0.00    -0.220 A  
HETATM    7  C   UNL     1      -9.163  12.396  66.855  1.00  0.00    -0.209 A  
HETATM    8  C   UNL     1     -11.505  11.751  68.217  1.00  0.00    -0.370 A  
HETATM    9  C   UNL     1      -9.962  11.327  66.425  1.00  0.00    -0.215 A  
HETATM   10  C   UNL     1     -11.134  11.024  67.100  1.00  0.00    -0.333 A  
BRANCH   6  11
HETATM   11  C   UNL     1      -8.686  14.355  68.361  1.00  0.00    -0.180 C  
HETATM   12  C   UNL     1      -6.989  15.181  69.757  1.00  0.00    -0.174 C  
HETATM   13  N   UNL     1      -7.843  14.169  69.345  1.00  0.00    -0.346 N  
HETATM   14  H   UNL     1      -7.814  13.265  69.816  1.00  0.00     0.000 HD 
HETATM   15  N   UNL     1      -8.848  15.545  67.666  1.00  0.00    -0.177 NA 
HETATM   16  N   UNL     1      -6.872  18.483  68.182  1.00  0.00    -0.225 NA 
HETATM   17  C   UNL     1      -7.859  17.861  67.515  1.00  0.00    -0.212 A  
HETATM   18  C   UNL     1      -7.123  16.386  69.002  1.00  0.00    -0.208 A  
HETATM   19  O   UNL     1      -6.197  15.055  70.685  1.00  0.00    -0.100 OA 
HETATM   20  C   UNL     1      -5.339  17.891  69.953  1.00  0.00    -0.223 C  
HETATM   21  C   UNL     1      -8.030  16.552  67.999  1.00  0.00    -0.158 A  
HETATM   22  N   UNL     1      -6.437  17.559  69.076  1.00  0.00    -0.217 NA 
BRANCH  17  23
HETATM   23  C   UNL     1      -8.590  18.581  66.433  1.00  0.00    -0.272 C  
BRANCH  23  24
HETATM   24  C   UNL     1      -9.442  19.753  66.924  1.00  0.00    -0.481 C  
HETATM   25  C   UNL     1     -10.576  19.337  67.854  1.00  0.00    -0.478 C  
ENDBRANCH  23  24
ENDBRANCH  17  23
ENDBRANCH   6  11
BRANCH   9  26
HETATM   26  S   UNL     1      -9.561  10.382  64.972  1.00  0.00    -0.307 S  
HETATM   27  O   UNL     1      -8.129  10.450  64.798  1.00  0.00    -0.160 OA 
HETATM   28  O   UNL     1     -10.496  10.775  63.943  1.00  0.00    -0.338 OA 
BRANCH  26  29
HETATM   29  N   UNL     1      -9.910   8.774  65.440  1.00  0.00    -0.308 N  
HETATM   30  H   UNL     1     -10.851   8.386  65.363  1.00  0.00     0.000 HD 
BRANCH  29  31
HETATM   31  C   UNL     1      -8.781   7.975  65.959  1.00  0.00    -0.157 C  
BRANCH  31  32
HETATM   32  C   UNL     1      -8.146   7.108  64.877  1.00  0.00    -0.107 C  
BRANCH  32  33
HETATM   33  C   UNL     1      -8.322   5.618  65.223  1.00  0.00    -0.146 C  
HETATM   34  C   UNL     1      -9.304   5.386  66.370  1.00  0.00    -0.157 C  
HETATM   35  C   UNL     1      -9.740   3.956  66.156  1.00  0.00    -0.173 C  
HETATM   36  C   UNL     1      -7.867   4.276  63.238  1.00  0.00    -0.075 C  
HETATM   37  N   UNL     1      -8.893   4.857  64.099  1.00  0.00    -0.127 NA 
HETATM   38  C   UNL     1      -9.791   3.825  64.644  1.00  0.00    -0.190 C  
ENDBRANCH  32  33
ENDBRANCH  31  32
ENDBRANCH  29  31
ENDBRANCH  26  29
ENDBRANCH   9  26
ENDBRANCH   4   5
ENDBRANCH   3   4
ENDBRANCH   2   3
TORSDOF 11
ENDMDL
MODEL      157
REMARK 921   NORMALIZED FREE ENERGY PREDICTED BY IDOCK:   -4.72 KCAL/MOL
REMARK 922        TOTAL FREE ENERGY PREDICTED BY IDOCK:   -9.99 KCAL/MOL
REMARK 923 INTER-LIGAND FREE ENERGY PREDICTED BY IDOCK:   -8.16 KCAL/MOL
REMARK 924 INTRA-LIGAND FREE ENERGY PREDICTED BY IDOCK:   -1.82 KCAL/MOL
REMARK 927      BINDING AFFINITY PREDICTED BY RF-SCORE:    0.00 PKD
ROOT
HETATM    1  C   UNL     1     -10.134  15.132  66.829  1.00  0.00    -0.261 C  
HETATM    2  C   UNL     1     -11.018  15.388  68.036  1.00  0.00    -0.307 C  
ENDROOT
BRANCH   2   3
HETATM    3  C   UNL     1     -10.945  14.265  69.058  1.00  0.00    -0.260 C  
BRANCH   3   4
HETATM    4  O   UNL     1     -11.332  12.995  68.501  1.00  0.00    -0.248 OA 
BRANCH   4   5
HETATM    5  C   UNL     1     -11.417  11.966  69.422  1.00  0.00    -0.302 A  
HETATM    6  C   UNL     1     -10.568  10.838  69.303  1.00  0.00    -0.261 A  
HETATM    7  C   UNL     1     -10.715   9.762  70.211  1.00  0.00    -0.358 A  
HETATM    8  C   UNL     1     -12.360  11.995  70.458  1.00  0.00    -0.369 A  
HETATM    9  C   UNL     1     -11.705   9.807  71.203  1.00  0.00    -0.385 A  
HETATM   10  C   UNL     1     -12.529  10.916  71.307  1.00  0.00    -0.493 A  
BRANCH   6  11
HETATM   11  C   UNL     1      -9.514  10.719  68.217  1.00  0.00    -0.164 C  
HETATM   12  C   UNL     1      -8.947   9.914  66.086  1.00  0.00    -0.150 C  
HETATM   13  N   UNL     1      -9.840  10.053  67.138  1.00  0.00    -0.177 N  
HETATM   14  H   UNL     1     -10.765   9.630  67.070  1.00  0.00     0.000 HD 
HETATM   15  N   UNL     1      -8.279  11.308  68.446  1.00  0.00    -0.142 NA 
HETATM   16  N   UNL     1      -5.598  11.392  66.079  1.00  0.00    -0.222 NA 
HETATM   17  C   UNL     1      -6.076  11.725  67.289  1.00  0.00    -0.124 A  
HETATM   18  C   UNL     1      -7.697  10.569  66.306  1.00  0.00    -0.135 A  
HETATM   19  O   UNL     1      -9.205   9.284  65.066  1.00  0.00    -0.235 OA 
HETATM   20  C   UNL     1      -6.441  10.203  64.152  1.00  0.00    -0.119 C  
HETATM   21  C   UNL     1      -7.383  11.233  67.454  1.00  0.00    -0.115 A  
HETATM   22  N   UNL     1      -6.608  10.695  65.498  1.00  0.00    -0.092 NA 
BRANCH  17  23
HETATM   23  C   UNL     1      -5.228  12.511  68.231  1.00  0.00    -0.062 C  
BRANCH  23  24
HETATM   24  C   UNL     1      -5.903  13.770  68.780  1.00  0.00    -0.084 C  
HETATM   25  C   UNL     1      -6.232  14.803  67.710  1.00  0.00    -0.157 C  
ENDBRANCH  23  24
ENDBRANCH  17  23
ENDBRANCH   6  11
BRANCH   9  26
HETATM   26  S   UNL     1     -12.000   8.435  72.297  1.00  0.00    -0.385 S  
HETATM   27  O   UNL     1     -13.211   8.724  73.029  1.00  0.00    -0.292 OA 
HETATM   28  O   UNL     1     -10.745   8.137  72.946  1.00  0.00    -0.352 OA 
BRANCH  26  29
HETATM   29  N   UNL     1     -12.380   7.154  71.229  1.00  0.00    -0.362 N  
HETATM   30  H   UNL     1     -13.284   7.098  70.761  1.00  0.00     0.000 HD 
BRANCH  29  31
HETATM   31  C   UNL     1     -11.332   6.135  71.019  1.00  0.00    -0.282 C  
BRANCH  31  32
HETATM   32  C   UNL     1     -11.064   5.883  69.539  1.00  0.00    -0.403 C  
BRANCH  32  33
HETATM   33  C   UNL     1      -9.666   5.263  69.353  1.00  0.00    -0.174 C  
HETATM   34  C   UNL     1      -9.484   3.963  70.134  1.00  0.00    -0.261 C  
HETATM   35  C   UNL     1      -8.358   3.281  69.394  1.00  0.00    -0.087 C  
HETATM   36  C   UNL     1      -8.770   5.944  67.190  1.00  0.00    -0.108 C  
HETATM   37  N   UNL     1      -9.417   4.881  67.953  1.00  0.00    -0.132 NA 
HETATM   38  C   UNL     1      -8.618   3.644  67.943  1.00  0.00    -0.098 C  
ENDBRANCH  32  33
ENDBRANCH  31  32
ENDBRANCH  29  31
ENDBRANCH  26  29
ENDBRANCH   9  26
ENDBRANCH   4   5
ENDBRANCH   3   4
ENDBRANCH   2   3
TORSDOF 11
ENDMDL
MODEL      158
REMARK 921   NORMALIZED FREE ENERGY PREDICTED BY IDOCK:   -4.71 KCAL/MOL
REMARK 922        TOTAL FREE ENERGY PREDICTED BY IDOCK:   -9.98 KCAL/MOL
REMARK 923 INTER-LIGAND FREE ENERGY PREDICTED BY IDOCK:   -8.57 KCAL/MOL
REMARK 924 INTRA-LIGAND FREE ENERGY PREDICTED BY IDOCK:   -1.41 KCAL/MOL
REMARK 927      BINDING AFFINITY PREDICTED BY RF-SCORE:    0.00 PKD
ROOT
HETATM    1  C   UNL     1     -10.304  11.191  63.869  1.00  0.00    -0.441 C  
HETATM    2  C   UNL     1     -10.570  10.639  65.257  1.00  0.00    -0.191 C  
ENDROOT
BRANCH   2   3
HETATM    3  C   UNL     1      -9.803   9.355  65.527  1.00  0.00    -0.161 C  
BRANCH   3   4
HETATM    4  O   UNL     1      -9.328   9.280  66.884  1.00  0.00    -0.141 OA 
BRANCH   4   5
HETATM    5  C   UNL     1      -8.638  10.399  67.315  1.00  0.00    -0.126 A  
HETATM    6  C   UNL     1      -8.967  11.000  68.554  1.00  0.00    -0.163 A  
HETATM    7  C   UNL     1      -8.300  12.186  68.949  1.00  0.00     0.180 A  
HETATM    8  C   UNL     1      -7.637  10.982  66.526  1.00  0.00    -0.146 A  
HETATM    9  C   UNL     1      -7.341  12.766  68.108  1.00  0.00    -0.118 A  
HETATM   10  C   UNL     1      -7.029  12.169  66.897  1.00  0.00     0.006 A  
BRANCH   6  11
HETATM   11  C   UNL     1     -10.033  10.439  69.478  1.00  0.00    -0.202 C  
HETATM   12  C   UNL     1     -11.939  10.851  70.785  1.00  0.00    -0.346 C  
HETATM   13  N   UNL     1     -10.917  11.280  69.953  1.00  0.00    -0.471 N  
HETATM   14  H   UNL     1     -10.851  12.268  69.707  1.00  0.00     0.000 HD 
HETATM   15  N   UNL     1      -9.991   9.082  69.766  1.00  0.00    -0.189 NA 
HETATM   16  N   UNL     1     -12.409   7.353  71.757  1.00  0.00    -0.320 NA 
HETATM   17  C   UNL     1     -11.292   7.316  71.012  1.00  0.00    -0.274 A  
HETATM   18  C   UNL     1     -11.922   9.444  71.034  1.00  0.00    -0.315 A  
HETATM   19  O   UNL     1     -12.776  11.607  71.266  1.00  0.00    -0.393 OA 
HETATM   20  C   UNL     1     -13.976   9.059  72.442  1.00  0.00    -0.448 C  
HETATM   21  C   UNL     1     -10.971   8.601  70.542  1.00  0.00    -0.238 A  
HETATM   22  N   UNL     1     -12.776   8.660  71.748  1.00  0.00    -0.341 NA 
BRANCH  17  23
HETATM   23  C   UNL     1     -10.589   6.018  70.794  1.00  0.00    -0.316 C  
BRANCH  23  24
HETATM   24  C   UNL     1     -10.765   5.439  69.389  1.00  0.00    -0.226 C  
HETATM   25  C   UNL     1      -9.671   4.454  68.992  1.00  0.00    -0.223 C  
ENDBRANCH  23  24
ENDBRANCH  17  23
ENDBRANCH   6  11
BRANCH   9  26
HETATM   26  S   UNL     1      -6.555  14.312  68.508  1.00  0.00    -0.106 S  
HETATM   27  O   UNL     1      -5.457  14.485  67.587  1.00  0.00    -0.312 OA 
HETATM   28  O   UNL     1      -6.386  14.339  69.943  1.00  0.00    -0.135 OA 
BRANCH  26  29
HETATM   29  N   UNL     1      -7.731  15.475  68.075  1.00  0.00    -0.123 N  
HETATM   30  H   UNL     1      -7.996  15.633  67.103  1.00  0.00     0.000 HD 
BRANCH  29  31
HETATM   31  C   UNL     1      -8.345  16.239  69.180  1.00  0.00    -0.211 C  
BRANCH  31  32
HETATM   32  C   UNL     1      -9.736  16.752  68.821  1.00  0.00    -0.261 C  
BRANCH  32  33
HETATM   33  C   UNL     1      -9.630  18.121  68.122  1.00  0.00    -0.307 C  
HETATM   34  C   UNL     1      -8.461  18.961  68.634  1.00  0.00    -0.381 C  
HETATM   35  C   UNL     1      -8.210  19.918  67.493  1.00  0.00    -0.358 C  
HETATM   36  C   UNL     1     -10.597  17.955  65.889  1.00  0.00    -0.215 C  
HETATM   37  N   UNL     1      -9.370  17.981  66.679  1.00  0.00    -0.284 NA 
HETATM   38  C   UNL     1      -8.478  19.075  66.259  1.00  0.00    -0.280 C  
ENDBRANCH  32  33
ENDBRANCH  31  32
ENDBRANCH  29  31
ENDBRANCH  26  29
ENDBRANCH   9  26
ENDBRANCH   4   5
ENDBRANCH   3   4
ENDBRANCH   2   3
TORSDOF 11
ENDMDL
MODEL      159
REMARK 921   NORMALIZED FREE ENERGY PREDICTED BY IDOCK:   -4.67 KCAL/MOL
REMARK 922        TOTAL FREE ENERGY PREDICTED BY IDOCK:   -9.91 KCAL/MOL
REMARK 923 INTER-LIGAND FREE ENERGY PREDICTED BY IDOCK:   -8.17 KCAL/MOL
REMARK 924 INTRA-LIGAND FREE ENERGY PREDICTED BY IDOCK:   -1.74 KCAL/MOL
REMARK 927      BINDING AFFINITY PREDICTED BY RF-SCORE:    0.00 PKD
ROOT
HETATM    1  C   UNL     1     -12.784  15.713  71.514  1.00  0.00    -0.522 C  
HETATM    2  C   UNL     1     -12.729  14.512  70.589  1.00  0.00    -0.421 C  
ENDROOT
BRANCH   2   3
HETATM    3  C   UNL     1     -12.945  13.201  71.326  1.00  0.00    -0.254 C  
BRANCH   3   4
HETATM    4  O   UNL     1     -13.023  12.078  70.429  1.00  0.00     0.137 OA 
BRANCH   4   5
HETATM    5  C   UNL     1     -11.983  11.174  70.547  1.00  0.00    -0.380 A  
HETATM    6  C   UNL     1     -10.940  11.166  69.588  1.00  0.00    -0.254 A  
HETATM    7  C   UNL     1      -9.918  10.189  69.683  1.00  0.00    -0.262 A  
HETATM    8  C   UNL     1     -11.956  10.229  71.582  1.00  0.00    -0.246 A  
HETATM    9  C   UNL     1      -9.955   9.230  70.704  1.00  0.00    -0.273 A  
HETATM   10  C   UNL     1     -10.981   9.248  71.635  1.00  0.00    -0.433 A  
BRANCH   6  11
HETATM   11  C   UNL     1     -10.881  12.152  68.436  1.00  0.00    -0.224 C  
HETATM   12  C   UNL     1     -11.882  12.973  66.478  1.00  0.00    -0.403 C  
HETATM   13  N   UNL     1     -11.844  12.095  67.550  1.00  0.00    -0.305 N  
HETATM   14  H   UNL     1     -12.577  11.394  67.651  1.00  0.00     0.000 HD 
HETATM   15  N   UNL     1      -9.810  13.033  68.391  1.00  0.00    -0.225 NA 
HETATM   16  N   UNL     1      -9.398  15.607  65.941  1.00  0.00    -0.340 NA 
HETATM   17  C   UNL     1      -8.945  14.979  67.039  1.00  0.00    -0.234 A  
HETATM   18  C   UNL     1     -10.806  13.912  66.467  1.00  0.00    -0.295 A  
HETATM   19  O   UNL     1     -12.755  12.943  65.616  1.00  0.00    -0.537 OA 
HETATM   20  C   UNL     1     -11.311  15.381  64.483  1.00  0.00    -0.313 C  
HETATM   21  C   UNL     1      -9.807  13.926  67.393  1.00  0.00    -0.237 A  
HETATM   22  N   UNL     1     -10.537  14.942  65.619  1.00  0.00    -0.321 NA 
BRANCH  17  23
HETATM   23  C   UNL     1      -7.686  15.441  67.690  1.00  0.00    -0.180 C  
BRANCH  23  24
HETATM   24  C   UNL     1      -7.888  16.542  68.734  1.00  0.00    -0.235 C  
HETATM   25  C   UNL     1      -6.613  17.305  69.073  1.00  0.00    -0.230 C  
ENDBRANCH  23  24
ENDBRANCH  17  23
ENDBRANCH   6  11
BRANCH   9  26
HETATM   26  S   UNL     1      -8.757   7.918  70.802  1.00  0.00    -0.136 S  
HETATM   27  O   UNL     1      -9.215   6.994  71.813  1.00  0.00    -0.142 OA 
HETATM   28  O   UNL     1      -7.453   8.540  70.842  1.00  0.00    -0.059 OA 
BRANCH  26  29
HETATM   29  N   UNL     1      -8.931   7.113  69.303  1.00  0.00    -0.139 N  
HETATM   30  H   UNL     1      -9.788   7.183  68.754  1.00  0.00     0.000 HD 
BRANCH  29  31
HETATM   31  C   UNL     1      -7.778   6.313  68.843  1.00  0.00    -0.097 C  
BRANCH  31  32
HETATM   32  C   UNL     1      -7.189   6.848  67.542  1.00  0.00    -0.090 C  
BRANCH  32  33
HETATM   33  C   UNL     1      -7.815   6.117  66.339  1.00  0.00    -0.104 C  
HETATM   34  C   UNL     1      -6.998   4.909  65.886  1.00  0.00    -0.066 C  
HETATM   35  C   UNL     1      -8.016   4.070  65.152  1.00  0.00    -0.093 C  
HETATM   36  C   UNL     1     -10.228   6.478  66.352  1.00  0.00     0.031 C  
HETATM   37  N   UNL     1      -9.138   5.558  66.665  1.00  0.00    -0.123 NA 
HETATM   38  C   UNL     1      -9.289   4.277  65.954  1.00  0.00    -0.163 C  
ENDBRANCH  32  33
ENDBRANCH  31  32
ENDBRANCH  29  31
ENDBRANCH  26  29
ENDBRANCH   9  26
ENDBRANCH   4   5
ENDBRANCH   3   4
ENDBRANCH   2   3
TORSDOF 11
ENDMDL
MODEL      160
REMARK 921   NORMALIZED FREE ENERGY PREDICTED BY IDOCK:   -4.67 KCAL/MOL
REMARK 922        TOTAL FREE ENERGY PREDICTED BY IDOCK:   -9.91 KCAL/MOL
REMARK 923 INTER-LIGAND FREE ENERGY PREDICTED BY IDOCK:   -8.16 KCAL/MOL
REMARK 924 INTRA-LIGAND FREE ENERGY PREDICTED BY IDOCK:   -1.75 KCAL/MOL
REMARK 927      BINDING AFFINITY PREDICTED BY RF-SCORE:    0.00 PKD
ROOT
HETATM    1  C   UNL     1      -9.807   7.511  73.366  1.00  0.00    -0.365 C  
HETATM    2  C   UNL     1     -11.020   7.981  72.585  1.00  0.00    -0.448 C  
ENDROOT
BRANCH   2   3
HETATM    3  C   UNL     1     -10.642   8.786  71.353  1.00  0.00    -0.279 C  
BRANCH   3   4
HETATM    4  O   UNL     1     -11.251   8.269  70.156  1.00  0.00    -0.231 OA 
BRANCH   4   5
HETATM    5  C   UNL     1     -10.687   8.727  68.979  1.00  0.00    -0.112 A  
HETATM    6  C   UNL     1      -9.929   7.848  68.168  1.00  0.00    -0.210 A  
HETATM    7  C   UNL     1      -9.299   8.349  67.002  1.00  0.00    -0.202 A  
HETATM    8  C   UNL     1     -10.817  10.066  68.586  1.00  0.00    -0.265 A  
HETATM    9  C   UNL     1      -9.411   9.706  66.671  1.00  0.00    -0.156 A  
HETATM   10  C   UNL     1     -10.155  10.556  67.473  1.00  0.00    -0.225 A  
BRANCH   6  11
HETATM   11  C   UNL     1      -9.737   6.381  68.509  1.00  0.00    -0.132 C  
HETATM   12  C   UNL     1      -9.816   4.702  70.148  1.00  0.00    -0.236 C  
HETATM   13  N   UNL     1      -9.945   6.024  69.752  1.00  0.00    -0.167 N  
HETATM   14  H   UNL     1     -10.207   6.731  70.439  1.00  0.00     0.000 HD 
HETATM   15  N   UNL     1      -9.343   5.525  67.491  1.00  0.00    -0.110 NA 
HETATM   16  N   UNL     1      -8.946   1.988  67.851  1.00  0.00    -0.128 NA 
HETATM   17  C   UNL     1      -8.903   3.078  67.066  1.00  0.00    -0.142 A  
HETATM   18  C   UNL     1      -9.462   3.818  69.083  1.00  0.00    -0.172 A  
HETATM   19  O   UNL     1      -9.984   4.327  71.304  1.00  0.00    -0.186 OA 
HETATM   20  C   UNL     1      -9.465   1.543  70.168  1.00  0.00    -0.081 C  
HETATM   21  C   UNL     1      -9.229   4.228  67.805  1.00  0.00    -0.145 A  
HETATM   22  N   UNL     1      -9.296   2.466  69.072  1.00  0.00    -0.149 NA 
BRANCH  17  23
HETATM   23  C   UNL     1      -8.544   2.940  65.625  1.00  0.00    -0.116 C  
BRANCH  23  24
HETATM   24  C   UNL     1      -9.699   3.226  64.662  1.00  0.00    -0.149 C  
HETATM   25  C   UNL     1      -9.276   3.984  63.409  1.00  0.00    -0.130 C  
ENDBRANCH  23  24
ENDBRANCH  17  23
ENDBRANCH   6  11
BRANCH   9  26
HETATM   26  S   UNL     1      -8.551  10.406  65.279  1.00  0.00    -0.179 S  
HETATM   27  O   UNL     1      -9.110   9.812  64.087  1.00  0.00    -0.237 OA 
HETATM   28  O   UNL     1      -7.140  10.360  65.589  1.00  0.00    -0.138 OA 
BRANCH  26  29
HETATM   29  N   UNL     1      -9.057  12.040  65.283  1.00  0.00    -0.404 N  
HETATM   30  H   UNL     1      -8.480  12.778  65.685  1.00  0.00     0.000 HD 
BRANCH  29  31
HETATM   31  C   UNL     1     -10.373  12.327  64.676  1.00  0.00    -0.301 C  
BRANCH  31  32
HETATM   32  C   UNL     1     -10.653  13.823  64.592  1.00  0.00    -0.443 C  
BRANCH  32  33
HETATM   33  C   UNL     1     -11.004  14.374  65.987  1.00  0.00    -0.316 C  
HETATM   34  C   UNL     1     -12.097  13.567  66.686  1.00  0.00    -0.447 C  
HETATM   35  C   UNL     1     -11.874  13.892  68.144  1.00  0.00    -0.407 C  
HETATM   36  C   UNL     1      -9.061  15.528  66.905  1.00  0.00    -0.241 C  
HETATM   37  N   UNL     1      -9.858  14.305  66.910  1.00  0.00    -0.256 NA 
HETATM   38  C   UNL     1     -10.363  13.992  68.257  1.00  0.00    -0.247 C  
ENDBRANCH  32  33
ENDBRANCH  31  32
ENDBRANCH  29  31
ENDBRANCH  26  29
ENDBRANCH   9  26
ENDBRANCH   4   5
ENDBRANCH   3   4
ENDBRANCH   2   3
TORSDOF 11
ENDMDL
MODEL      161
REMARK 921   NORMALIZED FREE ENERGY PREDICTED BY IDOCK:   -4.66 KCAL/MOL
REMARK 922        TOTAL FREE ENERGY PREDICTED BY IDOCK:   -9.90 KCAL/MOL
REMARK 923 INTER-LIGAND FREE ENERGY PREDICTED BY IDOCK:   -8.88 KCAL/MOL
REMARK 924 INTRA-LIGAND FREE ENERGY PREDICTED BY IDOCK:   -1.02 KCAL/MOL
REMARK 927      BINDING AFFINITY PREDICTED BY RF-SCORE:    0.00 PKD
ROOT
HETATM    1  C   UNL     1     -10.816  16.376  65.132  1.00  0.00    -0.289 C  
HETATM    2  C   UNL     1      -9.691  15.556  65.736  1.00  0.00    -0.383 C  
ENDROOT
BRANCH   2   3
HETATM    3  C   UNL     1      -9.987  14.066  65.725  1.00  0.00    -0.298 C  
BRANCH   3   4
HETATM    4  O   UNL     1      -9.291  13.364  66.772  1.00  0.00    -0.246 OA 
BRANCH   4   5
HETATM    5  C   UNL     1      -9.474  11.993  66.765  1.00  0.00    -0.208 A  
HETATM    6  C   UNL     1     -10.327  11.386  67.719  1.00  0.00    -0.206 A  
HETATM    7  C   UNL     1     -10.448   9.975  67.743  1.00  0.00    -0.282 A  
HETATM    8  C   UNL     1      -8.795  11.176  65.850  1.00  0.00    -0.193 A  
HETATM    9  C   UNL     1      -9.714   9.190  66.844  1.00  0.00    -0.194 A  
HETATM   10  C   UNL     1      -8.881   9.796  65.916  1.00  0.00    -0.175 A  
BRANCH   6  11
HETATM   11  C   UNL     1     -11.106  12.189  68.745  1.00  0.00    -0.250 C  
HETATM   12  C   UNL     1     -11.848  14.296  69.464  1.00  0.00    -0.329 C  
HETATM   13  N   UNL     1     -11.141  13.488  68.587  1.00  0.00    -0.258 N  
HETATM   14  H   UNL     1     -10.640  13.912  67.807  1.00  0.00     0.000 HD 
HETATM   15  N   UNL     1     -11.714  11.497  69.782  1.00  0.00    -0.326 NA 
HETATM   16  N   UNL     1     -13.769  12.998  72.297  1.00  0.00    -0.557 NA 
HETATM   17  C   UNL     1     -13.214  11.893  71.772  1.00  0.00    -0.321 A  
HETATM   18  C   UNL     1     -12.516  13.572  70.499  1.00  0.00    -0.302 A  
HETATM   19  O   UNL     1     -11.893  15.518  69.364  1.00  0.00    -0.343 OA 
HETATM   20  C   UNL     1     -13.771  15.354  71.764  1.00  0.00    -0.511 C  
HETATM   21  C   UNL     1     -12.437  12.220  70.646  1.00  0.00    -0.236 A  
HETATM   22  N   UNL     1     -13.333  14.005  71.498  1.00  0.00    -0.353 NA 
BRANCH  17  23
HETATM   23  C   UNL     1     -13.472  10.564  72.398  1.00  0.00     0.041 C  
BRANCH  23  24
HETATM   24  C   UNL     1     -12.887   9.382  71.623  1.00  0.00    -0.461 C  
HETATM   25  C   UNL     1     -12.316   8.287  72.516  1.00  0.00    -0.335 C  
ENDBRANCH  23  24
ENDBRANCH  17  23
ENDBRANCH   6  11
BRANCH   9  26
HETATM   26  S   UNL     1      -9.749   7.412  66.905  1.00  0.00    -0.218 S  
HETATM   27  O   UNL     1      -9.177   6.930  65.670  1.00  0.00     0.032 OA 
HETATM   28  O   UNL     1     -11.066   7.033  67.361  1.00  0.00    -0.274 OA 
BRANCH  26  29
HETATM   29  N   UNL     1      -8.618   7.039  68.134  1.00  0.00    -0.128 N  
HETATM   30  H   UNL     1      -8.079   6.173  68.120  1.00  0.00     0.000 HD 
BRANCH  29  31
HETATM   31  C   UNL     1      -8.463   8.033  69.215  1.00  0.00    -0.136 C  
BRANCH  31  32
HETATM   32  C   UNL     1      -9.368   7.734  70.405  1.00  0.00    -0.160 C  
BRANCH  32  33
HETATM   33  C   UNL     1      -8.520   7.324  71.624  1.00  0.00    -0.112 C  
HETATM   34  C   UNL     1      -8.690   8.269  72.812  1.00  0.00    -0.288 C  
HETATM   35  C   UNL     1      -8.273   7.414  73.985  1.00  0.00    -0.198 C  
HETATM   36  C   UNL     1      -8.147   4.914  71.564  1.00  0.00    -0.111 C  
HETATM   37  N   UNL     1      -8.917   6.007  72.150  1.00  0.00    -0.142 NA 
HETATM   38  C   UNL     1      -8.789   6.034  73.617  1.00  0.00    -0.124 C  
ENDBRANCH  32  33
ENDBRANCH  31  32
ENDBRANCH  29  31
ENDBRANCH  26  29
ENDBRANCH   9  26
ENDBRANCH   4   5
ENDBRANCH   3   4
ENDBRANCH   2   3
TORSDOF 11
ENDMDL
MODEL      162
REMARK 921   NORMALIZED FREE ENERGY PREDICTED BY IDOCK:   -4.65 KCAL/MOL
REMARK 922        TOTAL FREE ENERGY PREDICTED BY IDOCK:   -9.88 KCAL/MOL
REMARK 923 INTER-LIGAND FREE ENERGY PREDICTED BY IDOCK:   -8.74 KCAL/MOL
REMARK 924 INTRA-LIGAND FREE ENERGY PREDICTED BY IDOCK:   -1.14 KCAL/MOL
REMARK 927      BINDING AFFINITY PREDICTED BY RF-SCORE:    0.00 PKD
ROOT
HETATM    1  C   UNL     1      -5.512  11.891  70.770  1.00  0.00    -0.142 C  
HETATM    2  C   UNL     1      -6.278  12.170  69.490  1.00  0.00    -0.124 C  
ENDROOT
BRANCH   2   3
HETATM    3  C   UNL     1      -6.055  11.099  68.435  1.00  0.00    -0.045 C  
BRANCH   3   4
HETATM    4  O   UNL     1      -7.173  10.199  68.326  1.00  0.00    -0.078 OA 
BRANCH   4   5
HETATM    5  C   UNL     1      -8.192  10.645  67.504  1.00  0.00    -0.111 A  
HETATM    6  C   UNL     1      -9.312   9.816  67.250  1.00  0.00    -0.161 A  
HETATM    7  C   UNL     1     -10.313  10.258  66.351  1.00  0.00    -0.262 A  
HETATM    8  C   UNL     1      -8.124  11.898  66.879  1.00  0.00    -0.146 A  
HETATM    9  C   UNL     1     -10.183  11.496  65.707  1.00  0.00    -0.249 A  
HETATM   10  C   UNL     1      -9.082  12.298  65.964  1.00  0.00    -0.016 A  
BRANCH   6  11
HETATM   11  C   UNL     1      -9.475   8.446  67.885  1.00  0.00    -0.146 C  
HETATM   12  C   UNL     1      -8.744   6.219  68.007  1.00  0.00    -0.114 C  
HETATM   13  N   UNL     1      -8.680   7.494  67.466  1.00  0.00    -0.125 N  
HETATM   14  H   UNL     1      -8.003   7.694  66.731  1.00  0.00     0.000 HD 
HETATM   15  N   UNL     1     -10.460   8.293  68.850  1.00  0.00    -0.215 NA 
HETATM   16  N   UNL     1     -11.049   5.283  70.692  1.00  0.00     0.064 NA 
HETATM   17  C   UNL     1     -11.367   6.566  70.450  1.00  0.00    -0.383 A  
HETATM   18  C   UNL     1      -9.723   6.083  69.038  1.00  0.00    -0.133 A  
HETATM   19  O   UNL     1      -8.031   5.294  67.632  1.00  0.00    -0.099 OA 
HETATM   20  C   UNL     1      -9.428   3.710  69.835  1.00  0.00    -0.192 C  
HETATM   21  C   UNL     1     -10.551   7.090  69.432  1.00  0.00    -0.230 A  
HETATM   22  N   UNL     1     -10.040   5.017  69.824  1.00  0.00    -0.252 NA 
BRANCH  17  23
HETATM   23  C   UNL     1     -12.457   7.220  71.229  1.00  0.00    -0.402 C  
BRANCH  23  24
HETATM   24  C   UNL     1     -11.965   8.221  72.277  1.00  0.00    -0.448 C  
HETATM   25  C   UNL     1     -10.768   7.727  73.079  1.00  0.00    -0.446 C  
ENDBRANCH  23  24
ENDBRANCH  17  23
ENDBRANCH   6  11
BRANCH   9  26
HETATM   26  S   UNL     1     -11.357  12.047  64.489  1.00  0.00    -0.321 S  
HETATM   27  O   UNL     1     -12.658  12.041  65.116  1.00  0.00    -0.396 OA 
HETATM   28  O   UNL     1     -11.070  11.327  63.270  1.00  0.00    -0.270 OA 
BRANCH  26  29
HETATM   29  N   UNL     1     -10.944  13.691  64.260  1.00  0.00    -0.558 N  
HETATM   30  H   UNL     1     -10.149  13.968  63.685  1.00  0.00     0.000 HD 
BRANCH  29  31
HETATM   31  C   UNL     1     -11.798  14.689  64.937  1.00  0.00    -0.403 C  
BRANCH  31  32
HETATM   32  C   UNL     1     -11.710  14.585  66.456  1.00  0.00    -0.380 C  
BRANCH  32  33
HETATM   33  C   UNL     1     -10.631  15.545  66.991  1.00  0.00    -0.311 C  
HETATM   34  C   UNL     1     -10.097  16.494  65.919  1.00  0.00    -0.359 C  
HETATM   35  C   UNL     1      -9.541  17.639  66.731  1.00  0.00    -0.297 C  
HETATM   36  C   UNL     1     -10.986  15.898  69.378  1.00  0.00    -0.309 C  
HETATM   37  N   UNL     1     -11.161  16.440  68.034  1.00  0.00    -0.289 NA 
HETATM   38  C   UNL     1     -10.514  17.755  67.891  1.00  0.00    -0.397 C  
ENDBRANCH  32  33
ENDBRANCH  31  32
ENDBRANCH  29  31
ENDBRANCH  26  29
ENDBRANCH   9  26
ENDBRANCH   4   5
ENDBRANCH   3   4
ENDBRANCH   2   3
TORSDOF 11
ENDMDL
MODEL      163
REMARK 921   NORMALIZED FREE ENERGY PREDICTED BY IDOCK:   -4.65 KCAL/MOL
REMARK 922        TOTAL FREE ENERGY PREDICTED BY IDOCK:   -9.88 KCAL/MOL
REMARK 923 INTER-LIGAND FREE ENERGY PREDICTED BY IDOCK:   -8.11 KCAL/MOL
REMARK 924 INTRA-LIGAND FREE ENERGY PREDICTED BY IDOCK:   -1.77 KCAL/MOL
REMARK 927      BINDING AFFINITY PREDICTED BY RF-SCORE:    0.00 PKD
ROOT
HETATM    1  C   UNL     1     -11.460  12.275  63.600  1.00  0.00    -0.572 C  
HETATM    2  C   UNL     1     -12.347  13.420  64.053  1.00  0.00    -0.402 C  
ENDROOT
BRANCH   2   3
HETATM    3  C   UNL     1     -12.039  13.867  65.472  1.00  0.00    -0.407 C  
BRANCH   3   4
HETATM    4  O   UNL     1     -11.075  13.013  66.116  1.00  0.00    -0.280 OA 
BRANCH   4   5
HETATM    5  C   UNL     1      -9.883  13.634  66.441  1.00  0.00    -0.296 A  
HETATM    6  C   UNL     1      -8.910  12.943  67.204  1.00  0.00    -0.210 A  
HETATM    7  C   UNL     1      -7.724  13.616  67.589  1.00  0.00    -0.184 A  
HETATM    8  C   UNL     1      -9.628  14.959  66.062  1.00  0.00    -0.346 A  
HETATM    9  C   UNL     1      -7.530  14.958  67.233  1.00  0.00    -0.161 A  
HETATM   10  C   UNL     1      -8.490  15.622  66.487  1.00  0.00    -0.311 A  
BRANCH   6  11
HETATM   11  C   UNL     1      -9.094  11.506  67.656  1.00  0.00    -0.168 C  
HETATM   12  C   UNL     1     -10.180   9.450  67.329  1.00  0.00    -0.246 C  
HETATM   13  N   UNL     1      -9.964  10.779  66.999  1.00  0.00    -0.191 N  
HETATM   14  H   UNL     1     -10.490  11.198  66.234  1.00  0.00     0.000 HD 
HETATM   15  N   UNL     1      -8.344  11.065  68.737  1.00  0.00    -0.149 NA 
HETATM   16  N   UNL     1      -8.368   7.716  69.996  1.00  0.00    -0.132 NA 
HETATM   17  C   UNL     1      -7.891   8.970  70.067  1.00  0.00    -0.088 A  
HETATM   18  C   UNL     1      -9.365   8.988  68.407  1.00  0.00    -0.139 A  
HETATM   19  O   UNL     1     -10.996   8.739  66.752  1.00  0.00    -0.009 OA 
HETATM   20  C   UNL     1      -9.949   6.543  68.595  1.00  0.00    -0.146 C  
HETATM   21  C   UNL     1      -8.487   9.780  69.085  1.00  0.00    -0.143 A  
HETATM   22  N   UNL     1      -9.258   7.753  68.972  1.00  0.00    -0.144 NA 
BRANCH  17  23
HETATM   23  C   UNL     1      -6.870   9.317  71.098  1.00  0.00    -0.069 C  
BRANCH  23  24
HETATM   24  C   UNL     1      -6.706   8.264  72.196  1.00  0.00    -0.084 C  
HETATM   25  C   UNL     1      -6.247   8.839  73.531  1.00  0.00    -0.058 C  
ENDBRANCH  23  24
ENDBRANCH  17  23
ENDBRANCH   6  11
BRANCH   9  26
HETATM   26  S   UNL     1      -6.110  15.878  67.784  1.00  0.00    -0.155 S  
HETATM   27  O   UNL     1      -5.626  16.635  66.653  1.00  0.00    -0.339 OA 
HETATM   28  O   UNL     1      -5.277  14.962  68.528  1.00  0.00    -0.091 OA 
BRANCH  26  29
HETATM   29  N   UNL     1      -6.776  17.017  68.872  1.00  0.00    -0.191 N  
HETATM   30  H   UNL     1      -7.702  16.889  69.281  1.00  0.00     0.000 HD 
BRANCH  29  31
HETATM   31  C   UNL     1      -5.943  18.193  69.192  1.00  0.00    -0.228 C  
BRANCH  31  32
HETATM   32  C   UNL     1      -6.784  19.432  69.481  1.00  0.00    -0.327 C  
BRANCH  32  33
HETATM   33  C   UNL     1      -7.410  19.961  68.177  1.00  0.00    -0.303 C  
HETATM   34  C   UNL     1      -6.458  19.883  66.986  1.00  0.00    -0.212 C  
HETATM   35  C   UNL     1      -7.397  19.890  65.803  1.00  0.00    -0.337 C  
HETATM   36  C   UNL     1      -9.832  19.688  68.285  1.00  0.00    -0.419 C  
HETATM   37  N   UNL     1      -8.575  19.160  67.763  1.00  0.00    -0.295 NA 
HETATM   38  C   UNL     1      -8.587  19.084  66.293  1.00  0.00    -0.274 C  
ENDBRANCH  32  33
ENDBRANCH  31  32
ENDBRANCH  29  31
ENDBRANCH  26  29
ENDBRANCH   9  26
ENDBRANCH   4   5
ENDBRANCH   3   4
ENDBRANCH   2   3
TORSDOF 11
ENDMDL
MODEL      164
REMARK 921   NORMALIZED FREE ENERGY PREDICTED BY IDOCK:   -4.65 KCAL/MOL
REMARK 922        TOTAL FREE ENERGY PREDICTED BY IDOCK:   -9.87 KCAL/MOL
REMARK 923 INTER-LIGAND FREE ENERGY PREDICTED BY IDOCK:   -8.61 KCAL/MOL
REMARK 924 INTRA-LIGAND FREE ENERGY PREDICTED BY IDOCK:   -1.26 KCAL/MOL
REMARK 927      BINDING AFFINITY PREDICTED BY RF-SCORE:    0.00 PKD
ROOT
HETATM    1  C   UNL     1     -13.994   7.823  71.770  1.00  0.00    -0.477 C  
HETATM    2  C   UNL     1     -14.066   9.189  72.428  1.00  0.00    -0.434 C  
ENDROOT
BRANCH   2   3
HETATM    3  C   UNL     1     -13.054  10.165  71.851  1.00  0.00    -0.466 C  
BRANCH   3   4
HETATM    4  O   UNL     1     -12.400   9.643  70.679  1.00  0.00    -0.236 OA 
BRANCH   4   5
HETATM    5  C   UNL     1     -11.730  10.590  69.925  1.00  0.00    -0.294 A  
HETATM    6  C   UNL     1     -10.523  10.248  69.269  1.00  0.00    -0.250 A  
HETATM    7  C   UNL     1      -9.813  11.246  68.558  1.00  0.00    -0.198 A  
HETATM    8  C   UNL     1     -12.203  11.906  69.827  1.00  0.00    -0.241 A  
HETATM    9  C   UNL     1     -10.292  12.563  68.526  1.00  0.00    -0.222 A  
HETATM   10  C   UNL     1     -11.475  12.885  69.173  1.00  0.00    -0.360 A  
BRANCH   6  11
HETATM   11  C   UNL     1      -9.936   8.848  69.314  1.00  0.00    -0.192 C  
HETATM   12  C   UNL     1     -10.134   6.641  70.089  1.00  0.00    -0.178 C  
HETATM   13  N   UNL     1     -10.585   7.950  70.011  1.00  0.00    -0.239 N  
HETATM   14  H   UNL     1     -11.437   8.217  70.505  1.00  0.00     0.000 HD 
HETATM   15  N   UNL     1      -8.751   8.621  68.630  1.00  0.00    -0.137 NA 
HETATM   16  N   UNL     1      -7.142   5.436  68.357  1.00  0.00    -0.061 NA 
HETATM   17  C   UNL     1      -7.165   6.745  68.054  1.00  0.00    -0.091 A  
HETATM   18  C   UNL     1      -8.943   6.401  69.338  1.00  0.00    -0.131 A  
HETATM   19  O   UNL     1     -10.701   5.773  70.744  1.00  0.00    -0.256 OA 
HETATM   20  C   UNL     1      -8.544   3.929  69.622  1.00  0.00    -0.069 C  
HETATM   21  C   UNL     1      -8.280   7.367  68.643  1.00  0.00    -0.125 A  
HETATM   22  N   UNL     1      -8.240   5.253  69.134  1.00  0.00    -0.091 NA 
BRANCH  17  23
HETATM   23  C   UNL     1      -6.091   7.326  67.198  1.00  0.00    -0.042 C  
BRANCH  23  24
HETATM   24  C   UNL     1      -6.132   6.864  65.740  1.00  0.00    -0.036 C  
HETATM   25  C   UNL     1      -7.502   7.013  65.090  1.00  0.00    -0.094 C  
ENDBRANCH  23  24
ENDBRANCH  17  23
ENDBRANCH   6  11
BRANCH   9  26
HETATM   26  S   UNL     1      -9.382  13.874  67.740  1.00  0.00    -0.212 S  
HETATM   27  O   UNL     1      -9.725  13.852  66.338  1.00  0.00    -0.282 OA 
HETATM   28  O   UNL     1      -8.021  13.785  68.216  1.00  0.00    -0.130 OA 
BRANCH  26  29
HETATM   29  N   UNL     1     -10.094  15.289  68.385  1.00  0.00    -0.217 N  
HETATM   30  H   UNL     1     -10.987  15.263  68.876  1.00  0.00     0.000 HD 
BRANCH  29  31
HETATM   31  C   UNL     1      -9.348  16.550  68.196  1.00  0.00    -0.218 C  
BRANCH  31  32
HETATM   32  C   UNL     1     -10.127  17.759  68.705  1.00  0.00    -0.381 C  
BRANCH  32  33
HETATM   33  C   UNL     1      -9.483  19.059  68.185  1.00  0.00    -0.335 C  
HETATM   34  C   UNL     1      -8.062  19.267  68.704  1.00  0.00    -0.405 C  
HETATM   35  C   UNL     1      -7.465  20.205  67.682  1.00  0.00    -0.341 C  
HETATM   36  C   UNL     1     -10.482  19.641  66.037  1.00  0.00    -0.523 C  
HETATM   37  N   UNL     1      -9.335  19.049  66.719  1.00  0.00    -0.313 NA 
HETATM   38  C   UNL     1      -8.082  19.741  66.374  1.00  0.00    -0.329 C  
ENDBRANCH  32  33
ENDBRANCH  31  32
ENDBRANCH  29  31
ENDBRANCH  26  29
ENDBRANCH   9  26
ENDBRANCH   4   5
ENDBRANCH   3   4
ENDBRANCH   2   3
TORSDOF 11
ENDMDL
MODEL      165
REMARK 921   NORMALIZED FREE ENERGY PREDICTED BY IDOCK:   -4.65 KCAL/MOL
REMARK 922        TOTAL FREE ENERGY PREDICTED BY IDOCK:   -9.87 KCAL/MOL
REMARK 923 INTER-LIGAND FREE ENERGY PREDICTED BY IDOCK:   -8.10 KCAL/MOL
REMARK 924 INTRA-LIGAND FREE ENERGY PREDICTED BY IDOCK:   -1.77 KCAL/MOL
REMARK 927      BINDING AFFINITY PREDICTED BY RF-SCORE:    0.00 PKD
ROOT
HETATM    1  C   UNL     1      -9.163   4.279  65.418  1.00  0.00    -0.152 C  
HETATM    2  C   UNL     1     -10.523   4.781  65.868  1.00  0.00    -0.313 C  
ENDROOT
BRANCH   2   3
HETATM    3  C   UNL     1     -10.438   5.652  67.111  1.00  0.00    -0.270 C  
BRANCH   3   4
HETATM    4  O   UNL     1     -11.075   6.930  66.926  1.00  0.00    -0.379 OA 
BRANCH   4   5
HETATM    5  C   UNL     1     -10.249   8.019  67.136  1.00  0.00    -0.292 A  
HETATM    6  C   UNL     1      -9.766   8.301  68.437  1.00  0.00    -0.170 A  
HETATM    7  C   UNL     1      -8.979   9.460  68.649  1.00  0.00    -0.132 A  
HETATM    8  C   UNL     1      -9.906   8.883  66.087  1.00  0.00    -0.326 A  
HETATM    9  C   UNL     1      -8.700  10.326  67.583  1.00  0.00    -0.121 A  
HETATM   10  C   UNL     1      -9.179  10.038  66.314  1.00  0.00    -0.199 A  
BRANCH   6  11
HETATM   11  C   UNL     1     -10.080   7.422  69.635  1.00  0.00    -0.186 C  
HETATM   12  C   UNL     1     -11.706   6.586  71.106  1.00  0.00    -0.335 C  
HETATM   13  N   UNL     1     -11.325   7.380  70.036  1.00  0.00    -0.448 N  
HETATM   14  H   UNL     1     -12.026   7.941  69.553  1.00  0.00     0.000 HD 
HETATM   15  N   UNL     1      -9.029   6.737  70.228  1.00  0.00    -0.152 NA 
HETATM   16  N   UNL     1      -9.381   4.445  72.953  1.00  0.00    -0.125 NA 
HETATM   17  C   UNL     1      -8.587   5.061  72.061  1.00  0.00    -0.125 A  
HETATM   18  C   UNL     1     -10.629   5.841  71.678  1.00  0.00    -0.245 A  
HETATM   19  O   UNL     1     -12.858   6.531  71.526  1.00  0.00    -0.221 OA 
HETATM   20  C   UNL     1     -11.742   4.452  73.462  1.00  0.00     0.018 C  
HETATM   21  C   UNL     1      -9.339   5.928  71.250  1.00  0.00    -0.156 A  
HETATM   22  N   UNL     1     -10.620   4.933  72.692  1.00  0.00    -0.209 NA 
BRANCH  17  23
HETATM   23  C   UNL     1      -7.124   4.770  72.046  1.00  0.00    -0.062 C  
BRANCH  23  24
HETATM   24  C   UNL     1      -6.658   3.966  70.830  1.00  0.00    -0.031 C  
HETATM   25  C   UNL     1      -6.722   2.457  71.034  1.00  0.00    -0.031 C  
ENDBRANCH  23  24
ENDBRANCH  17  23
ENDBRANCH   6  11
BRANCH   9  26
HETATM   26  S   UNL     1      -7.809  11.848  67.818  1.00  0.00    -0.150 S  
HETATM   27  O   UNL     1      -6.863  11.962  66.733  1.00  0.00    -0.110 OA 
HETATM   28  O   UNL     1      -7.417  11.896  69.208  1.00  0.00    -0.002 OA 
BRANCH  26  29
HETATM   29  N   UNL     1      -8.998  13.047  67.546  1.00  0.00    -0.183 N  
HETATM   30  H   UNL     1      -8.894  13.746  66.810  1.00  0.00     0.000 HD 
BRANCH  29  31
HETATM   31  C   UNL     1     -10.182  13.018  68.428  1.00  0.00    -0.245 C  
BRANCH  31  32
HETATM   32  C   UNL     1     -11.486  13.101  67.642  1.00  0.00    -0.366 C  
BRANCH  32  33
HETATM   33  C   UNL     1     -11.190  13.197  66.134  1.00  0.00    -0.295 C  
HETATM   34  C   UNL     1     -12.034  12.235  65.300  1.00  0.00    -0.391 C  
HETATM   35  C   UNL     1     -12.012  12.869  63.930  1.00  0.00    -0.550 C  
HETATM   36  C   UNL     1     -10.378  15.438  65.619  1.00  0.00    -0.372 C  
HETATM   37  N   UNL     1     -11.518  14.527  65.593  1.00  0.00    -0.338 NA 
HETATM   38  C   UNL     1     -12.046  14.357  64.229  1.00  0.00    -0.436 C  
ENDBRANCH  32  33
ENDBRANCH  31  32
ENDBRANCH  29  31
ENDBRANCH  26  29
ENDBRANCH   9  26
ENDBRANCH   4   5
ENDBRANCH   3   4
ENDBRANCH   2   3
TORSDOF 11
ENDMDL
MODEL      166
REMARK 921   NORMALIZED FREE ENERGY PREDICTED BY IDOCK:   -4.62 KCAL/MOL
REMARK 922        TOTAL FREE ENERGY PREDICTED BY IDOCK:   -9.83 KCAL/MOL
REMARK 923 INTER-LIGAND FREE ENERGY PREDICTED BY IDOCK:   -8.35 KCAL/MOL
REMARK 924 INTRA-LIGAND FREE ENERGY PREDICTED BY IDOCK:   -1.48 KCAL/MOL
REMARK 927      BINDING AFFINITY PREDICTED BY RF-SCORE:    0.00 PKD
ROOT
HETATM    1  C   UNL     1     -13.338  12.557  72.080  1.00  0.00    -0.528 C  
HETATM    2  C   UNL     1     -12.655  11.767  70.978  1.00  0.00    -0.409 C  
ENDROOT
BRANCH   2   3
HETATM    3  C   UNL     1     -12.535  12.558  69.686  1.00  0.00     0.188 C  
BRANCH   3   4
HETATM    4  O   UNL     1     -11.853  11.818  68.656  1.00  0.00    -0.309 OA 
BRANCH   4   5
HETATM    5  C   UNL     1     -10.545  12.210  68.437  1.00  0.00    -0.226 A  
HETATM    6  C   UNL     1      -9.478  11.358  68.812  1.00  0.00    -0.128 A  
HETATM    7  C   UNL     1      -8.144  11.803  68.646  1.00  0.00    -0.104 A  
HETATM    8  C   UNL     1     -10.246  13.463  67.883  1.00  0.00    -0.241 A  
HETATM    9  C   UNL     1      -7.887  13.083  68.135  1.00  0.00    -0.145 A  
HETATM   10  C   UNL     1      -8.940  13.908  67.773  1.00  0.00    -0.188 A  
BRANCH   6  11
HETATM   11  C   UNL     1      -9.703   9.983  69.414  1.00  0.00    -0.225 C  
HETATM   12  C   UNL     1      -9.772   8.655  71.349  1.00  0.00    -0.244 C  
HETATM   13  N   UNL     1      -9.563   9.868  70.711  1.00  0.00    -0.264 N  
HETATM   14  H   UNL     1      -9.295  10.684  71.261  1.00  0.00     0.000 HD 
HETATM   15  N   UNL     1     -10.027   8.944  68.554  1.00  0.00    -0.172 NA 
HETATM   16  N   UNL     1     -10.794   5.608  69.596  1.00  0.00    -0.337 NA 
HETATM   17  C   UNL     1     -10.656   6.501  68.602  1.00  0.00    -0.245 A  
HETATM   18  C   UNL     1     -10.158   7.602  70.464  1.00  0.00    -0.189 A  
HETATM   19  O   UNL     1      -9.635   8.499  72.558  1.00  0.00    -0.282 OA 
HETATM   20  C   UNL     1     -10.569   5.647  72.001  1.00  0.00    -0.229 C  
HETATM   21  C   UNL     1     -10.270   7.752  69.114  1.00  0.00    -0.208 A  
HETATM   22  N   UNL     1     -10.492   6.307  70.720  1.00  0.00    -0.213 NA 
BRANCH  17  23
HETATM   23  C   UNL     1     -10.910   6.086  67.192  1.00  0.00    -0.414 C  
BRANCH  23  24
HETATM   24  C   UNL     1     -10.071   4.893  66.729  1.00  0.00    -0.269 C  
HETATM   25  C   UNL     1     -10.389   4.435  65.311  1.00  0.00    -0.220 C  
ENDBRANCH  23  24
ENDBRANCH  17  23
ENDBRANCH   6  11
BRANCH   9  26
HETATM   26  S   UNL     1      -6.234  13.728  68.010  1.00  0.00    -0.153 S  
HETATM   27  O   UNL     1      -5.568  12.998  66.957  1.00  0.00    -0.312 OA 
HETATM   28  O   UNL     1      -5.712  13.816  69.354  1.00  0.00    -0.084 OA 
BRANCH  26  29
HETATM   29  N   UNL     1      -6.474  15.314  67.414  1.00  0.00    -0.122 N  
HETATM   30  H   UNL     1      -6.656  15.493  66.426  1.00  0.00     0.000 HD 
BRANCH  29  31
HETATM   31  C   UNL     1      -6.407  16.410  68.402  1.00  0.00    -0.127 C  
BRANCH  31  32
HETATM   32  C   UNL     1      -7.782  16.996  68.704  1.00  0.00    -0.251 C  
BRANCH  32  33
HETATM   33  C   UNL     1      -7.781  18.512  68.432  1.00  0.00    -0.298 C  
HETATM   34  C   UNL     1      -6.403  19.147  68.608  1.00  0.00    -0.274 C  
HETATM   35  C   UNL     1      -6.504  20.406  67.780  1.00  0.00    -0.302 C  
HETATM   36  C   UNL     1      -9.578  19.045  66.870  1.00  0.00    -0.321 C  
HETATM   37  N   UNL     1      -8.145  18.820  67.038  1.00  0.00    -0.253 NA 
HETATM   38  C   UNL     1      -7.358  19.983  66.598  1.00  0.00    -0.257 C  
ENDBRANCH  32  33
ENDBRANCH  31  32
ENDBRANCH  29  31
ENDBRANCH  26  29
ENDBRANCH   9  26
ENDBRANCH   4   5
ENDBRANCH   3   4
ENDBRANCH   2   3
TORSDOF 11
ENDMDL
MODEL      167
REMARK 921   NORMALIZED FREE ENERGY PREDICTED BY IDOCK:   -4.62 KCAL/MOL
REMARK 922        TOTAL FREE ENERGY PREDICTED BY IDOCK:   -9.82 KCAL/MOL
REMARK 923 INTER-LIGAND FREE ENERGY PREDICTED BY IDOCK:   -8.19 KCAL/MOL
REMARK 924 INTRA-LIGAND FREE ENERGY PREDICTED BY IDOCK:   -1.62 KCAL/MOL
REMARK 927      BINDING AFFINITY PREDICTED BY RF-SCORE:    0.00 PKD
ROOT
HETATM    1  C   UNL     1     -13.232  13.171  72.531  1.00  0.00    -0.437 C  
HETATM    2  C   UNL     1     -12.941  11.935  71.699  1.00  0.00    -0.447 C  
ENDROOT
BRANCH   2   3
HETATM    3  C   UNL     1     -12.171  12.257  70.430  1.00  0.00    -0.288 C  
BRANCH   3   4
HETATM    4  O   UNL     1     -12.449  11.321  69.371  1.00  0.00    -0.272 OA 
BRANCH   4   5
HETATM    5  C   UNL     1     -11.397  10.482  69.055  1.00  0.00    -0.257 A  
HETATM    6  C   UNL     1     -10.620  10.725  67.895  1.00  0.00    -0.258 A  
HETATM    7  C   UNL     1      -9.591   9.816  67.547  1.00  0.00    -0.178 A  
HETATM    8  C   UNL     1     -11.101   9.360  69.842  1.00  0.00    -0.223 A  
HETATM    9  C   UNL     1      -9.361   8.679  68.332  1.00  0.00    -0.138 A  
HETATM   10  C   UNL     1     -10.128   8.452  69.464  1.00  0.00    -0.200 A  
BRANCH   6  11
HETATM   11  C   UNL     1     -10.862  11.915  66.984  1.00  0.00    -0.259 C  
HETATM   12  C   UNL     1     -12.206  12.906  65.334  1.00  0.00    -0.478 C  
HETATM   13  N   UNL     1     -11.896  11.855  66.184  1.00  0.00    -0.169 N  
HETATM   14  H   UNL     1     -12.483  11.021  66.184  1.00  0.00     0.000 HD 
HETATM   15  N   UNL     1      -9.969  12.974  67.052  1.00  0.00    -0.238 NA 
HETATM   16  N   UNL     1     -10.283  16.018  65.199  1.00  0.00    -0.521 NA 
HETATM   17  C   UNL     1      -9.607  15.280  66.095  1.00  0.00    -0.321 A  
HETATM   18  C   UNL     1     -11.313  14.016  65.448  1.00  0.00    -0.315 A  
HETATM   19  O   UNL     1     -13.153  12.884  64.556  1.00  0.00    -0.728 OA 
HETATM   20  C   UNL     1     -12.284  15.730  63.876  1.00  0.00     0.447 C  
HETATM   21  C   UNL     1     -10.231  14.034  66.276  1.00  0.00    -0.296 A  
HETATM   22  N   UNL     1     -11.321  15.227  64.826  1.00  0.00    -0.415 NA 
BRANCH  17  23
HETATM   23  C   UNL     1      -8.378  15.833  66.735  1.00  0.00    -0.309 C  
BRANCH  23  24
HETATM   24  C   UNL     1      -8.631  16.546  68.066  1.00  0.00    -0.184 C  
HETATM   25  C   UNL     1      -8.572  15.621  69.275  1.00  0.00    -0.262 C  
ENDBRANCH  23  24
ENDBRANCH  17  23
ENDBRANCH   6  11
BRANCH   9  26
HETATM   26  S   UNL     1      -8.153   7.453  67.877  1.00  0.00    -0.120 S  
HETATM   27  O   UNL     1      -7.333   7.207  69.040  1.00  0.00    -0.087 OA 
HETATM   28  O   UNL     1      -7.606   7.855  66.602  1.00  0.00    -0.090 OA 
BRANCH  26  29
HETATM   29  N   UNL     1      -9.093   6.042  67.647  1.00  0.00    -0.111 N  
HETATM   30  H   UNL     1     -10.052   6.088  67.302  1.00  0.00     0.000 HD 
BRANCH  29  31
HETATM   31  C   UNL     1      -8.445   4.755  67.972  1.00  0.00    -0.102 C  
BRANCH  31  32
HETATM   32  C   UNL     1      -9.276   3.562  67.513  1.00  0.00    -0.224 C  
BRANCH  32  33
HETATM   33  C   UNL     1      -9.086   3.335  66.001  1.00  0.00    -0.150 C  
HETATM   34  C   UNL     1     -10.158   4.022  65.157  1.00  0.00    -0.189 C  
HETATM   35  C   UNL     1      -9.490   4.156  63.809  1.00  0.00    -0.147 C  
HETATM   36  C   UNL     1      -6.721   2.949  65.542  1.00  0.00    -0.040 C  
HETATM   37  N   UNL     1      -7.820   3.910  65.515  1.00  0.00    -0.092 NA 
HETATM   38  C   UNL     1      -8.041   4.443  64.160  1.00  0.00    -0.095 C  
ENDBRANCH  32  33
ENDBRANCH  31  32
ENDBRANCH  29  31
ENDBRANCH  26  29
ENDBRANCH   9  26
ENDBRANCH   4   5
ENDBRANCH   3   4
ENDBRANCH   2   3
TORSDOF 11
ENDMDL
MODEL      168
REMARK 921   NORMALIZED FREE ENERGY PREDICTED BY IDOCK:   -4.61 KCAL/MOL
REMARK 922        TOTAL FREE ENERGY PREDICTED BY IDOCK:   -9.81 KCAL/MOL
REMARK 923 INTER-LIGAND FREE ENERGY PREDICTED BY IDOCK:   -7.42 KCAL/MOL
REMARK 924 INTRA-LIGAND FREE ENERGY PREDICTED BY IDOCK:   -2.39 KCAL/MOL
REMARK 927      BINDING AFFINITY PREDICTED BY RF-SCORE:    0.00 PKD
ROOT
HETATM    1  C   UNL     1     -10.082   3.736  62.557  1.00  0.00    -0.156 C  
HETATM    2  C   UNL     1     -10.545   3.294  63.933  1.00  0.00    -0.215 C  
ENDROOT
BRANCH   2   3
HETATM    3  C   UNL     1     -10.576   4.440  64.931  1.00  0.00    -0.090 C  
BRANCH   3   4
HETATM    4  O   UNL     1      -9.286   5.062  65.087  1.00  0.00    -0.140 OA 
BRANCH   4   5
HETATM    5  C   UNL     1      -8.838   5.135  66.394  1.00  0.00    -0.120 A  
HETATM    6  C   UNL     1      -8.681   6.396  67.019  1.00  0.00    -0.115 A  
HETATM    7  C   UNL     1      -8.155   6.458  68.332  1.00  0.00    -0.113 A  
HETATM    8  C   UNL     1      -8.495   3.980  67.109  1.00  0.00    -0.100 A  
HETATM    9  C   UNL     1      -7.776   5.283  68.995  1.00  0.00    -0.082 A  
HETATM   10  C   UNL     1      -7.934   4.055  68.372  1.00  0.00    -0.072 A  
BRANCH   6  11
HETATM   11  C   UNL     1      -9.031   7.701  66.326  1.00  0.00    -0.169 C  
HETATM   12  C   UNL     1      -8.848   9.033  64.402  1.00  0.00    -0.066 C  
HETATM   13  N   UNL     1      -8.560   7.881  65.118  1.00  0.00    -0.346 N  
HETATM   14  H   UNL     1      -7.972   7.163  64.696  1.00  0.00     0.000 HD 
HETATM   15  N   UNL     1      -9.809   8.615  67.021  1.00  0.00    -0.197 NA 
HETATM   16  N   UNL     1     -10.981  11.719  65.682  1.00  0.00    -0.300 NA 
HETATM   17  C   UNL     1     -10.932  10.852  66.708  1.00  0.00    -0.185 A  
HETATM   18  C   UNL     1      -9.695   9.946  65.103  1.00  0.00    -0.306 A  
HETATM   19  O   UNL     1      -8.415   9.250  63.275  1.00  0.00    -0.183 OA 
HETATM   20  C   UNL     1     -10.084  11.800  63.441  1.00  0.00    -0.446 C  
HETATM   21  C   UNL     1     -10.146   9.736  66.371  1.00  0.00    -0.243 A  
HETATM   22  N   UNL     1     -10.225  11.138  64.716  1.00  0.00    -0.285 NA 
BRANCH  17  23
HETATM   23  C   UNL     1     -11.660  11.159  67.973  1.00  0.00    -0.337 C  
BRANCH  23  24
HETATM   24  C   UNL     1     -10.908  12.102  68.915  1.00  0.00    -0.241 C  
HETATM   25  C   UNL     1     -11.797  13.158  69.560  1.00  0.00    -0.383 C  
ENDBRANCH  23  24
ENDBRANCH  17  23
ENDBRANCH   6  11
BRANCH   9  26
HETATM   26  S   UNL     1      -7.010   5.317  70.601  1.00  0.00    -0.054 S  
HETATM   27  O   UNL     1      -6.087   6.427  70.612  1.00  0.00    -0.032 OA 
HETATM   28  O   UNL     1      -6.611   3.962  70.906  1.00  0.00    -0.029 OA 
BRANCH  26  29
HETATM   29  N   UNL     1      -8.297   5.753  71.641  1.00  0.00    -0.123 N  
HETATM   30  H   UNL     1      -8.218   6.535  72.291  1.00  0.00     0.000 HD 
BRANCH  29  31
HETATM   31  C   UNL     1      -9.527   4.941  71.549  1.00  0.00    -0.154 C  
BRANCH  31  32
HETATM   32  C   UNL     1     -10.619   5.444  72.487  1.00  0.00    -0.277 C  
BRANCH  32  33
HETATM   33  C   UNL     1     -11.274   6.710  71.905  1.00  0.00    -0.264 C  
HETATM   34  C   UNL     1     -10.986   7.962  72.731  1.00  0.00    -0.456 C  
HETATM   35  C   UNL     1     -11.202   9.078  71.737  1.00  0.00    -0.448 C  
HETATM   36  C   UNL     1     -11.546   6.435  69.497  1.00  0.00    -0.233 C  
HETATM   37  N   UNL     1     -10.752   7.033  70.566  1.00  0.00    -0.231 NA 
HETATM   38  C   UNL     1     -10.681   8.498  70.435  1.00  0.00    -0.228 C  
ENDBRANCH  32  33
ENDBRANCH  31  32
ENDBRANCH  29  31
ENDBRANCH  26  29
ENDBRANCH   9  26
ENDBRANCH   4   5
ENDBRANCH   3   4
ENDBRANCH   2   3
TORSDOF 11
ENDMDL
MODEL      169
REMARK 921   NORMALIZED FREE ENERGY PREDICTED BY IDOCK:   -4.61 KCAL/MOL
REMARK 922        TOTAL FREE ENERGY PREDICTED BY IDOCK:   -9.81 KCAL/MOL
REMARK 923 INTER-LIGAND FREE ENERGY PREDICTED BY IDOCK:   -7.89 KCAL/MOL
REMARK 924 INTRA-LIGAND FREE ENERGY PREDICTED BY IDOCK:   -1.92 KCAL/MOL
REMARK 927      BINDING AFFINITY PREDICTED BY RF-SCORE:    0.00 PKD
ROOT
HETATM    1  C   UNL     1     -13.235  10.963  71.950  1.00  0.00    -0.508 C  
HETATM    2  C   UNL     1     -12.550   9.984  71.016  1.00  0.00    -0.463 C  
ENDROOT
BRANCH   2   3
HETATM    3  C   UNL     1     -11.443  10.634  70.203  1.00  0.00    -0.329 C  
BRANCH   3   4
HETATM    4  O   UNL     1     -11.575  10.372  68.794  1.00  0.00    -0.218 OA 
BRANCH   4   5
HETATM    5  C   UNL     1     -10.512   9.685  68.235  1.00  0.00    -0.219 A  
HETATM    6  C   UNL     1      -9.907  10.163  67.047  1.00  0.00    -0.238 A  
HETATM    7  C   UNL     1      -8.866   9.411  66.448  1.00  0.00    -0.167 A  
HETATM    8  C   UNL     1     -10.040   8.493  68.801  1.00  0.00    -0.210 A  
HETATM    9  C   UNL     1      -8.457   8.197  67.018  1.00  0.00    -0.120 A  
HETATM   10  C   UNL     1      -9.058   7.741  68.180  1.00  0.00    -0.129 A  
BRANCH   6  11
HETATM   11  C   UNL     1     -10.346  11.446  66.364  1.00  0.00    -0.242 C  
HETATM   12  C   UNL     1     -11.880  12.506  64.938  1.00  0.00    -0.386 C  
HETATM   13  N   UNL     1     -11.395  11.378  65.583  1.00  0.00    -0.089 N  
HETATM   14  H   UNL     1     -11.863  10.483  65.448  1.00  0.00     0.000 HD 
HETATM   15  N   UNL     1      -9.602  12.592  66.600  1.00  0.00    -0.243 NA 
HETATM   16  N   UNL     1     -10.404  15.834  65.317  1.00  0.00    -0.446 NA 
HETATM   17  C   UNL     1      -9.598  15.056  66.058  1.00  0.00    -0.325 A  
HETATM   18  C   UNL     1     -11.142  13.694  65.228  1.00  0.00    -0.301 A  
HETATM   19  O   UNL     1     -12.848  12.484  64.185  1.00  0.00    -0.705 OA 
HETATM   20  C   UNL     1     -12.402  15.498  64.000  1.00  0.00     0.171 C  
HETATM   21  C   UNL     1     -10.039  13.722  66.027  1.00  0.00    -0.311 A  
HETATM   22  N   UNL     1     -11.340  14.980  64.830  1.00  0.00    -0.412 NA 
BRANCH  17  23
HETATM   23  C   UNL     1      -8.429  15.659  66.762  1.00  0.00    -0.307 C  
BRANCH  23  24
HETATM   24  C   UNL     1      -8.797  16.775  67.742  1.00  0.00    -0.208 C  
HETATM   25  C   UNL     1      -7.604  17.330  68.511  1.00  0.00    -0.251 C  
ENDBRANCH  23  24
ENDBRANCH  17  23
ENDBRANCH   6  11
BRANCH   9  26
HETATM   26  S   UNL     1      -7.231   7.165  66.246  1.00  0.00    -0.076 S  
HETATM   27  O   UNL     1      -5.937   7.702  66.595  1.00  0.00    -0.038 OA 
HETATM   28  O   UNL     1      -7.652   6.961  64.879  1.00  0.00    -0.091 OA 
BRANCH  26  29
HETATM   29  N   UNL     1      -7.378   5.683  67.087  1.00  0.00    -0.079 N  
HETATM   30  H   UNL     1      -7.016   5.567  68.034  1.00  0.00     0.000 HD 
BRANCH  29  31
HETATM   31  C   UNL     1      -8.056   4.581  66.375  1.00  0.00    -0.103 C  
BRANCH  31  32
HETATM   32  C   UNL     1      -9.438   4.290  66.949  1.00  0.00    -0.205 C  
BRANCH  32  33
HETATM   33  C   UNL     1      -9.314   3.400  68.200  1.00  0.00    -0.184 C  
HETATM   34  C   UNL     1      -8.477   2.146  67.957  1.00  0.00    -0.090 C  
HETATM   35  C   UNL     1      -8.028   1.766  69.349  1.00  0.00    -0.056 C  
HETATM   36  C   UNL     1      -9.538   4.788  70.193  1.00  0.00    -0.195 C  
HETATM   37  N   UNL     1      -8.618   4.092  69.299  1.00  0.00    -0.076 NA 
HETATM   38  C   UNL     1      -7.798   3.107  70.023  1.00  0.00    -0.043 C  
ENDBRANCH  32  33
ENDBRANCH  31  32
ENDBRANCH  29  31
ENDBRANCH  26  29
ENDBRANCH   9  26
ENDBRANCH   4   5
ENDBRANCH   3   4
ENDBRANCH   2   3
TORSDOF 11
ENDMDL
MODEL      170
REMARK 921   NORMALIZED FREE ENERGY PREDICTED BY IDOCK:   -4.61 KCAL/MOL
REMARK 922        TOTAL FREE ENERGY PREDICTED BY IDOCK:   -9.80 KCAL/MOL
REMARK 923 INTER-LIGAND FREE ENERGY PREDICTED BY IDOCK:   -7.98 KCAL/MOL
REMARK 924 INTRA-LIGAND FREE ENERGY PREDICTED BY IDOCK:   -1.82 KCAL/MOL
REMARK 927      BINDING AFFINITY PREDICTED BY RF-SCORE:    0.00 PKD
ROOT
HETATM    1  C   UNL     1     -11.808  12.745  63.458  1.00  0.00    -0.618 C  
HETATM    2  C   UNL     1     -12.761  13.109  64.582  1.00  0.00    -0.326 C  
ENDROOT
BRANCH   2   3
HETATM    3  C   UNL     1     -12.078  13.129  65.939  1.00  0.00    -0.444 C  
BRANCH   3   4
HETATM    4  O   UNL     1     -10.856  12.369  65.945  1.00  0.00    -0.257 OA 
BRANCH   4   5
HETATM    5  C   UNL     1      -9.776  13.022  66.512  1.00  0.00    -0.266 A  
HETATM    6  C   UNL     1      -8.562  12.326  66.729  1.00  0.00    -0.149 A  
HETATM    7  C   UNL     1      -7.488  12.988  67.374  1.00  0.00    -0.136 A  
HETATM    8  C   UNL     1      -9.868  14.361  66.917  1.00  0.00    -0.263 A  
HETATM    9  C   UNL     1      -7.638  14.312  67.809  1.00  0.00    -0.165 A  
HETATM   10  C   UNL     1      -8.832  14.981  67.591  1.00  0.00    -0.183 A  
BRANCH   6  11
HETATM   11  C   UNL     1      -8.365  10.877  66.321  1.00  0.00    -0.164 C  
HETATM   12  C   UNL     1      -7.110   9.317  65.096  1.00  0.00    -0.090 C  
HETATM   13  N   UNL     1      -7.377  10.615  65.503  1.00  0.00    -0.305 N  
HETATM   14  H   UNL     1      -6.794  11.378  65.160  1.00  0.00     0.000 HD 
HETATM   15  N   UNL     1      -9.249   9.936  66.827  1.00  0.00    -0.146 NA 
HETATM   16  N   UNL     1      -9.025   6.414  66.239  1.00  0.00    -0.154 NA 
HETATM   17  C   UNL     1      -9.654   7.446  66.827  1.00  0.00    -0.192 A  
HETATM   18  C   UNL     1      -7.991   8.346  65.664  1.00  0.00    -0.115 A  
HETATM   19  O   UNL     1      -6.206   9.029  64.318  1.00  0.00    -0.071 OA 
HETATM   20  C   UNL     1      -7.101   6.151  64.802  1.00  0.00    -0.060 C  
HETATM   21  C   UNL     1      -9.026   8.658  66.493  1.00  0.00    -0.154 A  
HETATM   22  N   UNL     1      -8.012   6.990  65.543  1.00  0.00    -0.122 NA 
BRANCH  17  23
HETATM   23  C   UNL     1     -10.844   7.194  67.690  1.00  0.00    -0.279 C  
BRANCH  23  24
HETATM   24  C   UNL     1     -10.703   5.981  68.613  1.00  0.00    -0.363 C  
HETATM   25  C   UNL     1     -11.240   6.217  70.019  1.00  0.00    -0.480 C  
ENDBRANCH  23  24
ENDBRANCH  17  23
ENDBRANCH   6  11
BRANCH   9  26
HETATM   26  S   UNL     1      -6.359  15.150  68.719  1.00  0.00    -0.085 S  
HETATM   27  O   UNL     1      -5.346  15.545  67.769  1.00  0.00    -0.131 OA 
HETATM   28  O   UNL     1      -6.072  14.343  69.882  1.00  0.00    -0.119 OA 
BRANCH  26  29
HETATM   29  N   UNL     1      -7.123  16.593  69.232  1.00  0.00    -0.230 N  
HETATM   30  H   UNL     1      -8.134  16.648  69.357  1.00  0.00     0.000 HD 
BRANCH  29  31
HETATM   31  C   UNL     1      -6.244  17.753  69.485  1.00  0.00    -0.238 C  
BRANCH  31  32
HETATM   32  C   UNL     1      -6.938  19.076  69.179  1.00  0.00    -0.346 C  
BRANCH  32  33
HETATM   33  C   UNL     1      -6.857  19.380  67.671  1.00  0.00    -0.219 C  
HETATM   34  C   UNL     1      -5.437  19.270  67.119  1.00  0.00    -0.164 C  
HETATM   35  C   UNL     1      -5.667  19.038  65.644  1.00  0.00    -0.206 C  
HETATM   36  C   UNL     1      -9.001  18.854  66.634  1.00  0.00    -0.323 C  
HETATM   37  N   UNL     1      -7.631  18.412  66.875  1.00  0.00    -0.212 NA 
HETATM   38  C   UNL     1      -6.910  18.166  65.614  1.00  0.00    -0.206 C  
ENDBRANCH  32  33
ENDBRANCH  31  32
ENDBRANCH  29  31
ENDBRANCH  26  29
ENDBRANCH   9  26
ENDBRANCH   4   5
ENDBRANCH   3   4
ENDBRANCH   2   3
TORSDOF 11
ENDMDL
MODEL      171
REMARK 921   NORMALIZED FREE ENERGY PREDICTED BY IDOCK:   -4.60 KCAL/MOL
REMARK 922        TOTAL FREE ENERGY PREDICTED BY IDOCK:   -9.80 KCAL/MOL
REMARK 923 INTER-LIGAND FREE ENERGY PREDICTED BY IDOCK:   -7.43 KCAL/MOL
REMARK 924 INTRA-LIGAND FREE ENERGY PREDICTED BY IDOCK:   -2.37 KCAL/MOL
REMARK 927      BINDING AFFINITY PREDICTED BY RF-SCORE:    0.00 PKD
ROOT
HETATM    1  C   UNL     1     -12.620  11.539  70.858  1.00  0.00    -0.438 C  
HETATM    2  C   UNL     1     -13.284  10.526  71.772  1.00  0.00    -0.522 C  
ENDROOT
BRANCH   2   3
HETATM    3  C   UNL     1     -12.716   9.128  71.600  1.00  0.00    -0.358 C  
BRANCH   3   4
HETATM    4  O   UNL     1     -11.376   9.016  72.116  1.00  0.00    -0.357 OA 
BRANCH   4   5
HETATM    5  C   UNL     1     -10.770   7.795  71.882  1.00  0.00    -0.225 A  
HETATM    6  C   UNL     1      -9.679   7.706  70.983  1.00  0.00    -0.169 A  
HETATM    7  C   UNL     1      -9.114   6.438  70.701  1.00  0.00    -0.148 A  
HETATM    8  C   UNL     1     -11.239   6.624  72.492  1.00  0.00    -0.302 A  
HETATM    9  C   UNL     1      -9.646   5.284  71.293  1.00  0.00    -0.159 A  
HETATM   10  C   UNL     1     -10.713   5.385  72.171  1.00  0.00    -0.286 A  
BRANCH   6  11
HETATM   11  C   UNL     1      -9.099   8.920  70.279  1.00  0.00    -0.181 C  
HETATM   12  C   UNL     1      -7.242  10.316  69.945  1.00  0.00    -0.159 C  
HETATM   13  N   UNL     1      -7.860   9.237  70.558  1.00  0.00    -0.138 N  
HETATM   14  H   UNL     1      -7.341   8.682  71.238  1.00  0.00     0.000 HD 
HETATM   15  N   UNL     1      -9.920   9.614  69.402  1.00  0.00    -0.185 NA 
HETATM   16  N   UNL     1      -8.881  12.414  67.432  1.00  0.00    -0.179 NA 
HETATM   17  C   UNL     1      -9.847  11.550  67.787  1.00  0.00    -0.177 A  
HETATM   18  C   UNL     1      -8.076  10.994  69.003  1.00  0.00    -0.104 A  
HETATM   19  O   UNL     1      -6.090  10.659  70.190  1.00  0.00    -0.080 OA 
HETATM   20  C   UNL     1      -6.567  12.762  68.030  1.00  0.00    -0.101 C  
HETATM   21  C   UNL     1      -9.370  10.650  68.755  1.00  0.00    -0.180 A  
HETATM   22  N   UNL     1      -7.811  12.048  68.183  1.00  0.00    -0.136 NA 
BRANCH  17  23
HETATM   23  C   UNL     1     -11.196  11.647  67.157  1.00  0.00    -0.371 C  
BRANCH  23  24
HETATM   24  C   UNL     1     -11.837  13.033  67.261  1.00  0.00    -0.419 C  
HETATM   25  C   UNL     1     -12.415  13.539  65.945  1.00  0.00    -0.484 C  
ENDBRANCH  23  24
ENDBRANCH  17  23
ENDBRANCH   6  11
BRANCH   9  26
HETATM   26  S   UNL     1      -9.042   3.660  70.888  1.00  0.00    -0.123 S  
HETATM   27  O   UNL     1     -10.036   2.711  71.332  1.00  0.00    -0.141 OA 
HETATM   28  O   UNL     1      -7.662   3.606  71.312  1.00  0.00    -0.056 OA 
BRANCH  26  29
HETATM   29  N   UNL     1      -9.089   3.637  69.179  1.00  0.00    -0.123 N  
HETATM   30  H   UNL     1      -9.971   3.655  68.667  1.00  0.00     0.000 HD 
BRANCH  29  31
HETATM   31  C   UNL     1      -7.787   3.592  68.481  1.00  0.00    -0.055 C  
BRANCH  31  32
HETATM   32  C   UNL     1      -7.451   4.916  67.804  1.00  0.00    -0.079 C  
BRANCH  32  33
HETATM   33  C   UNL     1      -8.334   5.111  66.557  1.00  0.00    -0.108 C  
HETATM   34  C   UNL     1      -8.477   3.838  65.725  1.00  0.00    -0.110 C  
HETATM   35  C   UNL     1      -9.753   4.081  64.955  1.00  0.00    -0.195 C  
HETATM   36  C   UNL     1      -9.926   6.910  66.977  1.00  0.00    -0.197 C  
HETATM   37  N   UNL     1      -9.718   5.467  66.914  1.00  0.00    -0.140 NA 
HETATM   38  C   UNL     1     -10.626   4.829  65.946  1.00  0.00    -0.244 C  
ENDBRANCH  32  33
ENDBRANCH  31  32
ENDBRANCH  29  31
ENDBRANCH  26  29
ENDBRANCH   9  26
ENDBRANCH   4   5
ENDBRANCH   3   4
ENDBRANCH   2   3
TORSDOF 11
ENDMDL
MODEL      172
REMARK 921   NORMALIZED FREE ENERGY PREDICTED BY IDOCK:   -4.60 KCAL/MOL
REMARK 922        TOTAL FREE ENERGY PREDICTED BY IDOCK:   -9.79 KCAL/MOL
REMARK 923 INTER-LIGAND FREE ENERGY PREDICTED BY IDOCK:   -7.41 KCAL/MOL
REMARK 924 INTRA-LIGAND FREE ENERGY PREDICTED BY IDOCK:   -2.38 KCAL/MOL
REMARK 927      BINDING AFFINITY PREDICTED BY RF-SCORE:    0.00 PKD
ROOT
HETATM    1  C   UNL     1      -9.638   6.909  67.555  1.00  0.00    -0.150 C  
HETATM    2  C   UNL     1     -10.777   7.800  67.094  1.00  0.00    -0.337 C  
ENDROOT
BRANCH   2   3
HETATM    3  C   UNL     1     -10.285   9.054  66.391  1.00  0.00    -0.227 C  
BRANCH   3   4
HETATM    4  O   UNL     1     -10.982  10.234  66.832  1.00  0.00    -0.190 OA 
BRANCH   4   5
HETATM    5  C   UNL     1     -10.169  11.332  67.053  1.00  0.00    -0.215 A  
HETATM    6  C   UNL     1      -9.553  11.514  68.315  1.00  0.00    -0.189 A  
HETATM    7  C   UNL     1      -8.781  12.679  68.548  1.00  0.00    -0.048 A  
HETATM    8  C   UNL     1      -9.971  12.300  66.059  1.00  0.00    -0.270 A  
HETATM    9  C   UNL     1      -8.649  13.648  67.545  1.00  0.00    -0.197 A  
HETATM   10  C   UNL     1      -9.258  13.458  66.315  1.00  0.00    -0.068 A  
BRANCH   6  11
HETATM   11  C   UNL     1      -9.705  10.518  69.451  1.00  0.00    -0.164 C  
HETATM   12  C   UNL     1     -11.078   9.627  71.133  1.00  0.00    -0.374 C  
HETATM   13  N   UNL     1     -10.844  10.518  70.098  1.00  0.00    -0.422 N  
HETATM   14  H   UNL     1     -11.569  11.185  69.835  1.00  0.00     0.000 HD 
HETATM   15  N   UNL     1      -8.630   9.689  69.734  1.00  0.00    -0.181 NA 
HETATM   16  N   UNL     1      -8.651   7.108  72.212  1.00  0.00    -0.117 NA 
HETATM   17  C   UNL     1      -7.995   7.771  71.244  1.00  0.00    -0.094 A  
HETATM   18  C   UNL     1      -9.987   8.741  71.384  1.00  0.00    -0.283 A  
HETATM   19  O   UNL     1     -12.122   9.605  71.777  1.00  0.00    -0.378 OA 
HETATM   20  C   UNL     1     -10.851   7.225  73.203  1.00  0.00    -0.357 C  
HETATM   21  C   UNL     1      -8.806   8.785  70.706  1.00  0.00    -0.191 A  
HETATM   22  N   UNL     1      -9.864   7.715  72.271  1.00  0.00    -0.168 NA 
BRANCH  17  23
HETATM   23  C   UNL     1      -6.600   7.377  70.891  1.00  0.00    -0.043 C  
BRANCH  23  24
HETATM   24  C   UNL     1      -6.466   6.706  69.522  1.00  0.00    -0.044 C  
HETATM   25  C   UNL     1      -6.973   5.270  69.494  1.00  0.00    -0.055 C  
ENDBRANCH  23  24
ENDBRANCH  17  23
ENDBRANCH   6  11
BRANCH   9  26
HETATM   26  S   UNL     1      -7.782  15.176  67.825  1.00  0.00    -0.166 S  
HETATM   27  O   UNL     1      -6.370  14.893  67.719  1.00  0.00    -0.146 OA 
HETATM   28  O   UNL     1      -8.373  15.788  68.992  1.00  0.00    -0.201 OA 
BRANCH  26  29
HETATM   29  N   UNL     1      -8.186  16.115  66.453  1.00  0.00    -0.308 N  
HETATM   30  H   UNL     1      -7.827  15.889  65.526  1.00  0.00     0.000 HD 
BRANCH  29  31
HETATM   31  C   UNL     1      -9.080  17.269  66.681  1.00  0.00    -0.265 C  
BRANCH  31  32
HETATM   32  C   UNL     1      -8.480  18.572  66.165  1.00  0.00    -0.153 C  
BRANCH  32  33
HETATM   33  C   UNL     1      -7.544  19.180  67.227  1.00  0.00    -0.232 C  
HETATM   34  C   UNL     1      -8.194  19.276  68.606  1.00  0.00    -0.408 C  
HETATM   35  C   UNL     1      -7.005  19.333  69.535  1.00  0.00    -0.242 C  
HETATM   36  C   UNL     1      -5.229  18.741  66.600  1.00  0.00    -0.136 C  
HETATM   37  N   UNL     1      -6.350  18.347  67.448  1.00  0.00    -0.181 NA 
HETATM   38  C   UNL     1      -5.997  18.409  68.876  1.00  0.00    -0.212 C  
ENDBRANCH  32  33
ENDBRANCH  31  32
ENDBRANCH  29  31
ENDBRANCH  26  29
ENDBRANCH   9  26
ENDBRANCH   4   5
ENDBRANCH   3   4
ENDBRANCH   2   3
TORSDOF 11
ENDMDL
MODEL      173
REMARK 921   NORMALIZED FREE ENERGY PREDICTED BY IDOCK:   -4.60 KCAL/MOL
REMARK 922        TOTAL FREE ENERGY PREDICTED BY IDOCK:   -9.79 KCAL/MOL
REMARK 923 INTER-LIGAND FREE ENERGY PREDICTED BY IDOCK:   -8.58 KCAL/MOL
REMARK 924 INTRA-LIGAND FREE ENERGY PREDICTED BY IDOCK:   -1.21 KCAL/MOL
REMARK 927      BINDING AFFINITY PREDICTED BY RF-SCORE:    0.00 PKD
ROOT
HETATM    1  C   UNL     1      -5.277   9.083  62.961  1.00  0.00    -0.068 C  
HETATM    2  C   UNL     1      -5.334   9.668  64.360  1.00  0.00    -0.063 C  
ENDROOT
BRANCH   2   3
HETATM    3  C   UNL     1      -6.471   9.090  65.186  1.00  0.00    -0.071 C  
BRANCH   3   4
HETATM    4  O   UNL     1      -7.618   8.762  64.380  1.00  0.00    -0.106 OA 
BRANCH   4   5
HETATM    5  C   UNL     1      -8.648   9.683  64.444  1.00  0.00    -0.191 A  
HETATM    6  C   UNL     1      -9.435   9.786  65.617  1.00  0.00    -0.307 A  
HETATM    7  C   UNL     1     -10.530  10.684  65.641  1.00  0.00    -0.235 A  
HETATM    8  C   UNL     1      -8.960  10.499  63.348  1.00  0.00    -0.232 A  
HETATM    9  C   UNL     1     -10.840  11.446  64.506  1.00  0.00    -0.309 A  
HETATM   10  C   UNL     1     -10.062  11.336  63.364  1.00  0.00    -0.445 A  
BRANCH   6  11
HETATM   11  C   UNL     1      -9.170   8.947  66.855  1.00  0.00    -0.147 C  
HETATM   12  C   UNL     1      -8.439   8.883  69.084  1.00  0.00    -0.132 C  
HETATM   13  N   UNL     1      -8.688   9.566  67.903  1.00  0.00    -0.120 N  
HETATM   14  H   UNL     1      -8.493  10.565  67.851  1.00  0.00     0.000 HD 
HETATM   15  N   UNL     1      -9.443   7.589  66.787  1.00  0.00    -0.169 NA 
HETATM   16  N   UNL     1      -9.114   5.312  69.528  1.00  0.00    -0.109 NA 
HETATM   17  C   UNL     1      -9.444   5.529  68.243  1.00  0.00    -0.115 A  
HETATM   18  C   UNL     1      -8.772   7.495  69.025  1.00  0.00    -0.136 A  
HETATM   19  O   UNL     1      -7.971   9.419  70.084  1.00  0.00    -0.112 OA 
HETATM   20  C   UNL     1      -8.312   6.668  71.360  1.00  0.00    -0.120 C  
HETATM   21  C   UNL     1      -9.250   6.880  67.907  1.00  0.00    -0.124 A  
HETATM   22  N   UNL     1      -8.716   6.528  69.981  1.00  0.00    -0.139 NA 
BRANCH  17  23
HETATM   23  C   UNL     1      -9.936   4.398  67.404  1.00  0.00    -0.146 C  
BRANCH  23  24
HETATM   24  C   UNL     1      -8.921   3.895  66.375  1.00  0.00    -0.133 C  
HETATM   25  C   UNL     1      -7.543   3.617  66.961  1.00  0.00    -0.079 C  
ENDBRANCH  23  24
ENDBRANCH  17  23
ENDBRANCH   6  11
BRANCH   9  26
HETATM   26  S   UNL     1     -12.267  12.507  64.450  1.00  0.00    -0.452 S  
HETATM   27  O   UNL     1     -12.673  12.751  65.814  1.00  0.00    -0.493 OA 
HETATM   28  O   UNL     1     -13.159  11.961  63.453  1.00  0.00    -0.710 OA 
BRANCH  26  29
HETATM   29  N   UNL     1     -11.636  13.985  63.865  1.00  0.00    -0.634 N  
HETATM   30  H   UNL     1     -11.262  14.072  62.920  1.00  0.00     0.000 HD 
BRANCH  29  31
HETATM   31  C   UNL     1     -11.661  15.130  64.798  1.00  0.00    -0.364 C  
BRANCH  31  32
HETATM   32  C   UNL     1     -10.267  15.493  65.300  1.00  0.00    -0.380 C  
BRANCH  32  33
HETATM   33  C   UNL     1     -10.371  16.368  66.564  1.00  0.00    -0.303 C  
HETATM   34  C   UNL     1      -9.721  15.725  67.787  1.00  0.00    -0.216 C  
HETATM   35  C   UNL     1      -9.437  16.910  68.679  1.00  0.00    -0.268 C  
HETATM   36  C   UNL     1     -10.523  18.711  65.904  1.00  0.00    -0.356 C  
HETATM   37  N   UNL     1      -9.658  17.647  66.406  1.00  0.00    -0.336 NA 
HETATM   38  C   UNL     1      -9.054  18.005  67.699  1.00  0.00    -0.255 C  
ENDBRANCH  32  33
ENDBRANCH  31  32
ENDBRANCH  29  31
ENDBRANCH  26  29
ENDBRANCH   9  26
ENDBRANCH   4   5
ENDBRANCH   3   4
ENDBRANCH   2   3
TORSDOF 11
ENDMDL
MODEL      174
REMARK 921   NORMALIZED FREE ENERGY PREDICTED BY IDOCK:   -4.57 KCAL/MOL
REMARK 922        TOTAL FREE ENERGY PREDICTED BY IDOCK:   -9.75 KCAL/MOL
REMARK 923 INTER-LIGAND FREE ENERGY PREDICTED BY IDOCK:   -8.12 KCAL/MOL
REMARK 924 INTRA-LIGAND FREE ENERGY PREDICTED BY IDOCK:   -1.63 KCAL/MOL
REMARK 927      BINDING AFFINITY PREDICTED BY RF-SCORE:    0.00 PKD
ROOT
HETATM    1  C   UNL     1      -9.562   8.073  72.839  1.00  0.00    -0.348 C  
HETATM    2  C   UNL     1      -9.728   8.681  71.458  1.00  0.00    -0.333 C  
ENDROOT
BRANCH   2   3
HETATM    3  C   UNL     1      -8.396   8.917  70.765  1.00  0.00    -0.175 C  
BRANCH   3   4
HETATM    4  O   UNL     1      -8.331  10.209  70.135  1.00  0.00    -0.125 OA 
BRANCH   4   5
HETATM    5  C   UNL     1      -8.358  10.177  68.752  1.00  0.00    -0.122 A  
HETATM    6  C   UNL     1      -9.326  10.930  68.044  1.00  0.00    -0.160 A  
HETATM    7  C   UNL     1      -9.385  10.832  66.633  1.00  0.00    -0.188 A  
HETATM    8  C   UNL     1      -7.463   9.377  68.028  1.00  0.00    -0.080 A  
HETATM    9  C   UNL     1      -8.506   9.982  65.949  1.00  0.00    -0.133 A  
HETATM   10  C   UNL     1      -7.563   9.250  66.653  1.00  0.00    -0.093 A  
BRANCH   6  11
HETATM   11  C   UNL     1     -10.333  11.828  68.741  1.00  0.00    -0.179 C  
HETATM   12  C   UNL     1     -12.043  12.022  70.337  1.00  0.00    -0.321 C  
HETATM   13  N   UNL     1     -11.111  11.273  69.636  1.00  0.00    -0.396 N  
HETATM   14  H   UNL     1     -11.031  10.273  69.819  1.00  0.00     0.000 HD 
HETATM   15  N   UNL     1     -10.369  13.166  68.376  1.00  0.00    -0.251 NA 
HETATM   16  N   UNL     1     -12.473  15.630  69.893  1.00  0.00    -0.262 NA 
HETATM   17  C   UNL     1     -11.526  15.322  68.992  1.00  0.00    -0.324 A  
HETATM   18  C   UNL     1     -12.038  13.408  69.995  1.00  0.00    -0.334 A  
HETATM   19  O   UNL     1     -12.804  11.539  71.170  1.00  0.00    -0.371 OA 
HETATM   20  C   UNL     1     -13.738  14.418  71.557  1.00  0.00    -0.382 C  
HETATM   21  C   UNL     1     -11.230  13.948  69.040  1.00  0.00    -0.274 A  
HETATM   22  N   UNL     1     -12.762  14.448  70.495  1.00  0.00    -0.352 NA 
BRANCH  17  23
HETATM   23  C   UNL     1     -10.953  16.391  68.123  1.00  0.00    -0.339 C  
BRANCH  23  24
HETATM   24  C   UNL     1     -10.351  17.568  68.894  1.00  0.00    -0.338 C  
HETATM   25  C   UNL     1      -8.892  17.842  68.549  1.00  0.00    -0.284 C  
ENDBRANCH  23  24
ENDBRANCH  17  23
ENDBRANCH   6  11
BRANCH   9  26
HETATM   26  S   UNL     1      -8.611   9.741  64.189  1.00  0.00    -0.212 S  
HETATM   27  O   UNL     1      -7.325  10.087  63.632  1.00  0.00    -0.131 OA 
HETATM   28  O   UNL     1      -9.844  10.355  63.753  1.00  0.00    -0.310 OA 
BRANCH  26  29
HETATM   29  N   UNL     1      -8.760   8.045  64.032  1.00  0.00    -0.294 N  
HETATM   30  H   UNL     1      -9.646   7.568  64.198  1.00  0.00     0.000 HD 
BRANCH  29  31
HETATM   31  C   UNL     1      -7.543   7.306  63.641  1.00  0.00    -0.114 C  
BRANCH  31  32
HETATM   32  C   UNL     1      -7.413   5.979  64.381  1.00  0.00    -0.078 C  
BRANCH  32  33
HETATM   33  C   UNL     1      -8.562   5.035  63.979  1.00  0.00    -0.117 C  
HETATM   34  C   UNL     1      -8.177   4.079  62.851  1.00  0.00    -0.081 C  
HETATM   35  C   UNL     1      -9.164   2.948  63.018  1.00  0.00    -0.094 C  
HETATM   36  C   UNL     1     -10.036   4.707  65.894  1.00  0.00    -0.258 C  
HETATM   37  N   UNL     1      -8.956   4.148  65.086  1.00  0.00    -0.129 NA 
HETATM   38  C   UNL     1      -9.323   2.837  64.524  1.00  0.00    -0.142 C  
ENDBRANCH  32  33
ENDBRANCH  31  32
ENDBRANCH  29  31
ENDBRANCH  26  29
ENDBRANCH   9  26
ENDBRANCH   4   5
ENDBRANCH   3   4
ENDBRANCH   2   3
TORSDOF 11
ENDMDL
MODEL      175
REMARK 921   NORMALIZED FREE ENERGY PREDICTED BY IDOCK:   -4.57 KCAL/MOL
REMARK 922        TOTAL FREE ENERGY PREDICTED BY IDOCK:   -9.74 KCAL/MOL
REMARK 923 INTER-LIGAND FREE ENERGY PREDICTED BY IDOCK:   -7.88 KCAL/MOL
REMARK 924 INTRA-LIGAND FREE ENERGY PREDICTED BY IDOCK:   -1.86 KCAL/MOL
REMARK 927      BINDING AFFINITY PREDICTED BY RF-SCORE:    0.00 PKD
ROOT
HETATM    1  C   UNL     1      -6.527   7.464  69.431  1.00  0.00    -0.036 C  
HETATM    2  C   UNL     1      -6.661   8.471  70.558  1.00  0.00    -0.037 C  
ENDROOT
BRANCH   2   3
HETATM    3  C   UNL     1      -6.274   9.877  70.131  1.00  0.00    -0.073 C  
BRANCH   3   4
HETATM    4  O   UNL     1      -7.416  10.661  69.741  1.00  0.00    -0.150 OA 
BRANCH   4   5
HETATM    5  C   UNL     1      -7.739  10.578  68.398  1.00  0.00    -0.104 A  
HETATM    6  C   UNL     1      -9.056  10.234  68.007  1.00  0.00    -0.132 A  
HETATM    7  C   UNL     1      -9.355  10.084  66.631  1.00  0.00    -0.202 A  
HETATM    8  C   UNL     1      -6.774  10.790  67.404  1.00  0.00    -0.076 A  
HETATM    9  C   UNL     1      -8.348  10.255  65.670  1.00  0.00    -0.158 A  
HETATM   10  C   UNL     1      -7.063  10.591  66.066  1.00  0.00    -0.137 A  
BRANCH   6  11
HETATM   11  C   UNL     1     -10.170   9.990  69.011  1.00  0.00    -0.203 C  
HETATM   12  C   UNL     1     -11.409   8.432  70.254  1.00  0.00    -0.129 C  
HETATM   13  N   UNL     1     -10.425   8.746  69.329  1.00  0.00    -0.221 N  
HETATM   14  H   UNL     1      -9.892   7.996  68.890  1.00  0.00     0.000 HD 
HETATM   15  N   UNL     1     -10.846  11.094  69.509  1.00  0.00    -0.222 NA 
HETATM   16  N   UNL     1     -13.408  10.952  72.002  1.00  0.00    -0.398 NA 
HETATM   17  C   UNL     1     -12.640  11.687  71.180  1.00  0.00    -0.335 A  
HETATM   18  C   UNL     1     -12.065   9.576  70.803  1.00  0.00    -0.232 A  
HETATM   19  O   UNL     1     -11.693   7.280  70.568  1.00  0.00    -0.285 OA 
HETATM   20  C   UNL     1     -13.647   8.601  72.506  1.00  0.00    -0.296 C  
HETATM   21  C   UNL     1     -11.789  10.857  70.430  1.00  0.00    -0.357 A  
HETATM   22  N   UNL     1     -13.031   9.671  71.758  1.00  0.00    -0.387 NA 
BRANCH  17  23
HETATM   23  C   UNL     1     -12.777  13.172  71.169  1.00  0.00    -0.386 C  
BRANCH  23  24
HETATM   24  C   UNL     1     -13.770  13.717  72.197  1.00  0.00    -0.634 C  
HETATM   25  C   UNL     1     -14.279  15.117  71.873  1.00  0.00    -0.676 C  
ENDBRANCH  23  24
ENDBRANCH  17  23
ENDBRANCH   6  11
BRANCH   9  26
HETATM   26  S   UNL     1      -8.646   9.972  63.939  1.00  0.00    -0.209 S  
HETATM   27  O   UNL     1      -7.457  10.377  63.228  1.00  0.00    -0.135 OA 
HETATM   28  O   UNL     1      -9.956  10.506  63.644  1.00  0.00    -0.320 OA 
BRANCH  26  29
HETATM   29  N   UNL     1      -8.715   8.266  63.825  1.00  0.00    -0.375 N  
HETATM   30  H   UNL     1      -9.342   7.798  63.171  1.00  0.00     0.000 HD 
BRANCH  29  31
HETATM   31  C   UNL     1      -7.820   7.506  64.722  1.00  0.00    -0.126 C  
BRANCH  31  32
HETATM   32  C   UNL     1      -8.582   6.494  65.571  1.00  0.00    -0.109 C  
BRANCH  32  33
HETATM   33  C   UNL     1      -8.162   5.062  65.190  1.00  0.00    -0.131 C  
HETATM   34  C   UNL     1      -7.971   4.156  66.404  1.00  0.00    -0.098 C  
HETATM   35  C   UNL     1      -8.136   2.773  65.822  1.00  0.00    -0.087 C  
HETATM   36  C   UNL     1      -8.994   4.552  62.954  1.00  0.00    -0.123 C  
HETATM   37  N   UNL     1      -9.195   4.382  64.390  1.00  0.00    -0.154 NA 
HETATM   38  C   UNL     1      -9.214   2.959  64.770  1.00  0.00    -0.146 C  
ENDBRANCH  32  33
ENDBRANCH  31  32
ENDBRANCH  29  31
ENDBRANCH  26  29
ENDBRANCH   9  26
ENDBRANCH   4   5
ENDBRANCH   3   4
ENDBRANCH   2   3
TORSDOF 11
ENDMDL
MODEL      176
REMARK 921   NORMALIZED FREE ENERGY PREDICTED BY IDOCK:   -4.57 KCAL/MOL
REMARK 922        TOTAL FREE ENERGY PREDICTED BY IDOCK:   -9.74 KCAL/MOL
REMARK 923 INTER-LIGAND FREE ENERGY PREDICTED BY IDOCK:   -8.10 KCAL/MOL
REMARK 924 INTRA-LIGAND FREE ENERGY PREDICTED BY IDOCK:   -1.64 KCAL/MOL
REMARK 927      BINDING AFFINITY PREDICTED BY RF-SCORE:    0.00 PKD
ROOT
HETATM    1  C   UNL     1      -6.351   7.930  66.973  1.00  0.00    -0.055 C  
HETATM    2  C   UNL     1      -7.555   7.109  66.549  1.00  0.00    -0.092 C  
ENDROOT
BRANCH   2   3
HETATM    3  C   UNL     1      -8.810   7.954  66.401  1.00  0.00    -0.158 C  
BRANCH   3   4
HETATM    4  O   UNL     1      -8.880   9.003  67.383  1.00  0.00    -0.119 OA 
BRANCH   4   5
HETATM    5  C   UNL     1      -9.845   8.816  68.357  1.00  0.00    -0.171 A  
HETATM    6  C   UNL     1     -10.751   9.859  68.665  1.00  0.00    -0.256 A  
HETATM    7  C   UNL     1     -11.688   9.678  69.712  1.00  0.00     0.057 A  
HETATM    8  C   UNL     1      -9.923   7.618  69.080  1.00  0.00    -0.181 A  
HETATM    9  C   UNL     1     -11.700   8.484  70.446  1.00  0.00     0.001 A  
HETATM   10  C   UNL     1     -10.807   7.471  70.134  1.00  0.00    -0.259 A  
BRANCH   6  11
HETATM   11  C   UNL     1     -10.747  11.190  67.933  1.00  0.00    -0.216 C  
HETATM   12  C   UNL     1     -10.575  12.322  65.885  1.00  0.00    -0.256 C  
HETATM   13  N   UNL     1     -10.570  11.158  66.636  1.00  0.00    -0.255 N  
HETATM   14  H   UNL     1     -10.426  10.261  66.172  1.00  0.00     0.000 HD 
HETATM   15  N   UNL     1     -10.916  12.343  68.685  1.00  0.00    -0.237 NA 
HETATM   16  N   UNL     1     -11.130  15.644  67.321  1.00  0.00    -0.282 NA 
HETATM   17  C   UNL     1     -11.151  14.838  68.396  1.00  0.00    -0.263 A  
HETATM   18  C   UNL     1     -10.803  13.502  66.658  1.00  0.00    -0.283 A  
HETATM   19  O   UNL     1     -10.395  12.340  64.671  1.00  0.00    -0.281 OA 
HETATM   20  C   UNL     1     -10.876  15.342  64.937  1.00  0.00    -0.425 C  
HETATM   21  C   UNL     1     -10.960  13.500  68.011  1.00  0.00    -0.251 A  
HETATM   22  N   UNL     1     -10.925  14.803  66.275  1.00  0.00    -0.325 NA 
BRANCH  17  23
HETATM   23  C   UNL     1     -11.359  15.420  69.754  1.00  0.00    -0.317 C  
BRANCH  23  24
HETATM   24  C   UNL     1     -12.679  15.014  70.413  1.00  0.00    -0.371 C  
HETATM   25  C   UNL     1     -12.533  13.893  71.434  1.00  0.00    -0.424 C  
ENDBRANCH  23  24
ENDBRANCH  17  23
ENDBRANCH   6  11
BRANCH   9  26
HETATM   26  S   UNL     1     -12.782   8.249  71.839  1.00  0.00    -0.350 S  
HETATM   27  O   UNL     1     -13.445   6.979  71.657  1.00  0.00    -0.365 OA 
HETATM   28  O   UNL     1     -13.501   9.488  72.027  1.00  0.00    -0.405 OA 
BRANCH  26  29
HETATM   29  N   UNL     1     -11.701   8.042  73.148  1.00  0.00    -0.399 N  
HETATM   30  H   UNL     1     -11.662   8.707  73.920  1.00  0.00     0.000 HD 
BRANCH  29  31
HETATM   31  C   UNL     1     -10.828   6.851  73.103  1.00  0.00    -0.296 C  
BRANCH  31  32
HETATM   32  C   UNL     1      -9.579   7.022  73.962  1.00  0.00    -0.308 C  
BRANCH  32  33
HETATM   33  C   UNL     1      -8.410   6.220  73.360  1.00  0.00    -0.114 C  
HETATM   34  C   UNL     1      -8.849   5.278  72.241  1.00  0.00    -0.132 C  
HETATM   35  C   UNL     1      -7.573   5.061  71.463  1.00  0.00    -0.096 C  
HETATM   36  C   UNL     1      -6.345   7.488  73.637  1.00  0.00    -0.069 C  
HETATM   37  N   UNL     1      -7.414   7.098  72.722  1.00  0.00    -0.079 NA 
HETATM   38  C   UNL     1      -6.885   6.413  71.531  1.00  0.00    -0.067 C  
ENDBRANCH  32  33
ENDBRANCH  31  32
ENDBRANCH  29  31
ENDBRANCH  26  29
ENDBRANCH   9  26
ENDBRANCH   4   5
ENDBRANCH   3   4
ENDBRANCH   2   3
TORSDOF 11
ENDMDL
MODEL      177
REMARK 921   NORMALIZED FREE ENERGY PREDICTED BY IDOCK:   -4.57 KCAL/MOL
REMARK 922        TOTAL FREE ENERGY PREDICTED BY IDOCK:   -9.74 KCAL/MOL
REMARK 923 INTER-LIGAND FREE ENERGY PREDICTED BY IDOCK:   -7.39 KCAL/MOL
REMARK 924 INTRA-LIGAND FREE ENERGY PREDICTED BY IDOCK:   -2.34 KCAL/MOL
REMARK 927      BINDING AFFINITY PREDICTED BY RF-SCORE:    0.00 PKD
ROOT
HETATM    1  C   UNL     1     -10.879   5.818  68.288  1.00  0.00    -0.249 C  
HETATM    2  C   UNL     1     -10.749   5.990  66.786  1.00  0.00    -0.374 C  
ENDROOT
BRANCH   2   3
HETATM    3  C   UNL     1      -9.308   5.887  66.312  1.00  0.00    -0.152 C  
BRANCH   3   4
HETATM    4  O   UNL     1      -8.367   6.111  67.378  1.00  0.00    -0.109 OA 
BRANCH   4   5
HETATM    5  C   UNL     1      -7.802   7.374  67.390  1.00  0.00    -0.111 A  
HETATM    6  C   UNL     1      -7.642   8.066  68.616  1.00  0.00    -0.100 A  
HETATM    7  C   UNL     1      -7.127   9.385  68.605  1.00  0.00    -0.070 A  
HETATM    8  C   UNL     1      -7.416   8.008  66.201  1.00  0.00    -0.075 A  
HETATM    9  C   UNL     1      -6.800  10.003  67.390  1.00  0.00    -0.082 A  
HETATM   10  C   UNL     1      -6.962   9.315  66.198  1.00  0.00    -0.086 A  
BRANCH   6  11
HETATM   11  C   UNL     1      -8.027   7.460  69.953  1.00  0.00    -0.121 C  
HETATM   12  C   UNL     1      -7.423   6.069  71.745  1.00  0.00    -0.095 C  
HETATM   13  N   UNL     1      -7.164   6.650  70.513  1.00  0.00    -0.072 N  
HETATM   14  H   UNL     1      -6.288   6.442  70.035  1.00  0.00     0.000 HD 
HETATM   15  N   UNL     1      -9.265   7.793  70.483  1.00  0.00    -0.161 NA 
HETATM   16  N   UNL     1     -10.467   6.710  73.674  1.00  0.00    -0.309 NA 
HETATM   17  C   UNL     1     -10.664   7.418  72.549  1.00  0.00    -0.272 A  
HETATM   18  C   UNL     1      -8.676   6.458  72.310  1.00  0.00    -0.131 A  
HETATM   19  O   UNL     1      -6.651   5.291  72.296  1.00  0.00    -0.051 OA 
HETATM   20  C   UNL     1      -8.699   5.322  74.559  1.00  0.00    -0.107 C  
HETATM   21  C   UNL     1      -9.561   7.286  71.687  1.00  0.00    -0.151 A  
HETATM   22  N   UNL     1      -9.246   6.143  73.505  1.00  0.00    -0.131 NA 
BRANCH  17  23
HETATM   23  C   UNL     1     -11.926   8.192  72.371  1.00  0.00    -0.431 C  
BRANCH  23  24
HETATM   24  C   UNL     1     -12.880   7.604  71.329  1.00  0.00    -0.297 C  
HETATM   25  C   UNL     1     -14.346   7.922  71.593  1.00  0.00    -0.595 C  
ENDBRANCH  23  24
ENDBRANCH  17  23
ENDBRANCH   6  11
BRANCH   9  26
HETATM   26  S   UNL     1      -6.253  11.695  67.315  1.00  0.00    -0.131 S  
HETATM   27  O   UNL     1      -5.327  11.797  66.212  1.00  0.00    -0.317 OA 
HETATM   28  O   UNL     1      -5.913  12.087  68.663  1.00  0.00    -0.052 OA 
BRANCH  26  29
HETATM   29  N   UNL     1      -7.660  12.543  66.839  1.00  0.00    -0.384 N  
HETATM   30  H   UNL     1      -7.682  13.112  65.992  1.00  0.00     0.000 HD 
BRANCH  29  31
HETATM   31  C   UNL     1      -8.842  12.409  67.714  1.00  0.00    -0.176 C  
BRANCH  31  32
HETATM   32  C   UNL     1     -10.131  12.811  67.005  1.00  0.00    -0.240 C  
BRANCH  32  33
HETATM   33  C   UNL     1     -11.349  12.437  67.871  1.00  0.00    -0.289 C  
HETATM   34  C   UNL     1     -11.281  11.008  68.407  1.00  0.00    -0.337 C  
HETATM   35  C   UNL     1     -12.194  11.056  69.609  1.00  0.00    -0.370 C  
HETATM   36  C   UNL     1     -12.266  14.460  68.879  1.00  0.00    -0.178 C  
HETATM   37  N   UNL     1     -11.441  13.273  69.080  1.00  0.00    -0.288 NA 
HETATM   38  C   UNL     1     -11.949  12.440  70.183  1.00  0.00    -0.298 C  
ENDBRANCH  32  33
ENDBRANCH  31  32
ENDBRANCH  29  31
ENDBRANCH  26  29
ENDBRANCH   9  26
ENDBRANCH   4   5
ENDBRANCH   3   4
ENDBRANCH   2   3
TORSDOF 11
ENDMDL
MODEL      178
REMARK 921   NORMALIZED FREE ENERGY PREDICTED BY IDOCK:   -4.52 KCAL/MOL
REMARK 922        TOTAL FREE ENERGY PREDICTED BY IDOCK:   -9.67 KCAL/MOL
REMARK 923 INTER-LIGAND FREE ENERGY PREDICTED BY IDOCK:   -8.37 KCAL/MOL
REMARK 924 INTRA-LIGAND FREE ENERGY PREDICTED BY IDOCK:   -1.29 KCAL/MOL
REMARK 927      BINDING AFFINITY PREDICTED BY RF-SCORE:    0.00 PKD
ROOT
HETATM    1  C   UNL     1     -13.921  15.394  71.584  1.00  0.00    -0.617 C  
HETATM    2  C   UNL     1     -12.568  15.416  72.271  1.00  0.00    -0.455 C  
ENDROOT
BRANCH   2   3
HETATM    3  C   UNL     1     -11.417  15.525  71.284  1.00  0.00    -0.404 C  
BRANCH   3   4
HETATM    4  O   UNL     1     -11.811  15.168  69.946  1.00  0.00    -0.288 OA 
BRANCH   4   5
HETATM    5  C   UNL     1     -11.346  13.938  69.517  1.00  0.00    -0.237 A  
HETATM    6  C   UNL     1     -10.052  13.828  68.952  1.00  0.00    -0.075 A  
HETATM    7  C   UNL     1      -9.617  12.575  68.454  1.00  0.00    -0.176 A  
HETATM    8  C   UNL     1     -12.149  12.792  69.594  1.00  0.00    -0.286 A  
HETATM    9  C   UNL     1     -10.469  11.464  68.504  1.00  0.00    -0.203 A  
HETATM   10  C   UNL     1     -11.733  11.585  69.059  1.00  0.00    -0.400 A  
BRANCH   6  11
HETATM   11  C   UNL     1      -9.109  15.012  68.831  1.00  0.00    -0.202 C  
HETATM   12  C   UNL     1      -7.070  15.993  69.455  1.00  0.00    -0.217 C  
HETATM   13  N   UNL     1      -7.999  14.966  69.523  1.00  0.00    -0.383 N  
HETATM   14  H   UNL     1      -7.816  14.163  70.123  1.00  0.00     0.000 HD 
HETATM   15  N   UNL     1      -9.492  16.062  68.009  1.00  0.00    -0.206 NA 
HETATM   16  N   UNL     1      -7.484  18.945  67.330  1.00  0.00    -0.229 NA 
HETATM   17  C   UNL     1      -8.623  18.261  67.129  1.00  0.00    -0.248 A  
HETATM   18  C   UNL     1      -7.445  17.046  68.566  1.00  0.00    -0.221 A  
HETATM   19  O   UNL     1      -6.027  15.999  70.100  1.00  0.00    -0.183 OA 
HETATM   20  C   UNL     1      -5.469  18.609  68.621  1.00  0.00    -0.193 C  
HETATM   21  C   UNL     1      -8.621  17.072  67.878  1.00  0.00    -0.207 A  
HETATM   22  N   UNL     1      -6.782  18.178  68.203  1.00  0.00    -0.202 NA 
BRANCH  17  23
HETATM   23  C   UNL     1      -9.663  18.807  66.209  1.00  0.00    -0.354 C  
BRANCH  23  24
HETATM   24  C   UNL     1     -10.895  19.370  66.921  1.00  0.00    -0.509 C  
HETATM   25  C   UNL     1     -10.583  20.017  68.265  1.00  0.00    -0.268 C  
ENDBRANCH  23  24
ENDBRANCH  17  23
ENDBRANCH   6  11
BRANCH   9  26
HETATM   26  S   UNL     1     -10.011   9.898  67.795  1.00  0.00    -0.175 S  
HETATM   27  O   UNL     1     -11.231   9.227  67.412  1.00  0.00     0.060 OA 
HETATM   28  O   UNL     1      -9.034   9.305  68.679  1.00  0.00    -0.131 OA 
BRANCH  26  29
HETATM   29  N   UNL     1      -9.230  10.339  66.338  1.00  0.00    -0.155 N  
HETATM   30  H   UNL     1      -8.223  10.228  66.216  1.00  0.00     0.000 HD 
BRANCH  29  31
HETATM   31  C   UNL     1     -10.086  10.887  65.267  1.00  0.00    -0.280 C  
BRANCH  31  32
HETATM   32  C   UNL     1      -9.351  10.981  63.934  1.00  0.00    -0.233 C  
BRANCH  32  33
HETATM   33  C   UNL     1      -8.347   9.820  63.802  1.00  0.00    -0.170 C  
HETATM   34  C   UNL     1      -8.633   8.920  62.602  1.00  0.00    -0.182 C  
HETATM   35  C   UNL     1      -7.295   8.268  62.344  1.00  0.00    -0.097 C  
HETATM   36  C   UNL     1      -6.227  10.479  64.812  1.00  0.00    -0.033 C  
HETATM   37  N   UNL     1      -6.975  10.306  63.571  1.00  0.00    -0.115 NA 
HETATM   38  C   UNL     1      -6.299   9.371  62.657  1.00  0.00    -0.097 C  
ENDBRANCH  32  33
ENDBRANCH  31  32
ENDBRANCH  29  31
ENDBRANCH  26  29
ENDBRANCH   9  26
ENDBRANCH   4   5
ENDBRANCH   3   4
ENDBRANCH   2   3
TORSDOF 11
ENDMDL
MODEL      179
REMARK 921   NORMALIZED FREE ENERGY PREDICTED BY IDOCK:   -4.51 KCAL/MOL
REMARK 922        TOTAL FREE ENERGY PREDICTED BY IDOCK:   -9.65 KCAL/MOL
REMARK 923 INTER-LIGAND FREE ENERGY PREDICTED BY IDOCK:   -9.15 KCAL/MOL
REMARK 924 INTRA-LIGAND FREE ENERGY PREDICTED BY IDOCK:   -0.50 KCAL/MOL
REMARK 927      BINDING AFFINITY PREDICTED BY RF-SCORE:    0.00 PKD
ROOT
HETATM    1  C   UNL     1     -13.932  15.476  72.313  1.00  0.00    -0.642 C  
HETATM    2  C   UNL     1     -12.513  14.957  72.456  1.00  0.00    -0.432 C  
ENDROOT
BRANCH   2   3
HETATM    3  C   UNL     1     -11.487  15.894  71.839  1.00  0.00    -0.348 C  
BRANCH   3   4
HETATM    4  O   UNL     1     -11.633  15.997  70.411  1.00  0.00    -0.349 OA 
BRANCH   4   5
HETATM    5  C   UNL     1     -11.291  14.852  69.713  1.00  0.00    -0.283 A  
HETATM    6  C   UNL     1     -10.076  14.801  68.988  1.00  0.00    -0.232 A  
HETATM    7  C   UNL     1      -9.774  13.649  68.222  1.00  0.00    -0.231 A  
HETATM    8  C   UNL     1     -12.148  13.743  69.675  1.00  0.00    -0.392 A  
HETATM    9  C   UNL     1     -10.680  12.581  68.169  1.00  0.00    -0.227 A  
HETATM   10  C   UNL     1     -11.866  12.644  68.883  1.00  0.00    -0.345 A  
BRANCH   6  11
HETATM   11  C   UNL     1      -9.084  15.950  68.973  1.00  0.00    -0.240 C  
HETATM   12  C   UNL     1      -6.897  16.685  69.408  1.00  0.00    -0.218 C  
HETATM   13  N   UNL     1      -7.874  15.701  69.408  1.00  0.00    -0.230 N  
HETATM   14  H   UNL     1      -7.647  14.769  69.752  1.00  0.00     0.000 HD 
HETATM   15  N   UNL     1      -9.527  17.182  68.515  1.00  0.00    -0.274 NA 
HETATM   16  N   UNL     1      -7.461  20.083  68.169  1.00  0.00    -0.289 NA 
HETATM   17  C   UNL     1      -8.666  19.505  68.034  1.00  0.00    -0.324 A  
HETATM   18  C   UNL     1      -7.345  17.937  68.885  1.00  0.00    -0.248 A  
HETATM   19  O   UNL     1      -5.758  16.500  69.823  1.00  0.00    -0.167 OA 
HETATM   20  C   UNL     1      -5.279  19.379  68.929  1.00  0.00    -0.189 C  
HETATM   21  C   UNL     1      -8.620  18.167  68.464  1.00  0.00    -0.294 A  
HETATM   22  N   UNL     1      -6.674  19.104  68.682  1.00  0.00    -0.268 NA 
BRANCH  17  23
HETATM   23  C   UNL     1      -9.810  20.292  67.489  1.00  0.00    -0.576 C  
BRANCH  23  24
HETATM   24  C   UNL     1     -10.021  20.129  65.982  1.00  0.00    -0.487 C  
HETATM   25  C   UNL     1     -10.172  18.679  65.540  1.00  0.00     0.270 C  
ENDBRANCH  23  24
ENDBRANCH  17  23
ENDBRANCH   6  11
BRANCH   9  26
HETATM   26  S   UNL     1     -10.396  11.159  67.138  1.00  0.00    -0.223 S  
HETATM   27  O   UNL     1      -8.968  10.955  67.074  1.00  0.00    -0.141 OA 
HETATM   28  O   UNL     1     -11.217  11.322  65.960  1.00  0.00    -0.190 OA 
BRANCH  26  29
HETATM   29  N   UNL     1     -11.024   9.867  68.066  1.00  0.00    -0.429 N  
HETATM   30  H   UNL     1     -11.991   9.863  68.392  1.00  0.00     0.000 HD 
BRANCH  29  31
HETATM   31  C   UNL     1     -10.097   8.759  68.371  1.00  0.00    -0.190 C  
BRANCH  31  32
HETATM   32  C   UNL     1     -10.538   7.448  67.730  1.00  0.00    -0.278 C  
BRANCH  32  33
HETATM   33  C   UNL     1      -9.418   6.898  66.826  1.00  0.00    -0.165 C  
HETATM   34  C   UNL     1      -8.363   7.948  66.482  1.00  0.00    -0.127 C  
HETATM   35  C   UNL     1      -7.160   7.110  66.121  1.00  0.00    -0.073 C  
HETATM   36  C   UNL     1      -9.196   4.498  67.196  1.00  0.00    -0.135 C  
HETATM   37  N   UNL     1      -8.657   5.824  67.486  1.00  0.00    -0.106 NA 
HETATM   38  C   UNL     1      -7.246   5.936  67.080  1.00  0.00    -0.075 C  
ENDBRANCH  32  33
ENDBRANCH  31  32
ENDBRANCH  29  31
ENDBRANCH  26  29
ENDBRANCH   9  26
ENDBRANCH   4   5
ENDBRANCH   3   4
ENDBRANCH   2   3
TORSDOF 11
ENDMDL
MODEL      180
REMARK 921   NORMALIZED FREE ENERGY PREDICTED BY IDOCK:   -4.51 KCAL/MOL
REMARK 922        TOTAL FREE ENERGY PREDICTED BY IDOCK:   -9.65 KCAL/MOL
REMARK 923 INTER-LIGAND FREE ENERGY PREDICTED BY IDOCK:   -8.00 KCAL/MOL
REMARK 924 INTRA-LIGAND FREE ENERGY PREDICTED BY IDOCK:   -1.65 KCAL/MOL
REMARK 927      BINDING AFFINITY PREDICTED BY RF-SCORE:    0.00 PKD
ROOT
HETATM    1  C   UNL     1      -6.441  12.311  67.227  1.00  0.00    -0.152 C  
HETATM    2  C   UNL     1      -6.433  10.797  67.328  1.00  0.00    -0.070 C  
ENDROOT
BRANCH   2   3
HETATM    3  C   UNL     1      -6.260  10.126  65.976  1.00  0.00    -0.086 C  
BRANCH   3   4
HETATM    4  O   UNL     1      -7.482   9.529  65.503  1.00  0.00    -0.097 OA 
BRANCH   4   5
HETATM    5  C   UNL     1      -8.157   8.778  66.448  1.00  0.00    -0.103 A  
HETATM    6  C   UNL     1      -9.401   9.230  66.955  1.00  0.00    -0.193 A  
HETATM    7  C   UNL     1     -10.046   8.486  67.972  1.00  0.00    -0.245 A  
HETATM    8  C   UNL     1      -7.616   7.587  66.951  1.00  0.00    -0.102 A  
HETATM    9  C   UNL     1      -9.447   7.327  68.485  1.00  0.00    -0.140 A  
HETATM   10  C   UNL     1      -8.230   6.896  67.981  1.00  0.00    -0.115 A  
BRANCH   6  11
HETATM   11  C   UNL     1     -10.067  10.504  66.468  1.00  0.00    -0.225 C  
HETATM   12  C   UNL     1     -10.988  11.695  64.667  1.00  0.00    -0.301 C  
HETATM   13  N   UNL     1     -10.357  10.578  65.194  1.00  0.00    -0.284 N  
HETATM   14  H   UNL     1     -10.115   9.802  64.578  1.00  0.00     0.000 HD 
HETATM   15  N   UNL     1     -10.311  11.503  67.399  1.00  0.00    -0.202 NA 
HETATM   16  N   UNL     1     -12.005  14.574  66.687  1.00  0.00    -0.376 NA 
HETATM   17  C   UNL     1     -11.395  13.774  67.578  1.00  0.00    -0.309 A  
HETATM   18  C   UNL     1     -11.284  12.697  65.640  1.00  0.00    -0.309 A  
HETATM   19  O   UNL     1     -11.261  11.813  63.477  1.00  0.00    -0.408 OA 
HETATM   20  C   UNL     1     -12.524  14.457  64.330  1.00  0.00    -0.312 C  
HETATM   21  C   UNL     1     -10.945  12.597  66.956  1.00  0.00    -0.265 A  
HETATM   22  N   UNL     1     -11.929  13.890  65.517  1.00  0.00    -0.363 NA 
BRANCH  17  23
HETATM   23  C   UNL     1     -11.281  14.203  69.002  1.00  0.00    -0.303 C  
BRANCH  23  24
HETATM   24  C   UNL     1     -10.589  15.554  69.196  1.00  0.00    -0.234 C  
HETATM   25  C   UNL     1     -11.191  16.395  70.315  1.00  0.00    -0.259 C  
ENDBRANCH  23  24
ENDBRANCH  17  23
ENDBRANCH   6  11
BRANCH   9  26
HETATM   26  S   UNL     1     -10.165   6.419  69.837  1.00  0.00    -0.193 S  
HETATM   27  O   UNL     1      -9.214   5.404  70.224  1.00  0.00    -0.141 OA 
HETATM   28  O   UNL     1     -11.527   6.115  69.464  1.00  0.00    -0.429 OA 
BRANCH  26  29
HETATM   29  N   UNL     1     -10.190   7.562  71.109  1.00  0.00    -0.193 N  
HETATM   30  H   UNL     1      -9.879   8.524  70.971  1.00  0.00     0.000 HD 
BRANCH  29  31
HETATM   31  C   UNL     1     -10.685   7.087  72.417  1.00  0.00    -0.231 C  
BRANCH  31  32
HETATM   32  C   UNL     1      -9.558   6.570  73.305  1.00  0.00    -0.168 C  
BRANCH  32  33
HETATM   33  C   UNL     1      -9.909   5.171  73.845  1.00  0.00    -0.162 C  
HETATM   34  C   UNL     1     -11.255   4.659  73.336  1.00  0.00    -0.423 C  
HETATM   35  C   UNL     1     -11.127   3.162  73.495  1.00  0.00    -0.316 C  
HETATM   36  C   UNL     1      -7.849   3.967  74.350  1.00  0.00    -0.086 C  
HETATM   37  N   UNL     1      -8.943   4.152  73.401  1.00  0.00    -0.103 NA 
HETATM   38  C   UNL     1      -9.670   2.895  73.161  1.00  0.00    -0.102 C  
ENDBRANCH  32  33
ENDBRANCH  31  32
ENDBRANCH  29  31
ENDBRANCH  26  29
ENDBRANCH   9  26
ENDBRANCH   4   5
ENDBRANCH   3   4
ENDBRANCH   2   3
TORSDOF 11
ENDMDL
MODEL      181
REMARK 921   NORMALIZED FREE ENERGY PREDICTED BY IDOCK:   -4.51 KCAL/MOL
REMARK 922        TOTAL FREE ENERGY PREDICTED BY IDOCK:   -9.65 KCAL/MOL
REMARK 923 INTER-LIGAND FREE ENERGY PREDICTED BY IDOCK:   -8.07 KCAL/MOL
REMARK 924 INTRA-LIGAND FREE ENERGY PREDICTED BY IDOCK:   -1.58 KCAL/MOL
REMARK 927      BINDING AFFINITY PREDICTED BY RF-SCORE:    0.00 PKD
ROOT
HETATM    1  C   UNL     1     -11.196  15.998  69.415  1.00  0.00    -0.349 C  
HETATM    2  C   UNL     1     -10.010  15.097  69.705  1.00  0.00    -0.183 C  
ENDROOT
BRANCH   2   3
HETATM    3  C   UNL     1      -9.877  13.970  68.694  1.00  0.00    -0.191 C  
BRANCH   3   4
HETATM    4  O   UNL     1     -11.126  13.292  68.465  1.00  0.00    -0.240 OA 
BRANCH   4   5
HETATM    5  C   UNL     1     -11.334  12.184  69.267  1.00  0.00    -0.266 A  
HETATM    6  C   UNL     1     -10.636  10.980  69.006  1.00  0.00    -0.258 A  
HETATM    7  C   UNL     1     -10.912   9.834  69.792  1.00  0.00    -0.287 A  
HETATM    8  C   UNL     1     -12.259  12.214  70.320  1.00  0.00    -0.344 A  
HETATM    9  C   UNL     1     -11.881   9.891  70.803  1.00  0.00    -0.330 A  
HETATM   10  C   UNL     1     -12.557  11.075  71.048  1.00  0.00    -0.512 A  
BRANCH   6  11
HETATM   11  C   UNL     1      -9.613  10.853  67.892  1.00  0.00    -0.166 C  
HETATM   12  C   UNL     1      -7.372  10.497  67.292  1.00  0.00    -0.091 C  
HETATM   13  N   UNL     1      -8.368  10.648  68.243  1.00  0.00    -0.117 N  
HETATM   14  H   UNL     1      -8.128  10.599  69.233  1.00  0.00     0.000 HD 
HETATM   15  N   UNL     1     -10.060  10.975  66.585  1.00  0.00    -0.212 NA 
HETATM   16  N   UNL     1      -8.001  10.575  63.686  1.00  0.00    -0.083 NA 
HETATM   17  C   UNL     1      -9.213  10.816  64.214  1.00  0.00    -0.218 A  
HETATM   18  C   UNL     1      -7.848  10.570  65.947  1.00  0.00    -0.151 A  
HETATM   19  O   UNL     1      -6.192  10.321  67.577  1.00  0.00    -0.057 OA 
HETATM   20  C   UNL     1      -5.795  10.116  64.558  1.00  0.00    -0.126 C  
HETATM   21  C   UNL     1      -9.148  10.809  65.618  1.00  0.00    -0.194 A  
HETATM   22  N   UNL     1      -7.190  10.422  64.764  1.00  0.00    -0.086 NA 
BRANCH  17  23
HETATM   23  C   UNL     1     -10.381  11.041  63.314  1.00  0.00    -0.317 C  
BRANCH  23  24
HETATM   24  C   UNL     1     -11.152  12.333  63.600  1.00  0.00    -0.537 C  
HETATM   25  C   UNL     1     -12.605  12.103  63.995  1.00  0.00    -0.507 C  
ENDBRANCH  23  24
ENDBRANCH  17  23
ENDBRANCH   6  11
BRANCH   9  26
HETATM   26  S   UNL     1     -12.340   8.452  71.744  1.00  0.00    -0.350 S  
HETATM   27  O   UNL     1     -13.591   7.970  71.207  1.00  0.00    -0.251 OA 
HETATM   28  O   UNL     1     -12.162   8.787  73.138  1.00  0.00     0.030 OA 
BRANCH  26  29
HETATM   29  N   UNL     1     -11.155   7.300  71.305  1.00  0.00    -0.244 N  
HETATM   30  H   UNL     1     -10.236   7.282  71.747  1.00  0.00     0.000 HD 
BRANCH  29  31
HETATM   31  C   UNL     1     -11.529   6.332  70.253  1.00  0.00    -0.358 C  
BRANCH  31  32
HETATM   32  C   UNL     1     -10.396   5.362  69.935  1.00  0.00    -0.377 C  
BRANCH  32  33
HETATM   33  C   UNL     1      -9.364   6.039  69.014  1.00  0.00    -0.124 C  
HETATM   34  C   UNL     1      -7.980   6.145  69.649  1.00  0.00    -0.107 C  
HETATM   35  C   UNL     1      -7.069   6.280  68.452  1.00  0.00    -0.083 C  
HETATM   36  C   UNL     1     -10.011   5.682  66.689  1.00  0.00    -0.181 C  
HETATM   37  N   UNL     1      -9.137   5.265  67.781  1.00  0.00    -0.109 NA 
HETATM   38  C   UNL     1      -7.716   5.382  67.414  1.00  0.00    -0.096 C  
ENDBRANCH  32  33
ENDBRANCH  31  32
ENDBRANCH  29  31
ENDBRANCH  26  29
ENDBRANCH   9  26
ENDBRANCH   4   5
ENDBRANCH   3   4
ENDBRANCH   2   3
TORSDOF 11
ENDMDL
MODEL      182
REMARK 921   NORMALIZED FREE ENERGY PREDICTED BY IDOCK:   -4.51 KCAL/MOL
REMARK 922        TOTAL FREE ENERGY PREDICTED BY IDOCK:   -9.65 KCAL/MOL
REMARK 923 INTER-LIGAND FREE ENERGY PREDICTED BY IDOCK:   -8.19 KCAL/MOL
REMARK 924 INTRA-LIGAND FREE ENERGY PREDICTED BY IDOCK:   -1.45 KCAL/MOL
REMARK 927      BINDING AFFINITY PREDICTED BY RF-SCORE:    0.00 PKD
ROOT
HETATM    1  C   UNL     1     -11.171  15.412  71.043  1.00  0.00    -0.408 C  
HETATM    2  C   UNL     1     -12.275  15.520  70.008  1.00  0.00    -0.380 C  
ENDROOT
BRANCH   2   3
HETATM    3  C   UNL     1     -12.578  14.188  69.342  1.00  0.00     0.100 C  
BRANCH   3   4
HETATM    4  O   UNL     1     -11.694  13.916  68.239  1.00  0.00    -0.320 OA 
BRANCH   4   5
HETATM    5  C   UNL     1     -11.021  12.710  68.325  1.00  0.00    -0.248 A  
HETATM    6  C   UNL     1      -9.618  12.695  68.517  1.00  0.00    -0.112 A  
HETATM    7  C   UNL     1      -8.934  11.455  68.533  1.00  0.00    -0.158 A  
HETATM    8  C   UNL     1     -11.697  11.490  68.186  1.00  0.00    -0.357 A  
HETATM    9  C   UNL     1      -9.640  10.259  68.340  1.00  0.00    -0.149 A  
HETATM   10  C   UNL     1     -11.012  10.288  68.152  1.00  0.00    -0.328 A  
BRANCH   6  11
HETATM   11  C   UNL     1      -8.801  13.964  68.682  1.00  0.00    -0.076 C  
HETATM   12  C   UNL     1      -7.000  15.037  69.738  1.00  0.00    -0.182 C  
HETATM   13  N   UNL     1      -7.812  13.931  69.540  1.00  0.00    -0.211 N  
HETATM   14  H   UNL     1      -7.637  13.078  70.071  1.00  0.00     0.000 HD 
HETATM   15  N   UNL     1      -9.163  15.070  67.928  1.00  0.00    -0.180 NA 
HETATM   16  N   UNL     1      -7.398  18.182  67.907  1.00  0.00    -0.221 NA 
HETATM   17  C   UNL     1      -8.412  17.430  67.448  1.00  0.00    -0.206 A  
HETATM   18  C   UNL     1      -7.345  16.155  68.919  1.00  0.00    -0.186 A  
HETATM   19  O   UNL     1      -6.075  15.055  70.543  1.00  0.00    -0.143 OA 
HETATM   20  C   UNL     1      -5.581  17.869  69.469  1.00  0.00    -0.217 C  
HETATM   21  C   UNL     1      -8.397  16.161  68.053  1.00  0.00    -0.163 A  
HETATM   22  N   UNL     1      -6.760  17.378  68.796  1.00  0.00    -0.208 NA 
BRANCH  17  23
HETATM   23  C   UNL     1      -9.351  17.991  66.434  1.00  0.00    -0.267 C  
BRANCH  23  24
HETATM   24  C   UNL     1     -10.668  18.507  67.017  1.00  0.00    -0.363 C  
HETATM   25  C   UNL     1     -10.526  19.816  67.784  1.00  0.00    -0.555 C  
ENDBRANCH  23  24
ENDBRANCH  17  23
ENDBRANCH   6  11
BRANCH   9  26
HETATM   26  S   UNL     1      -8.813   8.687  68.243  1.00  0.00    -0.142 S  
HETATM   27  O   UNL     1      -7.399   8.953  68.115  1.00  0.00    -0.082 OA 
HETATM   28  O   UNL     1      -9.548   7.881  67.296  1.00  0.00    -0.143 OA 
BRANCH  26  29
HETATM   29  N   UNL     1      -9.036   8.028  69.806  1.00  0.00    -0.144 N  
HETATM   30  H   UNL     1      -8.245   7.752  70.389  1.00  0.00     0.000 HD 
BRANCH  29  31
HETATM   31  C   UNL     1     -10.430   7.881  70.270  1.00  0.00    -0.225 C  
BRANCH  31  32
HETATM   32  C   UNL     1     -10.676   8.602  71.591  1.00  0.00    -0.374 C  
BRANCH  32  33
HETATM   33  C   UNL     1     -10.728   7.586  72.747  1.00  0.00    -0.330 C  
HETATM   34  C   UNL     1     -11.588   6.365  72.427  1.00  0.00    -0.308 C  
HETATM   35  C   UNL     1     -11.055   5.319  73.377  1.00  0.00    -0.362 C  
HETATM   36  C   UNL     1      -8.689   7.778  74.073  1.00  0.00    -0.260 C  
HETATM   37  N   UNL     1      -9.399   7.024  73.043  1.00  0.00    -0.142 NA 
HETATM   38  C   UNL     1      -9.566   5.611  73.424  1.00  0.00    -0.143 C  
ENDBRANCH  32  33
ENDBRANCH  31  32
ENDBRANCH  29  31
ENDBRANCH  26  29
ENDBRANCH   9  26
ENDBRANCH   4   5
ENDBRANCH   3   4
ENDBRANCH   2   3
TORSDOF 11
ENDMDL
MODEL      183
REMARK 921   NORMALIZED FREE ENERGY PREDICTED BY IDOCK:   -4.48 KCAL/MOL
REMARK 922        TOTAL FREE ENERGY PREDICTED BY IDOCK:   -9.60 KCAL/MOL
REMARK 923 INTER-LIGAND FREE ENERGY PREDICTED BY IDOCK:   -8.38 KCAL/MOL
REMARK 924 INTRA-LIGAND FREE ENERGY PREDICTED BY IDOCK:   -1.22 KCAL/MOL
REMARK 927      BINDING AFFINITY PREDICTED BY RF-SCORE:    0.00 PKD
ROOT
HETATM    1  C   UNL     1      -6.071   9.309  62.330  1.00  0.00    -0.093 C  
HETATM    2  C   UNL     1      -6.307  10.349  63.410  1.00  0.00    -0.084 C  
ENDROOT
BRANCH   2   3
HETATM    3  C   UNL     1      -6.016   9.817  64.803  1.00  0.00    -0.090 C  
BRANCH   3   4
HETATM    4  O   UNL     1      -6.718  10.549  65.824  1.00  0.00    -0.122 OA 
BRANCH   4   5
HETATM    5  C   UNL     1      -7.472   9.764  66.678  1.00  0.00    -0.095 A  
HETATM    6  C   UNL     1      -8.813  10.118  66.966  1.00  0.00    -0.144 A  
HETATM    7  C   UNL     1      -9.550   9.345  67.896  1.00  0.00    -0.155 A  
HETATM    8  C   UNL     1      -6.923   8.637  67.303  1.00  0.00    -0.075 A  
HETATM    9  C   UNL     1      -8.948   8.254  68.538  1.00  0.00    -0.137 A  
HETATM   10  C   UNL     1      -7.635   7.919  68.248  1.00  0.00    -0.116 A  
BRANCH   6  11
HETATM   11  C   UNL     1      -9.496  11.318  66.335  1.00  0.00    -0.200 C  
HETATM   12  C   UNL     1     -11.062  12.115  64.778  1.00  0.00    -0.316 C  
HETATM   13  N   UNL     1     -10.374  11.080  65.394  1.00  0.00    -0.270 N  
HETATM   14  H   UNL     1     -10.555  10.118  65.108  1.00  0.00     0.000 HD 
HETATM   15  N   UNL     1      -9.135  12.580  66.785  1.00  0.00    -0.215 NA 
HETATM   16  N   UNL     1     -10.624  15.637  65.674  1.00  0.00    -0.356 NA 
HETATM   17  C   UNL     1      -9.738  15.008  66.464  1.00  0.00    -0.266 A  
HETATM   18  C   UNL     1     -10.725  13.407  65.285  1.00  0.00    -0.313 A  
HETATM   19  O   UNL     1     -11.880  11.937  63.881  1.00  0.00    -0.412 OA 
HETATM   20  C   UNL     1     -12.261  14.962  64.030  1.00  0.00    -0.123 C  
HETATM   21  C   UNL     1      -9.787  13.620  66.249  1.00  0.00    -0.301 A  
HETATM   22  N   UNL     1     -11.217  14.637  64.972  1.00  0.00    -0.365 NA 
BRANCH  17  23
HETATM   23  C   UNL     1      -8.884  15.799  67.396  1.00  0.00    -0.199 C  
BRANCH  23  24
HETATM   24  C   UNL     1      -7.486  16.109  66.855  1.00  0.00    -0.266 C  
HETATM   25  C   UNL     1      -6.364  15.449  67.647  1.00  0.00    -0.177 C  
ENDBRANCH  23  24
ENDBRANCH  17  23
ENDBRANCH   6  11
BRANCH   9  26
HETATM   26  S   UNL     1      -9.795   7.319  69.793  1.00  0.00    -0.179 S  
HETATM   27  O   UNL     1      -8.872   6.321  70.279  1.00  0.00    -0.149 OA 
HETATM   28  O   UNL     1     -11.099   6.990  69.264  1.00  0.00    -0.204 OA 
BRANCH  26  29
HETATM   29  N   UNL     1      -9.991   8.450  71.062  1.00  0.00    -0.183 N  
HETATM   30  H   UNL     1      -9.630   8.270  71.999  1.00  0.00     0.000 HD 
BRANCH  29  31
HETATM   31  C   UNL     1     -10.707   9.699  70.731  1.00  0.00    -0.331 C  
BRANCH  31  32
HETATM   32  C   UNL     1     -12.137   9.698  71.260  1.00  0.00    -0.457 C  
BRANCH  32  33
HETATM   33  C   UNL     1     -12.820  11.041  70.938  1.00  0.00    -0.301 C  
HETATM   34  C   UNL     1     -13.231  11.814  72.189  1.00  0.00    -0.342 C  
HETATM   35  C   UNL     1     -13.325  13.236  71.691  1.00  0.00    -0.406 C  
HETATM   36  C   UNL     1     -12.026  11.843  68.776  1.00  0.00    -0.249 C  
HETATM   37  N   UNL     1     -11.915  11.960  70.227  1.00  0.00    -0.352 NA 
HETATM   38  C   UNL     1     -12.193  13.332  70.683  1.00  0.00    -0.338 C  
ENDBRANCH  32  33
ENDBRANCH  31  32
ENDBRANCH  29  31
ENDBRANCH  26  29
ENDBRANCH   9  26
ENDBRANCH   4   5
ENDBRANCH   3   4
ENDBRANCH   2   3
TORSDOF 11
ENDMDL
MODEL      184
REMARK 921   NORMALIZED FREE ENERGY PREDICTED BY IDOCK:   -4.46 KCAL/MOL
REMARK 922        TOTAL FREE ENERGY PREDICTED BY IDOCK:   -9.57 KCAL/MOL
REMARK 923 INTER-LIGAND FREE ENERGY PREDICTED BY IDOCK:   -6.96 KCAL/MOL
REMARK 924 INTRA-LIGAND FREE ENERGY PREDICTED BY IDOCK:   -2.61 KCAL/MOL
REMARK 927      BINDING AFFINITY PREDICTED BY RF-SCORE:    0.00 PKD
ROOT
HETATM    1  C   UNL     1      -9.310   9.205  70.620  1.00  0.00    -0.312 C  
HETATM    2  C   UNL     1      -8.014   8.706  70.008  1.00  0.00    -0.106 C  
ENDROOT
BRANCH   2   3
HETATM    3  C   UNL     1      -6.796   9.436  70.550  1.00  0.00    -0.098 C  
BRANCH   3   4
HETATM    4  O   UNL     1      -6.025  10.060  69.507  1.00  0.00    -0.040 OA 
BRANCH   4   5
HETATM    5  C   UNL     1      -6.256  11.415  69.353  1.00  0.00    -0.091 A  
HETATM    6  C   UNL     1      -6.689  11.924  68.104  1.00  0.00    -0.062 A  
HETATM    7  C   UNL     1      -6.853  13.321  67.943  1.00  0.00    -0.140 A  
HETATM    8  C   UNL     1      -6.030  12.313  70.406  1.00  0.00    -0.098 A  
HETATM    9  C   UNL     1      -6.568  14.190  69.006  1.00  0.00    -0.104 A  
HETATM   10  C   UNL     1      -6.144  13.680  70.222  1.00  0.00    -0.121 A  
BRANCH   6  11
HETATM   11  C   UNL     1      -6.964  11.029  66.909  1.00  0.00    -0.125 C  
HETATM   12  C   UNL     1      -6.416   9.075  65.730  1.00  0.00    -0.064 C  
HETATM   13  N   UNL     1      -6.219   9.960  66.779  1.00  0.00    -0.063 N  
HETATM   14  H   UNL     1      -5.483   9.775  67.459  1.00  0.00     0.000 HD 
HETATM   15  N   UNL     1      -7.969  11.410  66.033  1.00  0.00     0.012 NA 
HETATM   16  N   UNL     1      -9.029   9.496  63.201  1.00  0.00    -0.232 NA 
HETATM   17  C   UNL     1      -9.167  10.591  63.969  1.00  0.00    -0.253 A  
HETATM   18  C   UNL     1      -7.488   9.445  64.862  1.00  0.00    -0.107 A  
HETATM   19  O   UNL     1      -5.730   8.072  65.560  1.00  0.00    -0.036 OA 
HETATM   20  C   UNL     1      -7.603   7.546  63.208  1.00  0.00    -0.118 C  
HETATM   21  C   UNL     1      -8.227  10.579  65.014  1.00  0.00    -0.120 A  
HETATM   22  N   UNL     1      -8.005   8.812  63.772  1.00  0.00    -0.150 NA 
BRANCH  17  23
HETATM   23  C   UNL     1     -10.216  11.599  63.641  1.00  0.00    -0.451 C  
BRANCH  23  24
HETATM   24  C   UNL     1     -11.404  11.603  64.605  1.00  0.00    -0.284 C  
HETATM   25  C   UNL     1     -12.422  12.699  64.316  1.00  0.00    -0.494 C  
ENDBRANCH  23  24
ENDBRANCH  17  23
ENDBRANCH   6  11
BRANCH   9  26
HETATM   26  S   UNL     1      -6.654  15.958  68.820  1.00  0.00    -0.125 S  
HETATM   27  O   UNL     1      -6.345  16.259  67.443  1.00  0.00    -0.146 OA 
HETATM   28  O   UNL     1      -5.930  16.533  69.930  1.00  0.00    -0.198 OA 
BRANCH  26  29
HETATM   29  N   UNL     1      -8.319  16.294  69.023  1.00  0.00    -0.242 N  
HETATM   30  H   UNL     1      -8.783  16.180  69.924  1.00  0.00     0.000 HD 
BRANCH  29  31
HETATM   31  C   UNL     1      -9.051  16.758  67.827  1.00  0.00    -0.221 C  
BRANCH  31  32
HETATM   32  C   UNL     1     -10.451  17.257  68.168  1.00  0.00    -0.382 C  
BRANCH  32  33
HETATM   33  C   UNL     1     -11.395  16.063  68.407  1.00  0.00    -0.355 C  
HETATM   34  C   UNL     1     -11.329  15.021  67.292  1.00  0.00    -0.337 C  
HETATM   35  C   UNL     1     -11.837  13.771  67.970  1.00  0.00    -0.408 C  
HETATM   36  C   UNL     1     -11.747  15.791  70.805  1.00  0.00    -0.399 C  
HETATM   37  N   UNL     1     -11.034  15.315  69.623  1.00  0.00    -0.266 NA 
HETATM   38  C   UNL     1     -11.284  13.884  69.379  1.00  0.00    -0.224 C  
ENDBRANCH  32  33
ENDBRANCH  31  32
ENDBRANCH  29  31
ENDBRANCH  26  29
ENDBRANCH   9  26
ENDBRANCH   4   5
ENDBRANCH   3   4
ENDBRANCH   2   3
TORSDOF 11
ENDMDL
MODEL      185
REMARK 921   NORMALIZED FREE ENERGY PREDICTED BY IDOCK:   -4.45 KCAL/MOL
REMARK 922        TOTAL FREE ENERGY PREDICTED BY IDOCK:   -9.55 KCAL/MOL
REMARK 923 INTER-LIGAND FREE ENERGY PREDICTED BY IDOCK:   -7.57 KCAL/MOL
REMARK 924 INTRA-LIGAND FREE ENERGY PREDICTED BY IDOCK:   -1.97 KCAL/MOL
REMARK 927      BINDING AFFINITY PREDICTED BY RF-SCORE:    0.00 PKD
ROOT
HETATM    1  C   UNL     1     -10.701  15.887  65.112  1.00  0.00    -0.449 C  
HETATM    2  C   UNL     1     -11.089  15.185  66.400  1.00  0.00    -0.312 C  
ENDROOT
BRANCH   2   3
HETATM    3  C   UNL     1     -11.752  13.841  66.151  1.00  0.00    -0.370 C  
BRANCH   3   4
HETATM    4  O   UNL     1     -11.203  12.800  66.980  1.00  0.00    -0.267 OA 
BRANCH   4   5
HETATM    5  C   UNL     1     -10.502  11.826  66.292  1.00  0.00    -0.244 A  
HETATM    6  C   UNL     1     -10.213  10.588  66.915  1.00  0.00    -0.280 A  
HETATM    7  C   UNL     1      -9.435   9.628  66.223  1.00  0.00    -0.255 A  
HETATM    8  C   UNL     1     -10.032  12.053  64.991  1.00  0.00    -0.259 A  
HETATM    9  C   UNL     1      -8.941   9.913  64.943  1.00  0.00    -0.207 A  
HETATM   10  C   UNL     1      -9.230  11.129  64.344  1.00  0.00    -0.125 A  
BRANCH   6  11
HETATM   11  C   UNL     1     -10.683  10.249  68.319  1.00  0.00    -0.237 C  
HETATM   12  C   UNL     1     -12.412  10.340  69.904  1.00  0.00     0.025 C  
HETATM   13  N   UNL     1     -11.892  10.627  68.652  1.00  0.00    -0.494 N  
HETATM   14  H   UNL     1     -12.460  11.142  67.979  1.00  0.00     0.000 HD 
HETATM   15  N   UNL     1      -9.802   9.578  69.153  1.00  0.00    -0.169 NA 
HETATM   16  N   UNL     1     -10.586   8.459  72.460  1.00  0.00    -0.330 NA 
HETATM   17  C   UNL     1      -9.699   8.548  71.453  1.00  0.00    -0.220 A  
HETATM   18  C   UNL     1     -11.518   9.602  70.740  1.00  0.00    -0.328 A  
HETATM   19  O   UNL     1     -13.531  10.691  70.264  1.00  0.00     0.075 OA 
HETATM   20  C   UNL     1     -12.865   9.172  72.826  1.00  0.00    -0.047 C  
HETATM   21  C   UNL     1     -10.257   9.246  70.368  1.00  0.00    -0.233 A  
HETATM   22  N   UNL     1     -11.687   9.103  71.995  1.00  0.00    -0.349 NA 
BRANCH  17  23
HETATM   23  C   UNL     1      -8.344   7.943  71.604  1.00  0.00    -0.137 C  
BRANCH  23  24
HETATM   24  C   UNL     1      -7.819   7.932  73.041  1.00  0.00    -0.174 C  
HETATM   25  C   UNL     1      -8.001   6.595  73.748  1.00  0.00    -0.109 C  
ENDBRANCH  23  24
ENDBRANCH  17  23
ENDBRANCH   6  11
BRANCH   9  26
HETATM   26  S   UNL     1      -7.870   8.786  64.078  1.00  0.00    -0.147 S  
HETATM   27  O   UNL     1      -6.636   8.710  64.823  1.00  0.00    -0.065 OA 
HETATM   28  O   UNL     1      -7.921   9.145  62.679  1.00  0.00    -0.119 OA 
BRANCH  26  29
HETATM   29  N   UNL     1      -8.645   7.274  64.280  1.00  0.00    -0.308 N  
HETATM   30  H   UNL     1      -9.265   6.891  63.566  1.00  0.00     0.000 HD 
BRANCH  29  31
HETATM   31  C   UNL     1      -8.370   6.552  65.538  1.00  0.00    -0.146 C  
BRANCH  31  32
HETATM   32  C   UNL     1      -9.649   6.093  66.229  1.00  0.00    -0.123 C  
BRANCH  32  33
HETATM   33  C   UNL     1      -9.389   5.872  67.731  1.00  0.00    -0.106 C  
HETATM   34  C   UNL     1     -10.634   6.090  68.588  1.00  0.00    -0.327 C  
HETATM   35  C   UNL     1     -10.323   5.304  69.840  1.00  0.00    -0.374 C  
HETATM   36  C   UNL     1      -7.540   4.304  68.001  1.00  0.00    -0.068 C  
HETATM   37  N   UNL     1      -8.989   4.485  68.021  1.00  0.00    -0.111 NA 
HETATM   38  C   UNL     1      -9.566   4.096  69.319  1.00  0.00    -0.186 C  
ENDBRANCH  32  33
ENDBRANCH  31  32
ENDBRANCH  29  31
ENDBRANCH  26  29
ENDBRANCH   9  26
ENDBRANCH   4   5
ENDBRANCH   3   4
ENDBRANCH   2   3
TORSDOF 11
ENDMDL
MODEL      186
REMARK 921   NORMALIZED FREE ENERGY PREDICTED BY IDOCK:   -4.43 KCAL/MOL
REMARK 922        TOTAL FREE ENERGY PREDICTED BY IDOCK:   -9.51 KCAL/MOL
REMARK 923 INTER-LIGAND FREE ENERGY PREDICTED BY IDOCK:   -7.32 KCAL/MOL
REMARK 924 INTRA-LIGAND FREE ENERGY PREDICTED BY IDOCK:   -2.20 KCAL/MOL
REMARK 927      BINDING AFFINITY PREDICTED BY RF-SCORE:    0.00 PKD
ROOT
HETATM    1  C   UNL     1      -8.037   7.740  74.092  1.00  0.00    -0.265 C  
HETATM    2  C   UNL     1      -7.194   8.048  72.868  1.00  0.00    -0.127 C  
ENDROOT
BRANCH   2   3
HETATM    3  C   UNL     1      -8.018   8.092  71.591  1.00  0.00    -0.112 C  
BRANCH   3   4
HETATM    4  O   UNL     1      -7.547   9.096  70.673  1.00  0.00    -0.103 OA 
BRANCH   4   5
HETATM    5  C   UNL     1      -7.622   8.736  69.340  1.00  0.00    -0.088 A  
HETATM    6  C   UNL     1      -8.684   9.216  68.535  1.00  0.00    -0.129 A  
HETATM    7  C   UNL     1      -8.787   8.783  67.191  1.00  0.00    -0.137 A  
HETATM    8  C   UNL     1      -6.683   7.865  68.769  1.00  0.00    -0.057 A  
HETATM    9  C   UNL     1      -7.856   7.872  66.672  1.00  0.00    -0.102 A  
HETATM   10  C   UNL     1      -6.822   7.409  67.470  1.00  0.00    -0.078 A  
BRANCH   6  11
HETATM   11  C   UNL     1      -9.745  10.165  69.063  1.00  0.00    -0.206 C  
HETATM   12  C   UNL     1     -11.384  10.599  70.687  1.00  0.00    -0.198 C  
HETATM   13  N   UNL     1     -10.413   9.785  70.123  1.00  0.00    -0.266 N  
HETATM   14  H   UNL     1     -10.217   8.876  70.540  1.00  0.00     0.000 HD 
HETATM   15  N   UNL     1      -9.943  11.358  68.383  1.00  0.00    -0.198 NA 
HETATM   16  N   UNL     1     -12.221  13.923  69.401  1.00  0.00    -0.335 NA 
HETATM   17  C   UNL     1     -11.292  13.484  68.534  1.00  0.00    -0.292 A  
HETATM   18  C   UNL     1     -11.545  11.849  70.014  1.00  0.00    -0.220 A  
HETATM   19  O   UNL     1     -12.045  10.275  71.668  1.00  0.00    -0.353 OA 
HETATM   20  C   UNL     1     -13.263  13.061  71.403  1.00  0.00    -0.192 C  
HETATM   21  C   UNL     1     -10.848  12.201  68.897  1.00  0.00    -0.200 A  
HETATM   22  N   UNL     1     -12.349  12.910  70.296  1.00  0.00    -0.269 NA 
BRANCH  17  23
HETATM   23  C   UNL     1     -10.882  14.347  67.388  1.00  0.00    -0.293 C  
BRANCH  23  24
HETATM   24  C   UNL     1     -11.726  14.154  66.126  1.00  0.00    -0.402 C  
HETATM   25  C   UNL     1     -10.898  13.937  64.865  1.00  0.00    -0.413 C  
ENDBRANCH  23  24
ENDBRANCH  17  23
ENDBRANCH   6  11
BRANCH   9  26
HETATM   26  S   UNL     1      -8.005   7.215  65.025  1.00  0.00    -0.123 S  
HETATM   27  O   UNL     1      -6.876   6.340  64.810  1.00  0.00    -0.045 OA 
HETATM   28  O   UNL     1      -8.312   8.326  64.155  1.00  0.00    -0.137 OA 
BRANCH  26  29
HETATM   29  N   UNL     1      -9.381   6.204  65.127  1.00  0.00    -0.179 N  
HETATM   30  H   UNL     1     -10.149   6.277  64.459  1.00  0.00     0.000 HD 
BRANCH  29  31
HETATM   31  C   UNL     1      -9.401   5.221  66.229  1.00  0.00    -0.153 C  
BRANCH  31  32
HETATM   32  C   UNL     1     -10.605   5.411  67.146  1.00  0.00    -0.274 C  
BRANCH  32  33
HETATM   33  C   UNL     1     -10.133   5.680  68.588  1.00  0.00    -0.183 C  
HETATM   34  C   UNL     1     -11.204   6.348  69.448  1.00  0.00    -0.459 C  
HETATM   35  C   UNL     1     -10.773   5.999  70.853  1.00  0.00    -0.329 C  
HETATM   36  C   UNL     1      -8.415   4.055  69.184  1.00  0.00    -0.077 C  
HETATM   37  N   UNL     1      -9.820   4.432  69.305  1.00  0.00    -0.183 NA 
HETATM   38  C   UNL     1     -10.219   4.592  70.713  1.00  0.00    -0.144 C  
ENDBRANCH  32  33
ENDBRANCH  31  32
ENDBRANCH  29  31
ENDBRANCH  26  29
ENDBRANCH   9  26
ENDBRANCH   4   5
ENDBRANCH   3   4
ENDBRANCH   2   3
TORSDOF 11
ENDMDL
MODEL      187
REMARK 921   NORMALIZED FREE ENERGY PREDICTED BY IDOCK:   -4.38 KCAL/MOL
REMARK 922        TOTAL FREE ENERGY PREDICTED BY IDOCK:   -9.42 KCAL/MOL
REMARK 923 INTER-LIGAND FREE ENERGY PREDICTED BY IDOCK:   -7.97 KCAL/MOL
REMARK 924 INTRA-LIGAND FREE ENERGY PREDICTED BY IDOCK:   -1.45 KCAL/MOL
REMARK 927      BINDING AFFINITY PREDICTED BY RF-SCORE:    0.00 PKD
ROOT
HETATM    1  C   UNL     1     -13.046  11.787  71.741  1.00  0.00    -0.480 C  
HETATM    2  C   UNL     1     -13.151  10.275  71.819  1.00  0.00    -0.570 C  
ENDROOT
BRANCH   2   3
HETATM    3  C   UNL     1     -11.982   9.577  71.144  1.00  0.00    -0.348 C  
BRANCH   3   4
HETATM    4  O   UNL     1     -11.105  10.503  70.476  1.00  0.00    -0.300 OA 
BRANCH   4   5
HETATM    5  C   UNL     1      -9.938   9.942  69.990  1.00  0.00    -0.254 A  
HETATM    6  C   UNL     1      -9.241  10.567  68.928  1.00  0.00    -0.188 A  
HETATM    7  C   UNL     1      -8.086   9.943  68.394  1.00  0.00    -0.101 A  
HETATM    8  C   UNL     1      -9.444   8.735  70.505  1.00  0.00    -0.219 A  
HETATM    9  C   UNL     1      -7.654   8.711  68.903  1.00  0.00    -0.092 A  
HETATM   10  C   UNL     1      -8.345   8.110  69.943  1.00  0.00    -0.123 A  
BRANCH   6  11
HETATM   11  C   UNL     1      -9.696  11.877  68.309  1.00  0.00    -0.200 C  
HETATM   12  C   UNL     1      -9.550  14.219  68.300  1.00  0.00    -0.221 C  
HETATM   13  N   UNL     1      -9.207  12.980  68.818  1.00  0.00    -0.395 N  
HETATM   14  H   UNL     1      -8.564  12.926  69.607  1.00  0.00     0.000 HD 
HETATM   15  N   UNL     1     -10.605  11.818  67.263  1.00  0.00    -0.217 NA 
HETATM   16  N   UNL     1     -11.790  14.658  65.438  1.00  0.00    -0.334 NA 
HETATM   17  C   UNL     1     -11.788  13.328  65.625  1.00  0.00    -0.380 A  
HETATM   18  C   UNL     1     -10.443  14.149  67.188  1.00  0.00    -0.270 A  
HETATM   19  O   UNL     1      -9.129  15.277  68.757  1.00  0.00    -0.179 OA 
HETATM   20  C   UNL     1     -10.700  16.551  66.471  1.00  0.00    -0.144 C  
HETATM   21  C   UNL     1     -10.952  12.983  66.701  1.00  0.00    -0.279 A  
HETATM   22  N   UNL     1     -10.956  15.133  66.399  1.00  0.00    -0.334 NA 
BRANCH  17  23
HETATM   23  C   UNL     1     -12.609  12.454  64.737  1.00  0.00    -0.419 C  
BRANCH  23  24
HETATM   24  C   UNL     1     -11.903  12.034  63.446  1.00  0.00    -0.542 C  
HETATM   25  C   UNL     1     -10.597  11.285  63.679  1.00  0.00    -0.453 C  
ENDBRANCH  23  24
ENDBRANCH  17  23
ENDBRANCH   6  11
BRANCH   9  26
HETATM   26  S   UNL     1      -6.275   7.837  68.196  1.00  0.00    -0.046 S  
HETATM   27  O   UNL     1      -5.194   8.784  68.054  1.00  0.00    -0.034 OA 
HETATM   28  O   UNL     1      -6.789   7.063  67.090  1.00  0.00    -0.061 OA 
BRANCH  26  29
HETATM   29  N   UNL     1      -5.809   6.762  69.443  1.00  0.00    -0.018 N  
HETATM   30  H   UNL     1      -5.655   7.085  70.398  1.00  0.00     0.000 HD 
BRANCH  29  31
HETATM   31  C   UNL     1      -5.643   5.344  69.067  1.00  0.00    -0.008 C  
BRANCH  31  32
HETATM   32  C   UNL     1      -6.509   4.419  69.916  1.00  0.00    -0.032 C  
BRANCH  32  33
HETATM   33  C   UNL     1      -7.940   4.365  69.347  1.00  0.00    -0.061 C  
HETATM   34  C   UNL     1      -7.971   4.322  67.821  1.00  0.00    -0.087 C  
HETATM   35  C   UNL     1      -9.324   3.719  67.529  1.00  0.00    -0.238 C  
HETATM   36  C   UNL     1      -9.413   3.322  70.987  1.00  0.00    -0.158 C  
HETATM   37  N   UNL     1      -8.647   3.140  69.758  1.00  0.00    -0.061 NA 
HETATM   38  C   UNL     1      -9.506   2.704  68.644  1.00  0.00    -0.125 C  
ENDBRANCH  32  33
ENDBRANCH  31  32
ENDBRANCH  29  31
ENDBRANCH  26  29
ENDBRANCH   9  26
ENDBRANCH   4   5
ENDBRANCH   3   4
ENDBRANCH   2   3
TORSDOF 11
ENDMDL
MODEL      188
REMARK 921   NORMALIZED FREE ENERGY PREDICTED BY IDOCK:   -4.37 KCAL/MOL
REMARK 922        TOTAL FREE ENERGY PREDICTED BY IDOCK:   -9.41 KCAL/MOL
REMARK 923 INTER-LIGAND FREE ENERGY PREDICTED BY IDOCK:   -7.68 KCAL/MOL
REMARK 924 INTRA-LIGAND FREE ENERGY PREDICTED BY IDOCK:   -1.73 KCAL/MOL
REMARK 927      BINDING AFFINITY PREDICTED BY RF-SCORE:    0.00 PKD
ROOT
HETATM    1  C   UNL     1      -5.846   7.823  63.975  1.00  0.00    -0.052 C  
HETATM    2  C   UNL     1      -5.546   8.540  65.279  1.00  0.00    -0.043 C  
ENDROOT
BRANCH   2   3
HETATM    3  C   UNL     1      -6.413   8.046  66.425  1.00  0.00    -0.047 C  
BRANCH   3   4
HETATM    4  O   UNL     1      -6.621   9.060  67.426  1.00  0.00    -0.063 OA 
BRANCH   4   5
HETATM    5  C   UNL     1      -7.674   8.809  68.288  1.00  0.00    -0.100 A  
HETATM    6  C   UNL     1      -8.251   9.869  69.029  1.00  0.00    -0.124 A  
HETATM    7  C   UNL     1      -9.281   9.586  69.958  1.00  0.00    -0.264 A  
HETATM    8  C   UNL     1      -8.164   7.509  68.476  1.00  0.00    -0.125 A  
HETATM    9  C   UNL     1      -9.708   8.265  70.155  1.00  0.00    -0.176 A  
HETATM   10  C   UNL     1      -9.135   7.237  69.424  1.00  0.00    -0.142 A  
BRANCH   6  11
HETATM   11  C   UNL     1      -7.791  11.309  68.889  1.00  0.00    -0.114 C  
HETATM   12  C   UNL     1      -6.249  12.966  69.512  1.00  0.00    -0.118 C  
HETATM   13  N   UNL     1      -6.752  11.677  69.595  1.00  0.00    -0.278 N  
HETATM   14  H   UNL     1      -6.305  11.003  70.217  1.00  0.00     0.000 HD 
HETATM   15  N   UNL     1      -8.507  12.138  68.037  1.00  0.00    -0.162 NA 
HETATM   16  N   UNL     1      -7.647  15.534  67.309  1.00  0.00    -0.201 NA 
HETATM   17  C   UNL     1      -8.463  14.485  67.112  1.00  0.00    -0.212 A  
HETATM   18  C   UNL     1      -6.958  13.798  68.593  1.00  0.00    -0.102 A  
HETATM   19  O   UNL     1      -5.290  13.357  70.169  1.00  0.00    -0.092 OA 
HETATM   20  C   UNL     1      -5.672  15.965  68.631  1.00  0.00    -0.101 C  
HETATM   21  C   UNL     1      -8.052  13.389  67.891  1.00  0.00    -0.162 A  
HETATM   22  N   UNL     1      -6.735  15.086  68.209  1.00  0.00    -0.104 NA 
BRANCH  17  23
HETATM   23  C   UNL     1      -9.611  14.605  66.167  1.00  0.00    -0.336 C  
BRANCH  23  24
HETATM   24  C   UNL     1     -10.874  15.205  66.788  1.00  0.00    -0.322 C  
HETATM   25  C   UNL     1     -10.613  16.461  67.611  1.00  0.00    -0.313 C  
ENDBRANCH  23  24
ENDBRANCH  17  23
ENDBRANCH   6  11
BRANCH   9  26
HETATM   26  S   UNL     1     -10.921   7.845  71.387  1.00  0.00    -0.237 S  
HETATM   27  O   UNL     1     -10.208   7.334  72.533  1.00  0.00    -0.184 OA 
HETATM   28  O   UNL     1     -11.962   7.101  70.716  1.00  0.00    -0.332 OA 
BRANCH  26  29
HETATM   29  N   UNL     1     -11.551   9.365  71.853  1.00  0.00    -0.355 N  
HETATM   30  H   UNL     1     -11.079   9.953  72.540  1.00  0.00     0.000 HD 
BRANCH  29  31
HETATM   31  C   UNL     1     -12.814   9.784  71.211  1.00  0.00    -0.377 C  
BRANCH  31  32
HETATM   32  C   UNL     1     -13.385  11.051  71.839  1.00  0.00    -0.423 C  
BRANCH  32  33
HETATM   33  C   UNL     1     -12.545  12.273  71.423  1.00  0.00    -0.198 C  
HETATM   34  C   UNL     1     -12.075  12.204  69.971  1.00  0.00    -0.352 C  
HETATM   35  C   UNL     1     -11.807  13.652  69.635  1.00  0.00    -0.396 C  
HETATM   36  C   UNL     1     -13.193  14.190  72.784  1.00  0.00    -0.509 C  
HETATM   37  N   UNL     1     -13.322  13.522  71.493  1.00  0.00    -0.321 NA 
HETATM   38  C   UNL     1     -12.897  14.396  70.386  1.00  0.00    -0.245 C  
ENDBRANCH  32  33
ENDBRANCH  31  32
ENDBRANCH  29  31
ENDBRANCH  26  29
ENDBRANCH   9  26
ENDBRANCH   4   5
ENDBRANCH   3   4
ENDBRANCH   2   3
TORSDOF 11
ENDMDL
MODEL      189
REMARK 921   NORMALIZED FREE ENERGY PREDICTED BY IDOCK:   -4.36 KCAL/MOL
REMARK 922        TOTAL FREE ENERGY PREDICTED BY IDOCK:   -9.40 KCAL/MOL
REMARK 923 INTER-LIGAND FREE ENERGY PREDICTED BY IDOCK:   -7.48 KCAL/MOL
REMARK 924 INTRA-LIGAND FREE ENERGY PREDICTED BY IDOCK:   -1.92 KCAL/MOL
REMARK 927      BINDING AFFINITY PREDICTED BY RF-SCORE:    0.00 PKD
ROOT
HETATM    1  C   UNL     1      -6.799  15.470  68.330  1.00  0.00    -0.115 C  
HETATM    2  C   UNL     1      -5.450  14.876  67.970  1.00  0.00    -0.137 C  
ENDROOT
BRANCH   2   3
HETATM    3  C   UNL     1      -5.459  13.357  67.993  1.00  0.00    -0.113 C  
BRANCH   3   4
HETATM    4  O   UNL     1      -6.397  12.832  68.951  1.00  0.00    -0.074 OA 
BRANCH   4   5
HETATM    5  C   UNL     1      -6.575  11.461  68.890  1.00  0.00    -0.071 A  
HETATM    6  C   UNL     1      -7.748  10.924  68.305  1.00  0.00    -0.111 A  
HETATM    7  C   UNL     1      -7.947   9.522  68.314  1.00  0.00    -0.094 A  
HETATM    8  C   UNL     1      -5.629  10.582  69.435  1.00  0.00    -0.037 A  
HETATM    9  C   UNL     1      -7.001   8.680  68.914  1.00  0.00    -0.062 A  
HETATM   10  C   UNL     1      -5.858   9.218  69.483  1.00  0.00    -0.033 A  
BRANCH   6  11
HETATM   11  C   UNL     1      -8.826  11.796  67.686  1.00  0.00    -0.162 C  
HETATM   12  C   UNL     1      -9.857  12.580  65.729  1.00  0.00    -0.234 C  
HETATM   13  N   UNL     1      -8.890  11.829  66.379  1.00  0.00    -0.249 N  
HETATM   14  H   UNL     1      -8.217  11.295  65.830  1.00  0.00     0.000 HD 
HETATM   15  N   UNL     1      -9.657  12.504  68.542  1.00  0.00    -0.161 NA 
HETATM   16  N   UNL     1     -12.411  14.529  67.486  1.00  0.00    -0.120 NA 
HETATM   17  C   UNL     1     -11.670  14.023  68.486  1.00  0.00    -0.352 A  
HETATM   18  C   UNL     1     -10.743  13.264  66.617  1.00  0.00    -0.280 A  
HETATM   19  O   UNL     1      -9.942  12.654  64.508  1.00  0.00    -0.253 OA 
HETATM   20  C   UNL     1     -12.399  14.373  65.075  1.00  0.00    -0.396 C  
HETATM   21  C   UNL     1     -10.631  13.225  67.974  1.00  0.00    -0.240 A  
HETATM   22  N   UNL     1     -11.829  14.044  66.359  1.00  0.00    -0.397 NA 
BRANCH  17  23
HETATM   23  C   UNL     1     -12.015  14.346  69.901  1.00  0.00    -0.391 C  
BRANCH  23  24
HETATM   24  C   UNL     1     -11.030  15.298  70.584  1.00  0.00    -0.318 C  
HETATM   25  C   UNL     1     -11.616  16.020  71.791  1.00  0.00    -0.534 C  
ENDBRANCH  23  24
ENDBRANCH  17  23
ENDBRANCH   6  11
BRANCH   9  26
HETATM   26  S   UNL     1      -7.257   6.924  69.046  1.00  0.00    -0.093 S  
HETATM   27  O   UNL     1      -6.071   6.362  69.648  1.00  0.00    -0.027 OA 
HETATM   28  O   UNL     1      -7.777   6.477  67.774  1.00  0.00    -0.103 OA 
BRANCH  26  29
HETATM   29  N   UNL     1      -8.497   6.794  70.217  1.00  0.00    -0.134 N  
HETATM   30  H   UNL     1      -9.398   6.369  69.998  1.00  0.00     0.000 HD 
BRANCH  29  31
HETATM   31  C   UNL     1      -8.196   7.327  71.561  1.00  0.00    -0.105 C  
BRANCH  31  32
HETATM   32  C   UNL     1      -9.005   8.582  71.876  1.00  0.00    -0.301 C  
BRANCH  32  33
HETATM   33  C   UNL     1     -10.422   8.195  72.338  1.00  0.00    -0.319 C  
HETATM   34  C   UNL     1     -11.459   8.292  71.221  1.00  0.00    -0.314 C  
HETATM   35  C   UNL     1     -12.558   7.374  71.700  1.00  0.00    -0.391 C  
HETATM   36  C   UNL     1     -10.256   6.636  74.207  1.00  0.00    -0.326 C  
HETATM   37  N   UNL     1     -10.493   6.789  72.775  1.00  0.00    -0.208 NA 
HETATM   38  C   UNL     1     -11.803   6.245  72.380  1.00  0.00    -0.226 C  
ENDBRANCH  32  33
ENDBRANCH  31  32
ENDBRANCH  29  31
ENDBRANCH  26  29
ENDBRANCH   9  26
ENDBRANCH   4   5
ENDBRANCH   3   4
ENDBRANCH   2   3
TORSDOF 11
ENDMDL
MODEL      190
REMARK 921   NORMALIZED FREE ENERGY PREDICTED BY IDOCK:   -4.34 KCAL/MOL
REMARK 922        TOTAL FREE ENERGY PREDICTED BY IDOCK:   -9.36 KCAL/MOL
REMARK 923 INTER-LIGAND FREE ENERGY PREDICTED BY IDOCK:   -7.87 KCAL/MOL
REMARK 924 INTRA-LIGAND FREE ENERGY PREDICTED BY IDOCK:   -1.48 KCAL/MOL
REMARK 927      BINDING AFFINITY PREDICTED BY RF-SCORE:    0.00 PKD
ROOT
HETATM    1  C   UNL     1      -6.287  18.702  69.360  1.00  0.00    -0.284 C  
HETATM    2  C   UNL     1      -7.154  17.498  69.038  1.00  0.00    -0.234 C  
ENDROOT
BRANCH   2   3
HETATM    3  C   UNL     1      -7.871  17.639  67.705  1.00  0.00    -0.210 C  
BRANCH   3   4
HETATM    4  O   UNL     1      -7.698  16.481  66.868  1.00  0.00    -0.181 OA 
BRANCH   4   5
HETATM    5  C   UNL     1      -8.878  15.899  66.440  1.00  0.00    -0.333 A  
HETATM    6  C   UNL     1      -9.202  14.579  66.839  1.00  0.00    -0.267 A  
HETATM    7  C   UNL     1     -10.379  13.972  66.336  1.00  0.00    -0.289 A  
HETATM    8  C   UNL     1      -9.752  16.578  65.580  1.00  0.00     0.023 A  
HETATM    9  C   UNL     1     -11.200  14.667  65.437  1.00  0.00    -0.347 A  
HETATM   10  C   UNL     1     -10.871  15.958  65.055  1.00  0.00    -0.444 A  
BRANCH   6  11
HETATM   11  C   UNL     1      -8.321  13.767  67.771  1.00  0.00    -0.180 C  
HETATM   12  C   UNL     1      -6.447  13.718  69.184  1.00  0.00    -0.109 C  
HETATM   13  N   UNL     1      -7.292  14.376  68.303  1.00  0.00    -0.111 N  
HETATM   14  H   UNL     1      -7.108  15.351  68.065  1.00  0.00     0.000 HD 
HETATM   15  N   UNL     1      -8.657  12.438  67.985  1.00  0.00    -0.173 NA 
HETATM   16  N   UNL     1      -6.939  10.245  70.230  1.00  0.00    -0.211 NA 
HETATM   17  C   UNL     1      -7.934  10.443  69.349  1.00  0.00    -0.157 A  
HETATM   18  C   UNL     1      -6.829  12.366  69.441  1.00  0.00     0.021 A  
HETATM   19  O   UNL     1      -5.462  14.246  69.690  1.00  0.00    -0.091 OA 
HETATM   20  C   UNL     1      -5.158  11.587  71.159  1.00  0.00    -0.114 C  
HETATM   21  C   UNL     1      -7.895  11.757  68.850  1.00  0.00    -0.013 A  
HETATM   22  N   UNL     1      -6.286  11.435  70.272  1.00  0.00    -0.232 NA 
BRANCH  17  23
HETATM   23  C   UNL     1      -8.879   9.332  69.037  1.00  0.00    -0.136 C  
BRANCH  23  24
HETATM   24  C   UNL     1     -10.290   9.535  69.595  1.00  0.00    -0.236 C  
HETATM   25  C   UNL     1     -10.707   8.470  70.602  1.00  0.00    -0.251 C  
ENDBRANCH  23  24
ENDBRANCH  17  23
ENDBRANCH   6  11
BRANCH   9  26
HETATM   26  S   UNL     1     -12.629  13.910  64.695  1.00  0.00    -0.174 S  
HETATM   27  O   UNL     1     -12.563  14.170  63.276  1.00  0.00    -0.766 OA 
HETATM   28  O   UNL     1     -13.768  14.272  65.506  1.00  0.00    -0.342 OA 
BRANCH  26  29
HETATM   29  N   UNL     1     -12.333  12.236  64.888  1.00  0.00    -0.376 N  
HETATM   30  H   UNL     1     -12.581  11.744  65.747  1.00  0.00     0.000 HD 
BRANCH  29  31
HETATM   31  C   UNL     1     -11.700  11.540  63.750  1.00  0.00    -0.178 C  
BRANCH  31  32
HETATM   32  C   UNL     1     -10.234  11.924  63.583  1.00  0.00    -0.466 C  
BRANCH  32  33
HETATM   33  C   UNL     1      -9.334  10.895  64.292  1.00  0.00    -0.228 C  
HETATM   34  C   UNL     1     -10.085  10.064  65.330  1.00  0.00    -0.317 C  
HETATM   35  C   UNL     1      -9.227   8.827  65.456  1.00  0.00    -0.202 C  
HETATM   36  C   UNL     1      -7.496  10.285  62.810  1.00  0.00    -0.140 C  
HETATM   37  N   UNL     1      -8.795   9.898  63.352  1.00  0.00    -0.219 NA 
HETATM   38  C   UNL     1      -8.729   8.598  64.040  1.00  0.00     0.092 C  
ENDBRANCH  32  33
ENDBRANCH  31  32
ENDBRANCH  29  31
ENDBRANCH  26  29
ENDBRANCH   9  26
ENDBRANCH   4   5
ENDBRANCH   3   4
ENDBRANCH   2   3
TORSDOF 11
ENDMDL
MODEL      191
REMARK 921   NORMALIZED FREE ENERGY PREDICTED BY IDOCK:   -4.31 KCAL/MOL
REMARK 922        TOTAL FREE ENERGY PREDICTED BY IDOCK:   -9.32 KCAL/MOL
REMARK 923 INTER-LIGAND FREE ENERGY PREDICTED BY IDOCK:   -6.96 KCAL/MOL
REMARK 924 INTRA-LIGAND FREE ENERGY PREDICTED BY IDOCK:   -2.36 KCAL/MOL
REMARK 927      BINDING AFFINITY PREDICTED BY RF-SCORE:    0.00 PKD
ROOT
HETATM    1  C   UNL     1      -6.646  14.227  68.180  1.00  0.00    -0.132 C  
HETATM    2  C   UNL     1      -6.955  12.846  68.727  1.00  0.00    -0.103 C  
ENDROOT
BRANCH   2   3
HETATM    3  C   UNL     1      -5.699  12.041  69.015  1.00  0.00    -0.057 C  
BRANCH   3   4
HETATM    4  O   UNL     1      -5.875  10.639  68.743  1.00  0.00    -0.041 OA 
BRANCH   4   5
HETATM    5  C   UNL     1      -6.459  10.360  67.520  1.00  0.00    -0.058 A  
HETATM    6  C   UNL     1      -7.692   9.664  67.466  1.00  0.00    -0.095 A  
HETATM    7  C   UNL     1      -8.242   9.325  66.206  1.00  0.00    -0.107 A  
HETATM    8  C   UNL     1      -5.833  10.718  66.318  1.00  0.00    -0.122 A  
HETATM    9  C   UNL     1      -7.560   9.657  65.028  1.00  0.00    -0.116 A  
HETATM   10  C   UNL     1      -6.354  10.337  65.094  1.00  0.00    -0.123 A  
BRANCH   6  11
HETATM   11  C   UNL     1      -8.446   9.239  68.714  1.00  0.00    -0.129 C  
HETATM   12  C   UNL     1      -8.474   7.927  70.660  1.00  0.00    -0.125 C  
HETATM   13  N   UNL     1      -7.869   8.355  69.489  1.00  0.00    -0.100 N  
HETATM   14  H   UNL     1      -6.959   7.976  69.226  1.00  0.00     0.000 HD 
HETATM   15  N   UNL     1      -9.693   9.801  68.940  1.00  0.00    -0.165 NA 
HETATM   16  N   UNL     1     -11.704   9.188  71.835  1.00  0.00    -0.371 NA 
HETATM   17  C   UNL     1     -11.537   9.820  70.661  1.00  0.00    -0.313 A  
HETATM   18  C   UNL     1      -9.734   8.550  70.914  1.00  0.00    -0.187 A  
HETATM   19  O   UNL     1      -7.978   7.089  71.405  1.00  0.00    -0.102 OA 
HETATM   20  C   UNL     1     -10.421   7.623  73.155  1.00  0.00    -0.374 C  
HETATM   21  C   UNL     1     -10.316   9.449  70.072  1.00  0.00    -0.233 A  
HETATM   22  N   UNL     1     -10.587   8.427  71.968  1.00  0.00    -0.290 NA 
BRANCH  17  23
HETATM   23  C   UNL     1     -12.585  10.762  70.171  1.00  0.00    -0.309 C  
BRANCH  23  24
HETATM   24  C   UNL     1     -12.298  12.233  70.477  1.00  0.00    -0.349 C  
HETATM   25  C   UNL     1     -11.722  13.003  69.295  1.00  0.00    -0.375 C  
ENDBRANCH  23  24
ENDBRANCH  17  23
ENDBRANCH   6  11
BRANCH   9  26
HETATM   26  S   UNL     1      -8.155   9.158  63.427  1.00  0.00    -0.172 S  
HETATM   27  O   UNL     1      -8.433   7.743  63.496  1.00  0.00     0.053 OA 
HETATM   28  O   UNL     1      -7.263   9.734  62.447  1.00  0.00    -0.106 OA 
BRANCH  26  29
HETATM   29  N   UNL     1      -9.672   9.939  63.310  1.00  0.00    -0.513 N  
HETATM   30  H   UNL     1     -10.542   9.412  63.235  1.00  0.00     0.000 HD 
BRANCH  29  31
HETATM   31  C   UNL     1      -9.659  11.416  63.322  1.00  0.00    -0.357 C  
BRANCH  31  32
HETATM   32  C   UNL     1     -11.045  12.001  63.569  1.00  0.00    -0.519 C  
BRANCH  32  33
HETATM   33  C   UNL     1     -10.979  13.065  64.682  1.00  0.00    -0.342 C  
HETATM   34  C   UNL     1      -9.575  13.632  64.879  1.00  0.00     0.371 C  
HETATM   35  C   UNL     1      -9.840  14.964  65.540  1.00  0.00    -0.348 C  
HETATM   36  C   UNL     1     -13.160  14.138  64.892  1.00  0.00     0.205 C  
HETATM   37  N   UNL     1     -11.804  14.244  64.363  1.00  0.00    -0.433 NA 
HETATM   38  C   UNL     1     -11.116  15.443  64.870  1.00  0.00    -0.423 C  
ENDBRANCH  32  33
ENDBRANCH  31  32
ENDBRANCH  29  31
ENDBRANCH  26  29
ENDBRANCH   9  26
ENDBRANCH   4   5
ENDBRANCH   3   4
ENDBRANCH   2   3
TORSDOF 11
ENDMDL
MODEL      192
REMARK 921   NORMALIZED FREE ENERGY PREDICTED BY IDOCK:   -4.23 KCAL/MOL
REMARK 922        TOTAL FREE ENERGY PREDICTED BY IDOCK:   -9.18 KCAL/MOL
REMARK 923 INTER-LIGAND FREE ENERGY PREDICTED BY IDOCK:   -7.49 KCAL/MOL
REMARK 924 INTRA-LIGAND FREE ENERGY PREDICTED BY IDOCK:   -1.69 KCAL/MOL
REMARK 927      BINDING AFFINITY PREDICTED BY RF-SCORE:    0.00 PKD
ROOT
HETATM    1  C   UNL     1     -13.699  13.094  72.330  1.00  0.00    -0.647 C  
HETATM    2  C   UNL     1     -13.053  12.212  71.278  1.00  0.00    -0.210 C  
ENDROOT
BRANCH   2   3
HETATM    3  C   UNL     1     -12.551  10.896  71.851  1.00  0.00    -0.120 C  
BRANCH   3   4
HETATM    4  O   UNL     1     -12.561   9.838  70.875  1.00  0.00    -0.307 OA 
BRANCH   4   5
HETATM    5  C   UNL     1     -11.739   8.768  71.180  1.00  0.00    -0.291 A  
HETATM    6  C   UNL     1     -10.694   8.402  70.297  1.00  0.00    -0.240 A  
HETATM    7  C   UNL     1      -9.907   7.261  70.588  1.00  0.00    -0.179 A  
HETATM    8  C   UNL     1     -11.944   8.003  72.337  1.00  0.00    -0.405 A  
HETATM    9  C   UNL     1     -10.176   6.493  71.729  1.00  0.00    -0.188 A  
HETATM   10  C   UNL     1     -11.202   6.861  72.585  1.00  0.00    -0.297 A  
BRANCH   6  11
HETATM   11  C   UNL     1     -10.394   9.172  69.023  1.00  0.00    -0.215 C  
HETATM   12  C   UNL     1      -9.925   9.092  66.724  1.00  0.00    -0.263 C  
HETATM   13  N   UNL     1     -10.183   8.471  67.937  1.00  0.00    -0.208 N  
HETATM   14  H   UNL     1     -10.209   7.453  67.984  1.00  0.00     0.000 HD 
HETATM   15  N   UNL     1     -10.350  10.556  69.098  1.00  0.00    -0.209 NA 
HETATM   16  N   UNL     1      -9.840  12.727  66.300  1.00  0.00    -0.264 NA 
HETATM   17  C   UNL     1     -10.061  12.578  67.617  1.00  0.00    -0.217 A  
HETATM   18  C   UNL     1      -9.934  10.519  66.798  1.00  0.00    -0.204 A  
HETATM   19  O   UNL     1      -9.704   8.475  65.688  1.00  0.00    -0.040 OA 
HETATM   20  C   UNL     1      -9.571  11.244  64.412  1.00  0.00    -0.225 C  
HETATM   21  C   UNL     1     -10.133  11.215  67.952  1.00  0.00    -0.176 A  
HETATM   22  N   UNL     1      -9.774  11.457  65.825  1.00  0.00    -0.224 NA 
BRANCH  17  23
HETATM   23  C   UNL     1     -10.192  13.782  68.488  1.00  0.00    -0.235 C  
BRANCH  23  24
HETATM   24  C   UNL     1     -11.606  14.366  68.541  1.00  0.00    -0.347 C  
HETATM   25  C   UNL     1     -11.910  15.113  69.833  1.00  0.00    -0.363 C  
ENDBRANCH  23  24
ENDBRANCH  17  23
ENDBRANCH   6  11
BRANCH   9  26
HETATM   26  S   UNL     1      -9.287   4.993  72.081  1.00  0.00    -0.137 S  
HETATM   27  O   UNL     1     -10.260   3.931  72.178  1.00  0.00    -0.177 OA 
HETATM   28  O   UNL     1      -8.350   5.296  73.138  1.00  0.00    -0.114 OA 
BRANCH  26  29
HETATM   29  N   UNL     1      -8.409   4.708  70.641  1.00  0.00    -0.089 N  
HETATM   30  H   UNL     1      -7.552   5.218  70.427  1.00  0.00     0.000 HD 
BRANCH  29  31
HETATM   31  C   UNL     1      -8.955   3.688  69.723  1.00  0.00    -0.106 C  
BRANCH  31  32
HETATM   32  C   UNL     1      -8.354   3.791  68.326  1.00  0.00    -0.102 C  
BRANCH  32  33
HETATM   33  C   UNL     1      -9.475   3.815  67.269  1.00  0.00    -0.200 C  
HETATM   34  C   UNL     1     -10.344   5.068  67.353  1.00  0.00    -0.174 C  
HETATM   35  C   UNL     1     -10.942   5.156  65.969  1.00  0.00    -0.021 C  
HETATM   36  C   UNL     1      -8.779   2.502  65.335  1.00  0.00    -0.118 C  
HETATM   37  N   UNL     1      -8.936   3.839  65.898  1.00  0.00    -0.129 NA 
HETATM   38  C   UNL     1      -9.817   4.677  65.068  1.00  0.00    -0.049 C  
ENDBRANCH  32  33
ENDBRANCH  31  32
ENDBRANCH  29  31
ENDBRANCH  26  29
ENDBRANCH   9  26
ENDBRANCH   4   5
ENDBRANCH   3   4
ENDBRANCH   2   3
TORSDOF 11
ENDMDL
MODEL      193
REMARK 921   NORMALIZED FREE ENERGY PREDICTED BY IDOCK:   -4.22 KCAL/MOL
REMARK 922        TOTAL FREE ENERGY PREDICTED BY IDOCK:   -9.17 KCAL/MOL
REMARK 923 INTER-LIGAND FREE ENERGY PREDICTED BY IDOCK:   -7.11 KCAL/MOL
REMARK 924 INTRA-LIGAND FREE ENERGY PREDICTED BY IDOCK:   -2.06 KCAL/MOL
REMARK 927      BINDING AFFINITY PREDICTED BY RF-SCORE:    0.00 PKD
ROOT
HETATM    1  C   UNL     1      -9.519   9.329  70.512  1.00  0.00    -0.317 C  
HETATM    2  C   UNL     1      -8.398   8.778  69.651  1.00  0.00    -0.126 C  
ENDROOT
BRANCH   2   3
HETATM    3  C   UNL     1      -7.024   9.185  70.156  1.00  0.00    -0.056 C  
BRANCH   3   4
HETATM    4  O   UNL     1      -6.200   9.736  69.112  1.00  0.00    -0.040 OA 
BRANCH   4   5
HETATM    5  C   UNL     1      -6.340  11.100  68.928  1.00  0.00    -0.050 A  
HETATM    6  C   UNL     1      -6.704  11.609  67.658  1.00  0.00    -0.087 A  
HETATM    7  C   UNL     1      -6.776  13.011  67.467  1.00  0.00    -0.156 A  
HETATM    8  C   UNL     1      -6.089  12.002  69.971  1.00  0.00    -0.146 A  
HETATM    9  C   UNL     1      -6.468  13.881  68.522  1.00  0.00    -0.093 A  
HETATM   10  C   UNL     1      -6.112  13.370  69.760  1.00  0.00    -0.128 A  
BRANCH   6  11
HETATM   11  C   UNL     1      -7.000  10.710  66.470  1.00  0.00    -0.125 C  
HETATM   12  C   UNL     1      -6.587   8.676  65.375  1.00  0.00    -0.067 C  
HETATM   13  N   UNL     1      -6.361   9.569  66.411  1.00  0.00    -0.068 N  
HETATM   14  H   UNL     1      -5.687   9.333  67.139  1.00  0.00     0.000 HD 
HETATM   15  N   UNL     1      -7.911  11.162  65.527  1.00  0.00     0.123 NA 
HETATM   16  N   UNL     1      -8.997   9.278  62.686  1.00  0.00    -0.210 NA 
HETATM   17  C   UNL     1      -9.066  10.403  63.417  1.00  0.00    -0.260 A  
HETATM   18  C   UNL     1      -7.565   9.124  64.436  1.00  0.00    -0.115 A  
HETATM   19  O   UNL     1      -5.998   7.605  65.271  1.00  0.00    -0.037 OA 
HETATM   20  C   UNL     1      -7.778   7.197  62.826  1.00  0.00    -0.118 C  
HETATM   21  C   UNL     1      -8.193  10.330  64.516  1.00  0.00    -0.158 A  
HETATM   22  N   UNL     1      -8.081   8.513  63.334  1.00  0.00    -0.166 NA 
BRANCH  17  23
HETATM   23  C   UNL     1      -9.988  11.501  63.002  1.00  0.00    -0.352 C  
BRANCH  23  24
HETATM   24  C   UNL     1     -11.207  11.671  63.911  1.00  0.00    -0.479 C  
HETATM   25  C   UNL     1     -12.088  12.856  63.536  1.00  0.00    -0.633 C  
ENDBRANCH  23  24
ENDBRANCH  17  23
ENDBRANCH   6  11
BRANCH   9  26
HETATM   26  S   UNL     1      -6.437  15.647  68.303  1.00  0.00    -0.129 S  
HETATM   27  O   UNL     1      -6.705  15.910  66.908  1.00  0.00    -0.266 OA 
HETATM   28  O   UNL     1      -5.259  16.135  68.981  1.00  0.00    -0.107 OA 
BRANCH  26  29
HETATM   29  N   UNL     1      -7.819  16.174  69.163  1.00  0.00    -0.231 N  
HETATM   30  H   UNL     1      -7.755  16.879  69.897  1.00  0.00     0.000 HD 
BRANCH  29  31
HETATM   31  C   UNL     1      -9.107  15.556  68.789  1.00  0.00    -0.207 C  
BRANCH  31  32
HETATM   32  C   UNL     1     -10.296  16.429  69.177  1.00  0.00    -0.289 C  
BRANCH  32  33
HETATM   33  C   UNL     1     -10.454  17.585  68.171  1.00  0.00    -0.386 C  
HETATM   34  C   UNL     1      -9.759  18.867  68.626  1.00  0.00    -0.454 C  
HETATM   35  C   UNL     1      -9.550  19.615  67.331  1.00  0.00    -0.455 C  
HETATM   36  C   UNL     1     -10.760  16.664  65.934  1.00  0.00    -0.175 C  
HETATM   37  N   UNL     1      -9.826  17.274  66.875  1.00  0.00    -0.275 NA 
HETATM   38  C   UNL     1      -9.242  18.513  66.333  1.00  0.00    -0.277 C  
ENDBRANCH  32  33
ENDBRANCH  31  32
ENDBRANCH  29  31
ENDBRANCH  26  29
ENDBRANCH   9  26
ENDBRANCH   4   5
ENDBRANCH   3   4
ENDBRANCH   2   3
TORSDOF 11
ENDMDL
MODEL      194
REMARK 921   NORMALIZED FREE ENERGY PREDICTED BY IDOCK:   -4.18 KCAL/MOL
REMARK 922        TOTAL FREE ENERGY PREDICTED BY IDOCK:   -9.10 KCAL/MOL
REMARK 923 INTER-LIGAND FREE ENERGY PREDICTED BY IDOCK:   -7.02 KCAL/MOL
REMARK 924 INTRA-LIGAND FREE ENERGY PREDICTED BY IDOCK:   -2.07 KCAL/MOL
REMARK 927      BINDING AFFINITY PREDICTED BY RF-SCORE:    0.00 PKD
ROOT
HETATM    1  C   UNL     1      -5.984  15.406  70.102  1.00  0.00    -0.141 C  
HETATM    2  C   UNL     1      -5.129  14.349  70.778  1.00  0.00    -0.116 C  
ENDROOT
BRANCH   2   3
HETATM    3  C   UNL     1      -5.219  12.999  70.085  1.00  0.00    -0.100 C  
BRANCH   3   4
HETATM    4  O   UNL     1      -6.576  12.638  69.769  1.00  0.00    -0.060 OA 
BRANCH   4   5
HETATM    5  C   UNL     1      -6.710  11.807  68.671  1.00  0.00    -0.073 A  
HETATM    6  C   UNL     1      -7.535  12.192  67.587  1.00  0.00    -0.129 A  
HETATM    7  C   UNL     1      -7.717  11.299  66.502  1.00  0.00    -0.125 A  
HETATM    8  C   UNL     1      -6.070  10.560  68.623  1.00  0.00    -0.043 A  
HETATM    9  C   UNL     1      -7.100  10.040  66.516  1.00  0.00    -0.097 A  
HETATM   10  C   UNL     1      -6.295   9.676  67.584  1.00  0.00    -0.057 A  
BRANCH   6  11
HETATM   11  C   UNL     1      -8.264  13.523  67.547  1.00  0.00    -0.183 C  
HETATM   12  C   UNL     1      -8.265  15.760  66.835  1.00  0.00    -0.253 C  
HETATM   13  N   UNL     1      -7.663  14.515  66.940  1.00  0.00    -0.285 N  
HETATM   14  H   UNL     1      -6.737  14.371  66.538  1.00  0.00     0.000 HD 
HETATM   15  N   UNL     1      -9.504  13.601  68.164  1.00  0.00    -0.212 NA 
HETATM   16  N   UNL     1     -11.602  16.500  68.146  1.00  0.00    -0.052 NA 
HETATM   17  C   UNL     1     -11.405  15.223  68.514  1.00  0.00    -0.327 A  
HETATM   18  C   UNL     1      -9.564  15.819  67.426  1.00  0.00    -0.217 A  
HETATM   19  O   UNL     1      -7.730  16.721  66.292  1.00  0.00    -0.296 OA 
HETATM   20  C   UNL     1     -10.353  18.156  66.908  1.00  0.00    -0.375 C  
HETATM   21  C   UNL     1     -10.149  14.771  68.071  1.00  0.00    -0.218 A  
HETATM   22  N   UNL     1     -10.469  16.835  67.478  1.00  0.00    -0.316 NA 
BRANCH  17  23
HETATM   23  C   UNL     1     -12.459  14.502  69.285  1.00  0.00    -0.066 C  
BRANCH  23  24
HETATM   24  C   UNL     1     -11.993  13.979  70.646  1.00  0.00    -0.376 C  
HETATM   25  C   UNL     1     -12.349  12.519  70.894  1.00  0.00    -0.349 C  
ENDBRANCH  23  24
ENDBRANCH  17  23
ENDBRANCH   6  11
BRANCH   9  26
HETATM   26  S   UNL     1      -7.384   8.843  65.231  1.00  0.00    -0.090 S  
HETATM   27  O   UNL     1      -6.639   7.656  65.579  1.00  0.00    -0.044 OA 
HETATM   28  O   UNL     1      -7.219   9.530  63.971  1.00  0.00    -0.103 OA 
BRANCH  26  29
HETATM   29  N   UNL     1      -9.036   8.444  65.422  1.00  0.00    -0.405 N  
HETATM   30  H   UNL     1      -9.738   8.727  64.738  1.00  0.00     0.000 HD 
BRANCH  29  31
HETATM   31  C   UNL     1      -9.395   7.669  66.627  1.00  0.00    -0.190 C  
BRANCH  31  32
HETATM   32  C   UNL     1     -10.364   8.425  67.529  1.00  0.00    -0.333 C  
BRANCH  32  33
HETATM   33  C   UNL     1     -10.601   7.635  68.830  1.00  0.00    -0.159 C  
HETATM   34  C   UNL     1     -11.118   6.220  68.580  1.00  0.00    -0.409 C  
HETATM   35  C   UNL     1     -10.738   5.494  69.849  1.00  0.00    -0.358 C  
HETATM   36  C   UNL     1      -9.116   8.490  70.566  1.00  0.00    -0.156 C  
HETATM   37  N   UNL     1      -9.352   7.435  69.585  1.00  0.00    -0.150 NA 
HETATM   38  C   UNL     1      -9.400   6.107  70.219  1.00  0.00    -0.160 C  
ENDBRANCH  32  33
ENDBRANCH  31  32
ENDBRANCH  29  31
ENDBRANCH  26  29
ENDBRANCH   9  26
ENDBRANCH   4   5
ENDBRANCH   3   4
ENDBRANCH   2   3
TORSDOF 11
ENDMDL
MODEL      195
REMARK 921   NORMALIZED FREE ENERGY PREDICTED BY IDOCK:   -4.15 KCAL/MOL
REMARK 922        TOTAL FREE ENERGY PREDICTED BY IDOCK:   -9.06 KCAL/MOL
REMARK 923 INTER-LIGAND FREE ENERGY PREDICTED BY IDOCK:   -7.47 KCAL/MOL
REMARK 924 INTRA-LIGAND FREE ENERGY PREDICTED BY IDOCK:   -1.59 KCAL/MOL
REMARK 927      BINDING AFFINITY PREDICTED BY RF-SCORE:    0.00 PKD
ROOT
HETATM    1  C   UNL     1      -6.260  18.297  69.770  1.00  0.00    -0.174 C  
HETATM    2  C   UNL     1      -6.628  16.892  69.329  1.00  0.00    -0.232 C  
ENDROOT
BRANCH   2   3
HETATM    3  C   UNL     1      -7.681  16.885  68.233  1.00  0.00    -0.205 C  
BRANCH   3   4
HETATM    4  O   UNL     1      -7.525  15.771  67.335  1.00  0.00    -0.156 OA 
BRANCH   4   5
HETATM    5  C   UNL     1      -8.706  15.304  66.788  1.00  0.00    -0.270 A  
HETATM    6  C   UNL     1      -9.137  13.982  67.056  1.00  0.00    -0.256 A  
HETATM    7  C   UNL     1     -10.312  13.495  66.432  1.00  0.00    -0.289 A  
HETATM    8  C   UNL     1      -9.476  16.104  65.932  1.00  0.00    -0.337 A  
HETATM    9  C   UNL     1     -11.026  14.309  65.543  1.00  0.00    -0.319 A  
HETATM   10  C   UNL     1     -10.593  15.601  65.289  1.00  0.00    -0.448 A  
BRANCH   6  11
HETATM   11  C   UNL     1      -8.373  13.043  67.973  1.00  0.00    -0.169 C  
HETATM   12  C   UNL     1      -7.949  10.831  68.636  1.00  0.00    -0.133 C  
HETATM   13  N   UNL     1      -8.618  11.762  67.856  1.00  0.00    -0.148 N  
HETATM   14  H   UNL     1      -9.312  11.444  67.180  1.00  0.00     0.000 HD 
HETATM   15  N   UNL     1      -7.482  13.603  68.876  1.00  0.00    -0.075 NA 
HETATM   16  N   UNL     1      -5.379  11.730  71.083  1.00  0.00    -0.295 NA 
HETATM   17  C   UNL     1      -5.785  12.922  70.614  1.00  0.00    -0.163 A  
HETATM   18  C   UNL     1      -6.994  11.411  69.526  1.00  0.00    -0.063 A  
HETATM   19  O   UNL     1      -8.160   9.625  68.572  1.00  0.00    -0.101 OA 
HETATM   20  C   UNL     1      -5.922   9.419  70.637  1.00  0.00    -0.061 C  
HETATM   21  C   UNL     1      -6.783  12.753  69.639  1.00  0.00     0.090 A  
HETATM   22  N   UNL     1      -6.126  10.827  70.398  1.00  0.00    -0.144 NA 
BRANCH  17  23
HETATM   23  C   UNL     1      -5.175  14.175  71.146  1.00  0.00    -0.147 C  
BRANCH  23  24
HETATM   24  C   UNL     1      -5.833  14.699  72.425  1.00  0.00     0.284 C  
HETATM   25  C   UNL     1      -5.179  14.189  73.703  1.00  0.00    -0.380 C  
ENDBRANCH  23  24
ENDBRANCH  17  23
ENDBRANCH   6  11
BRANCH   9  26
HETATM   26  S   UNL     1     -12.444  13.708  64.653  1.00  0.00    -0.273 S  
HETATM   27  O   UNL     1     -12.396  14.287  63.331  1.00  0.00    -0.678 OA 
HETATM   28  O   UNL     1     -13.583  13.850  65.530  1.00  0.00    -0.579 OA 
BRANCH  26  29
HETATM   29  N   UNL     1     -12.110  12.042  64.459  1.00  0.00    -0.297 N  
HETATM   30  H   UNL     1     -12.373  11.357  65.168  1.00  0.00     0.000 HD 
BRANCH  29  31
HETATM   31  C   UNL     1     -11.423  11.645  63.214  1.00  0.00    -0.166 C  
BRANCH  31  32
HETATM   32  C   UNL     1      -9.905  11.675  63.360  1.00  0.00    -0.424 C  
BRANCH  32  33
HETATM   33  C   UNL     1      -9.363  10.244  63.541  1.00  0.00    -0.301 C  
HETATM   34  C   UNL     1      -8.059  10.003  62.783  1.00  0.00    -0.145 C  
HETATM   35  C   UNL     1      -7.452   8.834  63.523  1.00  0.00    -0.108 C  
HETATM   36  C   UNL     1     -10.134   9.361  65.680  1.00  0.00    -0.004 C  
HETATM   37  N   UNL     1      -9.023   9.960  64.946  1.00  0.00    -0.190 NA 
HETATM   38  C   UNL     1      -7.830   9.097  64.969  1.00  0.00    -0.112 C  
ENDBRANCH  32  33
ENDBRANCH  31  32
ENDBRANCH  29  31
ENDBRANCH  26  29
ENDBRANCH   9  26
ENDBRANCH   4   5
ENDBRANCH   3   4
ENDBRANCH   2   3
TORSDOF 11
ENDMDL
MODEL      196
REMARK 921   NORMALIZED FREE ENERGY PREDICTED BY IDOCK:   -4.14 KCAL/MOL
REMARK 922        TOTAL FREE ENERGY PREDICTED BY IDOCK:   -9.03 KCAL/MOL
REMARK 923 INTER-LIGAND FREE ENERGY PREDICTED BY IDOCK:   -7.59 KCAL/MOL
REMARK 924 INTRA-LIGAND FREE ENERGY PREDICTED BY IDOCK:   -1.45 KCAL/MOL
REMARK 927      BINDING AFFINITY PREDICTED BY RF-SCORE:    0.00 PKD
ROOT
HETATM    1  C   UNL     1      -6.689   8.448  69.763  1.00  0.00    -0.039 C  
HETATM    2  C   UNL     1      -6.953   9.655  70.644  1.00  0.00    -0.115 C  
ENDROOT
BRANCH   2   3
HETATM    3  C   UNL     1      -6.363  10.933  70.070  1.00  0.00    -0.142 C  
BRANCH   3   4
HETATM    4  O   UNL     1      -7.377  11.828  69.577  1.00  0.00     0.047 OA 
BRANCH   4   5
HETATM    5  C   UNL     1      -7.786  11.575  68.280  1.00  0.00    -0.123 A  
HETATM    6  C   UNL     1      -9.156  11.676  67.936  1.00  0.00    -0.171 A  
HETATM    7  C   UNL     1      -9.568  11.346  66.622  1.00  0.00    -0.211 A  
HETATM    8  C   UNL     1      -6.871  11.177  67.295  1.00  0.00    -0.095 A  
HETATM    9  C   UNL     1      -8.628  10.904  65.680  1.00  0.00    -0.160 A  
HETATM   10  C   UNL     1      -7.291  10.808  66.030  1.00  0.00    -0.114 A  
BRANCH   6  11
HETATM   11  C   UNL     1     -10.219  12.103  68.932  1.00  0.00    -0.036 C  
HETATM   12  C   UNL     1     -11.421  13.865  69.914  1.00  0.00    -0.183 C  
HETATM   13  N   UNL     1     -10.451  13.387  69.046  1.00  0.00    -0.422 N  
HETATM   14  H   UNL     1      -9.910  14.046  68.487  1.00  0.00     0.000 HD 
HETATM   15  N   UNL     1     -10.860  11.111  69.660  1.00  0.00    -0.192 NA 
HETATM   16  N   UNL     1     -13.526  11.692  71.975  1.00  0.00    -0.344 NA 
HETATM   17  C   UNL     1     -12.711  10.825  71.351  1.00  0.00    -0.439 A  
HETATM   18  C   UNL     1     -12.114  12.835  70.621  1.00  0.00    -0.228 A  
HETATM   19  O   UNL     1     -11.658  15.059  70.065  1.00  0.00    -0.253 OA 
HETATM   20  C   UNL     1     -13.847  14.086  71.956  1.00  0.00    -0.490 C  
HETATM   21  C   UNL     1     -11.829  11.508  70.496  1.00  0.00    -0.267 A  
HETATM   22  N   UNL     1     -13.146  12.908  71.506  1.00  0.00    -0.351 NA 
BRANCH  17  23
HETATM   23  C   UNL     1     -12.835   9.363  71.622  1.00  0.00    -0.461 C  
BRANCH  23  24
HETATM   24  C   UNL     1     -14.254   8.815  71.458  1.00  0.00    -0.364 C  
HETATM   25  C   UNL     1     -14.313   7.297  71.343  1.00  0.00    -0.484 C  
ENDBRANCH  23  24
ENDBRANCH  17  23
ENDBRANCH   6  11
BRANCH   9  26
HETATM   26  S   UNL     1      -9.111  10.374  64.051  1.00  0.00    -0.263 S  
HETATM   27  O   UNL     1      -8.021  10.690  63.158  1.00  0.00    -0.119 OA 
HETATM   28  O   UNL     1     -10.460  10.844  63.838  1.00  0.00    -0.363 OA 
BRANCH  26  29
HETATM   29  N   UNL     1      -9.142   8.669  64.185  1.00  0.00    -0.206 N  
HETATM   30  H   UNL     1      -9.975   8.129  63.951  1.00  0.00     0.000 HD 
BRANCH  29  31
HETATM   31  C   UNL     1      -7.902   8.019  64.655  1.00  0.00    -0.140 C  
BRANCH  31  32
HETATM   32  C   UNL     1      -8.141   7.141  65.878  1.00  0.00    -0.122 C  
BRANCH  32  33
HETATM   33  C   UNL     1      -8.364   5.680  65.445  1.00  0.00    -0.144 C  
HETATM   34  C   UNL     1      -9.758   5.162  65.792  1.00  0.00    -0.124 C  
HETATM   35  C   UNL     1      -9.943   4.017  64.826  1.00  0.00    -0.210 C  
HETATM   36  C   UNL     1      -6.924   5.183  63.539  1.00  0.00    -0.046 C  
HETATM   37  N   UNL     1      -8.273   5.521  63.983  1.00  0.00    -0.126 NA 
HETATM   38  C   UNL     1      -9.253   4.505  63.564  1.00  0.00    -0.086 C  
ENDBRANCH  32  33
ENDBRANCH  31  32
ENDBRANCH  29  31
ENDBRANCH  26  29
ENDBRANCH   9  26
ENDBRANCH   4   5
ENDBRANCH   3   4
ENDBRANCH   2   3
TORSDOF 11
ENDMDL
MODEL      197
REMARK 921   NORMALIZED FREE ENERGY PREDICTED BY IDOCK:   -4.12 KCAL/MOL
REMARK 922        TOTAL FREE ENERGY PREDICTED BY IDOCK:   -9.01 KCAL/MOL
REMARK 923 INTER-LIGAND FREE ENERGY PREDICTED BY IDOCK:   -7.00 KCAL/MOL
REMARK 924 INTRA-LIGAND FREE ENERGY PREDICTED BY IDOCK:   -2.00 KCAL/MOL
REMARK 927      BINDING AFFINITY PREDICTED BY RF-SCORE:    0.00 PKD
ROOT
HETATM    1  C   UNL     1      -8.857   9.687  63.801  1.00  0.00    -0.257 C  
HETATM    2  C   UNL     1      -8.344   8.435  64.488  1.00  0.00    -0.125 C  
ENDROOT
BRANCH   2   3
HETATM    3  C   UNL     1      -6.849   8.489  64.754  1.00  0.00    -0.072 C  
BRANCH   3   4
HETATM    4  O   UNL     1      -6.540   8.377  66.156  1.00  0.00    -0.053 OA 
BRANCH   4   5
HETATM    5  C   UNL     1      -6.523   9.580  66.838  1.00  0.00    -0.067 A  
HETATM    6  C   UNL     1      -7.190   9.698  68.082  1.00  0.00    -0.080 A  
HETATM    7  C   UNL     1      -7.223  10.955  68.735  1.00  0.00    -0.091 A  
HETATM    8  C   UNL     1      -5.886  10.709  66.304  1.00  0.00    -0.104 A  
HETATM    9  C   UNL     1      -6.618  12.071  68.143  1.00  0.00    -0.055 A  
HETATM   10  C   UNL     1      -5.968  11.943  66.926  1.00  0.00    -0.115 A  
BRANCH   6  11
HETATM   11  C   UNL     1      -7.903   8.531  68.741  1.00  0.00    -0.110 C  
HETATM   12  C   UNL     1      -8.098   6.203  68.970  1.00  0.00    -0.112 C  
HETATM   13  N   UNL     1      -7.519   7.326  68.401  1.00  0.00    -0.103 N  
HETATM   14  H   UNL     1      -6.781   7.213  67.706  1.00  0.00     0.000 HD 
HETATM   15  N   UNL     1      -8.917   8.817  69.644  1.00  0.00    -0.143 NA 
HETATM   16  N   UNL     1     -10.717   6.362  71.524  1.00  0.00    -0.231 NA 
HETATM   17  C   UNL     1     -10.500   7.655  71.226  1.00  0.00    -0.206 A  
HETATM   18  C   UNL     1      -9.104   6.506  69.938  1.00  0.00    -0.143 A  
HETATM   19  O   UNL     1      -7.781   5.057  68.668  1.00  0.00    -0.077 OA 
HETATM   20  C   UNL     1      -9.791   4.246  70.816  1.00  0.00    -0.195 C  
HETATM   21  C   UNL     1      -9.496   7.773  70.250  1.00  0.00    -0.160 A  
HETATM   22  N   UNL     1      -9.847   5.685  70.731  1.00  0.00    -0.176 NA 
BRANCH  17  23
HETATM   23  C   UNL     1     -11.290   8.716  71.915  1.00  0.00    -0.417 C  
BRANCH  23  24
HETATM   24  C   UNL     1     -12.524   9.182  71.139  1.00  0.00    -0.315 C  
HETATM   25  C   UNL     1     -12.747  10.688  71.193  1.00  0.00    -0.522 C  
ENDBRANCH  23  24
ENDBRANCH  17  23
ENDBRANCH   6  11
BRANCH   9  26
HETATM   26  S   UNL     1      -6.725  13.692  68.870  1.00  0.00    -0.112 S  
HETATM   27  O   UNL     1      -6.216  14.631  67.899  1.00  0.00    -0.139 OA 
HETATM   28  O   UNL     1      -6.198  13.588  70.211  1.00  0.00    -0.131 OA 
BRANCH  26  29
HETATM   29  N   UNL     1      -8.410  13.969  68.967  1.00  0.00    -0.347 N  
HETATM   30  H   UNL     1      -8.817  14.539  69.708  1.00  0.00     0.000 HD 
BRANCH  29  31
HETATM   31  C   UNL     1      -9.246  13.342  67.923  1.00  0.00    -0.216 C  
BRANCH  31  32
HETATM   32  C   UNL     1      -9.924  14.377  67.032  1.00  0.00    -0.257 C  
BRANCH  32  33
HETATM   33  C   UNL     1     -11.073  15.061  67.797  1.00  0.00    -0.310 C  
HETATM   34  C   UNL     1     -11.843  14.099  68.698  1.00  0.00    -0.383 C  
HETATM   35  C   UNL     1     -12.476  15.021  69.713  1.00  0.00    -0.216 C  
HETATM   36  C   UNL     1     -10.539  17.422  68.098  1.00  0.00    -0.376 C  
HETATM   37  N   UNL     1     -10.578  16.100  68.716  1.00  0.00    -0.262 NA 
HETATM   38  C   UNL     1     -11.420  16.091  69.924  1.00  0.00    -0.326 C  
ENDBRANCH  32  33
ENDBRANCH  31  32
ENDBRANCH  29  31
ENDBRANCH  26  29
ENDBRANCH   9  26
ENDBRANCH   4   5
ENDBRANCH   3   4
ENDBRANCH   2   3
TORSDOF 11
ENDMDL
MODEL      198
REMARK 921   NORMALIZED FREE ENERGY PREDICTED BY IDOCK:   -4.10 KCAL/MOL
REMARK 922        TOTAL FREE ENERGY PREDICTED BY IDOCK:   -8.97 KCAL/MOL
REMARK 923 INTER-LIGAND FREE ENERGY PREDICTED BY IDOCK:   -8.42 KCAL/MOL
REMARK 924 INTRA-LIGAND FREE ENERGY PREDICTED BY IDOCK:   -0.56 KCAL/MOL
REMARK 927      BINDING AFFINITY PREDICTED BY RF-SCORE:    0.00 PKD
ROOT
HETATM    1  C   UNL     1     -13.512  15.353  71.342  1.00  0.00    -0.607 C  
HETATM    2  C   UNL     1     -12.033  15.024  71.262  1.00  0.00    -0.388 C  
ENDROOT
BRANCH   2   3
HETATM    3  C   UNL     1     -11.287  15.934  70.300  1.00  0.00    -0.372 C  
BRANCH   3   4
HETATM    4  O   UNL     1     -11.271  15.411  68.958  1.00  0.00    -0.255 OA 
BRANCH   4   5
HETATM    5  C   UNL     1     -10.553  14.238  68.807  1.00  0.00    -0.252 A  
HETATM    6  C   UNL     1      -9.151  14.286  68.614  1.00  0.00    -0.160 A  
HETATM    7  C   UNL     1      -8.440  13.081  68.391  1.00  0.00    -0.118 A  
HETATM    8  C   UNL     1     -11.194  12.991  68.800  1.00  0.00    -0.325 A  
HETATM    9  C   UNL     1      -9.125  11.859  68.341  1.00  0.00    -0.167 A  
HETATM   10  C   UNL     1     -10.497  11.827  68.530  1.00  0.00    -0.233 A  
BRANCH   6  11
HETATM   11  C   UNL     1      -8.370  15.588  68.611  1.00  0.00    -0.172 C  
HETATM   12  C   UNL     1      -6.504  16.780  69.388  1.00  0.00    -0.229 C  
HETATM   13  N   UNL     1      -7.290  15.639  69.350  1.00  0.00    -0.208 N  
HETATM   14  H   UNL     1      -7.024  14.827  69.906  1.00  0.00     0.000 HD 
HETATM   15  N   UNL     1      -8.857  16.633  67.840  1.00  0.00    -0.202 NA 
HETATM   16  N   UNL     1      -7.225  19.792  67.436  1.00  0.00    -0.220 NA 
HETATM   17  C   UNL     1      -8.255  18.981  67.140  1.00  0.00    -0.269 A  
HETATM   18  C   UNL     1      -6.982  17.834  68.551  1.00  0.00    -0.238 A  
HETATM   19  O   UNL     1      -5.495  16.878  70.080  1.00  0.00    -0.195 OA 
HETATM   20  C   UNL     1      -5.234  19.633  68.794  1.00  0.00    -0.191 C  
HETATM   21  C   UNL     1      -8.124  17.754  67.813  1.00  0.00    -0.226 A  
HETATM   22  N   UNL     1      -6.461  19.065  68.290  1.00  0.00    -0.229 NA 
BRANCH  17  23
HETATM   23  C   UNL     1      -9.323  19.449  66.209  1.00  0.00    -0.402 C  
BRANCH  23  24
HETATM   24  C   UNL     1     -10.659  19.752  66.891  1.00  0.00    -0.588 C  
HETATM   25  C   UNL     1     -10.514  20.287  68.310  1.00  0.00    -0.267 C  
ENDBRANCH  23  24
ENDBRANCH  17  23
ENDBRANCH   6  11
BRANCH   9  26
HETATM   26  S   UNL     1      -8.294  10.334  67.956  1.00  0.00    -0.115 S  
HETATM   27  O   UNL     1      -7.520   9.963  69.117  1.00  0.00    -0.075 OA 
HETATM   28  O   UNL     1      -7.712  10.490  66.643  1.00  0.00    -0.112 OA 
BRANCH  26  29
HETATM   29  N   UNL     1      -9.574   9.203  67.853  1.00  0.00    -0.144 N  
HETATM   30  H   UNL     1     -10.013   8.971  66.962  1.00  0.00     0.000 HD 
BRANCH  29  31
HETATM   31  C   UNL     1     -10.011   8.581  69.119  1.00  0.00    -0.192 C  
BRANCH  31  32
HETATM   32  C   UNL     1     -10.591   7.187  68.904  1.00  0.00    -0.218 C  
BRANCH  32  33
HETATM   33  C   UNL     1      -9.851   6.164  69.787  1.00  0.00    -0.163 C  
HETATM   34  C   UNL     1     -10.767   5.482  70.800  1.00  0.00    -0.294 C  
HETATM   35  C   UNL     1     -10.025   4.205  71.117  1.00  0.00    -0.211 C  
HETATM   36  C   UNL     1      -7.924   5.300  68.566  1.00  0.00    -0.087 C  
HETATM   37  N   UNL     1      -9.298   5.053  68.993  1.00  0.00    -0.118 NA 
HETATM   38  C   UNL     1      -9.405   3.817  69.787  1.00  0.00    -0.175 C  
ENDBRANCH  32  33
ENDBRANCH  31  32
ENDBRANCH  29  31
ENDBRANCH  26  29
ENDBRANCH   9  26
ENDBRANCH   4   5
ENDBRANCH   3   4
ENDBRANCH   2   3
TORSDOF 11
ENDMDL
MODEL      199
REMARK 921   NORMALIZED FREE ENERGY PREDICTED BY IDOCK:   -4.09 KCAL/MOL
REMARK 922        TOTAL FREE ENERGY PREDICTED BY IDOCK:   -8.95 KCAL/MOL
REMARK 923 INTER-LIGAND FREE ENERGY PREDICTED BY IDOCK:   -7.02 KCAL/MOL
REMARK 924 INTRA-LIGAND FREE ENERGY PREDICTED BY IDOCK:   -1.93 KCAL/MOL
REMARK 927      BINDING AFFINITY PREDICTED BY RF-SCORE:    0.00 PKD
ROOT
HETATM    1  C   UNL     1     -13.039  12.651  71.478  1.00  0.00    -0.373 C  
HETATM    2  C   UNL     1     -13.220  11.233  71.987  1.00  0.00    -0.437 C  
ENDROOT
BRANCH   2   3
HETATM    3  C   UNL     1     -12.721  10.193  70.998  1.00  0.00    -0.386 C  
BRANCH   3   4
HETATM    4  O   UNL     1     -11.361   9.800  71.259  1.00  0.00    -0.361 OA 
BRANCH   4   5
HETATM    5  C   UNL     1     -10.939   8.687  70.554  1.00  0.00    -0.238 A  
HETATM    6  C   UNL     1     -10.181   8.845  69.368  1.00  0.00    -0.210 A  
HETATM    7  C   UNL     1      -9.816   7.699  68.620  1.00  0.00    -0.175 A  
HETATM    8  C   UNL     1     -11.280   7.392  70.969  1.00  0.00    -0.285 A  
HETATM    9  C   UNL     1     -10.220   6.425  69.042  1.00  0.00    -0.183 A  
HETATM   10  C   UNL     1     -10.962   6.284  70.204  1.00  0.00    -0.411 A  
BRANCH   6  11
HETATM   11  C   UNL     1      -9.760  10.206  68.843  1.00  0.00    -0.187 C  
HETATM   12  C   UNL     1      -8.214  11.970  68.927  1.00  0.00     0.131 C  
HETATM   13  N   UNL     1      -8.684  10.741  69.363  1.00  0.00    -0.383 N  
HETATM   14  H   UNL     1      -8.184  10.246  70.101  1.00  0.00     0.000 HD 
HETATM   15  N   UNL     1     -10.546  10.793  67.862  1.00  0.00    -0.204 NA 
HETATM   16  N   UNL     1      -9.803  13.903  66.255  1.00  0.00    -0.299 NA 
HETATM   17  C   UNL     1     -10.609  12.835  66.382  1.00  0.00    -0.255 A  
HETATM   18  C   UNL     1      -8.997  12.545  67.880  1.00  0.00    -0.188 A  
HETATM   19  O   UNL     1      -7.221  12.515  69.399  1.00  0.00     0.070 OA 
HETATM   20  C   UNL     1      -7.754  14.656  67.290  1.00  0.00    -0.169 C  
HETATM   21  C   UNL     1     -10.126  11.970  67.379  1.00  0.00    -0.194 A  
HETATM   22  N   UNL     1      -8.826  13.696  67.174  1.00  0.00    -0.224 NA 
BRANCH  17  23
HETATM   23  C   UNL     1     -11.818  12.712  65.517  1.00  0.00    -0.479 C  
BRANCH  23  24
HETATM   24  C   UNL     1     -12.749  13.926  65.565  1.00  0.00    -0.536 C  
HETATM   25  C   UNL     1     -12.524  14.915  64.428  1.00  0.00    -0.227 C  
ENDBRANCH  23  24
ENDBRANCH  17  23
ENDBRANCH   6  11
BRANCH   9  26
HETATM   26  S   UNL     1      -9.880   4.967  68.081  1.00  0.00    -0.128 S  
HETATM   27  O   UNL     1     -10.753   4.999  66.931  1.00  0.00    -0.193 OA 
HETATM   28  O   UNL     1      -9.837   3.856  69.003  1.00  0.00    -0.124 OA 
BRANCH  26  29
HETATM   29  N   UNL     1      -8.299   5.246  67.489  1.00  0.00    -0.107 N  
HETATM   30  H   UNL     1      -8.133   5.778  66.635  1.00  0.00     0.000 HD 
BRANCH  29  31
HETATM   31  C   UNL     1      -7.188   4.677  68.278  1.00  0.00    -0.065 C  
BRANCH  31  32
HETATM   32  C   UNL     1      -6.166   5.736  68.678  1.00  0.00    -0.029 C  
BRANCH  32  33
HETATM   33  C   UNL     1      -5.518   6.347  67.421  1.00  0.00    -0.005 C  
HETATM   34  C   UNL     1      -5.207   5.307  66.347  1.00  0.00    -0.008 C  
HETATM   35  C   UNL     1      -5.141   6.135  65.086  1.00  0.00    -0.013 C  
HETATM   36  C   UNL     1      -6.221   8.674  67.210  1.00  0.00    -0.056 C  
HETATM   37  N   UNL     1      -6.417   7.302  66.750  1.00  0.00    -0.050 NA 
HETATM   38  C   UNL     1      -6.218   7.185  65.296  1.00  0.00    -0.037 C  
ENDBRANCH  32  33
ENDBRANCH  31  32
ENDBRANCH  29  31
ENDBRANCH  26  29
ENDBRANCH   9  26
ENDBRANCH   4   5
ENDBRANCH   3   4
ENDBRANCH   2   3
TORSDOF 11
ENDMDL
MODEL      200
REMARK 921   NORMALIZED FREE ENERGY PREDICTED BY IDOCK:   -4.08 KCAL/MOL
REMARK 922        TOTAL FREE ENERGY PREDICTED BY IDOCK:   -8.94 KCAL/MOL
REMARK 923 INTER-LIGAND FREE ENERGY PREDICTED BY IDOCK:   -7.58 KCAL/MOL
REMARK 924 INTRA-LIGAND FREE ENERGY PREDICTED BY IDOCK:   -1.36 KCAL/MOL
REMARK 927      BINDING AFFINITY PREDICTED BY RF-SCORE:    0.00 PKD
ROOT
HETATM    1  C   UNL     1     -11.259   4.865  73.005  1.00  0.00    -0.367 C  
HETATM    2  C   UNL     1     -11.062   6.267  72.460  1.00  0.00    -0.307 C  
ENDROOT
BRANCH   2   3
HETATM    3  C   UNL     1     -12.077   6.620  71.385  1.00  0.00    -0.347 C  
BRANCH   3   4
HETATM    4  O   UNL     1     -11.540   6.470  70.058  1.00  0.00    -0.407 OA 
BRANCH   4   5
HETATM    5  C   UNL     1     -10.896   7.592  69.568  1.00  0.00    -0.165 A  
HETATM    6  C   UNL     1     -10.050   7.486  68.437  1.00  0.00    -0.200 A  
HETATM    7  C   UNL     1      -9.342   8.629  67.990  1.00  0.00    -0.147 A  
HETATM    8  C   UNL     1     -11.030   8.838  70.196  1.00  0.00    -0.236 A  
HETATM    9  C   UNL     1      -9.465   9.845  68.676  1.00  0.00    -0.153 A  
HETATM   10  C   UNL     1     -10.295   9.935  69.782  1.00  0.00    -0.278 A  
BRANCH   6  11
HETATM   11  C   UNL     1      -9.845   6.181  67.689  1.00  0.00    -0.120 C  
HETATM   12  C   UNL     1     -10.579   4.733  65.994  1.00  0.00    -0.254 C  
HETATM   13  N   UNL     1     -10.703   5.892  66.743  1.00  0.00    -0.427 N  
HETATM   14  H   UNL     1     -11.475   6.531  66.555  1.00  0.00     0.000 HD 
HETATM   15  N   UNL     1      -8.776   5.380  68.066  1.00  0.00    -0.106 NA 
HETATM   16  N   UNL     1      -7.861   2.323  66.448  1.00  0.00    -0.075 NA 
HETATM   17  C   UNL     1      -7.621   3.238  67.402  1.00  0.00    -0.073 A  
HETATM   18  C   UNL     1      -9.446   3.939  66.350  1.00  0.00    -0.191 A  
HETATM   19  O   UNL     1     -11.369   4.415  65.111  1.00  0.00    -0.176 OA 
HETATM   20  C   UNL     1      -9.501   2.038  64.697  1.00  0.00    -0.086 C  
HETATM   21  C   UNL     1      -8.586   4.259  67.358  1.00  0.00    -0.104 A  
HETATM   22  N   UNL     1      -8.973   2.779  65.817  1.00  0.00    -0.141 NA 
BRANCH  17  23
HETATM   23  C   UNL     1      -6.454   3.068  68.315  1.00  0.00    -0.036 C  
BRANCH  23  24
HETATM   24  C   UNL     1      -6.613   1.934  69.331  1.00  0.00    -0.029 C  
HETATM   25  C   UNL     1      -7.883   2.036  70.166  1.00  0.00    -0.048 C  
ENDBRANCH  23  24
ENDBRANCH  17  23
ENDBRANCH   6  11
BRANCH   9  26
HETATM   26  S   UNL     1      -8.515  11.279  68.220  1.00  0.00    -0.157 S  
HETATM   27  O   UNL     1      -8.339  11.238  66.788  1.00  0.00    -0.145 OA 
HETATM   28  O   UNL     1      -7.408  11.362  69.144  1.00  0.00    -0.116 OA 
BRANCH  26  29
HETATM   29  N   UNL     1      -9.585  12.576  68.534  1.00  0.00    -0.367 N  
HETATM   30  H   UNL     1      -9.369  13.293  69.226  1.00  0.00     0.000 HD 
BRANCH  29  31
HETATM   31  C   UNL     1     -10.838  12.605  67.752  1.00  0.00    -0.221 C  
BRANCH  31  32
HETATM   32  C   UNL     1     -11.909  13.465  68.415  1.00  0.00    -0.401 C  
BRANCH  32  33
HETATM   33  C   UNL     1     -11.559  14.957  68.261  1.00  0.00    -0.334 C  
HETATM   34  C   UNL     1     -11.001  15.571  69.544  1.00  0.00    -0.273 C  
HETATM   35  C   UNL     1     -10.235  16.770  69.037  1.00  0.00    -0.310 C  
HETATM   36  C   UNL     1     -11.024  15.417  65.927  1.00  0.00    -0.293 C  
HETATM   37  N   UNL     1     -10.496  15.171  67.265  1.00  0.00    -0.267 NA 
HETATM   38  C   UNL     1      -9.646  16.283  67.725  1.00  0.00    -0.223 C  
ENDBRANCH  32  33
ENDBRANCH  31  32
ENDBRANCH  29  31
ENDBRANCH  26  29
ENDBRANCH   9  26
ENDBRANCH   4   5
ENDBRANCH   3   4
ENDBRANCH   2   3
TORSDOF 11
ENDMDL
MODEL      201
REMARK 921   NORMALIZED FREE ENERGY PREDICTED BY IDOCK:   -4.06 KCAL/MOL
REMARK 922        TOTAL FREE ENERGY PREDICTED BY IDOCK:   -8.91 KCAL/MOL
REMARK 923 INTER-LIGAND FREE ENERGY PREDICTED BY IDOCK:   -7.53 KCAL/MOL
REMARK 924 INTRA-LIGAND FREE ENERGY PREDICTED BY IDOCK:   -1.38 KCAL/MOL
REMARK 927      BINDING AFFINITY PREDICTED BY RF-SCORE:    0.00 PKD
ROOT
HETATM    1  C   UNL     1     -11.605   9.865  70.920  1.00  0.00    -0.456 C  
HETATM    2  C   UNL     1     -10.655   9.197  69.943  1.00  0.00    -0.246 C  
ENDROOT
BRANCH   2   3
HETATM    3  C   UNL     1      -9.207   9.592  70.178  1.00  0.00    -0.244 C  
BRANCH   3   4
HETATM    4  O   UNL     1      -8.640  10.284  69.050  1.00  0.00    -0.141 OA 
BRANCH   4   5
HETATM    5  C   UNL     1      -8.158   9.458  68.052  1.00  0.00    -0.106 A  
HETATM    6  C   UNL     1      -8.479   9.721  66.698  1.00  0.00    -0.126 A  
HETATM    7  C   UNL     1      -8.035   8.826  65.693  1.00  0.00    -0.103 A  
HETATM    8  C   UNL     1      -7.382   8.330  68.355  1.00  0.00    -0.094 A  
HETATM    9  C   UNL     1      -7.305   7.682  66.042  1.00  0.00    -0.077 A  
HETATM   10  C   UNL     1      -6.998   7.436  67.371  1.00  0.00    -0.079 A  
BRANCH   6  11
HETATM   11  C   UNL     1      -9.308  10.919  66.272  1.00  0.00    -0.179 C  
HETATM   12  C   UNL     1     -10.665  11.907  64.631  1.00  0.00    -0.307 C  
HETATM   13  N   UNL     1      -9.871  10.868  65.091  1.00  0.00    -0.254 N  
HETATM   14  H   UNL     1      -9.723  10.050  64.500  1.00  0.00     0.000 HD 
HETATM   15  N   UNL     1      -9.402  11.987  67.152  1.00  0.00    -0.182 NA 
HETATM   16  N   UNL     1     -11.387  14.912  66.594  1.00  0.00    -0.347 NA 
HETATM   17  C   UNL     1     -10.553  14.220  67.388  1.00  0.00    -0.276 A  
HETATM   18  C   UNL     1     -10.801  12.980  65.564  1.00  0.00    -0.278 A  
HETATM   19  O   UNL     1     -11.196  11.908  63.525  1.00  0.00    -0.401 OA 
HETATM   20  C   UNL     1     -12.397  14.565  64.427  1.00  0.00    -0.413 C  
HETATM   21  C   UNL     1     -10.180  13.010  66.776  1.00  0.00    -0.246 A  
HETATM   22  N   UNL     1     -11.527  14.129  65.493  1.00  0.00    -0.317 NA 
BRANCH  17  23
HETATM   23  C   UNL     1     -10.159  14.779  68.714  1.00  0.00    -0.237 C  
BRANCH  23  24
HETATM   24  C   UNL     1     -11.197  15.718  69.332  1.00  0.00    -0.324 C  
HETATM   25  C   UNL     1     -11.515  15.405  70.788  1.00  0.00    -0.385 C  
ENDBRANCH  23  24
ENDBRANCH  17  23
ENDBRANCH   6  11
BRANCH   9  26
HETATM   26  S   UNL     1      -6.820   6.473  64.830  1.00  0.00    -0.047 S  
HETATM   27  O   UNL     1      -5.383   6.545  64.706  1.00  0.00    -0.021 OA 
HETATM   28  O   UNL     1      -7.712   6.623  63.705  1.00  0.00    -0.098 OA 
BRANCH  26  29
HETATM   29  N   UNL     1      -7.160   4.984  65.602  1.00  0.00    -0.066 N  
HETATM   30  H   UNL     1      -6.755   4.746  66.507  1.00  0.00     0.000 HD 
BRANCH  29  31
HETATM   31  C   UNL     1      -8.068   4.063  64.890  1.00  0.00    -0.093 C  
BRANCH  31  32
HETATM   32  C   UNL     1      -9.530   4.470  65.037  1.00  0.00    -0.156 C  
BRANCH  32  33
HETATM   33  C   UNL     1     -10.006   4.224  66.481  1.00  0.00    -0.192 C  
HETATM   34  C   UNL     1      -9.269   3.071  67.161  1.00  0.00    -0.204 C  
HETATM   35  C   UNL     1      -9.454   3.372  68.629  1.00  0.00    -0.205 C  
HETATM   36  C   UNL     1     -10.870   6.309  67.405  1.00  0.00    -0.363 C  
HETATM   37  N   UNL     1      -9.743   5.383  67.351  1.00  0.00    -0.132 NA 
HETATM   38  C   UNL     1      -9.382   4.888  68.690  1.00  0.00    -0.135 C  
ENDBRANCH  32  33
ENDBRANCH  31  32
ENDBRANCH  29  31
ENDBRANCH  26  29
ENDBRANCH   9  26
ENDBRANCH   4   5
ENDBRANCH   3   4
ENDBRANCH   2   3
TORSDOF 11
ENDMDL
MODEL      202
REMARK 921   NORMALIZED FREE ENERGY PREDICTED BY IDOCK:   -4.01 KCAL/MOL
REMARK 922        TOTAL FREE ENERGY PREDICTED BY IDOCK:   -8.83 KCAL/MOL
REMARK 923 INTER-LIGAND FREE ENERGY PREDICTED BY IDOCK:   -7.22 KCAL/MOL
REMARK 924 INTRA-LIGAND FREE ENERGY PREDICTED BY IDOCK:   -1.61 KCAL/MOL
REMARK 927      BINDING AFFINITY PREDICTED BY RF-SCORE:    0.00 PKD
ROOT
HETATM    1  C   UNL     1     -13.105  12.080  71.735  1.00  0.00    -0.460 C  
HETATM    2  C   UNL     1     -12.372  11.061  70.881  1.00  0.00    -0.503 C  
ENDROOT
BRANCH   2   3
HETATM    3  C   UNL     1     -12.390  11.420  69.405  1.00  0.00    -0.118 C  
BRANCH   3   4
HETATM    4  O   UNL     1     -11.341  10.761  68.671  1.00  0.00    -0.254 OA 
BRANCH   4   5
HETATM    5  C   UNL     1     -10.213  11.534  68.461  1.00  0.00    -0.213 A  
HETATM    6  C   UNL     1      -8.945  10.916  68.334  1.00  0.00    -0.154 A  
HETATM    7  C   UNL     1      -7.791  11.724  68.191  1.00  0.00    -0.135 A  
HETATM    8  C   UNL     1     -10.290  12.932  68.411  1.00  0.00    -0.249 A  
HETATM    9  C   UNL     1      -7.904  13.121  68.196  1.00  0.00    -0.145 A  
HETATM   10  C   UNL     1      -9.151  13.713  68.321  1.00  0.00    -0.193 A  
BRANCH   6  11
HETATM   11  C   UNL     1      -8.763   9.409  68.372  1.00  0.00    -0.124 C  
HETATM   12  C   UNL     1      -9.262   7.328  67.407  1.00  0.00    -0.128 C  
HETATM   13  N   UNL     1      -9.390   8.708  67.461  1.00  0.00    -0.135 N  
HETATM   14  H   UNL     1      -9.982   9.184  66.782  1.00  0.00     0.000 HD 
HETATM   15  N   UNL     1      -7.959   8.878  69.371  1.00  0.00    -0.097 NA 
HETATM   16  N   UNL     1      -7.150   5.409  69.699  1.00  0.00    -0.061 NA 
HETATM   17  C   UNL     1      -7.019   6.669  70.146  1.00  0.00    -0.063 A  
HETATM   18  C   UNL     1      -8.391   6.794  68.405  1.00  0.00    -0.123 A  
HETATM   19  O   UNL     1      -9.845   6.632  66.582  1.00  0.00    -0.173 OA 
HETATM   20  C   UNL     1      -8.322   4.329  67.884  1.00  0.00    -0.094 C  
HETATM   21  C   UNL     1      -7.773   7.552  69.353  1.00  0.00    -0.111 A  
HETATM   22  N   UNL     1      -7.984   5.515  68.634  1.00  0.00    -0.091 NA 
BRANCH  17  23
HETATM   23  C   UNL     1      -6.158   6.950  71.331  1.00  0.00    -0.037 C  
BRANCH  23  24
HETATM   24  C   UNL     1      -6.006   5.766  72.289  1.00  0.00    -0.039 C  
HETATM   25  C   UNL     1      -6.181   6.139  73.755  1.00  0.00    -0.065 C  
ENDBRANCH  23  24
ENDBRANCH  17  23
ENDBRANCH   6  11
BRANCH   9  26
HETATM   26  S   UNL     1      -6.475  14.178  68.127  1.00  0.00    -0.143 S  
HETATM   27  O   UNL     1      -5.481  13.503  67.328  1.00  0.00    -0.342 OA 
HETATM   28  O   UNL     1      -6.222  14.632  69.475  1.00  0.00    -0.103 OA 
BRANCH  26  29
HETATM   29  N   UNL     1      -7.015  15.509  67.197  1.00  0.00    -0.159 N  
HETATM   30  H   UNL     1      -7.581  15.381  66.358  1.00  0.00     0.000 HD 
BRANCH  29  31
HETATM   31  C   UNL     1      -6.621  16.851  67.671  1.00  0.00    -0.143 C  
BRANCH  31  32
HETATM   32  C   UNL     1      -7.799  17.624  68.254  1.00  0.00    -0.256 C  
BRANCH  32  33
HETATM   33  C   UNL     1      -8.426  18.526  67.174  1.00  0.00    -0.265 C  
HETATM   34  C   UNL     1      -9.835  18.087  66.779  1.00  0.00    -0.335 C  
HETATM   35  C   UNL     1     -10.431  19.350  66.202  1.00  0.00    -0.600 C  
HETATM   36  C   UNL     1      -7.451  20.756  67.329  1.00  0.00    -0.328 C  
HETATM   37  N   UNL     1      -8.597  19.910  67.647  1.00  0.00    -0.324 NA 
HETATM   38  C   UNL     1      -9.843  20.446  67.072  1.00  0.00    -0.453 C  
ENDBRANCH  32  33
ENDBRANCH  31  32
ENDBRANCH  29  31
ENDBRANCH  26  29
ENDBRANCH   9  26
ENDBRANCH   4   5
ENDBRANCH   3   4
ENDBRANCH   2   3
TORSDOF 11
ENDMDL
MODEL      203
REMARK 921   NORMALIZED FREE ENERGY PREDICTED BY IDOCK:   -4.01 KCAL/MOL
REMARK 922        TOTAL FREE ENERGY PREDICTED BY IDOCK:   -8.82 KCAL/MOL
REMARK 923 INTER-LIGAND FREE ENERGY PREDICTED BY IDOCK:   -6.68 KCAL/MOL
REMARK 924 INTRA-LIGAND FREE ENERGY PREDICTED BY IDOCK:   -2.14 KCAL/MOL
REMARK 927      BINDING AFFINITY PREDICTED BY RF-SCORE:    0.00 PKD
ROOT
HETATM    1  C   UNL     1      -6.237  15.565  69.792  1.00  0.00    -0.159 C  
HETATM    2  C   UNL     1      -6.925  14.260  69.434  1.00  0.00    -0.106 C  
ENDROOT
BRANCH   2   3
HETATM    3  C   UNL     1      -6.042  13.049  69.687  1.00  0.00    -0.122 C  
BRANCH   3   4
HETATM    4  O   UNL     1      -6.783  11.816  69.643  1.00  0.00    -0.109 OA 
BRANCH   4   5
HETATM    5  C   UNL     1      -6.953  11.292  68.374  1.00  0.00    -0.070 A  
HETATM    6  C   UNL     1      -8.098  10.513  68.077  1.00  0.00    -0.111 A  
HETATM    7  C   UNL     1      -8.223   9.925  66.795  1.00  0.00    -0.124 A  
HETATM    8  C   UNL     1      -5.989  11.483  67.375  1.00  0.00    -0.082 A  
HETATM    9  C   UNL     1      -7.212  10.098  65.840  1.00  0.00    -0.121 A  
HETATM   10  C   UNL     1      -6.097  10.862  66.143  1.00  0.00    -0.135 A  
BRANCH   6  11
HETATM   11  C   UNL     1      -9.197  10.255  69.093  1.00  0.00    -0.194 C  
HETATM   12  C   UNL     1     -11.394  10.700  69.789  1.00  0.00    -0.301 C  
HETATM   13  N   UNL     1     -10.328  10.892  68.924  1.00  0.00    -0.196 N  
HETATM   14  H   UNL     1     -10.427  11.541  68.143  1.00  0.00     0.000 HD 
HETATM   15  N   UNL     1      -8.926   9.377  70.132  1.00  0.00    -0.209 NA 
HETATM   16  N   UNL     1     -11.295   8.382  72.622  1.00  0.00    -0.348 NA 
HETATM   17  C   UNL     1     -10.056   8.291  72.108  1.00  0.00    -0.274 A  
HETATM   18  C   UNL     1     -11.126   9.754  70.826  1.00  0.00    -0.345 A  
HETATM   19  O   UNL     1     -12.464  11.289  69.678  1.00  0.00    -0.221 OA 
HETATM   20  C   UNL     1     -13.313   9.591  72.069  1.00  0.00    -0.452 C  
HETATM   21  C   UNL     1      -9.927   9.127  70.985  1.00  0.00    -0.297 A  
HETATM   22  N   UNL     1     -11.927   9.274  71.816  1.00  0.00    -0.371 NA 
BRANCH  17  23
HETATM   23  C   UNL     1      -9.055   7.387  72.744  1.00  0.00    -0.184 C  
BRANCH  23  24
HETATM   24  C   UNL     1      -8.066   8.100  73.670  1.00  0.00    -0.271 C  
HETATM   25  C   UNL     1      -7.177   7.150  74.462  1.00  0.00    -0.116 C  
ENDBRANCH  23  24
ENDBRANCH  17  23
ENDBRANCH   6  11
BRANCH   9  26
HETATM   26  S   UNL     1      -7.272   9.293  64.254  1.00  0.00    -0.105 S  
HETATM   27  O   UNL     1      -6.249   9.892  63.431  1.00  0.00    -0.108 OA 
HETATM   28  O   UNL     1      -8.661   9.237  63.862  1.00  0.00    -0.207 OA 
BRANCH  26  29
HETATM   29  N   UNL     1      -6.739   7.704  64.600  1.00  0.00    -0.050 N  
HETATM   30  H   UNL     1      -5.770   7.421  64.454  1.00  0.00     0.000 HD 
BRANCH  29  31
HETATM   31  C   UNL     1      -7.753   6.764  65.120  1.00  0.00    -0.105 C  
BRANCH  31  32
HETATM   32  C   UNL     1      -7.513   6.412  66.584  1.00  0.00    -0.083 C  
BRANCH  32  33
HETATM   33  C   UNL     1      -8.762   5.733  67.176  1.00  0.00    -0.108 C  
HETATM   34  C   UNL     1      -8.422   4.627  68.172  1.00  0.00    -0.104 C  
HETATM   35  C   UNL     1      -9.680   4.522  69.002  1.00  0.00    -0.235 C  
HETATM   36  C   UNL     1     -10.621   7.313  67.145  1.00  0.00    -0.346 C  
HETATM   37  N   UNL     1      -9.583   6.678  67.953  1.00  0.00    -0.120 NA 
HETATM   38  C   UNL     1     -10.156   5.960  69.103  1.00  0.00    -0.190 C  
ENDBRANCH  32  33
ENDBRANCH  31  32
ENDBRANCH  29  31
ENDBRANCH  26  29
ENDBRANCH   9  26
ENDBRANCH   4   5
ENDBRANCH   3   4
ENDBRANCH   2   3
TORSDOF 11
ENDMDL
MODEL      204
REMARK 921   NORMALIZED FREE ENERGY PREDICTED BY IDOCK:   -4.00 KCAL/MOL
REMARK 922        TOTAL FREE ENERGY PREDICTED BY IDOCK:   -8.81 KCAL/MOL
REMARK 923 INTER-LIGAND FREE ENERGY PREDICTED BY IDOCK:   -6.85 KCAL/MOL
REMARK 924 INTRA-LIGAND FREE ENERGY PREDICTED BY IDOCK:   -1.96 KCAL/MOL
REMARK 927      BINDING AFFINITY PREDICTED BY RF-SCORE:    0.00 PKD
ROOT
HETATM    1  C   UNL     1      -6.244  15.134  69.340  1.00  0.00    -0.116 C  
HETATM    2  C   UNL     1      -7.067  13.868  69.195  1.00  0.00    -0.069 C  
ENDROOT
BRANCH   2   3
HETATM    3  C   UNL     1      -6.254  12.613  69.468  1.00  0.00    -0.121 C  
BRANCH   3   4
HETATM    4  O   UNL     1      -7.049  11.416  69.368  1.00  0.00    -0.115 OA 
BRANCH   4   5
HETATM    5  C   UNL     1      -7.247  10.964  68.076  1.00  0.00    -0.086 A  
HETATM    6  C   UNL     1      -8.477  10.359  67.718  1.00  0.00    -0.114 A  
HETATM    7  C   UNL     1      -8.639   9.837  66.412  1.00  0.00    -0.132 A  
HETATM    8  C   UNL     1      -6.234  11.055  67.112  1.00  0.00    -0.075 A  
HETATM    9  C   UNL     1      -7.583   9.902  65.492  1.00  0.00    -0.125 A  
HETATM   10  C   UNL     1      -6.385  10.496  65.855  1.00  0.00    -0.128 A  
BRANCH   6  11
HETATM   11  C   UNL     1      -9.633  10.220  68.692  1.00  0.00    -0.168 C  
HETATM   12  C   UNL     1     -10.937   8.797  70.029  1.00  0.00    -0.209 C  
HETATM   13  N   UNL     1      -9.912   9.014  69.121  1.00  0.00    -0.180 N  
HETATM   14  H   UNL     1      -9.368   8.222  68.780  1.00  0.00     0.000 HD 
HETATM   15  N   UNL     1     -10.321  11.370  69.050  1.00  0.00    -0.180 NA 
HETATM   16  N   UNL     1     -12.987  11.485  71.434  1.00  0.00    -0.404 NA 
HETATM   17  C   UNL     1     -12.179  12.132  70.577  1.00  0.00    -0.304 A  
HETATM   18  C   UNL     1     -11.606   9.992  70.434  1.00  0.00    -0.302 A  
HETATM   19  O   UNL     1     -11.243   7.683  70.442  1.00  0.00    -0.266 OA 
HETATM   20  C   UNL     1     -13.266   9.197  72.155  1.00  0.00    -0.458 C  
HETATM   21  C   UNL     1     -11.304  11.229  69.948  1.00  0.00    -0.249 A  
HETATM   22  N   UNL     1     -12.611  10.185  71.332  1.00  0.00    -0.385 NA 
BRANCH  17  23
HETATM   23  C   UNL     1     -12.303  13.610  70.413  1.00  0.00    -0.415 C  
BRANCH  23  24
HETATM   24  C   UNL     1     -12.001  14.111  68.999  1.00  0.00    -0.376 C  
HETATM   25  C   UNL     1     -11.834  15.623  68.909  1.00  0.00    -0.368 C  
ENDBRANCH  23  24
ENDBRANCH  17  23
ENDBRANCH   6  11
BRANCH   9  26
HETATM   26  S   UNL     1      -7.700   9.166  63.876  1.00  0.00    -0.130 S  
HETATM   27  O   UNL     1      -6.749   9.844  63.027  1.00  0.00    -0.113 OA 
HETATM   28  O   UNL     1      -9.105   9.070  63.558  1.00  0.00     0.012 OA 
BRANCH  26  29
HETATM   29  N   UNL     1      -7.086   7.588  64.118  1.00  0.00    -0.060 N  
HETATM   30  H   UNL     1      -6.124   7.345  63.881  1.00  0.00     0.000 HD 
BRANCH  29  31
HETATM   31  C   UNL     1      -8.019   6.595  64.688  1.00  0.00    -0.113 C  
BRANCH  31  32
HETATM   32  C   UNL     1      -7.783   6.373  66.178  1.00  0.00    -0.092 C  
BRANCH  32  33
HETATM   33  C   UNL     1      -8.795   5.349  66.727  1.00  0.00    -0.112 C  
HETATM   34  C   UNL     1      -8.142   4.274  67.592  1.00  0.00    -0.095 C  
HETATM   35  C   UNL     1      -9.291   3.778  68.437  1.00  0.00    -0.226 C  
HETATM   36  C   UNL     1     -10.985   6.408  66.908  1.00  0.00    -0.341 C  
HETATM   37  N   UNL     1      -9.784   5.979  67.619  1.00  0.00    -0.112 NA 
HETATM   38  C   UNL     1     -10.103   5.033  68.701  1.00  0.00    -0.121 C  
ENDBRANCH  32  33
ENDBRANCH  31  32
ENDBRANCH  29  31
ENDBRANCH  26  29
ENDBRANCH   9  26
ENDBRANCH   4   5
ENDBRANCH   3   4
ENDBRANCH   2   3
TORSDOF 11
ENDMDL
MODEL      205
REMARK 921   NORMALIZED FREE ENERGY PREDICTED BY IDOCK:   -3.99 KCAL/MOL
REMARK 922        TOTAL FREE ENERGY PREDICTED BY IDOCK:   -8.80 KCAL/MOL
REMARK 923 INTER-LIGAND FREE ENERGY PREDICTED BY IDOCK:   -7.25 KCAL/MOL
REMARK 924 INTRA-LIGAND FREE ENERGY PREDICTED BY IDOCK:   -1.55 KCAL/MOL
REMARK 927      BINDING AFFINITY PREDICTED BY RF-SCORE:    0.00 PKD
ROOT
HETATM    1  C   UNL     1      -7.194  14.620  69.571  1.00  0.00    -0.131 C  
HETATM    2  C   UNL     1      -5.827  13.969  69.465  1.00  0.00    -0.097 C  
ENDROOT
BRANCH   2   3
HETATM    3  C   UNL     1      -5.856  12.688  68.648  1.00  0.00    -0.063 C  
BRANCH   3   4
HETATM    4  O   UNL     1      -7.193  12.314  68.267  1.00  0.00    -0.085 OA 
BRANCH   4   5
HETATM    5  C   UNL     1      -7.287  11.097  67.617  1.00  0.00    -0.095 A  
HETATM    6  C   UNL     1      -8.185  10.939  66.534  1.00  0.00    -0.157 A  
HETATM    7  C   UNL     1      -8.321   9.668  65.925  1.00  0.00    -0.124 A  
HETATM    8  C   UNL     1      -6.535   9.991  68.036  1.00  0.00    -0.058 A  
HETATM    9  C   UNL     1      -7.588   8.575  66.406  1.00  0.00    -0.091 A  
HETATM   10  C   UNL     1      -6.713   8.742  67.468  1.00  0.00    -0.066 A  
BRANCH   6  11
HETATM   11  C   UNL     1      -9.038  12.079  66.006  1.00  0.00    -0.092 C  
HETATM   12  C   UNL     1     -10.631  12.802  64.441  1.00  0.00    -0.379 C  
HETATM   13  N   UNL     1      -9.802  11.826  64.974  1.00  0.00    -0.283 N  
HETATM   14  H   UNL     1      -9.787  10.897  64.554  1.00  0.00     0.000 HD 
HETATM   15  N   UNL     1      -8.941  13.308  66.642  1.00  0.00    -0.179 NA 
HETATM   16  N   UNL     1     -10.898  16.186  65.810  1.00  0.00    -0.253 NA 
HETATM   17  C   UNL     1      -9.959  15.616  66.584  1.00  0.00    -0.258 A  
HETATM   18  C   UNL     1     -10.566  14.049  65.133  1.00  0.00    -0.386 A  
HETATM   19  O   UNL     1     -11.349  12.613  63.464  1.00  0.00    -0.458 OA 
HETATM   20  C   UNL     1     -12.285  15.474  63.965  1.00  0.00     0.108 C  
HETATM   21  C   UNL     1      -9.740  14.284  66.191  1.00  0.00    -0.303 A  
HETATM   22  N   UNL     1     -11.255  15.207  64.940  1.00  0.00    -0.412 NA 
BRANCH  17  23
HETATM   23  C   UNL     1      -9.319  16.405  67.676  1.00  0.00    -0.212 C  
BRANCH  23  24
HETATM   24  C   UNL     1      -8.356  17.488  67.185  1.00  0.00    -0.232 C  
HETATM   25  C   UNL     1      -7.081  16.934  66.561  1.00  0.00    -0.281 C  
ENDBRANCH  23  24
ENDBRANCH  17  23
ENDBRANCH   6  11
BRANCH   9  26
HETATM   26  S   UNL     1      -7.804   6.936  65.746  1.00  0.00    -0.112 S  
HETATM   27  O   UNL     1      -6.987   6.046  66.536  1.00  0.00    -0.064 OA 
HETATM   28  O   UNL     1      -7.686   7.042  64.310  1.00  0.00    -0.106 OA 
BRANCH  26  29
HETATM   29  N   UNL     1      -9.428   6.567  66.134  1.00  0.00    -0.353 N  
HETATM   30  H   UNL     1     -10.131   6.418  65.410  1.00  0.00     0.000 HD 
BRANCH  29  31
HETATM   31  C   UNL     1      -9.761   6.473  67.570  1.00  0.00    -0.122 C  
BRANCH  31  32
HETATM   32  C   UNL     1     -10.623   7.642  68.037  1.00  0.00    -0.213 C  
BRANCH  32  33
HETATM   33  C   UNL     1     -10.359   7.930  69.528  1.00  0.00    -0.217 C  
HETATM   34  C   UNL     1     -10.326   9.423  69.848  1.00  0.00    -0.252 C  
HETATM   35  C   UNL     1     -10.628   9.457  71.327  1.00  0.00    -0.400 C  
HETATM   36  C   UNL     1     -11.153   6.046  70.859  1.00  0.00    -0.284 C  
HETATM   37  N   UNL     1     -11.431   7.399  70.387  1.00  0.00    -0.260 NA 
HETATM   38  C   UNL     1     -11.634   8.333  71.507  1.00  0.00    -0.279 C  
ENDBRANCH  32  33
ENDBRANCH  31  32
ENDBRANCH  29  31
ENDBRANCH  26  29
ENDBRANCH   9  26
ENDBRANCH   4   5
ENDBRANCH   3   4
ENDBRANCH   2   3
TORSDOF 11
ENDMDL
MODEL      206
REMARK 921   NORMALIZED FREE ENERGY PREDICTED BY IDOCK:   -3.98 KCAL/MOL
REMARK 922        TOTAL FREE ENERGY PREDICTED BY IDOCK:   -8.77 KCAL/MOL
REMARK 923 INTER-LIGAND FREE ENERGY PREDICTED BY IDOCK:   -7.83 KCAL/MOL
REMARK 924 INTRA-LIGAND FREE ENERGY PREDICTED BY IDOCK:   -0.93 KCAL/MOL
REMARK 927      BINDING AFFINITY PREDICTED BY RF-SCORE:    0.00 PKD
ROOT
HETATM    1  C   UNL     1     -11.467   4.773  73.130  1.00  0.00    -0.348 C  
HETATM    2  C   UNL     1     -11.188   6.140  72.533  1.00  0.00    -0.327 C  
ENDROOT
BRANCH   2   3
HETATM    3  C   UNL     1     -12.226   6.544  71.498  1.00  0.00    -0.272 C  
BRANCH   3   4
HETATM    4  O   UNL     1     -11.728   6.424  70.152  1.00  0.00    -0.422 OA 
BRANCH   4   5
HETATM    5  C   UNL     1     -10.910   7.463  69.747  1.00  0.00    -0.234 A  
HETATM    6  C   UNL     1      -9.926   7.243  68.753  1.00  0.00    -0.167 A  
HETATM    7  C   UNL     1      -9.050   8.298  68.399  1.00  0.00    -0.136 A  
HETATM    8  C   UNL     1     -11.007   8.734  70.332  1.00  0.00    -0.262 A  
HETATM    9  C   UNL     1      -9.146   9.539  69.044  1.00  0.00    -0.144 A  
HETATM   10  C   UNL     1     -10.113   9.741  70.015  1.00  0.00    -0.301 A  
BRANCH   6  11
HETATM   11  C   UNL     1      -9.748   5.904  68.060  1.00  0.00    -0.119 C  
HETATM   12  C   UNL     1     -10.248   4.550  66.210  1.00  0.00    -0.239 C  
HETATM   13  N   UNL     1     -10.372   5.732  66.922  1.00  0.00    -0.223 N  
HETATM   14  H   UNL     1     -10.959   6.481  66.554  1.00  0.00     0.000 HD 
HETATM   15  N   UNL     1      -8.953   4.953  68.683  1.00  0.00    -0.102 NA 
HETATM   16  N   UNL     1      -8.156   1.751  67.301  1.00  0.00    -0.065 NA 
HETATM   17  C   UNL     1      -8.024   2.639  68.300  1.00  0.00    -0.057 A  
HETATM   18  C   UNL     1      -9.385   3.595  66.830  1.00  0.00    -0.190 A  
HETATM   19  O   UNL     1     -10.828   4.340  65.149  1.00  0.00    -0.242 OA 
HETATM   20  C   UNL     1      -9.321   1.687  65.185  1.00  0.00    -0.022 C  
HETATM   21  C   UNL     1      -8.770   3.799  68.029  1.00  0.00    -0.104 A  
HETATM   22  N   UNL     1      -8.984   2.362  66.415  1.00  0.00    -0.131 NA 
BRANCH  17  23
HETATM   23  C   UNL     1      -7.170   2.309  69.478  1.00  0.00    -0.043 C  
BRANCH  23  24
HETATM   24  C   UNL     1      -7.722   2.814  70.813  1.00  0.00    -0.042 C  
HETATM   25  C   UNL     1      -9.115   2.289  71.136  1.00  0.00    -0.165 C  
ENDBRANCH  23  24
ENDBRANCH  17  23
ENDBRANCH   6  11
BRANCH   9  26
HETATM   26  S   UNL     1      -8.001  10.860  68.713  1.00  0.00    -0.143 S  
HETATM   27  O   UNL     1      -7.411  10.601  67.420  1.00  0.00    -0.090 OA 
HETATM   28  O   UNL     1      -7.214  11.046  69.910  1.00  0.00    -0.081 OA 
BRANCH  26  29
HETATM   29  N   UNL     1      -9.017  12.221  68.511  1.00  0.00    -0.350 N  
HETATM   30  H   UNL     1      -9.478  12.667  69.305  1.00  0.00     0.000 HD 
BRANCH  29  31
HETATM   31  C   UNL     1      -9.193  12.718  67.132  1.00  0.00    -0.219 C  
BRANCH  31  32
HETATM   32  C   UNL     1     -10.542  13.400  66.934  1.00  0.00    -0.273 C  
BRANCH  32  33
HETATM   33  C   UNL     1     -11.306  12.733  65.774  1.00  0.00    -0.320 C  
HETATM   34  C   UNL     1     -12.012  13.742  64.870  1.00  0.00    -0.412 C  
HETATM   35  C   UNL     1     -12.178  12.978  63.578  1.00  0.00    -0.580 C  
HETATM   36  C   UNL     1     -10.245  10.603  65.238  1.00  0.00    -0.282 C  
HETATM   37  N   UNL     1     -10.401  12.007  64.867  1.00  0.00    -0.269 NA 
HETATM   38  C   UNL     1     -10.907  12.151  63.492  1.00  0.00    -0.458 C  
ENDBRANCH  32  33
ENDBRANCH  31  32
ENDBRANCH  29  31
ENDBRANCH  26  29
ENDBRANCH   9  26
ENDBRANCH   4   5
ENDBRANCH   3   4
ENDBRANCH   2   3
TORSDOF 11
ENDMDL
MODEL      207
REMARK 921   NORMALIZED FREE ENERGY PREDICTED BY IDOCK:   -3.98 KCAL/MOL
REMARK 922        TOTAL FREE ENERGY PREDICTED BY IDOCK:   -8.77 KCAL/MOL
REMARK 923 INTER-LIGAND FREE ENERGY PREDICTED BY IDOCK:   -7.17 KCAL/MOL
REMARK 924 INTRA-LIGAND FREE ENERGY PREDICTED BY IDOCK:   -1.60 KCAL/MOL
REMARK 927      BINDING AFFINITY PREDICTED BY RF-SCORE:    0.00 PKD
ROOT
HETATM    1  C   UNL     1     -10.914   6.161  67.712  1.00  0.00    -0.400 C  
HETATM    2  C   UNL     1      -9.420   6.425  67.687  1.00  0.00    -0.120 C  
ENDROOT
BRANCH   2   3
HETATM    3  C   UNL     1      -8.947   6.957  66.344  1.00  0.00    -0.153 C  
BRANCH   3   4
HETATM    4  O   UNL     1      -7.998   8.030  66.487  1.00  0.00    -0.098 OA 
BRANCH   4   5
HETATM    5  C   UNL     1      -8.555   9.296  66.476  1.00  0.00    -0.130 A  
HETATM    6  C   UNL     1      -8.812   9.967  67.696  1.00  0.00    -0.121 A  
HETATM    7  C   UNL     1      -9.447  11.233  67.671  1.00  0.00    -0.173 A  
HETATM    8  C   UNL     1      -8.913   9.921  65.273  1.00  0.00    -0.228 A  
HETATM    9  C   UNL     1      -9.835  11.802  66.450  1.00  0.00    -0.214 A  
HETATM   10  C   UNL     1      -9.579  11.134  65.263  1.00  0.00    -0.268 A  
BRANCH   6  11
HETATM   11  C   UNL     1      -8.456   9.373  69.047  1.00  0.00    -0.129 C  
HETATM   12  C   UNL     1      -6.771   8.616  70.496  1.00  0.00    -0.040 C  
HETATM   13  N   UNL     1      -7.189   9.136  69.281  1.00  0.00    -0.064 N  
HETATM   14  H   UNL     1      -6.499   9.338  68.558  1.00  0.00     0.000 HD 
HETATM   15  N   UNL     1      -9.491   9.109  69.932  1.00  0.00    -0.174 NA 
HETATM   16  N   UNL     1      -9.053   7.870  73.260  1.00  0.00    -0.251 NA 
HETATM   17  C   UNL     1      -9.879   8.290  72.286  1.00  0.00    -0.294 A  
HETATM   18  C   UNL     1      -7.837   8.397  71.422  1.00  0.00    -0.116 A  
HETATM   19  O   UNL     1      -5.598   8.363  70.751  1.00  0.00    -0.028 OA 
HETATM   20  C   UNL     1      -6.665   7.598  73.506  1.00  0.00    -0.078 C  
HETATM   21  C   UNL     1      -9.148   8.633  71.135  1.00  0.00    -0.209 A  
HETATM   22  N   UNL     1      -7.815   7.953  72.709  1.00  0.00    -0.109 NA 
BRANCH  17  23
HETATM   23  C   UNL     1     -11.350   8.335  72.530  1.00  0.00    -0.455 C  
BRANCH  23  24
HETATM   24  C   UNL     1     -12.166   8.848  71.341  1.00  0.00    -0.374 C  
HETATM   25  C   UNL     1     -12.797  10.215  71.578  1.00  0.00    -0.548 C  
ENDBRANCH  23  24
ENDBRANCH  17  23
ENDBRANCH   6  11
BRANCH   9  26
HETATM   26  S   UNL     1     -10.732  13.337  66.373  1.00  0.00    -0.288 S  
HETATM   27  O   UNL     1     -12.136  13.018  66.475  1.00  0.00    -0.398 OA 
HETATM   28  O   UNL     1     -10.177  14.094  65.275  1.00  0.00    -0.352 OA 
BRANCH  26  29
HETATM   29  N   UNL     1     -10.309  14.113  67.838  1.00  0.00    -0.232 N  
HETATM   30  H   UNL     1     -10.683  13.803  68.735  1.00  0.00     0.000 HD 
BRANCH  29  31
HETATM   31  C   UNL     1      -9.376  15.254  67.738  1.00  0.00    -0.196 C  
BRANCH  31  32
HETATM   32  C   UNL     1      -8.095  14.885  66.998  1.00  0.00    -0.200 C  
BRANCH  32  33
HETATM   33  C   UNL     1      -6.968  14.591  68.006  1.00  0.00    -0.141 C  
HETATM   34  C   UNL     1      -7.293  15.075  69.418  1.00  0.00    -0.194 C  
HETATM   35  C   UNL     1      -6.393  14.222  70.280  1.00  0.00    -0.140 C  
HETATM   36  C   UNL     1      -5.711  12.641  67.254  1.00  0.00    -0.048 C  
HETATM   37  N   UNL     1      -6.736  13.145  68.163  1.00  0.00    -0.096 NA 
HETATM   38  C   UNL     1      -6.391  12.880  69.570  1.00  0.00    -0.103 C  
ENDBRANCH  32  33
ENDBRANCH  31  32
ENDBRANCH  29  31
ENDBRANCH  26  29
ENDBRANCH   9  26
ENDBRANCH   4   5
ENDBRANCH   3   4
ENDBRANCH   2   3
TORSDOF 11
ENDMDL
MODEL      208
REMARK 921   NORMALIZED FREE ENERGY PREDICTED BY IDOCK:   -3.97 KCAL/MOL
REMARK 922        TOTAL FREE ENERGY PREDICTED BY IDOCK:   -8.76 KCAL/MOL
REMARK 923 INTER-LIGAND FREE ENERGY PREDICTED BY IDOCK:   -7.15 KCAL/MOL
REMARK 924 INTRA-LIGAND FREE ENERGY PREDICTED BY IDOCK:   -1.61 KCAL/MOL
REMARK 927      BINDING AFFINITY PREDICTED BY RF-SCORE:    0.00 PKD
ROOT
HETATM    1  C   UNL     1     -13.203  12.117  72.049  1.00  0.00    -0.496 C  
HETATM    2  C   UNL     1     -12.667  10.903  71.313  1.00  0.00    -0.542 C  
ENDROOT
BRANCH   2   3
HETATM    3  C   UNL     1     -12.509  11.150  69.822  1.00  0.00    -0.162 C  
BRANCH   3   4
HETATM    4  O   UNL     1     -11.571  10.242  69.215  1.00  0.00    -0.206 OA 
BRANCH   4   5
HETATM    5  C   UNL     1     -10.346  10.803  68.905  1.00  0.00    -0.202 A  
HETATM    6  C   UNL     1      -9.150  10.123  69.242  1.00  0.00    -0.208 A  
HETATM    7  C   UNL     1      -7.903  10.743  68.981  1.00  0.00    -0.138 A  
HETATM    8  C   UNL     1     -10.258  12.062  68.294  1.00  0.00    -0.207 A  
HETATM    9  C   UNL     1      -7.858  12.024  68.415  1.00  0.00    -0.147 A  
HETATM   10  C   UNL     1      -9.036  12.679  68.091  1.00  0.00    -0.204 A  
BRANCH   6  11
HETATM   11  C   UNL     1      -9.145   8.756  69.901  1.00  0.00    -0.157 C  
HETATM   12  C   UNL     1      -9.261   7.516  71.891  1.00  0.00    -0.132 C  
HETATM   13  N   UNL     1      -9.235   8.721  71.207  1.00  0.00    -0.218 N  
HETATM   14  H   UNL     1      -9.286   9.595  71.729  1.00  0.00     0.000 HD 
HETATM   15  N   UNL     1      -9.032   7.642  69.082  1.00  0.00    -0.136 NA 
HETATM   16  N   UNL     1      -9.148   4.255  70.229  1.00  0.00    -0.091 NA 
HETATM   17  C   UNL     1      -9.043   5.123  69.209  1.00  0.00    -0.105 A  
HETATM   18  C   UNL     1      -9.198   6.372  71.037  1.00  0.00    -0.154 A  
HETATM   19  O   UNL     1      -9.326   7.438  73.113  1.00  0.00    -0.155 OA 
HETATM   20  C   UNL     1      -9.409   4.426  72.625  1.00  0.00    -0.129 C  
HETATM   21  C   UNL     1      -9.081   6.446  69.682  1.00  0.00    -0.143 A  
HETATM   22  N   UNL     1      -9.249   5.043  71.330  1.00  0.00    -0.143 NA 
BRANCH  17  23
HETATM   23  C   UNL     1      -8.910   4.612  67.813  1.00  0.00    -0.115 C  
BRANCH  23  24
HETATM   24  C   UNL     1      -8.245   3.238  67.710  1.00  0.00    -0.086 C  
HETATM   25  C   UNL     1      -6.731   3.301  67.555  1.00  0.00    -0.045 C  
ENDBRANCH  23  24
ENDBRANCH  17  23
ENDBRANCH   6  11
BRANCH   9  26
HETATM   26  S   UNL     1      -6.322  12.888  68.168  1.00  0.00    -0.112 S  
HETATM   27  O   UNL     1      -5.672  12.287  67.027  1.00  0.00    -0.244 OA 
HETATM   28  O   UNL     1      -5.690  13.000  69.462  1.00  0.00    -0.083 OA 
BRANCH  26  29
HETATM   29  N   UNL     1      -6.823  14.445  67.669  1.00  0.00    -0.180 N  
HETATM   30  H   UNL     1      -7.233  14.607  66.749  1.00  0.00     0.000 HD 
BRANCH  29  31
HETATM   31  C   UNL     1      -6.631  15.544  68.637  1.00  0.00    -0.103 C  
BRANCH  31  32
HETATM   32  C   UNL     1      -7.953  16.035  69.218  1.00  0.00    -0.217 C  
BRANCH  32  33
HETATM   33  C   UNL     1      -8.618  17.032  68.251  1.00  0.00    -0.234 C  
HETATM   34  C   UNL     1     -10.143  16.940  68.258  1.00  0.00    -0.302 C  
HETATM   35  C   UNL     1     -10.564  18.293  67.737  1.00  0.00    -0.415 C  
HETATM   36  C   UNL     1      -7.154  18.961  67.960  1.00  0.00    -0.238 C  
HETATM   37  N   UNL     1      -8.339  18.429  68.626  1.00  0.00    -0.320 NA 
HETATM   38  C   UNL     1      -9.535  19.237  68.333  1.00  0.00    -0.376 C  
ENDBRANCH  32  33
ENDBRANCH  31  32
ENDBRANCH  29  31
ENDBRANCH  26  29
ENDBRANCH   9  26
ENDBRANCH   4   5
ENDBRANCH   3   4
ENDBRANCH   2   3
TORSDOF 11
ENDMDL
MODEL      209
REMARK 921   NORMALIZED FREE ENERGY PREDICTED BY IDOCK:   -3.97 KCAL/MOL
REMARK 922        TOTAL FREE ENERGY PREDICTED BY IDOCK:   -8.76 KCAL/MOL
REMARK 923 INTER-LIGAND FREE ENERGY PREDICTED BY IDOCK:   -8.09 KCAL/MOL
REMARK 924 INTRA-LIGAND FREE ENERGY PREDICTED BY IDOCK:   -0.67 KCAL/MOL
REMARK 927      BINDING AFFINITY PREDICTED BY RF-SCORE:    0.00 PKD
ROOT
HETATM    1  C   UNL     1      -6.523  15.224  70.426  1.00  0.00     0.045 C  
HETATM    2  C   UNL     1      -6.211  13.782  70.073  1.00  0.00    -0.120 C  
ENDROOT
BRANCH   2   3
HETATM    3  C   UNL     1      -5.270  13.666  68.884  1.00  0.00    -0.071 C  
BRANCH   3   4
HETATM    4  O   UNL     1      -5.978  13.464  67.647  1.00  0.00    -0.191 OA 
BRANCH   4   5
HETATM    5  C   UNL     1      -7.335  13.238  67.792  1.00  0.00    -0.147 A  
HETATM    6  C   UNL     1      -8.248  14.316  67.691  1.00  0.00    -0.193 A  
HETATM    7  C   UNL     1      -9.627  14.080  67.910  1.00  0.00    -0.221 A  
HETATM    8  C   UNL     1      -7.831  11.958  68.078  1.00  0.00    -0.140 A  
HETATM    9  C   UNL     1     -10.077  12.796  68.244  1.00  0.00    -0.237 A  
HETATM   10  C   UNL     1      -9.174  11.749  68.341  1.00  0.00    -0.175 A  
BRANCH   6  11
HETATM   11  C   UNL     1      -7.806  15.735  67.379  1.00  0.00    -0.175 C  
HETATM   12  C   UNL     1      -6.199  17.139  66.401  1.00  0.00    -0.167 C  
HETATM   13  N   UNL     1      -6.669  15.881  66.746  1.00  0.00     0.088 N  
HETATM   14  H   UNL     1      -6.120  15.057  66.504  1.00  0.00     0.000 HD 
HETATM   15  N   UNL     1      -8.624  16.774  67.796  1.00  0.00    -0.196 NA 
HETATM   16  N   UNL     1      -8.020  20.234  67.113  1.00  0.00    -0.328 NA 
HETATM   17  C   UNL     1      -8.799  19.287  67.663  1.00  0.00    -0.299 A  
HETATM   18  C   UNL     1      -7.073  18.202  66.786  1.00  0.00    -0.207 A  
HETATM   19  O   UNL     1      -5.132  17.323  65.825  1.00  0.00    -0.323 OA 
HETATM   20  C   UNL     1      -5.948  20.264  65.872  1.00  0.00    -0.186 C  
HETATM   21  C   UNL     1      -8.239  18.013  67.466  1.00  0.00    -0.235 A  
HETATM   22  N   UNL     1      -6.980  19.544  66.579  1.00  0.00    -0.207 NA 
BRANCH  17  23
HETATM   23  C   UNL     1     -10.061  19.677  68.357  1.00  0.00    -0.557 C  
BRANCH  23  24
HETATM   24  C   UNL     1     -11.291  19.713  67.448  1.00  0.00     0.251 C  
HETATM   25  C   UNL     1     -10.957  19.924  65.976  1.00  0.00    -0.183 C  
ENDBRANCH  23  24
ENDBRANCH  17  23
ENDBRANCH   6  11
BRANCH   9  26
HETATM   26  S   UNL     1     -11.782  12.471  68.636  1.00  0.00    -0.319 S  
HETATM   27  O   UNL     1     -12.268  11.513  67.670  1.00  0.00    -0.513 OA 
HETATM   28  O   UNL     1     -12.415  13.751  68.856  1.00  0.00    -0.173 OA 
BRANCH  26  29
HETATM   29  N   UNL     1     -11.693  11.643  70.129  1.00  0.00    -0.458 N  
HETATM   30  H   UNL     1     -11.134  11.998  70.906  1.00  0.00     0.000 HD 
BRANCH  29  31
HETATM   31  C   UNL     1     -12.466  10.389  70.239  1.00  0.00    -0.223 C  
BRANCH  31  32
HETATM   32  C   UNL     1     -12.228   9.681  71.568  1.00  0.00    -0.483 C  
BRANCH  32  33
HETATM   33  C   UNL     1     -11.463   8.364  71.336  1.00  0.00    -0.277 C  
HETATM   34  C   UNL     1     -12.382   7.199  70.975  1.00  0.00    -0.376 C  
HETATM   35  C   UNL     1     -11.452   6.243  70.267  1.00  0.00    -0.428 C  
HETATM   36  C   UNL     1      -9.196   8.875  70.596  1.00  0.00    -0.213 C  
HETATM   37  N   UNL     1     -10.537   8.461  70.195  1.00  0.00    -0.229 NA 
HETATM   38  C   UNL     1     -10.518   7.163  69.500  1.00  0.00    -0.225 C  
ENDBRANCH  32  33
ENDBRANCH  31  32
ENDBRANCH  29  31
ENDBRANCH  26  29
ENDBRANCH   9  26
ENDBRANCH   4   5
ENDBRANCH   3   4
ENDBRANCH   2   3
TORSDOF 11
ENDMDL
MODEL      210
REMARK 921   NORMALIZED FREE ENERGY PREDICTED BY IDOCK:   -3.94 KCAL/MOL
REMARK 922        TOTAL FREE ENERGY PREDICTED BY IDOCK:   -8.71 KCAL/MOL
REMARK 923 INTER-LIGAND FREE ENERGY PREDICTED BY IDOCK:   -7.10 KCAL/MOL
REMARK 924 INTRA-LIGAND FREE ENERGY PREDICTED BY IDOCK:   -1.61 KCAL/MOL
REMARK 927      BINDING AFFINITY PREDICTED BY RF-SCORE:    0.00 PKD
ROOT
HETATM    1  C   UNL     1      -9.519   6.429  65.978  1.00  0.00    -0.005 C  
HETATM    2  C   UNL     1      -9.243   7.917  66.085  1.00  0.00    -0.208 C  
ENDROOT
BRANCH   2   3
HETATM    3  C   UNL     1     -10.224   8.625  67.005  1.00  0.00    -0.290 C  
BRANCH   3   4
HETATM    4  O   UNL     1     -10.545   7.839  68.168  1.00  0.00    -0.193 OA 
BRANCH   4   5
HETATM    5  C   UNL     1      -9.542   7.782  69.119  1.00  0.00    -0.155 A  
HETATM    6  C   UNL     1      -9.392   8.835  70.054  1.00  0.00    -0.175 A  
HETATM    7  C   UNL     1      -8.317   8.797  70.976  1.00  0.00    -0.208 A  
HETATM    8  C   UNL     1      -8.635   6.714  69.154  1.00  0.00    -0.130 A  
HETATM    9  C   UNL     1      -7.402   7.735  70.946  1.00  0.00    -0.065 A  
HETATM   10  C   UNL     1      -7.560   6.712  70.025  1.00  0.00    -0.100 A  
BRANCH   6  11
HETATM   11  C   UNL     1     -10.327  10.031  70.095  1.00  0.00    -0.266 C  
HETATM   12  C   UNL     1     -12.143  11.090  71.140  1.00  0.00    -0.244 C  
HETATM   13  N   UNL     1     -11.260  10.028  71.014  1.00  0.00    -0.346 N  
HETATM   14  H   UNL     1     -11.339   9.233  71.647  1.00  0.00     0.000 HD 
HETATM   15  N   UNL     1     -10.139  11.033  69.155  1.00  0.00    -0.185 NA 
HETATM   16  N   UNL     1     -12.018  14.075  69.025  1.00  0.00    -0.350 NA 
HETATM   17  C   UNL     1     -11.038  13.304  68.524  1.00  0.00    -0.265 A  
HETATM   18  C   UNL     1     -11.910  12.142  70.203  1.00  0.00    -0.287 A  
HETATM   19  O   UNL     1     -13.042  11.120  71.974  1.00  0.00    -0.492 OA 
HETATM   20  C   UNL     1     -13.598  13.900  70.844  1.00  0.00     0.104 C  
HETATM   21  C   UNL     1     -10.943  12.100  69.244  1.00  0.00    -0.110 A  
HETATM   22  N   UNL     1     -12.527  13.347  70.051  1.00  0.00    -0.200 NA 
BRANCH  17  23
HETATM   23  C   UNL     1     -10.238  13.785  67.360  1.00  0.00    -0.252 C  
BRANCH  23  24
HETATM   24  C   UNL     1     -10.252  15.304  67.176  1.00  0.00    -0.252 C  
HETATM   25  C   UNL     1     -10.621  15.745  65.765  1.00  0.00    -0.369 C  
ENDBRANCH  23  24
ENDBRANCH  17  23
ENDBRANCH   6  11
BRANCH   9  26
HETATM   26  S   UNL     1      -5.976   7.696  72.009  1.00  0.00    -0.036 S  
HETATM   27  O   UNL     1      -5.401   9.020  72.003  1.00  0.00    -0.047 OA 
HETATM   28  O   UNL     1      -5.224   6.513  71.661  1.00  0.00    -0.025 OA 
BRANCH  26  29
HETATM   29  N   UNL     1      -6.652   7.474  73.565  1.00  0.00    -0.065 N  
HETATM   30  H   UNL     1      -6.368   8.048  74.359  1.00  0.00     0.000 HD 
BRANCH  29  31
HETATM   31  C   UNL     1      -7.667   6.410  73.700  1.00  0.00    -0.092 C  
BRANCH  31  32
HETATM   32  C   UNL     1      -8.855   6.854  74.548  1.00  0.00    -0.221 C  
BRANCH  32  33
HETATM   33  C   UNL     1     -10.171   6.374  73.906  1.00  0.00    -0.313 C  
HETATM   34  C   UNL     1     -10.909   7.486  73.163  1.00  0.00    -0.448 C  
HETATM   35  C   UNL     1     -11.780   6.722  72.194  1.00  0.00    -0.332 C  
HETATM   36  C   UNL     1     -10.000   3.991  73.416  1.00  0.00    -0.131 C  
HETATM   37  N   UNL     1      -9.936   5.346  72.877  1.00  0.00    -0.166 NA 
HETATM   38  C   UNL     1     -10.912   5.544  71.792  1.00  0.00    -0.182 C  
ENDBRANCH  32  33
ENDBRANCH  31  32
ENDBRANCH  29  31
ENDBRANCH  26  29
ENDBRANCH   9  26
ENDBRANCH   4   5
ENDBRANCH   3   4
ENDBRANCH   2   3
TORSDOF 11
ENDMDL
MODEL      211
REMARK 921   NORMALIZED FREE ENERGY PREDICTED BY IDOCK:   -3.91 KCAL/MOL
REMARK 922        TOTAL FREE ENERGY PREDICTED BY IDOCK:   -8.65 KCAL/MOL
REMARK 923 INTER-LIGAND FREE ENERGY PREDICTED BY IDOCK:   -6.83 KCAL/MOL
REMARK 924 INTRA-LIGAND FREE ENERGY PREDICTED BY IDOCK:   -1.83 KCAL/MOL
REMARK 927      BINDING AFFINITY PREDICTED BY RF-SCORE:    0.00 PKD
ROOT
HETATM    1  C   UNL     1     -10.844  15.154  65.451  1.00  0.00    -0.393 C  
HETATM    2  C   UNL     1     -10.650  14.599  66.850  1.00  0.00    -0.281 C  
ENDROOT
BRANCH   2   3
HETATM    3  C   UNL     1     -11.389  13.287  67.062  1.00  0.00    -0.312 C  
BRANCH   3   4
HETATM    4  O   UNL     1     -10.645  12.369  67.884  1.00  0.00    -0.204 OA 
BRANCH   4   5
HETATM    5  C   UNL     1      -9.982  11.378  67.184  1.00  0.00    -0.192 A  
HETATM    6  C   UNL     1     -10.014  10.040  67.648  1.00  0.00    -0.214 A  
HETATM    7  C   UNL     1      -9.273   9.049  66.959  1.00  0.00    -0.169 A  
HETATM    8  C   UNL     1      -9.238  11.675  66.034  1.00  0.00    -0.218 A  
HETATM    9  C   UNL     1      -8.500   9.397  65.843  1.00  0.00    -0.126 A  
HETATM   10  C   UNL     1      -8.477  10.709  65.399  1.00  0.00    -0.162 A  
BRANCH   6  11
HETATM   11  C   UNL     1     -10.796   9.621  68.880  1.00  0.00    -0.174 C  
HETATM   12  C   UNL     1     -12.531  10.106  70.385  1.00  0.00    -0.169 C  
HETATM   13  N   UNL     1     -11.751  10.420  69.283  1.00  0.00    -0.470 N  
HETATM   14  H   UNL     1     -11.925  11.289  68.777  1.00  0.00     0.000 HD 
HETATM   15  N   UNL     1     -10.438   8.433  69.501  1.00  0.00    -0.223 NA 
HETATM   16  N   UNL     1     -12.133   7.022  72.318  1.00  0.00    -0.226 NA 
HETATM   17  C   UNL     1     -11.154   6.937  71.402  1.00  0.00    -0.250 A  
HETATM   18  C   UNL     1     -12.192   8.855  70.987  1.00  0.00    -0.203 A  
HETATM   19  O   UNL     1     -13.424  10.834  70.806  1.00  0.00    -0.010 OA 
HETATM   20  C   UNL     1     -13.895   8.595  72.827  1.00  0.00    -0.117 C  
HETATM   21  C   UNL     1     -11.174   8.060  70.556  1.00  0.00    -0.250 A  
HETATM   22  N   UNL     1     -12.755   8.196  72.038  1.00  0.00    -0.327 NA 
BRANCH  17  23
HETATM   23  C   UNL     1     -10.243   5.757  71.399  1.00  0.00    -0.269 C  
BRANCH  23  24
HETATM   24  C   UNL     1     -10.063   5.108  70.024  1.00  0.00    -0.345 C  
HETATM   25  C   UNL     1      -9.764   3.616  70.086  1.00  0.00    -0.188 C  
ENDBRANCH  23  24
ENDBRANCH  17  23
ENDBRANCH   6  11
BRANCH   9  26
HETATM   26  S   UNL     1      -7.468   8.211  65.010  1.00  0.00    -0.092 S  
HETATM   27  O   UNL     1      -6.627   7.597  66.011  1.00  0.00    -0.045 OA 
HETATM   28  O   UNL     1      -6.939   8.864  63.835  1.00  0.00    -0.087 OA 
BRANCH  26  29
HETATM   29  N   UNL     1      -8.575   7.006  64.512  1.00  0.00    -0.333 N  
HETATM   30  H   UNL     1      -9.388   7.230  63.938  1.00  0.00     0.000 HD 
BRANCH  29  31
HETATM   31  C   UNL     1      -8.295   5.625  64.954  1.00  0.00    -0.139 C  
BRANCH  31  32
HETATM   32  C   UNL     1      -9.252   5.165  66.048  1.00  0.00    -0.159 C  
BRANCH  32  33
HETATM   33  C   UNL     1      -8.679   3.929  66.767  1.00  0.00    -0.115 C  
HETATM   34  C   UNL     1      -8.928   2.630  66.005  1.00  0.00    -0.133 C  
HETATM   35  C   UNL     1      -7.854   1.713  66.543  1.00  0.00    -0.070 C  
HETATM   36  C   UNL     1      -6.789   4.613  68.149  1.00  0.00    -0.055 C  
HETATM   37  N   UNL     1      -7.213   3.999  66.895  1.00  0.00    -0.067 NA 
HETATM   38  C   UNL     1      -6.668   2.640  66.745  1.00  0.00    -0.040 C  
ENDBRANCH  32  33
ENDBRANCH  31  32
ENDBRANCH  29  31
ENDBRANCH  26  29
ENDBRANCH   9  26
ENDBRANCH   4   5
ENDBRANCH   3   4
ENDBRANCH   2   3
TORSDOF 11
ENDMDL
MODEL      212
REMARK 921   NORMALIZED FREE ENERGY PREDICTED BY IDOCK:   -3.88 KCAL/MOL
REMARK 922        TOTAL FREE ENERGY PREDICTED BY IDOCK:   -8.62 KCAL/MOL
REMARK 923 INTER-LIGAND FREE ENERGY PREDICTED BY IDOCK:   -6.88 KCAL/MOL
REMARK 924 INTRA-LIGAND FREE ENERGY PREDICTED BY IDOCK:   -1.73 KCAL/MOL
REMARK 927      BINDING AFFINITY PREDICTED BY RF-SCORE:    0.00 PKD
ROOT
HETATM    1  C   UNL     1      -6.735   6.166  70.004  1.00  0.00    -0.056 C  
HETATM    2  C   UNL     1      -5.364   6.607  69.528  1.00  0.00    -0.014 C  
ENDROOT
BRANCH   2   3
HETATM    3  C   UNL     1      -5.175   8.113  69.617  1.00  0.00    -0.026 C  
BRANCH   3   4
HETATM    4  O   UNL     1      -6.234   8.752  70.354  1.00  0.00    -0.036 OA 
BRANCH   4   5
HETATM    5  C   UNL     1      -6.573  10.013  69.896  1.00  0.00    -0.089 A  
HETATM    6  C   UNL     1      -7.579  10.162  68.910  1.00  0.00    -0.090 A  
HETATM    7  C   UNL     1      -7.865  11.452  68.401  1.00  0.00    -0.135 A  
HETATM    8  C   UNL     1      -5.909  11.156  70.361  1.00  0.00    -0.145 A  
HETATM    9  C   UNL     1      -7.144  12.564  68.856  1.00  0.00    -0.073 A  
HETATM   10  C   UNL     1      -6.162  12.405  69.820  1.00  0.00    -0.119 A  
BRANCH   6  11
HETATM   11  C   UNL     1      -8.355   8.983  68.349  1.00  0.00    -0.124 C  
HETATM   12  C   UNL     1      -8.776   7.582  66.514  1.00  0.00    -0.140 C  
HETATM   13  N   UNL     1      -8.129   8.658  67.101  1.00  0.00    -0.100 N  
HETATM   14  H   UNL     1      -7.467   9.206  66.552  1.00  0.00     0.000 HD 
HETATM   15  N   UNL     1      -9.255   8.342  69.188  1.00  0.00    -0.150 NA 
HETATM   16  N   UNL     1     -11.144   5.437  68.300  1.00  0.00     0.328 NA 
HETATM   17  C   UNL     1     -10.817   6.362  69.218  1.00  0.00    -0.327 A  
HETATM   18  C   UNL     1      -9.661   6.893  67.399  1.00  0.00    -0.136 A  
HETATM   19  O   UNL     1      -8.608   7.254  65.344  1.00  0.00    -0.121 OA 
HETATM   20  C   UNL     1     -10.510   4.964  66.017  1.00  0.00    -0.283 C  
HETATM   21  C   UNL     1      -9.889   7.275  68.687  1.00  0.00    -0.161 A  
HETATM   22  N   UNL     1     -10.420   5.780  67.205  1.00  0.00    -0.243 NA 
BRANCH  17  23
HETATM   23  C   UNL     1     -11.431   6.308  70.576  1.00  0.00    -0.407 C  
BRANCH  23  24
HETATM   24  C   UNL     1     -10.734   5.345  71.541  1.00  0.00    -0.262 C  
HETATM   25  C   UNL     1     -10.763   5.807  72.992  1.00  0.00    -0.290 C  
ENDBRANCH  23  24
ENDBRANCH  17  23
ENDBRANCH   6  11
BRANCH   9  26
HETATM   26  S   UNL     1      -7.391  14.187  68.170  1.00  0.00    -0.150 S  
HETATM   27  O   UNL     1      -6.324  14.420  67.226  1.00  0.00    -0.298 OA 
HETATM   28  O   UNL     1      -7.667  15.074  69.276  1.00  0.00    -0.173 OA 
BRANCH  26  29
HETATM   29  N   UNL     1      -8.819  14.010  67.245  1.00  0.00    -0.207 N  
HETATM   30  H   UNL     1      -8.788  13.774  66.253  1.00  0.00     0.000 HD 
BRANCH  29  31
HETATM   31  C   UNL     1     -10.098  14.215  67.954  1.00  0.00    -0.235 C  
BRANCH  31  32
HETATM   32  C   UNL     1     -11.274  13.591  67.211  1.00  0.00    -0.319 C  
BRANCH  32  33
HETATM   33  C   UNL     1     -10.932  13.435  65.717  1.00  0.00    -0.277 C  
HETATM   34  C   UNL     1     -10.747  11.977  65.299  1.00  0.00    -0.331 C  
HETATM   35  C   UNL     1     -10.992  12.020  63.810  1.00  0.00    -0.492 C  
HETATM   36  C   UNL     1     -11.852  15.327  64.483  1.00  0.00    -0.295 C  
HETATM   37  N   UNL     1     -12.019  13.924  64.851  1.00  0.00    -0.374 NA 
HETATM   38  C   UNL     1     -12.092  13.057  63.663  1.00  0.00    -0.531 C  
ENDBRANCH  32  33
ENDBRANCH  31  32
ENDBRANCH  29  31
ENDBRANCH  26  29
ENDBRANCH   9  26
ENDBRANCH   4   5
ENDBRANCH   3   4
ENDBRANCH   2   3
TORSDOF 11
ENDMDL
MODEL      213
REMARK 921   NORMALIZED FREE ENERGY PREDICTED BY IDOCK:   -3.88 KCAL/MOL
REMARK 922        TOTAL FREE ENERGY PREDICTED BY IDOCK:   -8.62 KCAL/MOL
REMARK 923 INTER-LIGAND FREE ENERGY PREDICTED BY IDOCK:   -6.97 KCAL/MOL
REMARK 924 INTRA-LIGAND FREE ENERGY PREDICTED BY IDOCK:   -1.64 KCAL/MOL
REMARK 927      BINDING AFFINITY PREDICTED BY RF-SCORE:    0.00 PKD
ROOT
HETATM    1  C   UNL     1     -11.470  14.868  66.884  1.00  0.00    -0.318 C  
HETATM    2  C   UNL     1     -11.925  13.505  67.372  1.00  0.00    -0.398 C  
ENDROOT
BRANCH   2   3
HETATM    3  C   UNL     1     -11.814  13.362  68.881  1.00  0.00    -0.334 C  
BRANCH   3   4
HETATM    4  O   UNL     1     -10.720  12.511  69.269  1.00  0.00    -0.090 OA 
BRANCH   4   5
HETATM    5  C   UNL     1     -11.100  11.297  69.813  1.00  0.00    -0.167 A  
HETATM    6  C   UNL     1     -10.435  10.108  69.426  1.00  0.00    -0.254 A  
HETATM    7  C   UNL     1     -10.882   8.865  69.939  1.00  0.00    -0.219 A  
HETATM    8  C   UNL     1     -12.165  11.211  70.720  1.00  0.00    -0.484 A  
HETATM    9  C   UNL     1     -11.983   8.816  70.804  1.00  0.00    -0.133 A  
HETATM   10  C   UNL     1     -12.625   9.987  71.174  1.00  0.00    -0.480 A  
BRANCH   6  11
HETATM   11  C   UNL     1      -9.269  10.102  68.454  1.00  0.00    -0.133 C  
HETATM   12  C   UNL     1      -7.632  11.343  67.317  1.00  0.00    -0.138 C  
HETATM   13  N   UNL     1      -8.717  11.257  68.176  1.00  0.00    -0.148 N  
HETATM   14  H   UNL     1      -9.091  12.106  68.598  1.00  0.00     0.000 HD 
HETATM   15  N   UNL     1      -8.877   8.884  67.919  1.00  0.00    -0.132 NA 
HETATM   16  N   UNL     1      -6.082   8.429  65.733  1.00  0.00    -0.048 NA 
HETATM   17  C   UNL     1      -7.108   7.896  66.417  1.00  0.00    -0.071 A  
HETATM   18  C   UNL     1      -7.200  10.078  66.812  1.00  0.00    -0.091 A  
HETATM   19  O   UNL     1      -7.096  12.404  67.016  1.00  0.00    -0.116 OA 
HETATM   20  C   UNL     1      -5.167  10.645  65.434  1.00  0.00    -0.133 C  
HETATM   21  C   UNL     1      -7.814   8.898  67.104  1.00  0.00    -0.096 A  
HETATM   22  N   UNL     1      -6.157   9.759  65.998  1.00  0.00    -0.063 NA 
BRANCH  17  23
HETATM   23  C   UNL     1      -7.349   6.425  66.364  1.00  0.00    -0.081 C  
BRANCH  23  24
HETATM   24  C   UNL     1      -8.183   5.885  67.528  1.00  0.00    -0.105 C  
HETATM   25  C   UNL     1      -9.538   5.333  67.104  1.00  0.00    -0.149 C  
ENDBRANCH  23  24
ENDBRANCH  17  23
ENDBRANCH   6  11
BRANCH   9  26
HETATM   26  S   UNL     1     -12.649   7.273  71.388  1.00  0.00    -0.384 S  
HETATM   27  O   UNL     1     -12.117   6.230  70.544  1.00  0.00    -0.186 OA 
HETATM   28  O   UNL     1     -14.066   7.474  71.588  1.00  0.00    -0.411 OA 
BRANCH  26  29
HETATM   29  N   UNL     1     -11.906   7.078  72.917  1.00  0.00    -0.505 N  
HETATM   30  H   UNL     1     -12.399   7.292  73.783  1.00  0.00     0.000 HD 
BRANCH  29  31
HETATM   31  C   UNL     1     -10.514   6.583  72.918  1.00  0.00    -0.222 C  
BRANCH  31  32
HETATM   32  C   UNL     1      -9.584   7.485  73.722  1.00  0.00    -0.321 C  
BRANCH  32  33
HETATM   33  C   UNL     1      -8.240   6.774  73.967  1.00  0.00    -0.128 C  
HETATM   34  C   UNL     1      -8.286   5.284  73.634  1.00  0.00    -0.112 C  
HETATM   35  C   UNL     1      -6.834   4.946  73.397  1.00  0.00    -0.070 C  
HETATM   36  C   UNL     1      -6.426   8.388  73.735  1.00  0.00    -0.116 C  
HETATM   37  N   UNL     1      -7.172   7.304  73.102  1.00  0.00    -0.072 NA 
HETATM   38  C   UNL     1      -6.289   6.191  72.718  1.00  0.00    -0.062 C  
ENDBRANCH  32  33
ENDBRANCH  31  32
ENDBRANCH  29  31
ENDBRANCH  26  29
ENDBRANCH   9  26
ENDBRANCH   4   5
ENDBRANCH   3   4
ENDBRANCH   2   3
TORSDOF 11
ENDMDL
MODEL      214
REMARK 921   NORMALIZED FREE ENERGY PREDICTED BY IDOCK:   -3.87 KCAL/MOL
REMARK 922        TOTAL FREE ENERGY PREDICTED BY IDOCK:   -8.60 KCAL/MOL
REMARK 923 INTER-LIGAND FREE ENERGY PREDICTED BY IDOCK:   -8.12 KCAL/MOL
REMARK 924 INTRA-LIGAND FREE ENERGY PREDICTED BY IDOCK:   -0.47 KCAL/MOL
REMARK 927      BINDING AFFINITY PREDICTED BY RF-SCORE:    0.00 PKD
ROOT
HETATM    1  C   UNL     1      -6.120  15.675  70.458  1.00  0.00     0.074 C  
HETATM    2  C   UNL     1      -5.165  15.333  69.329  1.00  0.00    -0.095 C  
ENDROOT
BRANCH   2   3
HETATM    3  C   UNL     1      -5.819  14.480  68.254  1.00  0.00    -0.117 C  
BRANCH   3   4
HETATM    4  O   UNL     1      -7.214  14.243  68.520  1.00  0.00    -0.102 OA 
BRANCH   4   5
HETATM    5  C   UNL     1      -7.805  13.304  67.694  1.00  0.00    -0.168 A  
HETATM    6  C   UNL     1      -8.769  13.708  66.739  1.00  0.00    -0.101 A  
HETATM    7  C   UNL     1      -9.417  12.727  65.949  1.00  0.00    -0.076 A  
HETATM    8  C   UNL     1      -7.499  11.941  67.809  1.00  0.00    -0.121 A  
HETATM    9  C   UNL     1      -9.118  11.369  66.129  1.00  0.00    -0.207 A  
HETATM   10  C   UNL     1      -8.174  10.987  67.069  1.00  0.00    -0.138 A  
BRANCH   6  11
HETATM   11  C   UNL     1      -9.163  15.161  66.538  1.00  0.00    -0.287 C  
HETATM   12  C   UNL     1     -10.429  16.720  65.324  1.00  0.00    -0.131 C  
HETATM   13  N   UNL     1      -9.997  15.425  65.564  1.00  0.00    -0.348 N  
HETATM   14  H   UNL     1     -10.335  14.666  64.973  1.00  0.00     0.000 HD 
HETATM   15  N   UNL     1      -8.605  16.106  67.387  1.00  0.00    -0.176 NA 
HETATM   16  N   UNL     1      -9.402  19.594  67.347  1.00  0.00    -0.314 NA 
HETATM   17  C   UNL     1      -8.713  18.575  67.890  1.00  0.00    -0.284 A  
HETATM   18  C   UNL     1      -9.893  17.681  66.235  1.00  0.00    -0.288 A  
HETATM   19  O   UNL     1     -11.195  17.015  64.412  1.00  0.00    -1.167 OA 
HETATM   20  C   UNL     1     -11.009  19.837  65.559  1.00  0.00    -0.027 C  
HETATM   21  C   UNL     1      -9.007  17.373  67.223  1.00  0.00    -0.236 A  
HETATM   22  N   UNL     1     -10.118  19.019  66.347  1.00  0.00    -0.388 NA 
BRANCH  17  23
HETATM   23  C   UNL     1      -7.798  18.830  69.039  1.00  0.00    -0.211 C  
BRANCH  23  24
HETATM   24  C   UNL     1      -6.627  19.760  68.714  1.00  0.00    -0.344 C  
HETATM   25  C   UNL     1      -5.731  20.057  69.910  1.00  0.00    -0.321 C  
ENDBRANCH  23  24
ENDBRANCH  17  23
ENDBRANCH   6  11
BRANCH   9  26
HETATM   26  S   UNL     1      -9.982  10.093  65.240  1.00  0.00    -0.267 S  
HETATM   27  O   UNL     1      -8.990   9.320  64.530  1.00  0.00    -0.203 OA 
HETATM   28  O   UNL     1     -11.103  10.722  64.582  1.00  0.00    -0.012 OA 
BRANCH  26  29
HETATM   29  N   UNL     1     -10.578   9.080  66.483  1.00  0.00    -0.114 N  
HETATM   30  H   UNL     1     -11.215   9.430  67.199  1.00  0.00     0.000 HD 
BRANCH  29  31
HETATM   31  C   UNL     1     -10.124   7.675  66.467  1.00  0.00    -0.135 C  
BRANCH  31  32
HETATM   32  C   UNL     1     -10.958   6.792  67.389  1.00  0.00    -0.407 C  
BRANCH  32  33
HETATM   33  C   UNL     1     -10.546   7.023  68.856  1.00  0.00    -0.215 C  
HETATM   34  C   UNL     1     -11.406   6.237  69.845  1.00  0.00    -0.504 C  
HETATM   35  C   UNL     1     -10.521   6.152  71.066  1.00  0.00    -0.281 C  
HETATM   36  C   UNL     1      -8.181   7.612  68.940  1.00  0.00    -0.128 C  
HETATM   37  N   UNL     1      -9.174   6.557  69.121  1.00  0.00    -0.135 NA 
HETATM   38  C   UNL     1      -9.128   5.997  70.482  1.00  0.00    -0.149 C  
ENDBRANCH  32  33
ENDBRANCH  31  32
ENDBRANCH  29  31
ENDBRANCH  26  29
ENDBRANCH   9  26
ENDBRANCH   4   5
ENDBRANCH   3   4
ENDBRANCH   2   3
TORSDOF 11
ENDMDL
MODEL      215
REMARK 921   NORMALIZED FREE ENERGY PREDICTED BY IDOCK:   -3.87 KCAL/MOL
REMARK 922        TOTAL FREE ENERGY PREDICTED BY IDOCK:   -8.59 KCAL/MOL
REMARK 923 INTER-LIGAND FREE ENERGY PREDICTED BY IDOCK:   -6.65 KCAL/MOL
REMARK 924 INTRA-LIGAND FREE ENERGY PREDICTED BY IDOCK:   -1.94 KCAL/MOL
REMARK 927      BINDING AFFINITY PREDICTED BY RF-SCORE:    0.00 PKD
ROOT
HETATM    1  C   UNL     1      -8.862   8.942  64.571  1.00  0.00    -0.069 C  
HETATM    2  C   UNL     1      -9.647   9.040  65.866  1.00  0.00    -0.317 C  
ENDROOT
BRANCH   2   3
HETATM    3  C   UNL     1      -8.859   8.537  67.064  1.00  0.00    -0.133 C  
BRANCH   3   4
HETATM    4  O   UNL     1      -7.563   9.157  67.163  1.00  0.00    -0.090 OA 
BRANCH   4   5
HETATM    5  C   UNL     1      -7.590  10.486  67.548  1.00  0.00    -0.093 A  
HETATM    6  C   UNL     1      -7.712  10.824  68.918  1.00  0.00    -0.129 A  
HETATM    7  C   UNL     1      -7.809  12.187  69.290  1.00  0.00     0.426 A  
HETATM    8  C   UNL     1      -7.538  11.517  66.600  1.00  0.00    -0.088 A  
HETATM    9  C   UNL     1      -7.804  13.187  68.307  1.00  0.00    -0.143 A  
HETATM   10  C   UNL     1      -7.685  12.842  66.970  1.00  0.00     0.025 A  
BRANCH   6  11
HETATM   11  C   UNL     1      -7.771   9.778  70.016  1.00  0.00    -0.171 C  
HETATM   12  C   UNL     1      -6.609   8.221  71.334  1.00  0.00    -0.051 C  
HETATM   13  N   UNL     1      -6.652   9.174  70.327  1.00  0.00    -0.047 N  
HETATM   14  H   UNL     1      -5.799   9.407  69.821  1.00  0.00     0.000 HD 
HETATM   15  N   UNL     1      -9.002   9.524  70.603  1.00  0.00    -0.223 NA 
HETATM   16  N   UNL     1      -9.527   7.262  73.326  1.00  0.00    -0.175 NA 
HETATM   17  C   UNL     1     -10.031   8.150  72.452  1.00  0.00    -0.275 A  
HETATM   18  C   UNL     1      -7.869   8.004  71.971  1.00  0.00    -0.105 A  
HETATM   19  O   UNL     1      -5.586   7.619  71.646  1.00  0.00    -0.035 OA 
HETATM   20  C   UNL     1      -7.342   6.343  73.792  1.00  0.00    -0.085 C  
HETATM   21  C   UNL     1      -9.020   8.634  71.604  1.00  0.00    -0.235 A  
HETATM   22  N   UNL     1      -8.207   7.198  73.015  1.00  0.00    -0.104 NA 
BRANCH  17  23
HETATM   23  C   UNL     1     -11.484   8.483  72.490  1.00  0.00    -0.368 C  
BRANCH  23  24
HETATM   24  C   UNL     1     -12.287   7.921  71.315  1.00  0.00    -0.300 C  
HETATM   25  C   UNL     1     -11.867   6.515  70.905  1.00  0.00    -0.391 C  
ENDBRANCH  23  24
ENDBRANCH  17  23
ENDBRANCH   6  11
BRANCH   9  26
HETATM   26  S   UNL     1      -8.032  14.904  68.714  1.00  0.00    -0.164 S  
HETATM   27  O   UNL     1      -8.187  15.622  67.471  1.00  0.00    -0.149 OA 
HETATM   28  O   UNL     1      -7.025  15.241  69.694  1.00  0.00    -0.172 OA 
BRANCH  26  29
HETATM   29  N   UNL     1      -9.563  14.928  69.476  1.00  0.00    -0.426 N  
HETATM   30  H   UNL     1      -9.725  15.451  70.336  1.00  0.00     0.000 HD 
BRANCH  29  31
HETATM   31  C   UNL     1     -10.639  14.155  68.823  1.00  0.00    -0.253 C  
BRANCH  31  32
HETATM   32  C   UNL     1     -11.245  14.899  67.639  1.00  0.00    -0.330 C  
BRANCH  32  33
HETATM   33  C   UNL     1     -11.156  14.033  66.368  1.00  0.00    -0.316 C  
HETATM   34  C   UNL     1     -11.574  12.584  66.607  1.00  0.00    -0.442 C  
HETATM   35  C   UNL     1     -11.951  12.110  65.223  1.00  0.00    -0.313 C  
HETATM   36  C   UNL     1     -11.439  15.456  64.408  1.00  0.00    -0.255 C  
HETATM   37  N   UNL     1     -12.072  14.505  65.316  1.00  0.00    -0.361 NA 
HETATM   38  C   UNL     1     -12.595  13.333  64.595  1.00  0.00    -0.293 C  
ENDBRANCH  32  33
ENDBRANCH  31  32
ENDBRANCH  29  31
ENDBRANCH  26  29
ENDBRANCH   9  26
ENDBRANCH   4   5
ENDBRANCH   3   4
ENDBRANCH   2   3
TORSDOF 11
ENDMDL
MODEL      216
REMARK 921   NORMALIZED FREE ENERGY PREDICTED BY IDOCK:   -3.85 KCAL/MOL
REMARK 922        TOTAL FREE ENERGY PREDICTED BY IDOCK:   -8.56 KCAL/MOL
REMARK 923 INTER-LIGAND FREE ENERGY PREDICTED BY IDOCK:   -7.03 KCAL/MOL
REMARK 924 INTRA-LIGAND FREE ENERGY PREDICTED BY IDOCK:   -1.53 KCAL/MOL
REMARK 927      BINDING AFFINITY PREDICTED BY RF-SCORE:    0.00 PKD
ROOT
HETATM    1  C   UNL     1      -8.004   7.782  64.329  1.00  0.00    -0.120 C  
HETATM    2  C   UNL     1      -7.656   8.224  65.739  1.00  0.00    -0.082 C  
ENDROOT
BRANCH   2   3
HETATM    3  C   UNL     1      -8.887   8.399  66.613  1.00  0.00    -0.142 C  
BRANCH   3   4
HETATM    4  O   UNL     1      -8.724   9.455  67.578  1.00  0.00    -0.122 OA 
BRANCH   4   5
HETATM    5  C   UNL     1      -9.287  10.663  67.208  1.00  0.00    -0.150 A  
HETATM    6  C   UNL     1     -10.393  11.179  67.926  1.00  0.00    -0.211 A  
HETATM    7  C   UNL     1     -11.001  12.383  67.493  1.00  0.00    -0.293 A  
HETATM    8  C   UNL     1      -8.806  11.379  66.103  1.00  0.00    -0.186 A  
HETATM    9  C   UNL     1     -10.523  13.041  66.352  1.00  0.00    -0.276 A  
HETATM   10  C   UNL     1      -9.440  12.526  65.658  1.00  0.00    -0.014 A  
BRANCH   6  11
HETATM   11  C   UNL     1     -10.979  10.479  69.139  1.00  0.00    -0.240 C  
HETATM   12  C   UNL     1     -12.904   9.866  70.334  1.00  0.00     0.054 C  
HETATM   13  N   UNL     1     -12.282  10.500  69.270  1.00  0.00    -0.537 N  
HETATM   14  H   UNL     1     -12.848  10.991  68.578  1.00  0.00     0.000 HD 
HETATM   15  N   UNL     1     -10.100   9.878  70.028  1.00  0.00    -0.254 NA 
HETATM   16  N   UNL     1     -11.090   7.994  72.904  1.00  0.00    -0.383 NA 
HETATM   17  C   UNL     1     -10.107   8.475  72.125  1.00  0.00    -0.323 A  
HETATM   18  C   UNL     1     -11.997   9.204  71.216  1.00  0.00    -0.325 A  
HETATM   19  O   UNL     1     -14.119   9.875  70.504  1.00  0.00     0.310 OA 
HETATM   20  C   UNL     1     -13.504   8.084  72.898  1.00  0.00     0.629 C  
HETATM   21  C   UNL     1     -10.643   9.223  71.062  1.00  0.00    -0.316 A  
HETATM   22  N   UNL     1     -12.230   8.447  72.324  1.00  0.00    -0.372 NA 
BRANCH  17  23
HETATM   23  C   UNL     1      -8.684   8.178  72.458  1.00  0.00    -0.266 C  
BRANCH  23  24
HETATM   24  C   UNL     1      -8.326   6.691  72.406  1.00  0.00    -0.106 C  
HETATM   25  C   UNL     1      -8.813   5.989  71.145  1.00  0.00    -0.139 C  
ENDBRANCH  23  24
ENDBRANCH  17  23
ENDBRANCH   6  11
BRANCH   9  26
HETATM   26  S   UNL     1     -11.320  14.495  65.705  1.00  0.00    -0.341 S  
HETATM   27  O   UNL     1     -12.721  14.182  65.550  1.00  0.00    -0.507 OA 
HETATM   28  O   UNL     1     -10.499  14.977  64.618  1.00  0.00    -0.318 OA 
BRANCH  26  29
HETATM   29  N   UNL     1     -11.218  15.609  66.999  1.00  0.00    -0.200 N  
HETATM   30  H   UNL     1     -11.722  15.460  67.874  1.00  0.00     0.000 HD 
BRANCH  29  31
HETATM   31  C   UNL     1     -10.364  16.795  66.787  1.00  0.00    -0.293 C  
BRANCH  31  32
HETATM   32  C   UNL     1      -9.812  17.347  68.096  1.00  0.00    -0.301 C  
BRANCH  32  33
HETATM   33  C   UNL     1      -8.490  16.641  68.452  1.00  0.00    -0.216 C  
HETATM   34  C   UNL     1      -8.685  15.451  69.389  1.00  0.00    -0.252 C  
HETATM   35  C   UNL     1      -7.447  14.622  69.143  1.00  0.00    -0.139 C  
HETATM   36  C   UNL     1      -6.889  16.981  66.643  1.00  0.00    -0.244 C  
HETATM   37  N   UNL     1      -7.839  16.063  67.264  1.00  0.00    -0.163 NA 
HETATM   38  C   UNL     1      -7.194  14.799  67.656  1.00  0.00    -0.188 C  
ENDBRANCH  32  33
ENDBRANCH  31  32
ENDBRANCH  29  31
ENDBRANCH  26  29
ENDBRANCH   9  26
ENDBRANCH   4   5
ENDBRANCH   3   4
ENDBRANCH   2   3
TORSDOF 11
ENDMDL
MODEL      217
REMARK 921   NORMALIZED FREE ENERGY PREDICTED BY IDOCK:   -3.83 KCAL/MOL
REMARK 922        TOTAL FREE ENERGY PREDICTED BY IDOCK:   -8.52 KCAL/MOL
REMARK 923 INTER-LIGAND FREE ENERGY PREDICTED BY IDOCK:   -8.04 KCAL/MOL
REMARK 924 INTRA-LIGAND FREE ENERGY PREDICTED BY IDOCK:   -0.48 KCAL/MOL
REMARK 927      BINDING AFFINITY PREDICTED BY RF-SCORE:    0.00 PKD
ROOT
HETATM    1  C   UNL     1     -13.236  15.347  71.152  1.00  0.00    -0.583 C  
HETATM    2  C   UNL     1     -11.766  14.981  71.054  1.00  0.00    -0.379 C  
ENDROOT
BRANCH   2   3
HETATM    3  C   UNL     1     -10.966  15.998  70.257  1.00  0.00    -0.354 C  
BRANCH   3   4
HETATM    4  O   UNL     1     -10.816  15.615  68.878  1.00  0.00    -0.228 OA 
BRANCH   4   5
HETATM    5  C   UNL     1      -9.949  14.559  68.665  1.00  0.00    -0.237 A  
HETATM    6  C   UNL     1      -8.564  14.802  68.497  1.00  0.00    -0.168 A  
HETATM    7  C   UNL     1      -7.700  13.717  68.210  1.00  0.00    -0.138 A  
HETATM    8  C   UNL     1     -10.420  13.241  68.572  1.00  0.00    -0.259 A  
HETATM    9  C   UNL     1      -8.217  12.422  68.075  1.00  0.00    -0.168 A  
HETATM   10  C   UNL     1      -9.574  12.197  68.241  1.00  0.00    -0.210 A  
BRANCH   6  11
HETATM   11  C   UNL     1      -7.962  16.193  68.585  1.00  0.00    -0.201 C  
HETATM   12  C   UNL     1      -6.402  17.614  69.613  1.00  0.00    -0.182 C  
HETATM   13  N   UNL     1      -7.023  16.382  69.478  1.00  0.00    -0.210 N  
HETATM   14  H   UNL     1      -6.746  15.611  70.085  1.00  0.00     0.000 HD 
HETATM   15  N   UNL     1      -8.452  17.166  67.728  1.00  0.00    -0.204 NA 
HETATM   16  N   UNL     1      -7.188  20.506  67.511  1.00  0.00    -0.312 NA 
HETATM   17  C   UNL     1      -8.050  19.571  67.079  1.00  0.00    -0.275 A  
HETATM   18  C   UNL     1      -6.874  18.597  68.690  1.00  0.00    -0.275 A  
HETATM   19  O   UNL     1      -5.531  17.840  70.447  1.00  0.00    -0.243 OA 
HETATM   20  C   UNL     1      -5.424  20.605  69.159  1.00  0.00    -0.344 C  
HETATM   21  C   UNL     1      -7.870  18.371  67.789  1.00  0.00    -0.241 A  
HETATM   22  N   UNL     1      -6.478  19.884  68.487  1.00  0.00    -0.273 NA 
BRANCH  17  23
HETATM   23  C   UNL     1      -9.013  19.898  65.988  1.00  0.00    -0.301 C  
BRANCH  23  24
HETATM   24  C   UNL     1     -10.483  19.731  66.378  1.00  0.00    -0.618 C  
HETATM   25  C   UNL     1     -10.748  19.937  67.865  1.00  0.00    -0.321 C  
ENDBRANCH  23  24
ENDBRANCH  17  23
ENDBRANCH   6  11
BRANCH   9  26
HETATM   26  S   UNL     1      -7.189  11.045  67.609  1.00  0.00    -0.097 S  
HETATM   27  O   UNL     1      -7.294  10.059  68.659  1.00  0.00    -0.078 OA 
HETATM   28  O   UNL     1      -5.926  11.592  67.171  1.00  0.00    -0.095 OA 
BRANCH  26  29
HETATM   29  N   UNL     1      -8.000  10.390  66.253  1.00  0.00    -0.132 N  
HETATM   30  H   UNL     1      -7.735  10.638  65.300  1.00  0.00     0.000 HD 
BRANCH  29  31
HETATM   31  C   UNL     1      -9.102   9.447  66.532  1.00  0.00    -0.153 C  
BRANCH  31  32
HETATM   32  C   UNL     1      -9.164   8.317  65.511  1.00  0.00    -0.000 C  
BRANCH  32  33
HETATM   33  C   UNL     1      -9.015   6.956  66.218  1.00  0.00    -0.151 C  
HETATM   34  C   UNL     1      -7.641   6.324  66.006  1.00  0.00    -0.087 C  
HETATM   35  C   UNL     1      -7.523   5.376  67.175  1.00  0.00    -0.084 C  
HETATM   36  C   UNL     1     -10.503   6.892  68.150  1.00  0.00    -0.204 C  
HETATM   37  N   UNL     1      -9.133   7.082  67.681  1.00  0.00    -0.123 NA 
HETATM   38  C   UNL     1      -8.208   6.123  68.306  1.00  0.00    -0.114 C  
ENDBRANCH  32  33
ENDBRANCH  31  32
ENDBRANCH  29  31
ENDBRANCH  26  29
ENDBRANCH   9  26
ENDBRANCH   4   5
ENDBRANCH   3   4
ENDBRANCH   2   3
TORSDOF 11
ENDMDL
MODEL      218
REMARK 921   NORMALIZED FREE ENERGY PREDICTED BY IDOCK:   -3.82 KCAL/MOL
REMARK 922        TOTAL FREE ENERGY PREDICTED BY IDOCK:   -8.51 KCAL/MOL
REMARK 923 INTER-LIGAND FREE ENERGY PREDICTED BY IDOCK:   -8.15 KCAL/MOL
REMARK 924 INTRA-LIGAND FREE ENERGY PREDICTED BY IDOCK:   -0.36 KCAL/MOL
REMARK 927      BINDING AFFINITY PREDICTED BY RF-SCORE:    0.00 PKD
ROOT
HETATM    1  C   UNL     1     -10.150  15.718  70.336  1.00  0.00     0.184 C  
HETATM    2  C   UNL     1     -11.651  15.623  70.542  1.00  0.00    -0.383 C  
ENDROOT
BRANCH   2   3
HETATM    3  C   UNL     1     -12.057  14.353  71.271  1.00  0.00    -0.335 C  
BRANCH   3   4
HETATM    4  O   UNL     1     -11.409  13.185  70.734  1.00  0.00     0.563 OA 
BRANCH   4   5
HETATM    5  C   UNL     1     -11.610  12.987  69.380  1.00  0.00    -0.299 A  
HETATM    6  C   UNL     1     -11.187  11.781  68.770  1.00  0.00    -0.308 A  
HETATM    7  C   UNL     1     -11.337  11.622  67.371  1.00  0.00    -0.367 A  
HETATM    8  C   UNL     1     -12.192  13.980  68.580  1.00  0.00    -0.218 A  
HETATM    9  C   UNL     1     -11.878  12.659  66.598  1.00  0.00    -0.380 A  
HETATM   10  C   UNL     1     -12.286  13.835  67.208  1.00  0.00    -0.203 A  
BRANCH   6  11
HETATM   11  C   UNL     1     -10.551  10.647  69.554  1.00  0.00    -0.230 C  
HETATM   12  C   UNL     1      -8.598   9.732  70.480  1.00  0.00     0.051 C  
HETATM   13  N   UNL     1      -9.258  10.711  69.755  1.00  0.00    -0.371 N  
HETATM   14  H   UNL     1      -8.729  11.494  69.371  1.00  0.00     0.000 HD 
HETATM   15  N   UNL     1     -11.374   9.620  69.991  1.00  0.00    -0.226 NA 
HETATM   16  N   UNL     1     -10.292   6.865  72.001  1.00  0.00    -0.198 NA 
HETATM   17  C   UNL     1     -11.286   7.505  71.364  1.00  0.00    -0.258 A  
HETATM   18  C   UNL     1      -9.460   8.704  70.973  1.00  0.00    -0.207 A  
HETATM   19  O   UNL     1      -7.387   9.743  70.677  1.00  0.00    -0.231 OA 
HETATM   20  C   UNL     1      -7.926   7.231  72.325  1.00  0.00    -0.096 C  
HETATM   21  C   UNL     1     -10.798   8.657  70.724  1.00  0.00    -0.230 A  
HETATM   22  N   UNL     1      -9.192   7.621  71.753  1.00  0.00    -0.136 NA 
BRANCH  17  23
HETATM   23  C   UNL     1     -12.672   6.955  71.412  1.00  0.00    -0.384 C  
BRANCH  23  24
HETATM   24  C   UNL     1     -13.519   7.493  72.568  1.00  0.00     0.391 C  
HETATM   25  C   UNL     1     -14.354   8.713  72.199  1.00  0.00    -0.518 C  
ENDBRANCH  23  24
ENDBRANCH  17  23
ENDBRANCH   6  11
BRANCH   9  26
HETATM   26  S   UNL     1     -11.985  12.550  64.826  1.00  0.00    -0.417 S  
HETATM   27  O   UNL     1     -13.387  12.472  64.486  1.00  0.00    -0.780 OA 
HETATM   28  O   UNL     1     -11.020  11.561  64.405  1.00  0.00    -0.332 OA 
BRANCH  26  29
HETATM   29  N   UNL     1     -11.451  14.089  64.304  1.00  0.00    -0.580 N  
HETATM   30  H   UNL     1     -12.023  14.677  63.697  1.00  0.00     0.000 HD 
BRANCH  29  31
HETATM   31  C   UNL     1     -10.122  14.525  64.778  1.00  0.00    -0.074 C  
BRANCH  31  32
HETATM   32  C   UNL     1     -10.213  15.709  65.735  1.00  0.00    -0.391 C  
BRANCH  32  33
HETATM   33  C   UNL     1      -9.230  15.518  66.906  1.00  0.00    -0.236 C  
HETATM   34  C   UNL     1      -8.551  14.150  66.895  1.00  0.00    -0.157 C  
HETATM   35  C   UNL     1      -7.300  14.388  67.707  1.00  0.00    -0.186 C  
HETATM   36  C   UNL     1      -8.380  17.697  67.600  1.00  0.00    -0.226 C  
HETATM   37  N   UNL     1      -8.112  16.476  66.846  1.00  0.00    -0.194 NA 
HETATM   38  C   UNL     1      -6.894  15.800  67.323  1.00  0.00    -0.185 C  
ENDBRANCH  32  33
ENDBRANCH  31  32
ENDBRANCH  29  31
ENDBRANCH  26  29
ENDBRANCH   9  26
ENDBRANCH   4   5
ENDBRANCH   3   4
ENDBRANCH   2   3
TORSDOF 11
ENDMDL
MODEL      219
REMARK 921   NORMALIZED FREE ENERGY PREDICTED BY IDOCK:   -3.77 KCAL/MOL
REMARK 922        TOTAL FREE ENERGY PREDICTED BY IDOCK:   -8.43 KCAL/MOL
REMARK 923 INTER-LIGAND FREE ENERGY PREDICTED BY IDOCK:   -7.09 KCAL/MOL
REMARK 924 INTRA-LIGAND FREE ENERGY PREDICTED BY IDOCK:   -1.35 KCAL/MOL
REMARK 927      BINDING AFFINITY PREDICTED BY RF-SCORE:    0.00 PKD
ROOT
HETATM    1  C   UNL     1     -12.580  11.133  71.120  1.00  0.00    -0.513 C  
HETATM    2  C   UNL     1     -13.198   9.830  71.591  1.00  0.00    -0.514 C  
ENDROOT
BRANCH   2   3
HETATM    3  C   UNL     1     -12.425   8.613  71.112  1.00  0.00    -0.182 C  
BRANCH   3   4
HETATM    4  O   UNL     1     -11.142   8.965  70.561  1.00  0.00    -0.243 OA 
BRANCH   4   5
HETATM    5  C   UNL     1     -10.577   7.994  69.753  1.00  0.00    -0.238 A  
HETATM    6  C   UNL     1      -9.646   8.360  68.751  1.00  0.00    -0.150 A  
HETATM    7  C   UNL     1      -9.130   7.364  67.886  1.00  0.00    -0.129 A  
HETATM    8  C   UNL     1     -10.938   6.645  69.879  1.00  0.00    -0.373 A  
HETATM    9  C   UNL     1      -9.555   6.034  68.012  1.00  0.00    -0.117 A  
HETATM   10  C   UNL     1     -10.467   5.689  68.996  1.00  0.00    -0.321 A  
BRANCH   6  11
HETATM   11  C   UNL     1      -9.191   9.793  68.542  1.00  0.00    -0.134 C  
HETATM   12  C   UNL     1      -7.450  11.360  68.691  1.00  0.00    -0.119 C  
HETATM   13  N   UNL     1      -7.957  10.083  68.870  1.00  0.00    -0.094 N  
HETATM   14  H   UNL     1      -7.359   9.356  69.263  1.00  0.00     0.000 HD 
HETATM   15  N   UNL     1     -10.112  10.698  68.034  1.00  0.00    -0.154 NA 
HETATM   16  N   UNL     1      -9.385  14.111  67.246  1.00  0.00    -0.216 NA 
HETATM   17  C   UNL     1     -10.270  13.101  67.282  1.00  0.00    -0.243 A  
HETATM   18  C   UNL     1      -8.387  12.273  68.117  1.00  0.00    -0.174 A  
HETATM   19  O   UNL     1      -6.306  11.679  69.001  1.00  0.00    -0.060 OA 
HETATM   20  C   UNL     1      -7.060  14.397  67.834  1.00  0.00    -0.159 C  
HETATM   21  C   UNL     1      -9.673  11.943  67.811  1.00  0.00    -0.189 A  
HETATM   22  N   UNL     1      -8.245  13.577  67.753  1.00  0.00    -0.161 NA 
BRANCH  17  23
HETATM   23  C   UNL     1     -11.663  13.317  66.795  1.00  0.00    -0.434 C  
BRANCH  23  24
HETATM   24  C   UNL     1     -11.915  12.811  65.372  1.00  0.00    -0.482 C  
HETATM   25  C   UNL     1     -11.088  13.529  64.313  1.00  0.00    -0.371 C  
ENDBRANCH  23  24
ENDBRANCH  17  23
ENDBRANCH   6  11
BRANCH   9  26
HETATM   26  S   UNL     1      -9.019   4.768  66.883  1.00  0.00    -0.113 S  
HETATM   27  O   UNL     1      -9.858   3.613  67.105  1.00  0.00    -0.140 OA 
HETATM   28  O   UNL     1      -7.578   4.716  66.960  1.00  0.00    -0.085 OA 
BRANCH  26  29
HETATM   29  N   UNL     1      -9.461   5.392  65.353  1.00  0.00    -0.359 N  
HETATM   30  H   UNL     1     -10.397   5.755  65.172  1.00  0.00     0.000 HD 
BRANCH  29  31
HETATM   31  C   UNL     1      -8.419   5.380  64.306  1.00  0.00    -0.092 C  
BRANCH  31  32
HETATM   32  C   UNL     1      -7.265   6.321  64.634  1.00  0.00    -0.064 C  
BRANCH  32  33
HETATM   33  C   UNL     1      -7.237   7.491  63.632  1.00  0.00    -0.079 C  
HETATM   34  C   UNL     1      -8.518   7.599  62.809  1.00  0.00     0.129 C  
HETATM   35  C   UNL     1      -8.512   9.042  62.364  1.00  0.00    -0.213 C  
HETATM   36  C   UNL     1      -5.751   9.232  64.477  1.00  0.00    -0.068 C  
HETATM   37  N   UNL     1      -7.134   8.794  64.313  1.00  0.00    -0.088 NA 
HETATM   38  C   UNL     1      -7.928   9.777  63.557  1.00  0.00    -0.145 C  
ENDBRANCH  32  33
ENDBRANCH  31  32
ENDBRANCH  29  31
ENDBRANCH  26  29
ENDBRANCH   9  26
ENDBRANCH   4   5
ENDBRANCH   3   4
ENDBRANCH   2   3
TORSDOF 11
ENDMDL
MODEL      220
REMARK 921   NORMALIZED FREE ENERGY PREDICTED BY IDOCK:   -3.75 KCAL/MOL
REMARK 922        TOTAL FREE ENERGY PREDICTED BY IDOCK:   -8.40 KCAL/MOL
REMARK 923 INTER-LIGAND FREE ENERGY PREDICTED BY IDOCK:   -6.82 KCAL/MOL
REMARK 924 INTRA-LIGAND FREE ENERGY PREDICTED BY IDOCK:   -1.58 KCAL/MOL
REMARK 927      BINDING AFFINITY PREDICTED BY RF-SCORE:    0.00 PKD
ROOT
HETATM    1  C   UNL     1      -7.538  12.946  67.496  1.00  0.00    -0.164 C  
HETATM    2  C   UNL     1      -8.540  13.587  68.438  1.00  0.00    -0.142 C  
ENDROOT
BRANCH   2   3
HETATM    3  C   UNL     1      -9.977  13.364  67.997  1.00  0.00    -0.239 C  
BRANCH   3   4
HETATM    4  O   UNL     1     -10.240  11.988  67.669  1.00  0.00    -0.195 OA 
BRANCH   4   5
HETATM    5  C   UNL     1     -10.832  11.257  68.683  1.00  0.00    -0.204 A  
HETATM    6  C   UNL     1     -10.457   9.909  68.898  1.00  0.00    -0.229 A  
HETATM    7  C   UNL     1     -11.122   9.154  69.895  1.00  0.00    -0.175 A  
HETATM    8  C   UNL     1     -11.835  11.815  69.488  1.00  0.00    -0.402 A  
HETATM    9  C   UNL     1     -12.155   9.733  70.644  1.00  0.00    -0.230 A  
HETATM   10  C   UNL     1     -12.513  11.054  70.423  1.00  0.00    -0.397 A  
BRANCH   6  11
HETATM   11  C   UNL     1      -9.378   9.221  68.081  1.00  0.00    -0.134 C  
HETATM   12  C   UNL     1      -7.780   7.506  67.954  1.00  0.00    -0.116 C  
HETATM   13  N   UNL     1      -8.762   8.208  68.636  1.00  0.00    -0.134 N  
HETATM   14  H   UNL     1      -9.008   7.931  69.586  1.00  0.00     0.000 HD 
HETATM   15  N   UNL     1      -9.110   9.716  66.813  1.00  0.00    -0.144 NA 
HETATM   16  N   UNL     1      -6.770   8.277  64.521  1.00  0.00    -0.068 NA 
HETATM   17  C   UNL     1      -7.685   9.224  64.791  1.00  0.00    -0.111 A  
HETATM   18  C   UNL     1      -7.547   7.988  66.630  1.00  0.00    -0.093 A  
HETATM   19  O   UNL     1      -7.166   6.563  68.443  1.00  0.00    -0.080 OA 
HETATM   20  C   UNL     1      -5.831   6.391  65.703  1.00  0.00    -0.025 C  
HETATM   21  C   UNL     1      -8.191   9.062  66.092  1.00  0.00    -0.115 A  
HETATM   22  N   UNL     1      -6.712   7.534  65.656  1.00  0.00    -0.045 NA 
BRANCH  17  23
HETATM   23  C   UNL     1      -8.022  10.245  63.757  1.00  0.00    -0.128 C  
BRANCH  23  24
HETATM   24  C   UNL     1      -9.448  10.139  63.213  1.00  0.00    -0.302 C  
HETATM   25  C   UNL     1     -10.396  11.194  63.770  1.00  0.00    -0.447 C  
ENDBRANCH  23  24
ENDBRANCH  17  23
ENDBRANCH   6  11
BRANCH   9  26
HETATM   26  S   UNL     1     -13.093   8.796  71.831  1.00  0.00    -0.403 S  
HETATM   27  O   UNL     1     -14.065   8.023  71.094  1.00  0.00    -0.245 OA 
HETATM   28  O   UNL     1     -13.457   9.705  72.893  1.00  0.00    -0.073 OA 
BRANCH  26  29
HETATM   29  N   UNL     1     -11.952   7.676  72.438  1.00  0.00    -0.471 N  
HETATM   30  H   UNL     1     -11.043   7.976  72.792  1.00  0.00     0.000 HD 
BRANCH  29  31
HETATM   31  C   UNL     1     -12.348   6.253  72.426  1.00  0.00    -0.024 C  
BRANCH  31  32
HETATM   32  C   UNL     1     -11.237   5.342  72.935  1.00  0.00    -0.372 C  
BRANCH  32  33
HETATM   33  C   UNL     1      -9.916   5.664  72.210  1.00  0.00    -0.172 C  
HETATM   34  C   UNL     1      -8.709   5.662  73.146  1.00  0.00    -0.120 C  
HETATM   35  C   UNL     1      -7.553   5.426  72.204  1.00  0.00    -0.100 C  
HETATM   36  C   UNL     1     -10.103   4.994  69.873  1.00  0.00    -0.274 C  
HETATM   37  N   UNL     1      -9.587   4.650  71.194  1.00  0.00    -0.159 NA 
HETATM   38  C   UNL     1      -8.126   4.468  71.175  1.00  0.00    -0.086 C  
ENDBRANCH  32  33
ENDBRANCH  31  32
ENDBRANCH  29  31
ENDBRANCH  26  29
ENDBRANCH   9  26
ENDBRANCH   4   5
ENDBRANCH   3   4
ENDBRANCH   2   3
TORSDOF 11
ENDMDL
MODEL      221
REMARK 921   NORMALIZED FREE ENERGY PREDICTED BY IDOCK:   -3.74 KCAL/MOL
REMARK 922        TOTAL FREE ENERGY PREDICTED BY IDOCK:   -8.39 KCAL/MOL
REMARK 923 INTER-LIGAND FREE ENERGY PREDICTED BY IDOCK:   -6.87 KCAL/MOL
REMARK 924 INTRA-LIGAND FREE ENERGY PREDICTED BY IDOCK:   -1.52 KCAL/MOL
REMARK 927      BINDING AFFINITY PREDICTED BY RF-SCORE:    0.00 PKD
ROOT
HETATM    1  C   UNL     1      -6.014  15.877  70.335  1.00  0.00    -0.023 C  
HETATM    2  C   UNL     1      -6.395  14.521  69.770  1.00  0.00    -0.148 C  
ENDROOT
BRANCH   2   3
HETATM    3  C   UNL     1      -5.500  13.405  70.282  1.00  0.00    -0.127 C  
BRANCH   3   4
HETATM    4  O   UNL     1      -6.138  12.117  70.208  1.00  0.00    -0.155 OA 
BRANCH   4   5
HETATM    5  C   UNL     1      -6.251  11.605  68.928  1.00  0.00    -0.057 A  
HETATM    6  C   UNL     1      -7.205  10.595  68.651  1.00  0.00    -0.090 A  
HETATM    7  C   UNL     1      -7.261  10.031  67.353  1.00  0.00    -0.085 A  
HETATM    8  C   UNL     1      -5.408  12.038  67.895  1.00  0.00    -0.060 A  
HETATM    9  C   UNL     1      -6.366  10.456  66.362  1.00  0.00    -0.092 A  
HETATM   10  C   UNL     1      -5.437  11.445  66.646  1.00  0.00    -0.135 A  
BRANCH   6  11
HETATM   11  C   UNL     1      -8.163  10.065  69.703  1.00  0.00    -0.175 C  
HETATM   12  C   UNL     1     -10.383   9.867  70.440  1.00  0.00    -0.260 C  
HETATM   13  N   UNL     1      -9.435  10.331  69.541  1.00  0.00    -0.316 N  
HETATM   14  H   UNL     1      -9.733  10.889  68.741  1.00  0.00     0.000 HD 
HETATM   15  N   UNL     1      -7.628   9.351  70.765  1.00  0.00    -0.228 NA 
HETATM   16  N   UNL     1      -9.560   7.802  73.348  1.00  0.00    -0.285 NA 
HETATM   17  C   UNL     1      -8.357   8.061  72.807  1.00  0.00    -0.167 A  
HETATM   18  C   UNL     1      -9.831   9.087  71.502  1.00  0.00    -0.310 A  
HETATM   19  O   UNL     1     -11.581  10.108  70.336  1.00  0.00    -0.273 OA 
HETATM   20  C   UNL     1     -11.853   8.335  72.806  1.00  0.00    -0.205 C  
HETATM   21  C   UNL     1      -8.498   8.851  71.652  1.00  0.00    -0.067 A  
HETATM   22  N   UNL     1     -10.440   8.433  72.529  1.00  0.00    -0.329 NA 
BRANCH  17  23
HETATM   23  C   UNL     1      -7.124   7.521  73.448  1.00  0.00    -0.091 C  
BRANCH  23  24
HETATM   24  C   UNL     1      -6.438   6.410  72.650  1.00  0.00    -0.063 C  
HETATM   25  C   UNL     1      -6.998   5.021  72.930  1.00  0.00    -0.081 C  
ENDBRANCH  23  24
ENDBRANCH  17  23
ENDBRANCH   6  11
BRANCH   9  26
HETATM   26  S   UNL     1      -6.325   9.704  64.750  1.00  0.00    -0.095 S  
HETATM   27  O   UNL     1      -5.698   8.411  64.896  1.00  0.00    -0.044 OA 
HETATM   28  O   UNL     1      -5.845  10.707  63.828  1.00  0.00    -0.116 OA 
BRANCH  26  29
HETATM   29  N   UNL     1      -7.975   9.400  64.415  1.00  0.00    -0.124 N  
HETATM   30  H   UNL     1      -8.386   8.475  64.544  1.00  0.00     0.000 HD 
BRANCH  29  31
HETATM   31  C   UNL     1      -8.773  10.544  63.930  1.00  0.00    -0.171 C  
BRANCH  31  32
HETATM   32  C   UNL     1     -10.171  10.568  64.539  1.00  0.00    -0.355 C  
BRANCH  32  33
HETATM   33  C   UNL     1     -10.698  12.015  64.595  1.00  0.00    -0.309 C  
HETATM   34  C   UNL     1     -12.126  12.148  64.070  1.00  0.00    -0.540 C  
HETATM   35  C   UNL     1     -12.606  13.423  64.721  1.00  0.00    -0.370 C  
HETATM   36  C   UNL     1      -9.555  13.213  66.386  1.00  0.00    -0.255 C  
HETATM   37  N   UNL     1     -10.772  12.518  65.977  1.00  0.00    -0.257 NA 
HETATM   38  C   UNL     1     -11.956  13.386  66.093  1.00  0.00    -0.413 C  
ENDBRANCH  32  33
ENDBRANCH  31  32
ENDBRANCH  29  31
ENDBRANCH  26  29
ENDBRANCH   9  26
ENDBRANCH   4   5
ENDBRANCH   3   4
ENDBRANCH   2   3
TORSDOF 11
ENDMDL
MODEL      222
REMARK 921   NORMALIZED FREE ENERGY PREDICTED BY IDOCK:   -3.74 KCAL/MOL
REMARK 922        TOTAL FREE ENERGY PREDICTED BY IDOCK:   -8.38 KCAL/MOL
REMARK 923 INTER-LIGAND FREE ENERGY PREDICTED BY IDOCK:   -6.28 KCAL/MOL
REMARK 924 INTRA-LIGAND FREE ENERGY PREDICTED BY IDOCK:   -2.09 KCAL/MOL
REMARK 927      BINDING AFFINITY PREDICTED BY RF-SCORE:    0.00 PKD
ROOT
HETATM    1  C   UNL     1      -8.098   7.823  73.921  1.00  0.00    -0.246 C  
HETATM    2  C   UNL     1      -7.157   8.171  72.782  1.00  0.00    -0.120 C  
ENDROOT
BRANCH   2   3
HETATM    3  C   UNL     1      -7.881   8.312  71.453  1.00  0.00    -0.106 C  
BRANCH   3   4
HETATM    4  O   UNL     1      -7.032   8.857  70.426  1.00  0.00    -0.041 OA 
BRANCH   4   5
HETATM    5  C   UNL     1      -7.144   8.232  69.197  1.00  0.00    -0.064 A  
HETATM    6  C   UNL     1      -7.960   8.796  68.186  1.00  0.00    -0.106 A  
HETATM    7  C   UNL     1      -8.119   8.109  66.958  1.00  0.00    -0.108 A  
HETATM    8  C   UNL     1      -6.492   7.018  68.938  1.00  0.00    -0.029 A  
HETATM    9  C   UNL     1      -7.491   6.872  66.758  1.00  0.00    -0.082 A  
HETATM   10  C   UNL     1      -6.696   6.330  67.755  1.00  0.00    -0.064 A  
BRANCH   6  11
HETATM   11  C   UNL     1      -8.701  10.109  68.372  1.00  0.00    -0.123 C  
HETATM   12  C   UNL     1      -8.706  12.438  68.085  1.00  0.00    -0.190 C  
HETATM   13  N   UNL     1      -8.094  11.199  67.975  1.00  0.00    -0.118 N  
HETATM   14  H   UNL     1      -7.157  11.135  67.579  1.00  0.00     0.000 HD 
HETATM   15  N   UNL     1      -9.957  10.066  68.959  1.00  0.00    -0.185 NA 
HETATM   16  N   UNL     1     -12.083  12.906  69.418  1.00  0.00    -0.245 NA 
HETATM   17  C   UNL     1     -11.882  11.584  69.550  1.00  0.00    -0.351 A  
HETATM   18  C   UNL     1     -10.021  12.381  68.640  1.00  0.00    -0.107 A  
HETATM   19  O   UNL     1      -8.167  13.486  67.742  1.00  0.00    -0.147 OA 
HETATM   20  C   UNL     1     -10.819  14.769  68.540  1.00  0.00    -0.252 C  
HETATM   21  C   UNL     1     -10.611  11.229  69.066  1.00  0.00    -0.208 A  
HETATM   22  N   UNL     1     -10.936  13.365  68.854  1.00  0.00    -0.256 NA 
BRANCH  17  23
HETATM   23  C   UNL     1     -12.949  10.729  70.146  1.00  0.00    -0.050 C  
BRANCH  23  24
HETATM   24  C   UNL     1     -13.021  10.792  71.673  1.00  0.00    -0.581 C  
HETATM   25  C   UNL     1     -13.597   9.533  72.310  1.00  0.00    -0.494 C  
ENDBRANCH  23  24
ENDBRANCH  17  23
ENDBRANCH   6  11
BRANCH   9  26
HETATM   26  S   UNL     1      -7.747   5.919  65.277  1.00  0.00    -0.101 S  
HETATM   27  O   UNL     1      -6.916   4.742  65.376  1.00  0.00    -0.059 OA 
HETATM   28  O   UNL     1      -7.673   6.839  64.166  1.00  0.00    -0.102 OA 
BRANCH  26  29
HETATM   29  N   UNL     1      -9.363   5.379  65.431  1.00  0.00    -0.338 N  
HETATM   30  H   UNL     1     -10.102   5.720  64.817  1.00  0.00     0.000 HD 
BRANCH  29  31
HETATM   31  C   UNL     1      -9.633   4.393  66.498  1.00  0.00    -0.197 C  
BRANCH  31  32
HETATM   32  C   UNL     1     -10.387   5.009  67.672  1.00  0.00    -0.131 C  
BRANCH  32  33
HETATM   33  C   UNL     1      -9.570   4.847  68.968  1.00  0.00    -0.157 C  
HETATM   34  C   UNL     1     -10.094   5.712  70.112  1.00  0.00    -0.293 C  
HETATM   35  C   UNL     1      -9.565   5.005  71.338  1.00  0.00    -0.220 C  
HETATM   36  C   UNL     1      -8.553   2.630  69.001  1.00  0.00    -0.074 C  
HETATM   37  N   UNL     1      -9.639   3.472  69.492  1.00  0.00    -0.163 NA 
HETATM   38  C   UNL     1      -9.653   3.536  70.963  1.00  0.00    -0.173 C  
ENDBRANCH  32  33
ENDBRANCH  31  32
ENDBRANCH  29  31
ENDBRANCH  26  29
ENDBRANCH   9  26
ENDBRANCH   4   5
ENDBRANCH   3   4
ENDBRANCH   2   3
TORSDOF 11
ENDMDL
MODEL      223
REMARK 921   NORMALIZED FREE ENERGY PREDICTED BY IDOCK:   -3.73 KCAL/MOL
REMARK 922        TOTAL FREE ENERGY PREDICTED BY IDOCK:   -8.36 KCAL/MOL
REMARK 923 INTER-LIGAND FREE ENERGY PREDICTED BY IDOCK:   -7.40 KCAL/MOL
REMARK 924 INTRA-LIGAND FREE ENERGY PREDICTED BY IDOCK:   -0.96 KCAL/MOL
REMARK 927      BINDING AFFINITY PREDICTED BY RF-SCORE:    0.00 PKD
ROOT
HETATM    1  C   UNL     1      -5.125  10.595  73.960  1.00  0.00     0.187 C  
HETATM    2  C   UNL     1      -5.330   9.121  73.663  1.00  0.00    -0.107 C  
ENDROOT
BRANCH   2   3
HETATM    3  C   UNL     1      -6.718   8.826  73.120  1.00  0.00     0.101 C  
BRANCH   3   4
HETATM    4  O   UNL     1      -6.675   8.221  71.814  1.00  0.00    -0.057 OA 
BRANCH   4   5
HETATM    5  C   UNL     1      -6.606   9.122  70.766  1.00  0.00    -0.074 A  
HETATM    6  C   UNL     1      -7.793   9.557  70.127  1.00  0.00    -0.168 A  
HETATM    7  C   UNL     1      -7.702  10.425  69.011  1.00  0.00    -0.116 A  
HETATM    8  C   UNL     1      -5.373   9.588  70.289  1.00  0.00    -0.028 A  
HETATM    9  C   UNL     1      -6.447  10.828  68.534  1.00  0.00    -0.054 A  
HETATM   10  C   UNL     1      -5.294  10.393  69.167  1.00  0.00    -0.038 A  
BRANCH   6  11
HETATM   11  C   UNL     1      -9.174   9.111  70.575  1.00  0.00    -0.241 C  
HETATM   12  C   UNL     1     -11.417   9.690  70.954  1.00  0.00    -0.353 C  
HETATM   13  N   UNL     1     -10.121  10.014  70.582  1.00  0.00    -0.358 N  
HETATM   14  H   UNL     1      -9.903  10.972  70.309  1.00  0.00     0.000 HD 
HETATM   15  N   UNL     1      -9.334   7.787  70.958  1.00  0.00    -0.151 NA 
HETATM   16  N   UNL     1     -12.450   6.312  71.913  1.00  0.00    -0.198 NA 
HETATM   17  C   UNL     1     -11.131   6.178  71.695  1.00  0.00    -0.276 A  
HETATM   18  C   UNL     1     -11.587   8.313  71.295  1.00  0.00    -0.281 A  
HETATM   19  O   UNL     1     -12.330  10.508  70.991  1.00  0.00    -0.328 OA 
HETATM   20  C   UNL     1     -14.054   8.112  71.765  1.00  0.00    -0.439 C  
HETATM   21  C   UNL     1     -10.571   7.405  71.300  1.00  0.00    -0.216 A  
HETATM   22  N   UNL     1     -12.702   7.620  71.655  1.00  0.00    -0.334 NA 
BRANCH  17  23
HETATM   23  C   UNL     1     -10.479   4.849  71.884  1.00  0.00    -0.233 C  
BRANCH  23  24
HETATM   24  C   UNL     1      -9.778   4.682  73.233  1.00  0.00    -0.154 C  
HETATM   25  C   UNL     1     -10.660   4.060  74.308  1.00  0.00    -0.277 C  
ENDBRANCH  23  24
ENDBRANCH  17  23
ENDBRANCH   6  11
BRANCH   9  26
HETATM   26  S   UNL     1      -6.277  11.827  67.071  1.00  0.00    -0.136 S  
HETATM   27  O   UNL     1      -6.141  10.926  65.951  1.00  0.00    -0.133 OA 
HETATM   28  O   UNL     1      -5.308  12.854  67.374  1.00  0.00    -0.277 OA 
BRANCH  26  29
HETATM   29  N   UNL     1      -7.815  12.559  66.913  1.00  0.00    -0.386 N  
HETATM   30  H   UNL     1      -8.560  12.126  66.367  1.00  0.00     0.000 HD 
BRANCH  29  31
HETATM   31  C   UNL     1      -8.010  13.847  67.608  1.00  0.00    -0.175 C  
BRANCH  31  32
HETATM   32  C   UNL     1      -8.912  14.793  66.823  1.00  0.00    -0.292 C  
BRANCH  32  33
HETATM   33  C   UNL     1      -9.052  16.133  67.570  1.00  0.00    -0.203 C  
HETATM   34  C   UNL     1      -8.254  17.262  66.921  1.00  0.00    -0.256 C  
HETATM   35  C   UNL     1      -8.955  18.502  67.424  1.00  0.00    -0.280 C  
HETATM   36  C   UNL     1     -11.195  16.180  68.734  1.00  0.00    -0.365 C  
HETATM   37  N   UNL     1     -10.441  16.622  67.565  1.00  0.00    -0.312 NA 
HETATM   38  C   UNL     1     -10.416  18.091  67.459  1.00  0.00    -0.396 C  
ENDBRANCH  32  33
ENDBRANCH  31  32
ENDBRANCH  29  31
ENDBRANCH  26  29
ENDBRANCH   9  26
ENDBRANCH   4   5
ENDBRANCH   3   4
ENDBRANCH   2   3
TORSDOF 11
ENDMDL
MODEL      224
REMARK 921   NORMALIZED FREE ENERGY PREDICTED BY IDOCK:   -3.72 KCAL/MOL
REMARK 922        TOTAL FREE ENERGY PREDICTED BY IDOCK:   -8.34 KCAL/MOL
REMARK 923 INTER-LIGAND FREE ENERGY PREDICTED BY IDOCK:   -6.84 KCAL/MOL
REMARK 924 INTRA-LIGAND FREE ENERGY PREDICTED BY IDOCK:   -1.50 KCAL/MOL
REMARK 927      BINDING AFFINITY PREDICTED BY RF-SCORE:    0.00 PKD
ROOT
HETATM    1  C   UNL     1     -10.663   3.760  62.398  1.00  0.00    -0.185 C  
HETATM    2  C   UNL     1     -10.749   3.138  63.780  1.00  0.00    -0.202 C  
ENDROOT
BRANCH   2   3
HETATM    3  C   UNL     1     -10.445   4.135  64.886  1.00  0.00    -0.173 C  
BRANCH   3   4
HETATM    4  O   UNL     1      -9.134   3.942  65.449  1.00  0.00    -0.130 OA 
BRANCH   4   5
HETATM    5  C   UNL     1      -9.044   4.212  66.802  1.00  0.00    -0.137 A  
HETATM    6  C   UNL     1      -8.556   5.466  67.243  1.00  0.00    -0.108 A  
HETATM    7  C   UNL     1      -8.404   5.702  68.632  1.00  0.00    -0.106 A  
HETATM    8  C   UNL     1      -9.391   3.249  67.759  1.00  0.00    -0.246 A  
HETATM    9  C   UNL     1      -8.715   4.694  69.555  1.00  0.00    -0.082 A  
HETATM   10  C   UNL     1      -9.191   3.471  69.110  1.00  0.00    -0.225 A  
BRANCH   6  11
HETATM   11  C   UNL     1      -8.159   6.573  66.283  1.00  0.00    -0.115 C  
HETATM   12  C   UNL     1      -6.695   7.305  64.600  1.00  0.00    -0.043 C  
HETATM   13  N   UNL     1      -7.115   6.359  65.523  1.00  0.00    -0.063 N  
HETATM   14  H   UNL     1      -6.601   5.483  65.611  1.00  0.00     0.000 HD 
HETATM   15  N   UNL     1      -8.917   7.735  66.284  1.00  0.00    -0.168 NA 
HETATM   16  N   UNL     1      -8.411  10.495  64.064  1.00  0.00    -0.135 NA 
HETATM   17  C   UNL     1      -9.111   9.935  65.066  1.00  0.00    -0.218 A  
HETATM   18  C   UNL     1      -7.512   8.477  64.569  1.00  0.00    -0.105 A  
HETATM   19  O   UNL     1      -5.713   7.153  63.882  1.00  0.00    -0.032 OA 
HETATM   20  C   UNL     1      -6.518   9.853  62.707  1.00  0.00    -0.117 C  
HETATM   21  C   UNL     1      -8.579   8.676  65.393  1.00  0.00    -0.181 A  
HETATM   22  N   UNL     1      -7.448   9.581  63.777  1.00  0.00    -0.112 NA 
BRANCH  17  23
HETATM   23  C   UNL     1     -10.271  10.663  65.656  1.00  0.00    -0.319 C  
BRANCH  23  24
HETATM   24  C   UNL     1      -9.988  12.131  65.984  1.00  0.00    -0.257 C  
HETATM   25  C   UNL     1     -10.642  13.110  65.017  1.00  0.00    -0.347 C  
ENDBRANCH  23  24
ENDBRANCH  17  23
ENDBRANCH   6  11
BRANCH   9  26
HETATM   26  S   UNL     1      -8.438   4.903  71.300  1.00  0.00    -0.117 S  
HETATM   27  O   UNL     1      -7.052   5.266  71.474  1.00  0.00    -0.062 OA 
HETATM   28  O   UNL     1      -9.041   3.768  71.961  1.00  0.00    -0.109 OA 
BRANCH  26  29
HETATM   29  N   UNL     1      -9.350   6.301  71.678  1.00  0.00    -0.148 N  
HETATM   30  H   UNL     1      -8.902   7.166  71.980  1.00  0.00     0.000 HD 
BRANCH  29  31
HETATM   31  C   UNL     1     -10.817   6.191  71.545  1.00  0.00    -0.261 C  
BRANCH  31  32
HETATM   32  C   UNL     1     -11.551   7.178  72.445  1.00  0.00    -0.292 C  
BRANCH  32  33
HETATM   33  C   UNL     1     -12.289   8.226  71.590  1.00  0.00    -0.315 C  
HETATM   34  C   UNL     1     -13.330   9.013  72.382  1.00  0.00    -0.516 C  
HETATM   35  C   UNL     1     -13.487  10.276  71.569  1.00  0.00    -0.336 C  
HETATM   36  C   UNL     1     -10.839   8.924  69.756  1.00  0.00    -0.200 C  
HETATM   37  N   UNL     1     -11.371   9.257  71.074  1.00  0.00    -0.293 NA 
HETATM   38  C   UNL     1     -12.081  10.547  71.062  1.00  0.00    -0.387 C  
ENDBRANCH  32  33
ENDBRANCH  31  32
ENDBRANCH  29  31
ENDBRANCH  26  29
ENDBRANCH   9  26
ENDBRANCH   4   5
ENDBRANCH   3   4
ENDBRANCH   2   3
TORSDOF 11
ENDMDL
MODEL      225
REMARK 921   NORMALIZED FREE ENERGY PREDICTED BY IDOCK:   -3.70 KCAL/MOL
REMARK 922        TOTAL FREE ENERGY PREDICTED BY IDOCK:   -8.31 KCAL/MOL
REMARK 923 INTER-LIGAND FREE ENERGY PREDICTED BY IDOCK:   -6.66 KCAL/MOL
REMARK 924 INTRA-LIGAND FREE ENERGY PREDICTED BY IDOCK:   -1.65 KCAL/MOL
REMARK 927      BINDING AFFINITY PREDICTED BY RF-SCORE:    0.00 PKD
ROOT
HETATM    1  C   UNL     1      -6.422  15.376  69.644  1.00  0.00    -0.171 C  
HETATM    2  C   UNL     1      -5.952  13.936  69.745  1.00  0.00    -0.124 C  
ENDROOT
BRANCH   2   3
HETATM    3  C   UNL     1      -5.159  13.497  68.525  1.00  0.00    -0.081 C  
BRANCH   3   4
HETATM    4  O   UNL     1      -5.988  13.366  67.355  1.00  0.00    -0.331 OA 
BRANCH   4   5
HETATM    5  C   UNL     1      -6.881  12.311  67.399  1.00  0.00    -0.145 A  
HETATM    6  C   UNL     1      -8.268  12.562  67.535  1.00  0.00    -0.175 A  
HETATM    7  C   UNL     1      -9.163  11.470  67.649  1.00  0.00    -0.171 A  
HETATM    8  C   UNL     1      -6.437  10.982  67.351  1.00  0.00    -0.067 A  
HETATM    9  C   UNL     1      -8.674  10.156  67.647  1.00  0.00    -0.121 A  
HETATM   10  C   UNL     1      -7.314   9.924  67.515  1.00  0.00    -0.090 A  
BRANCH   6  11
HETATM   11  C   UNL     1      -8.843  13.966  67.591  1.00  0.00    -0.191 C  
HETATM   12  C   UNL     1      -8.975  16.093  66.607  1.00  0.00    -0.255 C  
HETATM   13  N   UNL     1      -8.481  14.798  66.647  1.00  0.00    -0.422 N  
HETATM   14  H   UNL     1      -7.824  14.489  65.931  1.00  0.00     0.000 HD 
HETATM   15  N   UNL     1      -9.698  14.275  68.639  1.00  0.00    -0.227 NA 
HETATM   16  N   UNL     1     -11.382  17.407  69.032  1.00  0.00     0.596 NA 
HETATM   17  C   UNL     1     -11.145  16.162  69.479  1.00  0.00    -0.344 A  
HETATM   18  C   UNL     1      -9.896  16.388  67.658  1.00  0.00    -0.243 A  
HETATM   19  O   UNL     1      -8.648  16.910  65.752  1.00  0.00    -0.505 OA 
HETATM   20  C   UNL     1     -10.650  18.739  67.154  1.00  0.00    -0.428 C  
HETATM   21  C   UNL     1     -10.232  15.503  68.638  1.00  0.00    -0.216 A  
HETATM   22  N   UNL     1     -10.614  17.514  67.917  1.00  0.00    -0.391 NA 
BRANCH  17  23
HETATM   23  C   UNL     1     -11.828  15.676  70.713  1.00  0.00    -0.421 C  
BRANCH  23  24
HETATM   24  C   UNL     1     -12.911  14.625  70.457  1.00  0.00    -0.371 C  
HETATM   25  C   UNL     1     -13.460  13.991  71.729  1.00  0.00    -0.473 C  
ENDBRANCH  23  24
ENDBRANCH  17  23
ENDBRANCH   6  11
BRANCH   9  26
HETATM   26  S   UNL     1      -9.744   8.757  67.896  1.00  0.00    -0.164 S  
HETATM   27  O   UNL     1     -11.103   9.239  67.823  1.00  0.00    -0.110 OA 
HETATM   28  O   UNL     1      -9.230   8.030  69.034  1.00  0.00    -0.148 OA 
BRANCH  26  29
HETATM   29  N   UNL     1      -9.493   7.815  66.490  1.00  0.00    -0.212 N  
HETATM   30  H   UNL     1      -9.074   8.211  65.648  1.00  0.00     0.000 HD 
BRANCH  29  31
HETATM   31  C   UNL     1      -9.913   6.401  66.557  1.00  0.00    -0.103 C  
BRANCH  31  32
HETATM   32  C   UNL     1      -9.138   5.524  65.580  1.00  0.00    -0.101 C  
BRANCH  32  33
HETATM   33  C   UNL     1     -10.003   4.327  65.142  1.00  0.00    -0.204 C  
HETATM   34  C   UNL     1     -10.517   4.457  63.710  1.00  0.00     0.183 C  
HETATM   35  C   UNL     1     -10.810   3.026  63.326  1.00  0.00    -0.214 C  
HETATM   36  C   UNL     1      -9.332   2.351  66.406  1.00  0.00     0.069 C  
HETATM   37  N   UNL     1      -9.237   3.069  65.138  1.00  0.00    -0.148 NA 
HETATM   38  C   UNL     1      -9.704   2.244  64.011  1.00  0.00    -0.139 C  
ENDBRANCH  32  33
ENDBRANCH  31  32
ENDBRANCH  29  31
ENDBRANCH  26  29
ENDBRANCH   9  26
ENDBRANCH   4   5
ENDBRANCH   3   4
ENDBRANCH   2   3
TORSDOF 11
ENDMDL
MODEL      226
REMARK 921   NORMALIZED FREE ENERGY PREDICTED BY IDOCK:   -3.68 KCAL/MOL
REMARK 922        TOTAL FREE ENERGY PREDICTED BY IDOCK:   -8.29 KCAL/MOL
REMARK 923 INTER-LIGAND FREE ENERGY PREDICTED BY IDOCK:   -7.73 KCAL/MOL
REMARK 924 INTRA-LIGAND FREE ENERGY PREDICTED BY IDOCK:   -0.55 KCAL/MOL
REMARK 927      BINDING AFFINITY PREDICTED BY RF-SCORE:    0.00 PKD
ROOT
HETATM    1  C   UNL     1      -8.307   8.781  64.684  1.00  0.00    -0.175 C  
HETATM    2  C   UNL     1      -7.500   9.331  65.846  1.00  0.00    -0.095 C  
ENDROOT
BRANCH   2   3
HETATM    3  C   UNL     1      -7.937   8.753  67.181  1.00  0.00    -0.096 C  
BRANCH   3   4
HETATM    4  O   UNL     1      -7.763   9.687  68.263  1.00  0.00    -0.082 OA 
BRANCH   4   5
HETATM    5  C   UNL     1      -8.236  10.961  68.004  1.00  0.00    -0.121 A  
HETATM    6  C   UNL     1      -9.449  11.399  68.589  1.00  0.00    -0.168 A  
HETATM    7  C   UNL     1      -9.955  12.680  68.259  1.00  0.00    -0.229 A  
HETATM    8  C   UNL     1      -7.555  11.824  67.134  1.00  0.00    -0.155 A  
HETATM    9  C   UNL     1      -9.270  13.493  67.345  1.00  0.00    -0.223 A  
HETATM   10  C   UNL     1      -8.085  13.052  66.779  1.00  0.00     0.172 A  
BRANCH   6  11
HETATM   11  C   UNL     1     -10.253  10.537  69.546  1.00  0.00    -0.200 C  
HETATM   12  C   UNL     1     -10.504   8.458  70.604  1.00  0.00    -0.200 C  
HETATM   13  N   UNL     1      -9.844   9.308  69.731  1.00  0.00    -0.178 N  
HETATM   14  H   UNL     1      -9.026   8.970  69.224  1.00  0.00     0.000 HD 
HETATM   15  N   UNL     1     -11.369  11.103  70.145  1.00  0.00    -0.256 NA 
HETATM   16  N   UNL     1     -13.422   9.464  72.574  1.00  0.00    -0.427 NA 
HETATM   17  C   UNL     1     -13.154  10.559  71.843  1.00  0.00    -0.462 A  
HETATM   18  C   UNL     1     -11.620   9.063  71.259  1.00  0.00    -0.317 A  
HETATM   19  O   UNL     1     -10.166   7.294  70.794  1.00  0.00    -0.197 OA 
HETATM   20  C   UNL     1     -12.441   7.271  72.829  1.00  0.00     0.501 C  
HETATM   21  C   UNL     1     -12.033  10.340  71.023  1.00  0.00    -0.385 A  
HETATM   22  N   UNL     1     -12.468   8.571  72.204  1.00  0.00    -0.357 NA 
BRANCH  17  23
HETATM   23  C   UNL     1     -14.011  11.771  71.982  1.00  0.00     0.489 C  
BRANCH  23  24
HETATM   24  C   UNL     1     -13.239  13.050  72.316  1.00  0.00    -0.539 C  
HETATM   25  C   UNL     1     -13.284  14.098  71.211  1.00  0.00    -0.399 C  
ENDBRANCH  23  24
ENDBRANCH  17  23
ENDBRANCH   6  11
BRANCH   9  26
HETATM   26  S   UNL     1      -9.920  15.063  66.816  1.00  0.00    -0.255 S  
HETATM   27  O   UNL     1     -11.260  14.830  66.330  1.00  0.00    -0.336 OA 
HETATM   28  O   UNL     1      -8.896  15.696  66.018  1.00  0.00    -0.318 OA 
BRANCH  26  29
HETATM   29  N   UNL     1     -10.086  15.934  68.279  1.00  0.00    -0.221 N  
HETATM   30  H   UNL     1      -9.676  15.599  69.151  1.00  0.00     0.000 HD 
BRANCH  29  31
HETATM   31  C   UNL     1     -10.853  17.195  68.216  1.00  0.00    -0.314 C  
BRANCH  31  32
HETATM   32  C   UNL     1     -10.240  18.284  69.090  1.00  0.00    -0.104 C  
BRANCH  32  33
HETATM   33  C   UNL     1      -9.302  19.171  68.249  1.00  0.00    -0.344 C  
HETATM   34  C   UNL     1      -7.828  18.970  68.593  1.00  0.00    -0.383 C  
HETATM   35  C   UNL     1      -7.123  19.450  67.346  1.00  0.00    -0.232 C  
HETATM   36  C   UNL     1     -10.372  19.667  66.114  1.00  0.00    -0.530 C  
HETATM   37  N   UNL     1      -9.385  18.851  66.814  1.00  0.00    -0.310 NA 
HETATM   38  C   UNL     1      -8.043  19.000  66.226  1.00  0.00    -0.285 C  
ENDBRANCH  32  33
ENDBRANCH  31  32
ENDBRANCH  29  31
ENDBRANCH  26  29
ENDBRANCH   9  26
ENDBRANCH   4   5
ENDBRANCH   3   4
ENDBRANCH   2   3
TORSDOF 11
ENDMDL
MODEL      227
REMARK 921   NORMALIZED FREE ENERGY PREDICTED BY IDOCK:   -3.68 KCAL/MOL
REMARK 922        TOTAL FREE ENERGY PREDICTED BY IDOCK:   -8.28 KCAL/MOL
REMARK 923 INTER-LIGAND FREE ENERGY PREDICTED BY IDOCK:   -6.47 KCAL/MOL
REMARK 924 INTRA-LIGAND FREE ENERGY PREDICTED BY IDOCK:   -1.81 KCAL/MOL
REMARK 927      BINDING AFFINITY PREDICTED BY RF-SCORE:    0.00 PKD
ROOT
HETATM    1  C   UNL     1     -10.810   5.993  68.188  1.00  0.00    -0.365 C  
HETATM    2  C   UNL     1     -10.846   6.473  66.749  1.00  0.00    -0.345 C  
ENDROOT
BRANCH   2   3
HETATM    3  C   UNL     1      -9.458   6.738  66.191  1.00  0.00    -0.006 C  
BRANCH   3   4
HETATM    4  O   UNL     1      -8.464   6.842  67.227  1.00  0.00    -0.120 OA 
BRANCH   4   5
HETATM    5  C   UNL     1      -8.048   8.133  67.498  1.00  0.00    -0.123 A  
HETATM    6  C   UNL     1      -7.740   8.514  68.827  1.00  0.00    -0.102 A  
HETATM    7  C   UNL     1      -7.384   9.858  69.098  1.00  0.00    -0.083 A  
HETATM    8  C   UNL     1      -7.962   9.096  66.483  1.00  0.00    -0.100 A  
HETATM    9  C   UNL     1      -7.358  10.802  68.063  1.00  0.00    -0.088 A  
HETATM   10  C   UNL     1      -7.663  10.417  66.767  1.00  0.00    -0.114 A  
BRANCH   6  11
HETATM   11  C   UNL     1      -7.801   7.542  69.991  1.00  0.00    -0.099 C  
HETATM   12  C   UNL     1      -6.767   5.793  71.167  1.00  0.00    -0.057 C  
HETATM   13  N   UNL     1      -6.805   6.701  70.120  1.00  0.00    -0.059 N  
HETATM   14  H   UNL     1      -6.047   6.714  69.439  1.00  0.00     0.000 HD 
HETATM   15  N   UNL     1      -8.906   7.600  70.827  1.00  0.00    -0.143 NA 
HETATM   16  N   UNL     1      -9.342   5.600  73.762  1.00  0.00    -0.136 NA 
HETATM   17  C   UNL     1      -9.806   6.557  72.941  1.00  0.00    -0.163 A  
HETATM   18  C   UNL     1      -7.881   5.894  72.054  1.00  0.00    -0.106 A  
HETATM   19  O   UNL     1      -5.863   4.976  71.315  1.00  0.00    -0.015 OA 
HETATM   20  C   UNL     1      -7.370   4.207  73.855  1.00  0.00    -0.068 C  
HETATM   21  C   UNL     1      -8.913   6.767  71.875  1.00  0.00    -0.135 A  
HETATM   22  N   UNL     1      -8.165   5.220  73.202  1.00  0.00    -0.111 NA 
BRANCH  17  23
HETATM   23  C   UNL     1     -11.107   7.223  73.239  1.00  0.00    -0.281 C  
BRANCH  23  24
HETATM   24  C   UNL     1     -12.074   7.267  72.055  1.00  0.00    -0.327 C  
HETATM   25  C   UNL     1     -12.548   8.672  71.704  1.00  0.00    -0.381 C  
ENDBRANCH  23  24
ENDBRANCH  17  23
ENDBRANCH   6  11
BRANCH   9  26
HETATM   26  S   UNL     1      -7.023  12.523  68.370  1.00  0.00    -0.105 S  
HETATM   27  O   UNL     1      -6.629  13.113  67.113  1.00  0.00    -0.192 OA 
HETATM   28  O   UNL     1      -6.203  12.586  69.558  1.00  0.00    -0.105 OA 
BRANCH  26  29
HETATM   29  N   UNL     1      -8.566  13.164  68.738  1.00  0.00    -0.373 N  
HETATM   30  H   UNL     1      -8.862  13.329  69.700  1.00  0.00     0.000 HD 
BRANCH  29  31
HETATM   31  C   UNL     1      -9.447  13.468  67.592  1.00  0.00    -0.222 C  
BRANCH  31  32
HETATM   32  C   UNL     1     -10.838  13.908  68.037  1.00  0.00    -0.259 C  
BRANCH  32  33
HETATM   33  C   UNL     1     -11.117  15.345  67.557  1.00  0.00    -0.315 C  
HETATM   34  C   UNL     1     -10.370  16.399  68.371  1.00  0.00    -0.282 C  
HETATM   35  C   UNL     1     -10.322  17.579  67.431  1.00  0.00    -0.351 C  
HETATM   36  C   UNL     1     -11.697  15.297  65.188  1.00  0.00    -0.114 C  
HETATM   37  N   UNL     1     -10.654  15.561  66.175  1.00  0.00    -0.307 NA 
HETATM   38  C   UNL     1     -10.140  16.936  66.067  1.00  0.00    -0.319 C  
ENDBRANCH  32  33
ENDBRANCH  31  32
ENDBRANCH  29  31
ENDBRANCH  26  29
ENDBRANCH   9  26
ENDBRANCH   4   5
ENDBRANCH   3   4
ENDBRANCH   2   3
TORSDOF 11
ENDMDL
MODEL      228
REMARK 921   NORMALIZED FREE ENERGY PREDICTED BY IDOCK:   -3.66 KCAL/MOL
REMARK 922        TOTAL FREE ENERGY PREDICTED BY IDOCK:   -8.24 KCAL/MOL
REMARK 923 INTER-LIGAND FREE ENERGY PREDICTED BY IDOCK:   -7.00 KCAL/MOL
REMARK 924 INTRA-LIGAND FREE ENERGY PREDICTED BY IDOCK:   -1.24 KCAL/MOL
REMARK 927      BINDING AFFINITY PREDICTED BY RF-SCORE:    0.00 PKD
ROOT
HETATM    1  C   UNL     1      -6.375   7.010  64.221  1.00  0.00    -0.036 C  
HETATM    2  C   UNL     1      -6.852   8.436  64.430  1.00  0.00    -0.069 C  
ENDROOT
BRANCH   2   3
HETATM    3  C   UNL     1      -7.873   8.548  65.550  1.00  0.00    -0.104 C  
BRANCH   3   4
HETATM    4  O   UNL     1      -7.261   8.505  66.852  1.00  0.00    -0.074 OA 
BRANCH   4   5
HETATM    5  C   UNL     1      -7.031   9.745  67.421  1.00  0.00    -0.084 A  
HETATM    6  C   UNL     1      -7.722  10.124  68.597  1.00  0.00    -0.092 A  
HETATM    7  C   UNL     1      -7.528  11.423  69.128  1.00  0.00    -0.057 A  
HETATM    8  C   UNL     1      -6.149  10.661  66.831  1.00  0.00    -0.065 A  
HETATM    9  C   UNL     1      -6.676  12.327  68.480  1.00  0.00    -0.076 A  
HETATM   10  C   UNL     1      -6.006  11.944  67.329  1.00  0.00    -0.134 A  
BRANCH   6  11
HETATM   11  C   UNL     1      -8.692   9.198  69.309  1.00  0.00    -0.139 C  
HETATM   12  C   UNL     1     -10.395   8.964  70.908  1.00  0.00    -0.240 C  
HETATM   13  N   UNL     1      -9.463   9.730  70.225  1.00  0.00    -0.340 N  
HETATM   14  H   UNL     1      -9.376  10.723  70.438  1.00  0.00     0.000 HD 
HETATM   15  N   UNL     1      -8.687   7.858  68.954  1.00  0.00    -0.135 NA 
HETATM   16  N   UNL     1     -10.926   5.398  70.274  1.00  0.00    -0.152 NA 
HETATM   17  C   UNL     1      -9.914   5.709  69.446  1.00  0.00    -0.197 A  
HETATM   18  C   UNL     1     -10.422   7.596  70.500  1.00  0.00    -0.220 A  
HETATM   19  O   UNL     1     -11.124   9.417  71.785  1.00  0.00    -0.370 OA 
HETATM   20  C   UNL     1     -12.302   6.603  71.853  1.00  0.00    -0.318 C  
HETATM   21  C   UNL     1      -9.587   7.071  69.559  1.00  0.00    -0.153 A  
HETATM   22  N   UNL     1     -11.221   6.567  70.897  1.00  0.00    -0.293 NA 
BRANCH  17  23
HETATM   23  C   UNL     1      -9.314   4.653  68.580  1.00  0.00    -0.190 C  
BRANCH  23  24
HETATM   24  C   UNL     1      -9.181   5.051  67.108  1.00  0.00    -0.124 C  
HETATM   25  C   UNL     1     -10.517   5.182  66.387  1.00  0.00    -0.356 C  
ENDBRANCH  23  24
ENDBRANCH  17  23
ENDBRANCH   6  11
BRANCH   9  26
HETATM   26  S   UNL     1      -6.483  14.004  69.045  1.00  0.00    -0.107 S  
HETATM   27  O   UNL     1      -5.931  14.764  67.949  1.00  0.00    -0.141 OA 
HETATM   28  O   UNL     1      -5.861  13.940  70.347  1.00  0.00    -0.134 OA 
BRANCH  26  29
HETATM   29  N   UNL     1      -8.095  14.542  69.237  1.00  0.00    -0.354 N  
HETATM   30  H   UNL     1      -8.342  15.263  69.916  1.00  0.00     0.000 HD 
BRANCH  29  31
HETATM   31  C   UNL     1      -9.112  13.911  68.371  1.00  0.00    -0.184 C  
BRANCH  31  32
HETATM   32  C   UNL     1      -9.374  14.724  67.107  1.00  0.00    -0.233 C  
BRANCH  32  33
HETATM   33  C   UNL     1      -9.968  13.819  66.011  1.00  0.00    -0.306 C  
HETATM   34  C   UNL     1      -9.482  12.375  66.104  1.00  0.00    -0.201 C  
HETATM   35  C   UNL     1     -10.559  11.609  65.373  1.00  0.00    -0.331 C  
HETATM   36  C   UNL     1     -12.128  14.717  65.317  1.00  0.00    -0.276 C  
HETATM   37  N   UNL     1     -11.434  13.715  66.121  1.00  0.00    -0.317 NA 
HETATM   38  C   UNL     1     -11.832  12.348  65.745  1.00  0.00    -0.406 C  
ENDBRANCH  32  33
ENDBRANCH  31  32
ENDBRANCH  29  31
ENDBRANCH  26  29
ENDBRANCH   9  26
ENDBRANCH   4   5
ENDBRANCH   3   4
ENDBRANCH   2   3
TORSDOF 11
ENDMDL
MODEL      229
REMARK 921   NORMALIZED FREE ENERGY PREDICTED BY IDOCK:   -3.65 KCAL/MOL
REMARK 922        TOTAL FREE ENERGY PREDICTED BY IDOCK:   -8.23 KCAL/MOL
REMARK 923 INTER-LIGAND FREE ENERGY PREDICTED BY IDOCK:   -6.20 KCAL/MOL
REMARK 924 INTRA-LIGAND FREE ENERGY PREDICTED BY IDOCK:   -2.02 KCAL/MOL
REMARK 927      BINDING AFFINITY PREDICTED BY RF-SCORE:    0.00 PKD
ROOT
HETATM    1  C   UNL     1      -7.990   9.664  62.898  1.00  0.00    -0.128 C  
HETATM    2  C   UNL     1      -6.937  10.572  63.507  1.00  0.00     0.076 C  
ENDROOT
BRANCH   2   3
HETATM    3  C   UNL     1      -6.164   9.895  64.626  1.00  0.00    -0.112 C  
BRANCH   3   4
HETATM    4  O   UNL     1      -6.562  10.367  65.927  1.00  0.00    -0.108 OA 
BRANCH   4   5
HETATM    5  C   UNL     1      -7.333   9.475  66.650  1.00  0.00    -0.090 A  
HETATM    6  C   UNL     1      -8.702   9.752  66.888  1.00  0.00    -0.143 A  
HETATM    7  C   UNL     1      -9.460   8.864  67.689  1.00  0.00    -0.164 A  
HETATM    8  C   UNL     1      -6.776   8.309  67.194  1.00  0.00    -0.063 A  
HETATM    9  C   UNL     1      -8.853   7.735  68.257  1.00  0.00    -0.129 A  
HETATM   10  C   UNL     1      -7.513   7.476  68.018  1.00  0.00    -0.105 A  
BRANCH   6  11
HETATM   11  C   UNL     1      -9.394  10.986  66.336  1.00  0.00    -0.183 C  
HETATM   12  C   UNL     1     -11.000  11.866  64.868  1.00  0.00    -0.313 C  
HETATM   13  N   UNL     1     -10.302  10.799  65.411  1.00  0.00    -0.266 N  
HETATM   14  H   UNL     1     -10.498   9.853  65.085  1.00  0.00     0.000 HD 
HETATM   15  N   UNL     1      -9.011  12.221  66.837  1.00  0.00    -0.203 NA 
HETATM   16  N   UNL     1     -10.510  15.338  65.921  1.00  0.00    -0.311 NA 
HETATM   17  C   UNL     1      -9.606  14.666  66.653  1.00  0.00    -0.278 A  
HETATM   18  C   UNL     1     -10.639  13.130  65.427  1.00  0.00    -0.299 A  
HETATM   19  O   UNL     1     -11.845  11.738  63.988  1.00  0.00    -0.363 OA 
HETATM   20  C   UNL     1     -12.200  14.754  64.296  1.00  0.00    -0.379 C  
HETATM   21  C   UNL     1      -9.671  13.290  66.372  1.00  0.00    -0.276 A  
HETATM   22  N   UNL     1     -11.130  14.377  65.189  1.00  0.00    -0.342 NA 
BRANCH  17  23
HETATM   23  C   UNL     1      -8.719  15.406  67.597  1.00  0.00    -0.174 C  
BRANCH  23  24
HETATM   24  C   UNL     1      -7.244  15.422  67.187  1.00  0.00    -0.179 C  
HETATM   25  C   UNL     1      -6.359  14.537  68.056  1.00  0.00    -0.162 C  
ENDBRANCH  23  24
ENDBRANCH  17  23
ENDBRANCH   6  11
BRANCH   9  26
HETATM   26  S   UNL     1      -9.734   6.650  69.358  1.00  0.00    -0.147 S  
HETATM   27  O   UNL     1     -10.850   7.396  69.892  1.00  0.00    -0.246 OA 
HETATM   28  O   UNL     1      -8.748   6.008  70.195  1.00  0.00    -0.135 OA 
BRANCH  26  29
HETATM   29  N   UNL     1     -10.402   5.479  68.305  1.00  0.00    -0.184 N  
HETATM   30  H   UNL     1     -11.410   5.373  68.192  1.00  0.00     0.000 HD 
BRANCH  29  31
HETATM   31  C   UNL     1      -9.445   4.630  67.567  1.00  0.00    -0.153 C  
BRANCH  31  32
HETATM   32  C   UNL     1      -9.492   4.882  66.064  1.00  0.00    -0.169 C  
BRANCH  32  33
HETATM   33  C   UNL     1      -8.422   4.033  65.351  1.00  0.00    -0.109 C  
HETATM   34  C   UNL     1      -7.016   4.268  65.900  1.00  0.00    -0.066 C  
HETATM   35  C   UNL     1      -6.285   3.007  65.503  1.00  0.00    -0.024 C  
HETATM   36  C   UNL     1      -9.459   2.006  64.479  1.00  0.00    -0.110 C  
HETATM   37  N   UNL     1      -8.649   2.591  65.543  1.00  0.00    -0.107 NA 
HETATM   38  C   UNL     1      -7.340   1.925  65.655  1.00  0.00    -0.057 C  
ENDBRANCH  32  33
ENDBRANCH  31  32
ENDBRANCH  29  31
ENDBRANCH  26  29
ENDBRANCH   9  26
ENDBRANCH   4   5
ENDBRANCH   3   4
ENDBRANCH   2   3
TORSDOF 11
ENDMDL
MODEL      230
REMARK 921   NORMALIZED FREE ENERGY PREDICTED BY IDOCK:   -3.65 KCAL/MOL
REMARK 922        TOTAL FREE ENERGY PREDICTED BY IDOCK:   -8.22 KCAL/MOL
REMARK 923 INTER-LIGAND FREE ENERGY PREDICTED BY IDOCK:   -8.49 KCAL/MOL
REMARK 924 INTRA-LIGAND FREE ENERGY PREDICTED BY IDOCK:    0.27 KCAL/MOL
REMARK 927      BINDING AFFINITY PREDICTED BY RF-SCORE:    0.00 PKD
ROOT
HETATM    1  C   UNL     1      -8.532  10.615  65.538  1.00  0.00    -0.177 C  
HETATM    2  C   UNL     1      -9.651  10.787  66.548  1.00  0.00    -0.217 C  
ENDROOT
BRANCH   2   3
HETATM    3  C   UNL     1     -10.528   9.551  66.658  1.00  0.00    -0.171 C  
BRANCH   3   4
HETATM    4  O   UNL     1     -10.884   9.254  68.022  1.00  0.00    -0.203 OA 
BRANCH   4   5
HETATM    5  C   UNL     1     -11.233  10.359  68.778  1.00  0.00    -0.241 A  
HETATM    6  C   UNL     1     -11.438  10.226  70.173  1.00  0.00    -0.383 A  
HETATM    7  C   UNL     1     -11.862  11.351  70.922  1.00  0.00    -0.111 A  
HETATM    8  C   UNL     1     -11.429  11.613  68.183  1.00  0.00    -0.382 A  
HETATM    9  C   UNL     1     -12.096  12.575  70.281  1.00  0.00    -0.294 A  
HETATM   10  C   UNL     1     -11.893  12.691  68.915  1.00  0.00    -0.345 A  
BRANCH   6  11
HETATM   11  C   UNL     1     -11.245   8.910  70.906  1.00  0.00    -0.279 C  
HETATM   12  C   UNL     1     -12.243   7.024  71.885  1.00  0.00    -0.327 C  
HETATM   13  N   UNL     1     -12.325   8.246  71.234  1.00  0.00    -0.380 N  
HETATM   14  H   UNL     1     -13.240   8.633  71.008  1.00  0.00     0.000 HD 
HETATM   15  N   UNL     1      -9.948   8.510  71.189  1.00  0.00    -0.193 NA 
HETATM   16  N   UNL     1      -9.072   5.410  72.746  1.00  0.00    -0.131 NA 
HETATM   17  C   UNL     1      -8.683   6.572  72.193  1.00  0.00    -0.131 A  
HETATM   18  C   UNL     1     -10.902   6.592  72.125  1.00  0.00    -0.229 A  
HETATM   19  O   UNL     1     -13.228   6.377  72.226  1.00  0.00    -0.030 OA 
HETATM   20  C   UNL     1     -11.184   4.318  73.173  1.00  0.00    -0.178 C  
HETATM   21  C   UNL     1      -9.802   7.322  71.790  1.00  0.00    -0.160 A  
HETATM   22  N   UNL     1     -10.427   5.445  72.684  1.00  0.00    -0.206 NA 
BRANCH  17  23
HETATM   23  C   UNL     1      -7.231   6.893  72.087  1.00  0.00    -0.082 C  
BRANCH  23  24
HETATM   24  C   UNL     1      -6.567   7.241  73.421  1.00  0.00    -0.065 C  
HETATM   25  C   UNL     1      -7.174   8.459  74.106  1.00  0.00    -0.194 C  
ENDBRANCH  23  24
ENDBRANCH  17  23
ENDBRANCH   6  11
BRANCH   9  26
HETATM   26  S   UNL     1     -12.734  13.986  71.158  1.00  0.00    -0.373 S  
HETATM   27  O   UNL     1     -11.815  14.271  72.236  1.00  0.00     0.031 OA 
HETATM   28  O   UNL     1     -14.142  13.748  71.371  1.00  0.00    -0.142 OA 
BRANCH  26  29
HETATM   29  N   UNL     1     -12.560  15.261  70.031  1.00  0.00    -0.597 N  
HETATM   30  H   UNL     1     -13.317  15.526  69.402  1.00  0.00     0.000 HD 
BRANCH  29  31
HETATM   31  C   UNL     1     -11.259  15.960  70.017  1.00  0.00    -0.353 C  
BRANCH  31  32
HETATM   32  C   UNL     1     -10.390  15.533  68.839  1.00  0.00    -0.221 C  
BRANCH  32  33
HETATM   33  C   UNL     1     -10.947  16.122  67.530  1.00  0.00    -0.238 C  
HETATM   34  C   UNL     1     -10.043  17.196  66.929  1.00  0.00    -0.298 C  
HETATM   35  C   UNL     1     -10.448  17.202  65.474  1.00  0.00    -0.158 C  
HETATM   36  C   UNL     1     -12.361  14.458  66.442  1.00  0.00    -0.271 C  
HETATM   37  N   UNL     1     -11.052  15.104  66.471  1.00  0.00    -0.327 NA 
HETATM   38  C   UNL     1     -10.733  15.740  65.181  1.00  0.00    -0.435 C  
ENDBRANCH  32  33
ENDBRANCH  31  32
ENDBRANCH  29  31
ENDBRANCH  26  29
ENDBRANCH   9  26
ENDBRANCH   4   5
ENDBRANCH   3   4
ENDBRANCH   2   3
TORSDOF 11
ENDMDL
MODEL      231
REMARK 921   NORMALIZED FREE ENERGY PREDICTED BY IDOCK:   -3.64 KCAL/MOL
REMARK 922        TOTAL FREE ENERGY PREDICTED BY IDOCK:   -8.21 KCAL/MOL
REMARK 923 INTER-LIGAND FREE ENERGY PREDICTED BY IDOCK:   -7.01 KCAL/MOL
REMARK 924 INTRA-LIGAND FREE ENERGY PREDICTED BY IDOCK:   -1.20 KCAL/MOL
REMARK 927      BINDING AFFINITY PREDICTED BY RF-SCORE:    0.00 PKD
ROOT
HETATM    1  C   UNL     1     -12.442  10.221  71.348  1.00  0.00    -0.528 C  
HETATM    2  C   UNL     1     -11.552   9.268  70.571  1.00  0.00    -0.266 C  
ENDROOT
BRANCH   2   3
HETATM    3  C   UNL     1     -10.128   9.242  71.101  1.00  0.00    -0.304 C  
BRANCH   3   4
HETATM    4  O   UNL     1      -9.271  10.167  70.406  1.00  0.00     0.036 OA 
BRANCH   4   5
HETATM    5  C   UNL     1      -8.677   9.656  69.267  1.00  0.00    -0.159 A  
HETATM    6  C   UNL     1      -8.683  10.408  68.066  1.00  0.00    -0.123 A  
HETATM    7  C   UNL     1      -8.132   9.842  66.890  1.00  0.00    -0.113 A  
HETATM    8  C   UNL     1      -8.096   8.380  69.261  1.00  0.00    -0.115 A  
HETATM    9  C   UNL     1      -7.607   8.542  66.914  1.00  0.00    -0.091 A  
HETATM   10  C   UNL     1      -7.608   7.817  68.095  1.00  0.00    -0.116 A  
BRANCH   6  11
HETATM   11  C   UNL     1      -9.283  11.799  67.976  1.00  0.00    -0.181 C  
HETATM   12  C   UNL     1      -9.401  13.834  66.813  1.00  0.00    -0.266 C  
HETATM   13  N   UNL     1      -8.888  12.558  66.985  1.00  0.00    -0.207 N  
HETATM   14  H   UNL     1      -8.191  12.205  66.330  1.00  0.00     0.000 HD 
HETATM   15  N   UNL     1     -10.195  12.175  68.952  1.00  0.00    -0.104 NA 
HETATM   16  N   UNL     1     -11.949  15.293  68.999  1.00  0.00    -0.307 NA 
HETATM   17  C   UNL     1     -11.714  14.095  69.560  1.00  0.00    -0.312 A  
HETATM   18  C   UNL     1     -10.379  14.195  67.790  1.00  0.00    -0.242 A  
HETATM   19  O   UNL     1      -9.046  14.585  65.910  1.00  0.00    -0.081 OA 
HETATM   20  C   UNL     1     -11.146  16.481  67.054  1.00  0.00     0.106 C  
HETATM   21  C   UNL     1     -10.749  13.388  68.823  1.00  0.00    -0.232 A  
HETATM   22  N   UNL     1     -11.128  15.325  67.918  1.00  0.00    -0.310 NA 
BRANCH  17  23
HETATM   23  C   UNL     1     -12.450  13.698  70.796  1.00  0.00    -0.432 C  
BRANCH  23  24
HETATM   24  C   UNL     1     -12.967  14.878  71.622  1.00  0.00    -0.415 C  
HETATM   25  C   UNL     1     -14.332  14.631  72.252  1.00  0.00    -0.503 C  
ENDBRANCH  23  24
ENDBRANCH  17  23
ENDBRANCH   6  11
BRANCH   9  26
HETATM   26  S   UNL     1      -7.004   7.747  65.441  1.00  0.00    -0.056 S  
HETATM   27  O   UNL     1      -5.576   7.956  65.396  1.00  0.00    -0.036 OA 
HETATM   28  O   UNL     1      -7.887   8.131  64.363  1.00  0.00    -0.121 OA 
BRANCH  26  29
HETATM   29  N   UNL     1      -7.235   6.084  65.768  1.00  0.00    -0.073 N  
HETATM   30  H   UNL     1      -6.518   5.525  66.230  1.00  0.00     0.000 HD 
BRANCH  29  31
HETATM   31  C   UNL     1      -8.526   5.500  65.350  1.00  0.00    -0.146 C  
BRANCH  31  32
HETATM   32  C   UNL     1      -9.672   5.926  66.261  1.00  0.00    -0.132 C  
BRANCH  32  33
HETATM   33  C   UNL     1     -10.063   4.765  67.196  1.00  0.00    -0.168 C  
HETATM   34  C   UNL     1      -9.399   3.444  66.812  1.00  0.00    -0.190 C  
HETATM   35  C   UNL     1      -9.445   2.658  68.101  1.00  0.00    -0.217 C  
HETATM   36  C   UNL     1     -10.643   5.664  69.388  1.00  0.00    -0.304 C  
HETATM   37  N   UNL     1      -9.622   5.003  68.581  1.00  0.00    -0.139 NA 
HETATM   38  C   UNL     1      -9.217   3.715  69.167  1.00  0.00    -0.159 C  
ENDBRANCH  32  33
ENDBRANCH  31  32
ENDBRANCH  29  31
ENDBRANCH  26  29
ENDBRANCH   9  26
ENDBRANCH   4   5
ENDBRANCH   3   4
ENDBRANCH   2   3
TORSDOF 11
ENDMDL
MODEL      232
REMARK 921   NORMALIZED FREE ENERGY PREDICTED BY IDOCK:   -3.63 KCAL/MOL
REMARK 922        TOTAL FREE ENERGY PREDICTED BY IDOCK:   -8.19 KCAL/MOL
REMARK 923 INTER-LIGAND FREE ENERGY PREDICTED BY IDOCK:   -6.58 KCAL/MOL
REMARK 924 INTRA-LIGAND FREE ENERGY PREDICTED BY IDOCK:   -1.61 KCAL/MOL
REMARK 927      BINDING AFFINITY PREDICTED BY RF-SCORE:    0.00 PKD
ROOT
HETATM    1  C   UNL     1      -6.313  12.383  67.476  1.00  0.00    -0.148 C  
HETATM    2  C   UNL     1      -5.439  11.163  67.249  1.00  0.00    -0.053 C  
ENDROOT
BRANCH   2   3
HETATM    3  C   UNL     1      -5.131  10.936  65.778  1.00  0.00    -0.129 C  
BRANCH   3   4
HETATM    4  O   UNL     1      -5.867   9.826  65.231  1.00  0.00    -0.062 OA 
BRANCH   4   5
HETATM    5  C   UNL     1      -6.206   8.851  66.153  1.00  0.00    -0.063 A  
HETATM    6  C   UNL     1      -7.539   8.752  66.620  1.00  0.00    -0.089 A  
HETATM    7  C   UNL     1      -7.856   7.795  67.615  1.00  0.00    -0.123 A  
HETATM    8  C   UNL     1      -5.242   7.975  66.670  1.00  0.00    -0.028 A  
HETATM    9  C   UNL     1      -6.852   6.971  68.144  1.00  0.00    -0.074 A  
HETATM   10  C   UNL     1      -5.552   7.079  67.678  1.00  0.00    -0.020 A  
BRANCH   6  11
HETATM   11  C   UNL     1      -8.652   9.653  66.116  1.00  0.00    -0.127 C  
HETATM   12  C   UNL     1      -9.876  10.450  64.278  1.00  0.00    -0.322 C  
HETATM   13  N   UNL     1      -8.866   9.673  64.824  1.00  0.00    -0.194 N  
HETATM   14  H   UNL     1      -8.279   9.109  64.210  1.00  0.00     0.000 HD 
HETATM   15  N   UNL     1      -9.354  10.400  67.050  1.00  0.00    -0.153 NA 
HETATM   16  N   UNL     1     -12.143  12.508  66.286  1.00  0.00    -0.605 NA 
HETATM   17  C   UNL     1     -11.308  11.989  67.202  1.00  0.00    -0.333 A  
HETATM   18  C   UNL     1     -10.630  11.175  65.251  1.00  0.00    -0.238 A  
HETATM   19  O   UNL     1     -10.100  10.512  63.074  1.00  0.00    -0.230 OA 
HETATM   20  C   UNL     1     -12.416  12.323  63.893  1.00  0.00    -0.485 C  
HETATM   21  C   UNL     1     -10.363  11.149  66.587  1.00  0.00    -0.241 A  
HETATM   22  N   UNL     1     -11.712  11.989  65.108  1.00  0.00    -0.300 NA 
BRANCH  17  23
HETATM   23  C   UNL     1     -11.476  12.341  68.642  1.00  0.00    -0.355 C  
BRANCH  23  24
HETATM   24  C   UNL     1     -12.137  11.245  69.482  1.00  0.00    -0.386 C  
HETATM   25  C   UNL     1     -11.166  10.504  70.393  1.00  0.00    -0.378 C  
ENDBRANCH  23  24
ENDBRANCH  17  23
ENDBRANCH   6  11
BRANCH   9  26
HETATM   26  S   UNL     1      -7.177   5.830  69.470  1.00  0.00    -0.067 S  
HETATM   27  O   UNL     1      -5.931   5.172  69.783  1.00  0.00    -0.019 OA 
HETATM   28  O   UNL     1      -8.378   5.108  69.119  1.00  0.00    -0.086 OA 
BRANCH  26  29
HETATM   29  N   UNL     1      -7.524   6.855  70.795  1.00  0.00    -0.081 N  
HETATM   30  H   UNL     1      -7.048   7.748  70.920  1.00  0.00     0.000 HD 
BRANCH  29  31
HETATM   31  C   UNL     1      -8.549   6.382  71.747  1.00  0.00    -0.128 C  
BRANCH  31  32
HETATM   32  C   UNL     1      -7.952   5.515  72.850  1.00  0.00    -0.101 C  
BRANCH  32  33
HETATM   33  C   UNL     1      -9.073   4.781  73.611  1.00  0.00    -0.109 C  
HETATM   34  C   UNL     1     -10.469   5.275  73.234  1.00  0.00    -0.262 C  
HETATM   35  C   UNL     1     -11.352   4.111  73.617  1.00  0.00    -0.270 C  
HETATM   36  C   UNL     1      -8.299   2.551  74.222  1.00  0.00    -0.067 C  
HETATM   37  N   UNL     1      -9.101   3.343  73.295  1.00  0.00    -0.096 NA 
HETATM   38  C   UNL     1     -10.505   2.898  73.276  1.00  0.00    -0.157 C  
ENDBRANCH  32  33
ENDBRANCH  31  32
ENDBRANCH  29  31
ENDBRANCH  26  29
ENDBRANCH   9  26
ENDBRANCH   4   5
ENDBRANCH   3   4
ENDBRANCH   2   3
TORSDOF 11
ENDMDL
MODEL      233
REMARK 921   NORMALIZED FREE ENERGY PREDICTED BY IDOCK:   -3.61 KCAL/MOL
REMARK 922        TOTAL FREE ENERGY PREDICTED BY IDOCK:   -8.16 KCAL/MOL
REMARK 923 INTER-LIGAND FREE ENERGY PREDICTED BY IDOCK:   -7.05 KCAL/MOL
REMARK 924 INTRA-LIGAND FREE ENERGY PREDICTED BY IDOCK:   -1.11 KCAL/MOL
REMARK 927      BINDING AFFINITY PREDICTED BY RF-SCORE:    0.00 PKD
ROOT
HETATM    1  C   UNL     1     -12.867  11.592  71.680  1.00  0.00    -0.475 C  
HETATM    2  C   UNL     1     -13.167  10.119  71.892  1.00  0.00    -0.557 C  
ENDROOT
BRANCH   2   3
HETATM    3  C   UNL     1     -12.091   9.218  71.309  1.00  0.00    -0.337 C  
BRANCH   3   4
HETATM    4  O   UNL     1     -11.062   9.964  70.633  1.00  0.00    -0.292 OA 
BRANCH   4   5
HETATM    5  C   UNL     1      -9.993   9.203  70.196  1.00  0.00    -0.200 A  
HETATM    6  C   UNL     1      -9.254   9.607  69.057  1.00  0.00    -0.156 A  
HETATM    7  C   UNL     1      -8.206   8.781  68.582  1.00  0.00    -0.117 A  
HETATM    8  C   UNL     1      -9.643   8.007  70.839  1.00  0.00    -0.179 A  
HETATM    9  C   UNL     1      -7.921   7.567  69.222  1.00  0.00    -0.121 A  
HETATM   10  C   UNL     1      -8.652   7.183  70.335  1.00  0.00    -0.142 A  
BRANCH   6  11
HETATM   11  C   UNL     1      -9.555  10.887  68.299  1.00  0.00    -0.167 C  
HETATM   12  C   UNL     1      -9.640  13.233  68.327  1.00  0.00    -0.221 C  
HETATM   13  N   UNL     1      -9.409  12.015  68.948  1.00  0.00    -0.398 N  
HETATM   14  H   UNL     1      -9.121  11.997  69.926  1.00  0.00     0.000 HD 
HETATM   15  N   UNL     1      -9.976  10.776  66.982  1.00  0.00    -0.191 NA 
HETATM   16  N   UNL     1     -10.622  13.549  64.815  1.00  0.00    -0.395 NA 
HETATM   17  C   UNL     1     -10.567  12.219  64.999  1.00  0.00    -0.287 A  
HETATM   18  C   UNL     1     -10.020  13.113  66.955  1.00  0.00    -0.244 A  
HETATM   19  O   UNL     1      -9.532  14.311  68.902  1.00  0.00    -0.171 OA 
HETATM   20  C   UNL     1     -10.204  15.502  66.174  1.00  0.00    -0.306 C  
HETATM   21  C   UNL     1     -10.186  11.920  66.319  1.00  0.00    -0.216 A  
HETATM   22  N   UNL     1     -10.277  14.069  66.020  1.00  0.00    -0.295 NA 
BRANCH  17  23
HETATM   23  C   UNL     1     -10.891  11.300  63.869  1.00  0.00    -0.427 C  
BRANCH  23  24
HETATM   24  C   UNL     1      -9.877  11.335  62.723  1.00  0.00    -0.241 C  
HETATM   25  C   UNL     1      -8.949  10.126  62.692  1.00  0.00    -0.275 C  
ENDBRANCH  23  24
ENDBRANCH  17  23
ENDBRANCH   6  11
BRANCH   9  26
HETATM   26  S   UNL     1      -6.688   6.445  68.599  1.00  0.00    -0.063 S  
HETATM   27  O   UNL     1      -5.655   7.243  67.983  1.00  0.00    -0.023 OA 
HETATM   28  O   UNL     1      -7.391   5.395  67.898  1.00  0.00    -0.071 OA 
BRANCH  26  29
HETATM   29  N   UNL     1      -6.002   5.786  70.021  1.00  0.00    -0.024 N  
HETATM   30  H   UNL     1      -5.437   6.352  70.654  1.00  0.00     0.000 HD 
BRANCH  29  31
HETATM   31  C   UNL     1      -6.268   4.358  70.285  1.00  0.00    -0.022 C  
BRANCH  31  32
HETATM   32  C   UNL     1      -7.737   4.096  70.602  1.00  0.00    -0.048 C  
BRANCH  32  33
HETATM   33  C   UNL     1      -7.866   2.879  71.538  1.00  0.00    -0.052 C  
HETATM   34  C   UNL     1      -6.539   2.477  72.177  1.00  0.00    -0.015 C  
HETATM   35  C   UNL     1      -6.974   1.713  73.405  1.00  0.00    -0.022 C  
HETATM   36  C   UNL     1     -10.137   2.789  72.423  1.00  0.00    -0.164 C  
HETATM   37  N   UNL     1      -8.749   3.159  72.683  1.00  0.00    -0.083 NA 
HETATM   38  C   UNL     1      -8.214   2.460  73.864  1.00  0.00    -0.059 C  
ENDBRANCH  32  33
ENDBRANCH  31  32
ENDBRANCH  29  31
ENDBRANCH  26  29
ENDBRANCH   9  26
ENDBRANCH   4   5
ENDBRANCH   3   4
ENDBRANCH   2   3
TORSDOF 11
ENDMDL
MODEL      234
REMARK 921   NORMALIZED FREE ENERGY PREDICTED BY IDOCK:   -3.59 KCAL/MOL
REMARK 922        TOTAL FREE ENERGY PREDICTED BY IDOCK:   -8.13 KCAL/MOL
REMARK 923 INTER-LIGAND FREE ENERGY PREDICTED BY IDOCK:   -6.32 KCAL/MOL
REMARK 924 INTRA-LIGAND FREE ENERGY PREDICTED BY IDOCK:   -1.81 KCAL/MOL
REMARK 927      BINDING AFFINITY PREDICTED BY RF-SCORE:    0.00 PKD
ROOT
HETATM    1  C   UNL     1      -9.526  10.839  63.574  1.00  0.00    -0.331 C  
HETATM    2  C   UNL     1      -9.024   9.432  63.309  1.00  0.00    -0.155 C  
ENDROOT
BRANCH   2   3
HETATM    3  C   UNL     1      -7.521   9.306  63.501  1.00  0.00    -0.101 C  
BRANCH   3   4
HETATM    4  O   UNL     1      -7.177   8.281  64.451  1.00  0.00    -0.082 OA 
BRANCH   4   5
HETATM    5  C   UNL     1      -7.623   8.518  65.739  1.00  0.00    -0.085 A  
HETATM    6  C   UNL     1      -8.304   7.501  66.451  1.00  0.00    -0.126 A  
HETATM    7  C   UNL     1      -8.816   7.782  67.742  1.00  0.00    -0.126 A  
HETATM    8  C   UNL     1      -7.449   9.768  66.348  1.00  0.00    -0.099 A  
HETATM    9  C   UNL     1      -8.665   9.061  68.296  1.00  0.00    -0.130 A  
HETATM   10  C   UNL     1      -7.997  10.047  67.588  1.00  0.00    -0.105 A  
BRANCH   6  11
HETATM   11  C   UNL     1      -8.536   6.115  65.876  1.00  0.00    -0.147 C  
HETATM   12  C   UNL     1      -8.812   4.786  63.962  1.00  0.00    -0.117 C  
HETATM   13  N   UNL     1      -8.624   6.015  64.574  1.00  0.00    -0.343 N  
HETATM   14  H   UNL     1      -8.553   6.856  64.001  1.00  0.00     0.000 HD 
HETATM   15  N   UNL     1      -8.653   5.057  66.765  1.00  0.00    -0.109 NA 
HETATM   16  N   UNL     1      -9.037   1.631  65.805  1.00  0.00    -0.098 NA 
HETATM   17  C   UNL     1      -8.917   2.548  66.781  1.00  0.00    -0.131 A  
HETATM   18  C   UNL     1      -8.878   3.693  64.879  1.00  0.00    -0.121 A  
HETATM   19  O   UNL     1      -8.918   4.649  62.747  1.00  0.00    -0.125 OA 
HETATM   20  C   UNL     1      -9.079   1.670  63.390  1.00  0.00    -0.088 C  
HETATM   21  C   UNL     1      -8.807   3.838  66.232  1.00  0.00    -0.128 A  
HETATM   22  N   UNL     1      -9.002   2.356  64.658  1.00  0.00    -0.115 NA 
BRANCH  17  23
HETATM   23  C   UNL     1      -8.915   2.115  68.208  1.00  0.00    -0.183 C  
BRANCH  23  24
HETATM   24  C   UNL     1      -7.577   1.550  68.690  1.00  0.00    -0.046 C  
HETATM   25  C   UNL     1      -6.515   2.615  68.932  1.00  0.00    -0.029 C  
ENDBRANCH  23  24
ENDBRANCH  17  23
ENDBRANCH   6  11
BRANCH   9  26
HETATM   26  S   UNL     1      -9.383   9.494  69.865  1.00  0.00    -0.237 S  
HETATM   27  O   UNL     1      -8.298   9.636  70.808  1.00  0.00    -0.264 OA 
HETATM   28  O   UNL     1     -10.497   8.599  70.080  1.00  0.00    -0.206 OA 
BRANCH  26  29
HETATM   29  N   UNL     1      -9.993  11.069  69.597  1.00  0.00    -0.409 N  
HETATM   30  H   UNL     1      -9.484  11.899  69.900  1.00  0.00     0.000 HD 
BRANCH  29  31
HETATM   31  C   UNL     1     -11.294  11.167  68.905  1.00  0.00    -0.278 C  
BRANCH  31  32
HETATM   32  C   UNL     1     -12.189  12.243  69.511  1.00  0.00    -0.153 C  
BRANCH  32  33
HETATM   33  C   UNL     1     -11.957  13.587  68.795  1.00  0.00    -0.339 C  
HETATM   34  C   UNL     1     -10.979  14.495  69.539  1.00  0.00    -0.253 C  
HETATM   35  C   UNL     1     -10.483  15.418  68.451  1.00  0.00    -0.239 C  
HETATM   36  C   UNL     1     -12.334  13.296  66.403  1.00  0.00    -0.282 C  
HETATM   37  N   UNL     1     -11.343  13.404  67.469  1.00  0.00    -0.284 NA 
HETATM   38  C   UNL     1     -10.410  14.518  67.231  1.00  0.00    -0.260 C  
ENDBRANCH  32  33
ENDBRANCH  31  32
ENDBRANCH  29  31
ENDBRANCH  26  29
ENDBRANCH   9  26
ENDBRANCH   4   5
ENDBRANCH   3   4
ENDBRANCH   2   3
TORSDOF 11
ENDMDL
MODEL      235
REMARK 921   NORMALIZED FREE ENERGY PREDICTED BY IDOCK:   -3.57 KCAL/MOL
REMARK 922        TOTAL FREE ENERGY PREDICTED BY IDOCK:   -8.10 KCAL/MOL
REMARK 923 INTER-LIGAND FREE ENERGY PREDICTED BY IDOCK:   -6.12 KCAL/MOL
REMARK 924 INTRA-LIGAND FREE ENERGY PREDICTED BY IDOCK:   -1.98 KCAL/MOL
REMARK 927      BINDING AFFINITY PREDICTED BY RF-SCORE:    0.00 PKD
ROOT
HETATM    1  C   UNL     1      -6.958   4.563  69.766  1.00  0.00    -0.049 C  
HETATM    2  C   UNL     1      -5.568   5.174  69.784  1.00  0.00    -0.012 C  
ENDROOT
BRANCH   2   3
HETATM    3  C   UNL     1      -5.587   6.647  70.155  1.00  0.00    -0.019 C  
BRANCH   3   4
HETATM    4  O   UNL     1      -6.920   7.190  70.167  1.00  0.00    -0.058 OA 
BRANCH   4   5
HETATM    5  C   UNL     1      -7.020   8.480  69.678  1.00  0.00    -0.047 A  
HETATM    6  C   UNL     1      -7.627   8.716  68.420  1.00  0.00    -0.096 A  
HETATM    7  C   UNL     1      -7.659  10.033  67.901  1.00  0.00    -0.089 A  
HETATM    8  C   UNL     1      -6.494   9.568  70.388  1.00  0.00    -0.079 A  
HETATM    9  C   UNL     1      -7.077  11.087  68.620  1.00  0.00    -0.080 A  
HETATM   10  C   UNL     1      -6.486  10.843  69.849  1.00  0.00    -0.144 A  
BRANCH   6  11
HETATM   11  C   UNL     1      -8.228   7.602  67.581  1.00  0.00    -0.121 C  
HETATM   12  C   UNL     1     -10.167   6.503  66.844  1.00  0.00    -0.215 C  
HETATM   13  N   UNL     1      -9.531   7.478  67.599  1.00  0.00    -0.136 N  
HETATM   14  H   UNL     1     -10.088   8.107  68.177  1.00  0.00     0.000 HD 
HETATM   15  N   UNL     1      -7.361   6.789  66.867  1.00  0.00    -0.080 NA 
HETATM   16  N   UNL     1      -8.388   4.173  64.653  1.00  0.00    -0.102 NA 
HETATM   17  C   UNL     1      -7.395   4.881  65.216  1.00  0.00    -0.072 A  
HETATM   18  C   UNL     1      -9.272   5.704  66.070  1.00  0.00    -0.152 A  
HETATM   19  O   UNL     1     -11.383   6.340  66.845  1.00  0.00    -0.260 OA 
HETATM   20  C   UNL     1     -10.801   4.182  64.767  1.00  0.00    -0.090 C  
HETATM   21  C   UNL     1      -7.917   5.846  66.095  1.00  0.00    -0.106 A  
HETATM   22  N   UNL     1      -9.520   4.700  65.185  1.00  0.00    -0.157 NA 
BRANCH  17  23
HETATM   23  C   UNL     1      -5.977   4.578  64.866  1.00  0.00    -0.022 C  
BRANCH  23  24
HETATM   24  C   UNL     1      -5.492   3.209  65.347  1.00  0.00    -0.009 C  
HETATM   25  C   UNL     1      -5.711   2.971  66.836  1.00  0.00    -0.022 C  
ENDBRANCH  23  24
ENDBRANCH  17  23
ENDBRANCH   6  11
BRANCH   9  26
HETATM   26  S   UNL     1      -6.996  12.738  67.962  1.00  0.00    -0.125 S  
HETATM   27  O   UNL     1      -5.906  12.769  67.016  1.00  0.00    -0.324 OA 
HETATM   28  O   UNL     1      -7.086  13.643  69.085  1.00  0.00    -0.104 OA 
BRANCH  26  29
HETATM   29  N   UNL     1      -8.433  12.867  67.043  1.00  0.00    -0.320 N  
HETATM   30  H   UNL     1      -8.412  12.945  66.026  1.00  0.00     0.000 HD 
BRANCH  29  31
HETATM   31  C   UNL     1      -9.704  12.857  67.795  1.00  0.00    -0.214 C  
BRANCH  31  32
HETATM   32  C   UNL     1     -10.758  11.978  67.130  1.00  0.00    -0.277 C  
BRANCH  32  33
HETATM   33  C   UNL     1     -10.996  12.442  65.681  1.00  0.00    -0.286 C  
HETATM   34  C   UNL     1     -10.613  11.384  64.648  1.00  0.00    -0.380 C  
HETATM   35  C   UNL     1     -11.421  11.789  63.437  1.00  0.00    -0.424 C  
HETATM   36  C   UNL     1     -12.785  14.100  65.656  1.00  0.00    -0.441 C  
HETATM   37  N   UNL     1     -12.421  12.707  65.417  1.00  0.00    -0.655 NA 
HETATM   38  C   UNL     1     -12.721  12.298  64.034  1.00  0.00    -0.352 C  
ENDBRANCH  32  33
ENDBRANCH  31  32
ENDBRANCH  29  31
ENDBRANCH  26  29
ENDBRANCH   9  26
ENDBRANCH   4   5
ENDBRANCH   3   4
ENDBRANCH   2   3
TORSDOF 11
ENDMDL
MODEL      236
REMARK 921   NORMALIZED FREE ENERGY PREDICTED BY IDOCK:   -3.53 KCAL/MOL
REMARK 922        TOTAL FREE ENERGY PREDICTED BY IDOCK:   -8.04 KCAL/MOL
REMARK 923 INTER-LIGAND FREE ENERGY PREDICTED BY IDOCK:   -6.72 KCAL/MOL
REMARK 924 INTRA-LIGAND FREE ENERGY PREDICTED BY IDOCK:   -1.33 KCAL/MOL
REMARK 927      BINDING AFFINITY PREDICTED BY RF-SCORE:    0.00 PKD
ROOT
HETATM    1  C   UNL     1      -7.972   8.231  74.489  1.00  0.00    -0.276 C  
HETATM    2  C   UNL     1      -8.518   7.504  73.274  1.00  0.00    -0.181 C  
ENDROOT
BRANCH   2   3
HETATM    3  C   UNL     1     -10.020   7.281  73.357  1.00  0.00    -0.296 C  
BRANCH   3   4
HETATM    4  O   UNL     1     -10.576   6.847  72.102  1.00  0.00    -0.209 OA 
BRANCH   4   5
HETATM    5  C   UNL     1     -10.786   7.861  71.185  1.00  0.00    -0.234 A  
HETATM    6  C   UNL     1     -10.465   7.659  69.821  1.00  0.00    -0.232 A  
HETATM    7  C   UNL     1     -10.621   8.730  68.906  1.00  0.00    -0.178 A  
HETATM    8  C   UNL     1     -11.279   9.111  71.585  1.00  0.00    -0.447 A  
HETATM    9  C   UNL     1     -11.068   9.980  69.355  1.00  0.00    -0.223 A  
HETATM   10  C   UNL     1     -11.378  10.164  70.693  1.00  0.00    -0.433 A  
BRANCH   6  11
HETATM   11  C   UNL     1      -9.932   6.340  69.293  1.00  0.00    -0.155 C  
HETATM   12  C   UNL     1      -8.864   5.192  67.545  1.00  0.00    -0.105 C  
HETATM   13  N   UNL     1      -9.398   6.346  68.097  1.00  0.00    -0.110 N  
HETATM   14  H   UNL     1      -9.374   7.215  67.563  1.00  0.00     0.000 HD 
HETATM   15  N   UNL     1     -10.057   5.220  70.102  1.00  0.00    -0.240 NA 
HETATM   16  N   UNL     1      -8.782   1.976  69.293  1.00  0.00    -0.065 NA 
HETATM   17  C   UNL     1      -9.425   2.778  70.159  1.00  0.00    -0.107 A  
HETATM   18  C   UNL     1      -8.948   4.054  68.406  1.00  0.00    -0.118 A  
HETATM   19  O   UNL     1      -8.371   5.149  66.423  1.00  0.00    -0.108 OA 
HETATM   20  C   UNL     1      -7.769   2.238  67.116  1.00  0.00    -0.065 C  
HETATM   21  C   UNL     1      -9.533   4.079  69.636  1.00  0.00    -0.192 A  
HETATM   22  N   UNL     1      -8.497   2.781  68.238  1.00  0.00    -0.073 NA 
BRANCH  17  23
HETATM   23  C   UNL     1      -9.903   2.232  71.461  1.00  0.00    -0.201 C  
BRANCH  23  24
HETATM   24  C   UNL     1      -9.793   3.213  72.631  1.00  0.00    -0.208 C  
HETATM   25  C   UNL     1     -10.803   2.955  73.742  1.00  0.00    -0.305 C  
ENDBRANCH  23  24
ENDBRANCH  17  23
ENDBRANCH   6  11
BRANCH   9  26
HETATM   26  S   UNL     1     -11.175  11.384  68.268  1.00  0.00    -0.292 S  
HETATM   27  O   UNL     1     -12.154  12.285  68.828  1.00  0.00    -0.271 OA 
HETATM   28  O   UNL     1     -11.265  10.868  66.921  1.00  0.00    -0.279 OA 
BRANCH  26  29
HETATM   29  N   UNL     1      -9.657  12.147  68.459  1.00  0.00    -0.337 N  
HETATM   30  H   UNL     1      -9.417  12.656  69.310  1.00  0.00     0.000 HD 
BRANCH  29  31
HETATM   31  C   UNL     1      -8.711  12.032  67.330  1.00  0.00    -0.170 C  
BRANCH  31  32
HETATM   32  C   UNL     1      -7.333  12.587  67.676  1.00  0.00    -0.134 C  
BRANCH  32  33
HETATM   33  C   UNL     1      -6.462  11.484  68.307  1.00  0.00    -0.054 C  
HETATM   34  C   UNL     1      -6.394  11.579  69.830  1.00  0.00    -0.140 C  
HETATM   35  C   UNL     1      -6.018  10.174  70.238  1.00  0.00    -0.081 C  
HETATM   36  C   UNL     1      -6.461   9.532  66.845  1.00  0.00    -0.067 C  
HETATM   37  N   UNL     1      -7.010  10.140  68.053  1.00  0.00    -0.081 NA 
HETATM   38  C   UNL     1      -6.763   9.305  69.240  1.00  0.00    -0.049 C  
ENDBRANCH  32  33
ENDBRANCH  31  32
ENDBRANCH  29  31
ENDBRANCH  26  29
ENDBRANCH   9  26
ENDBRANCH   4   5
ENDBRANCH   3   4
ENDBRANCH   2   3
TORSDOF 11
ENDMDL
MODEL      237
REMARK 921   NORMALIZED FREE ENERGY PREDICTED BY IDOCK:   -3.52 KCAL/MOL
REMARK 922        TOTAL FREE ENERGY PREDICTED BY IDOCK:   -8.02 KCAL/MOL
REMARK 923 INTER-LIGAND FREE ENERGY PREDICTED BY IDOCK:   -6.40 KCAL/MOL
REMARK 924 INTRA-LIGAND FREE ENERGY PREDICTED BY IDOCK:   -1.62 KCAL/MOL
REMARK 927      BINDING AFFINITY PREDICTED BY RF-SCORE:    0.00 PKD
ROOT
HETATM    1  C   UNL     1      -7.118  12.403  67.346  1.00  0.00    -0.152 C  
HETATM    2  C   UNL     1      -6.216  11.213  67.619  1.00  0.00    -0.053 C  
ENDROOT
BRANCH   2   3
HETATM    3  C   UNL     1      -5.802  10.494  66.346  1.00  0.00    -0.081 C  
BRANCH   3   4
HETATM    4  O   UNL     1      -6.931  10.147  65.523  1.00  0.00    -0.117 OA 
BRANCH   4   5
HETATM    5  C   UNL     1      -7.661   9.063  65.976  1.00  0.00    -0.094 A  
HETATM    6  C   UNL     1      -9.057   9.184  66.181  1.00  0.00    -0.234 A  
HETATM    7  C   UNL     1      -9.778   8.087  66.711  1.00  0.00    -0.305 A  
HETATM    8  C   UNL     1      -7.038   7.844  66.277  1.00  0.00    -0.063 A  
HETATM    9  C   UNL     1      -9.110   6.902  67.047  1.00  0.00    -0.136 A  
HETATM   10  C   UNL     1      -7.743   6.796  66.842  1.00  0.00    -0.103 A  
BRANCH   6  11
HETATM   11  C   UNL     1      -9.819  10.462  65.879  1.00  0.00    -0.235 C  
HETATM   12  C   UNL     1     -10.642  11.940  64.252  1.00  0.00    -0.334 C  
HETATM   13  N   UNL     1      -9.942  10.802  64.621  1.00  0.00    -0.298 N  
HETATM   14  H   UNL     1      -9.516  10.220  63.900  1.00  0.00     0.000 HD 
HETATM   15  N   UNL     1     -10.319  11.186  66.951  1.00  0.00    -0.222 NA 
HETATM   16  N   UNL     1     -12.304  14.149  66.653  1.00  0.00    -0.424 NA 
HETATM   17  C   UNL     1     -11.716  13.230  67.438  1.00  0.00    -0.373 A  
HETATM   18  C   UNL     1     -11.200  12.652  65.358  1.00  0.00    -0.299 A  
HETATM   19  O   UNL     1     -10.767  12.305  63.087  1.00  0.00    -0.371 OA 
HETATM   20  C   UNL     1     -12.481  14.533  64.275  1.00  0.00    -0.264 C  
HETATM   21  C   UNL     1     -11.031  12.282  66.658  1.00  0.00    -0.278 A  
HETATM   22  N   UNL     1     -11.980  13.768  65.391  1.00  0.00    -0.358 NA 
BRANCH  17  23
HETATM   23  C   UNL     1     -11.855  13.324  68.920  1.00  0.00    -0.367 C  
BRANCH  23  24
HETATM   24  C   UNL     1     -11.447  14.679  69.503  1.00  0.00    -0.334 C  
HETATM   25  C   UNL     1      -9.995  15.050  69.230  1.00  0.00    -0.218 C  
ENDBRANCH  23  24
ENDBRANCH  17  23
ENDBRANCH   6  11
BRANCH   9  26
HETATM   26  S   UNL     1      -9.952   5.535  67.815  1.00  0.00    -0.168 S  
HETATM   27  O   UNL     1      -9.041   4.415  67.813  1.00  0.00    -0.114 OA 
HETATM   28  O   UNL     1     -11.272   5.473  67.233  1.00  0.00     0.169 OA 
BRANCH  26  29
HETATM   29  N   UNL     1     -10.098   6.030  69.446  1.00  0.00    -0.178 N  
HETATM   30  H   UNL     1     -10.884   6.597  69.765  1.00  0.00     0.000 HD 
BRANCH  29  31
HETATM   31  C   UNL     1      -9.030   5.595  70.368  1.00  0.00    -0.140 C  
BRANCH  31  32
HETATM   32  C   UNL     1      -8.202   6.768  70.883  1.00  0.00    -0.123 C  
BRANCH  32  33
HETATM   33  C   UNL     1      -6.721   6.358  71.000  1.00  0.00    -0.055 C  
HETATM   34  C   UNL     1      -6.515   5.114  71.861  1.00  0.00    -0.036 C  
HETATM   35  C   UNL     1      -5.180   4.593  71.385  1.00  0.00    -0.004 C  
HETATM   36  C   UNL     1      -5.521   7.126  69.020  1.00  0.00    -0.018 C  
HETATM   37  N   UNL     1      -6.149   5.993  69.693  1.00  0.00    -0.025 NA 
HETATM   38  C   UNL     1      -5.197   4.888  69.895  1.00  0.00     0.000 C  
ENDBRANCH  32  33
ENDBRANCH  31  32
ENDBRANCH  29  31
ENDBRANCH  26  29
ENDBRANCH   9  26
ENDBRANCH   4   5
ENDBRANCH   3   4
ENDBRANCH   2   3
TORSDOF 11
ENDMDL
MODEL      238
REMARK 921   NORMALIZED FREE ENERGY PREDICTED BY IDOCK:   -3.50 KCAL/MOL
REMARK 922        TOTAL FREE ENERGY PREDICTED BY IDOCK:   -7.99 KCAL/MOL
REMARK 923 INTER-LIGAND FREE ENERGY PREDICTED BY IDOCK:   -6.77 KCAL/MOL
REMARK 924 INTRA-LIGAND FREE ENERGY PREDICTED BY IDOCK:   -1.22 KCAL/MOL
REMARK 927      BINDING AFFINITY PREDICTED BY RF-SCORE:    0.00 PKD
ROOT
HETATM    1  C   UNL     1      -8.953   4.266  66.086  1.00  0.00    -0.123 C  
HETATM    2  C   UNL     1     -10.279   4.984  66.258  1.00  0.00    -0.306 C  
ENDROOT
BRANCH   2   3
HETATM    3  C   UNL     1     -10.614   5.242  67.718  1.00  0.00    -0.034 C  
BRANCH   3   4
HETATM    4  O   UNL     1     -10.903   6.629  67.974  1.00  0.00    -0.248 OA 
BRANCH   4   5
HETATM    5  C   UNL     1      -9.915   7.507  67.567  1.00  0.00    -0.174 A  
HETATM    6  C   UNL     1      -8.700   7.590  68.291  1.00  0.00    -0.123 A  
HETATM    7  C   UNL     1      -7.726   8.543  67.904  1.00  0.00    -0.103 A  
HETATM    8  C   UNL     1     -10.104   8.354  66.467  1.00  0.00    -0.317 A  
HETATM    9  C   UNL     1      -7.975   9.407  66.829  1.00  0.00    -0.108 A  
HETATM   10  C   UNL     1      -9.168   9.315  66.129  1.00  0.00    -0.249 A  
BRANCH   6  11
HETATM   11  C   UNL     1      -8.402   6.711  69.493  1.00  0.00    -0.131 C  
HETATM   12  C   UNL     1      -7.160   4.931  70.386  1.00  0.00    -0.053 C  
HETATM   13  N   UNL     1      -7.511   5.766  69.336  1.00  0.00    -0.078 N  
HETATM   14  H   UNL     1      -7.067   5.641  68.427  1.00  0.00     0.000 HD 
HETATM   15  N   UNL     1      -9.101   6.960  70.665  1.00  0.00    -0.155 NA 
HETATM   16  N   UNL     1      -8.572   5.227  73.751  1.00  0.00    -0.114 NA 
HETATM   17  C   UNL     1      -9.225   6.177  73.061  1.00  0.00    -0.133 A  
HETATM   18  C   UNL     1      -7.844   5.227  71.605  1.00  0.00    -0.110 A  
HETATM   19  O   UNL     1      -6.343   4.022  70.278  1.00  0.00    -0.025 OA 
HETATM   20  C   UNL     1      -6.842   3.614  73.262  1.00  0.00    -0.040 C  
HETATM   21  C   UNL     1      -8.785   6.205  71.726  1.00  0.00    -0.137 A  
HETATM   22  N   UNL     1      -7.732   4.670  72.842  1.00  0.00    -0.087 NA 
BRANCH  17  23
HETATM   23  C   UNL     1     -10.252   7.016  73.743  1.00  0.00    -0.401 C  
BRANCH  23  24
HETATM   24  C   UNL     1     -11.531   7.226  72.929  1.00  0.00    -0.227 C  
HETATM   25  C   UNL     1     -11.664   8.630  72.351  1.00  0.00    -0.393 C  
ENDBRANCH  23  24
ENDBRANCH  17  23
ENDBRANCH   6  11
BRANCH   9  26
HETATM   26  S   UNL     1      -6.831  10.691  66.373  1.00  0.00    -0.136 S  
HETATM   27  O   UNL     1      -6.392  10.415  65.025  1.00  0.00    -0.126 OA 
HETATM   28  O   UNL     1      -5.915  10.851  67.478  1.00  0.00    -0.044 OA 
BRANCH  26  29
HETATM   29  N   UNL     1      -7.820  12.084  66.279  1.00  0.00    -0.339 N  
HETATM   30  H   UNL     1      -8.065  12.507  65.384  1.00  0.00     0.000 HD 
BRANCH  29  31
HETATM   31  C   UNL     1      -8.301  12.641  67.559  1.00  0.00    -0.177 C  
BRANCH  31  32
HETATM   32  C   UNL     1      -8.297  14.166  67.559  1.00  0.00    -0.194 C  
BRANCH  32  33
HETATM   33  C   UNL     1      -9.698  14.699  67.202  1.00  0.00    -0.235 C  
HETATM   34  C   UNL     1      -9.918  14.828  65.697  1.00  0.00    -0.390 C  
HETATM   35  C   UNL     1     -11.423  14.795  65.573  1.00  0.00    -0.329 C  
HETATM   36  C   UNL     1     -11.257  14.105  68.982  1.00  0.00    -0.271 C  
HETATM   37  N   UNL     1     -10.763  13.783  67.646  1.00  0.00    -0.248 NA 
HETATM   38  C   UNL     1     -11.844  13.809  66.647  1.00  0.00    -0.412 C  
ENDBRANCH  32  33
ENDBRANCH  31  32
ENDBRANCH  29  31
ENDBRANCH  26  29
ENDBRANCH   9  26
ENDBRANCH   4   5
ENDBRANCH   3   4
ENDBRANCH   2   3
TORSDOF 11
ENDMDL
MODEL      239
REMARK 921   NORMALIZED FREE ENERGY PREDICTED BY IDOCK:   -3.40 KCAL/MOL
REMARK 922        TOTAL FREE ENERGY PREDICTED BY IDOCK:   -7.82 KCAL/MOL
REMARK 923 INTER-LIGAND FREE ENERGY PREDICTED BY IDOCK:   -6.30 KCAL/MOL
REMARK 924 INTRA-LIGAND FREE ENERGY PREDICTED BY IDOCK:   -1.52 KCAL/MOL
REMARK 927      BINDING AFFINITY PREDICTED BY RF-SCORE:    0.00 PKD
ROOT
HETATM    1  C   UNL     1     -12.952  11.818  71.737  1.00  0.00    -0.466 C  
HETATM    2  C   UNL     1     -13.114  10.404  72.263  1.00  0.00    -0.284 C  
ENDROOT
BRANCH   2   3
HETATM    3  C   UNL     1     -12.152   9.427  71.608  1.00  0.00    -0.388 C  
BRANCH   3   4
HETATM    4  O   UNL     1     -11.183  10.091  70.776  1.00  0.00    -0.312 OA 
BRANCH   4   5
HETATM    5  C   UNL     1     -10.650   9.302  69.773  1.00  0.00    -0.231 A  
HETATM    6  C   UNL     1     -10.079   9.905  68.625  1.00  0.00    -0.191 A  
HETATM    7  C   UNL     1      -9.600   9.083  67.576  1.00  0.00    -0.182 A  
HETATM    8  C   UNL     1     -10.696   7.903  69.848  1.00  0.00    -0.244 A  
HETATM    9  C   UNL     1      -9.711   7.689  67.667  1.00  0.00    -0.152 A  
HETATM   10  C   UNL     1     -10.272   7.112  68.795  1.00  0.00    -0.184 A  
BRANCH   6  11
HETATM   11  C   UNL     1      -9.980  11.411  68.456  1.00  0.00    -0.201 C  
HETATM   12  C   UNL     1     -11.086  13.482  68.466  1.00  0.00    -0.272 C  
HETATM   13  N   UNL     1     -11.087  12.100  68.581  1.00  0.00    -0.235 N  
HETATM   14  H   UNL     1     -11.963  11.613  68.766  1.00  0.00     0.000 HD 
HETATM   15  N   UNL     1      -8.735  11.950  68.169  1.00  0.00    -0.168 NA 
HETATM   16  N   UNL     1      -8.058  15.450  67.862  1.00  0.00    -0.135 NA 
HETATM   17  C   UNL     1      -7.609  14.184  67.843  1.00  0.00    -0.158 A  
HETATM   18  C   UNL     1      -9.791  14.035  68.223  1.00  0.00    -0.233 A  
HETATM   19  O   UNL     1     -12.101  14.164  68.558  1.00  0.00    -0.342 OA 
HETATM   20  C   UNL     1     -10.193  16.523  68.219  1.00  0.00    -0.268 C  
HETATM   21  C   UNL     1      -8.664  13.284  68.074  1.00  0.00    -0.186 A  
HETATM   22  N   UNL     1      -9.389  15.330  68.103  1.00  0.00    -0.196 NA 
BRANCH  17  23
HETATM   23  C   UNL     1      -6.162  13.914  67.599  1.00  0.00    -0.109 C  
BRANCH  23  24
HETATM   24  C   UNL     1      -5.375  13.535  68.856  1.00  0.00    -0.074 C  
HETATM   25  C   UNL     1      -5.975  14.088  70.143  1.00  0.00    -0.151 C  
ENDBRANCH  23  24
ENDBRANCH  17  23
ENDBRANCH   6  11
BRANCH   9  26
HETATM   26  S   UNL     1      -9.224   6.620  66.331  1.00  0.00    -0.126 S  
HETATM   27  O   UNL     1      -8.368   7.388  65.458  1.00  0.00    -0.134 OA 
HETATM   28  O   UNL     1     -10.419   5.953  65.868  1.00  0.00     0.148 OA 
BRANCH  26  29
HETATM   29  N   UNL     1      -8.218   5.467  67.096  1.00  0.00    -0.102 N  
HETATM   30  H   UNL     1      -7.305   5.720  67.473  1.00  0.00     0.000 HD 
BRANCH  29  31
HETATM   31  C   UNL     1      -8.739   4.088  67.183  1.00  0.00    -0.112 C  
BRANCH  31  32
HETATM   32  C   UNL     1      -9.569   3.866  68.443  1.00  0.00    -0.179 C  
BRANCH  32  33
HETATM   33  C   UNL     1      -8.896   2.810  69.340  1.00  0.00    -0.095 C  
HETATM   34  C   UNL     1      -7.507   2.409  68.847  1.00  0.00    -0.044 C  
HETATM   35  C   UNL     1      -6.851   1.865  70.093  1.00  0.00    -0.033 C  
HETATM   36  C   UNL     1      -9.767   3.015  71.609  1.00  0.00    -0.158 C  
HETATM   37  N   UNL     1      -8.662   3.317  70.704  1.00  0.00    -0.071 NA 
HETATM   38  C   UNL     1      -7.391   2.759  71.195  1.00  0.00    -0.033 C  
ENDBRANCH  32  33
ENDBRANCH  31  32
ENDBRANCH  29  31
ENDBRANCH  26  29
ENDBRANCH   9  26
ENDBRANCH   4   5
ENDBRANCH   3   4
ENDBRANCH   2   3
TORSDOF 11
ENDMDL
MODEL      240
REMARK 921   NORMALIZED FREE ENERGY PREDICTED BY IDOCK:   -3.39 KCAL/MOL
REMARK 922        TOTAL FREE ENERGY PREDICTED BY IDOCK:   -7.80 KCAL/MOL
REMARK 923 INTER-LIGAND FREE ENERGY PREDICTED BY IDOCK:   -7.82 KCAL/MOL
REMARK 924 INTRA-LIGAND FREE ENERGY PREDICTED BY IDOCK:    0.01 KCAL/MOL
REMARK 927      BINDING AFFINITY PREDICTED BY RF-SCORE:    0.00 PKD
ROOT
HETATM    1  C   UNL     1      -5.237   9.748  73.667  1.00  0.00    -0.009 C  
HETATM    2  C   UNL     1      -5.882   8.396  73.421  1.00  0.00    -0.087 C  
ENDROOT
BRANCH   2   3
HETATM    3  C   UNL     1      -7.269   8.517  72.812  1.00  0.00    -0.009 C  
BRANCH   3   4
HETATM    4  O   UNL     1      -7.309   8.049  71.451  1.00  0.00    -0.062 OA 
BRANCH   4   5
HETATM    5  C   UNL     1      -7.249   9.049  70.497  1.00  0.00    -0.081 A  
HETATM    6  C   UNL     1      -8.442   9.569  69.939  1.00  0.00    -0.198 A  
HETATM    7  C   UNL     1      -8.361  10.542  68.914  1.00  0.00    -0.147 A  
HETATM    8  C   UNL     1      -6.019   9.537  70.035  1.00  0.00    -0.041 A  
HETATM    9  C   UNL     1      -7.111  10.968  68.444  1.00  0.00    -0.074 A  
HETATM   10  C   UNL     1      -5.951  10.450  68.997  1.00  0.00    -0.040 A  
BRANCH   6  11
HETATM   11  C   UNL     1      -9.820   9.106  70.379  1.00  0.00    -0.218 C  
HETATM   12  C   UNL     1     -11.290   7.308  70.719  1.00  0.00    -0.285 C  
HETATM   13  N   UNL     1     -10.067   7.822  70.316  1.00  0.00    -0.194 N  
HETATM   14  H   UNL     1      -9.348   7.189  69.965  1.00  0.00     0.000 HD 
HETATM   15  N   UNL     1     -10.722  10.070  70.802  1.00  0.00    -0.277 NA 
HETATM   16  N   UNL     1     -13.996   9.373  72.066  1.00  0.00    -0.313 NA 
HETATM   17  C   UNL     1     -13.047  10.273  71.762  1.00  0.00    -0.465 A  
HETATM   18  C   UNL     1     -12.196   8.300  71.204  1.00  0.00    -0.233 A  
HETATM   19  O   UNL     1     -11.570   6.115  70.660  1.00  0.00    -0.321 OA 
HETATM   20  C   UNL     1     -14.201   6.968  71.950  1.00  0.00    -0.217 C  
HETATM   21  C   UNL     1     -11.913   9.633  71.232  1.00  0.00    -0.380 A  
HETATM   22  N   UNL     1     -13.448   8.179  71.724  1.00  0.00    -0.347 NA 
BRANCH  17  23
HETATM   23  C   UNL     1     -13.296  11.724  72.005  1.00  0.00    -0.417 C  
BRANCH  23  24
HETATM   24  C   UNL     1     -12.889  12.633  70.842  1.00  0.00    -0.178 C  
HETATM   25  C   UNL     1     -12.211  13.923  71.284  1.00  0.00    -0.353 C  
ENDBRANCH  23  24
ENDBRANCH  17  23
ENDBRANCH   6  11
BRANCH   9  26
HETATM   26  S   UNL     1      -6.958  12.106  67.085  1.00  0.00    -0.074 S  
HETATM   27  O   UNL     1      -5.892  11.622  66.239  1.00  0.00    -0.187 OA 
HETATM   28  O   UNL     1      -6.970  13.437  67.647  1.00  0.00    -0.140 OA 
BRANCH  26  29
HETATM   29  N   UNL     1      -8.408  11.871  66.209  1.00  0.00    -0.391 N  
HETATM   30  H   UNL     1      -8.427  11.339  65.339  1.00  0.00     0.000 HD 
BRANCH  29  31
HETATM   31  C   UNL     1      -9.630  12.477  66.776  1.00  0.00    -0.231 C  
BRANCH  31  32
HETATM   32  C   UNL     1     -10.895  11.775  66.295  1.00  0.00    -0.325 C  
BRANCH  32  33
HETATM   33  C   UNL     1     -10.552  10.776  65.174  1.00  0.00    -0.169 C  
HETATM   34  C   UNL     1     -10.109  11.460  63.883  1.00  0.00    -0.393 C  
HETATM   35  C   UNL     1      -9.318  10.380  63.184  1.00  0.00    -0.340 C  
HETATM   36  C   UNL     1      -9.833   8.670  66.173  1.00  0.00    -0.198 C  
HETATM   37  N   UNL     1      -9.413   9.915  65.537  1.00  0.00    -0.231 NA 
HETATM   38  C   UNL     1      -8.617   9.662  64.324  1.00  0.00    -0.191 C  
ENDBRANCH  32  33
ENDBRANCH  31  32
ENDBRANCH  29  31
ENDBRANCH  26  29
ENDBRANCH   9  26
ENDBRANCH   4   5
ENDBRANCH   3   4
ENDBRANCH   2   3
TORSDOF 11
ENDMDL
MODEL      241
REMARK 921   NORMALIZED FREE ENERGY PREDICTED BY IDOCK:   -3.37 KCAL/MOL
REMARK 922        TOTAL FREE ENERGY PREDICTED BY IDOCK:   -7.77 KCAL/MOL
REMARK 923 INTER-LIGAND FREE ENERGY PREDICTED BY IDOCK:   -6.93 KCAL/MOL
REMARK 924 INTRA-LIGAND FREE ENERGY PREDICTED BY IDOCK:   -0.83 KCAL/MOL
REMARK 927      BINDING AFFINITY PREDICTED BY RF-SCORE:    0.00 PKD
ROOT
HETATM    1  C   UNL     1      -6.088  16.032  70.421  1.00  0.00     0.055 C  
HETATM    2  C   UNL     1      -5.176  15.175  69.563  1.00  0.00    -0.089 C  
ENDROOT
BRANCH   2   3
HETATM    3  C   UNL     1      -5.910  14.535  68.396  1.00  0.00    -0.105 C  
BRANCH   3   4
HETATM    4  O   UNL     1      -7.314  14.360  68.665  1.00  0.00    -0.109 OA 
BRANCH   4   5
HETATM    5  C   UNL     1      -7.929  13.386  67.898  1.00  0.00    -0.155 A  
HETATM    6  C   UNL     1      -8.861  13.756  66.898  1.00  0.00    -0.203 A  
HETATM    7  C   UNL     1      -9.534  12.745  66.170  1.00  0.00    -0.169 A  
HETATM    8  C   UNL     1      -7.677  12.024  68.116  1.00  0.00    -0.135 A  
HETATM    9  C   UNL     1      -9.293  11.394  66.453  1.00  0.00    -0.204 A  
HETATM   10  C   UNL     1      -8.378  11.045  67.435  1.00  0.00    -0.126 A  
BRANCH   6  11
HETATM   11  C   UNL     1      -9.195  15.204  66.587  1.00  0.00    -0.270 C  
HETATM   12  C   UNL     1     -10.426  16.716  65.280  1.00  0.00    -0.173 C  
HETATM   13  N   UNL     1     -10.047  15.426  65.618  1.00  0.00    -0.352 N  
HETATM   14  H   UNL     1     -10.437  14.637  65.103  1.00  0.00     0.000 HD 
HETATM   15  N   UNL     1      -8.567  16.188  67.336  1.00  0.00    -0.176 NA 
HETATM   16  N   UNL     1      -9.205  19.695  67.023  1.00  0.00    -0.325 NA 
HETATM   17  C   UNL     1      -8.547  18.694  67.630  1.00  0.00    -0.272 A  
HETATM   18  C   UNL     1      -9.818  17.722  66.092  1.00  0.00    -0.244 A  
HETATM   19  O   UNL     1     -11.207  16.970  64.369  1.00  0.00    -1.167 OA 
HETATM   20  C   UNL     1     -10.856  19.866  65.267  1.00  0.00     0.162 C  
HETATM   21  C   UNL     1      -8.916  17.456  67.077  1.00  0.00    -0.242 A  
HETATM   22  N   UNL     1      -9.978  19.074  66.095  1.00  0.00    -0.432 NA 
BRANCH  17  23
HETATM   23  C   UNL     1      -7.584  18.999  68.728  1.00  0.00    -0.375 C  
BRANCH  23  24
HETATM   24  C   UNL     1      -6.552  20.073  68.376  1.00  0.00    -0.331 C  
HETATM   25  C   UNL     1      -5.734  20.549  69.569  1.00  0.00    -0.395 C  
ENDBRANCH  23  24
ENDBRANCH  17  23
ENDBRANCH   6  11
BRANCH   9  26
HETATM   26  S   UNL     1     -10.192  10.090  65.643  1.00  0.00    -0.099 S  
HETATM   27  O   UNL     1     -10.624  10.599  64.363  1.00  0.00    -0.308 OA 
HETATM   28  O   UNL     1     -11.106   9.539  66.616  1.00  0.00     0.128 OA 
BRANCH  26  29
HETATM   29  N   UNL     1      -8.983   8.926  65.311  1.00  0.00    -0.319 N  
HETATM   30  H   UNL     1      -8.739   8.200  65.985  1.00  0.00     0.000 HD 
BRANCH  29  31
HETATM   31  C   UNL     1      -8.312   9.024  63.999  1.00  0.00    -0.176 C  
BRANCH  31  32
HETATM   32  C   UNL     1      -7.352   7.864  63.756  1.00  0.00    -0.103 C  
BRANCH  32  33
HETATM   33  C   UNL     1      -6.121   7.996  64.673  1.00  0.00    -0.049 C  
HETATM   34  C   UNL     1      -6.001   9.378  65.312  1.00  0.00    -0.063 C  
HETATM   35  C   UNL     1      -5.143   9.114  66.526  1.00  0.00    -0.033 C  
HETATM   36  C   UNL     1      -5.535   5.795  65.547  1.00  0.00    -0.013 C  
HETATM   37  N   UNL     1      -6.188   7.072  65.818  1.00  0.00    -0.036 NA 
HETATM   38  C   UNL     1      -5.602   7.743  66.991  1.00  0.00    -0.032 C  
ENDBRANCH  32  33
ENDBRANCH  31  32
ENDBRANCH  29  31
ENDBRANCH  26  29
ENDBRANCH   9  26
ENDBRANCH   4   5
ENDBRANCH   3   4
ENDBRANCH   2   3
TORSDOF 11
ENDMDL
MODEL      242
REMARK 921   NORMALIZED FREE ENERGY PREDICTED BY IDOCK:   -3.34 KCAL/MOL
REMARK 922        TOTAL FREE ENERGY PREDICTED BY IDOCK:   -7.73 KCAL/MOL
REMARK 923 INTER-LIGAND FREE ENERGY PREDICTED BY IDOCK:   -5.74 KCAL/MOL
REMARK 924 INTRA-LIGAND FREE ENERGY PREDICTED BY IDOCK:   -1.99 KCAL/MOL
REMARK 927      BINDING AFFINITY PREDICTED BY RF-SCORE:    0.00 PKD
ROOT
HETATM    1  C   UNL     1      -8.855   9.689  63.804  1.00  0.00    -0.257 C  
HETATM    2  C   UNL     1      -8.313   8.446  64.487  1.00  0.00    -0.125 C  
ENDROOT
BRANCH   2   3
HETATM    3  C   UNL     1      -6.814   8.522  64.726  1.00  0.00    -0.072 C  
BRANCH   3   4
HETATM    4  O   UNL     1      -6.479   8.419  66.122  1.00  0.00    -0.052 OA 
BRANCH   4   5
HETATM    5  C   UNL     1      -6.476   9.622  66.803  1.00  0.00    -0.067 A  
HETATM    6  C   UNL     1      -7.103   9.721  68.069  1.00  0.00    -0.079 A  
HETATM    7  C   UNL     1      -7.153  10.976  68.723  1.00  0.00    -0.086 A  
HETATM    8  C   UNL     1      -5.895  10.770  66.247  1.00  0.00    -0.122 A  
HETATM    9  C   UNL     1      -6.605  12.111  68.110  1.00  0.00    -0.061 A  
HETATM   10  C   UNL     1      -5.995  12.001  66.870  1.00  0.00    -0.076 A  
BRANCH   6  11
HETATM   11  C   UNL     1      -7.755   8.532  68.754  1.00  0.00    -0.102 C  
HETATM   12  C   UNL     1      -9.315   6.783  68.625  1.00  0.00    -0.131 C  
HETATM   13  N   UNL     1      -8.683   7.894  68.087  1.00  0.00    -0.126 N  
HETATM   14  H   UNL     1      -8.946   8.219  67.157  1.00  0.00     0.000 HD 
HETATM   15  N   UNL     1      -7.334   8.213  70.036  1.00  0.00    -0.060 NA 
HETATM   16  N   UNL     1      -8.499   5.399  71.915  1.00  0.00    -0.126 NA 
HETATM   17  C   UNL     1      -7.702   6.478  71.830  1.00  0.00    -0.098 A  
HETATM   18  C   UNL     1      -8.840   6.428  69.925  1.00  0.00    -0.142 A  
HETATM   19  O   UNL     1     -10.202   6.167  68.043  1.00  0.00    -0.144 OA 
HETATM   20  C   UNL     1     -10.115   4.325  70.475  1.00  0.00    -0.056 C  
HETATM   21  C   UNL     1      -7.887   7.131  70.599  1.00  0.00    -0.096 A  
HETATM   22  N   UNL     1      -9.175   5.388  70.737  1.00  0.00    -0.147 NA 
BRANCH  17  23
HETATM   23  C   UNL     1      -6.795   6.819  72.964  1.00  0.00    -0.075 C  
BRANCH  23  24
HETATM   24  C   UNL     1      -7.372   7.846  73.941  1.00  0.00    -0.178 C  
HETATM   25  C   UNL     1      -6.355   8.875  74.418  1.00  0.00    -0.092 C  
ENDBRANCH  23  24
ENDBRANCH  17  23
ENDBRANCH   6  11
BRANCH   9  26
HETATM   26  S   UNL     1      -6.738  13.728  68.840  1.00  0.00    -0.111 S  
HETATM   27  O   UNL     1      -6.298  14.683  67.849  1.00  0.00    -0.135 OA 
HETATM   28  O   UNL     1      -6.156  13.644  70.159  1.00  0.00    -0.142 OA 
BRANCH  26  29
HETATM   29  N   UNL     1      -8.426  13.949  69.001  1.00  0.00    -0.357 N  
HETATM   30  H   UNL     1      -8.823  14.505  69.759  1.00  0.00     0.000 HD 
BRANCH  29  31
HETATM   31  C   UNL     1      -9.280  13.296  67.989  1.00  0.00    -0.217 C  
BRANCH  31  32
HETATM   32  C   UNL     1     -10.030  14.308  67.130  1.00  0.00    -0.255 C  
BRANCH  32  33
HETATM   33  C   UNL     1     -11.172  14.948  67.943  1.00  0.00    -0.315 C  
HETATM   34  C   UNL     1     -11.870  13.955  68.870  1.00  0.00    -0.393 C  
HETATM   35  C   UNL     1     -12.495  14.850  69.913  1.00  0.00    -0.273 C  
HETATM   36  C   UNL     1     -10.712  17.325  68.233  1.00  0.00    -0.349 C  
HETATM   37  N   UNL     1     -10.678  16.001  68.847  1.00  0.00    -0.257 NA 
HETATM   38  C   UNL     1     -11.471  15.958  70.087  1.00  0.00    -0.361 C  
ENDBRANCH  32  33
ENDBRANCH  31  32
ENDBRANCH  29  31
ENDBRANCH  26  29
ENDBRANCH   9  26
ENDBRANCH   4   5
ENDBRANCH   3   4
ENDBRANCH   2   3
TORSDOF 11
ENDMDL
MODEL      243
REMARK 921   NORMALIZED FREE ENERGY PREDICTED BY IDOCK:   -3.32 KCAL/MOL
REMARK 922        TOTAL FREE ENERGY PREDICTED BY IDOCK:   -7.68 KCAL/MOL
REMARK 923 INTER-LIGAND FREE ENERGY PREDICTED BY IDOCK:   -6.26 KCAL/MOL
REMARK 924 INTRA-LIGAND FREE ENERGY PREDICTED BY IDOCK:   -1.42 KCAL/MOL
REMARK 927      BINDING AFFINITY PREDICTED BY RF-SCORE:    0.00 PKD
ROOT
HETATM    1  C   UNL     1      -8.083  10.249  62.588  1.00  0.00    -0.164 C  
HETATM    2  C   UNL     1      -7.055   9.882  63.642  1.00  0.00    -0.121 C  
ENDROOT
BRANCH   2   3
HETATM    3  C   UNL     1      -7.529   8.760  64.550  1.00  0.00    -0.106 C  
BRANCH   3   4
HETATM    4  O   UNL     1      -8.965   8.670  64.602  1.00  0.00    -0.040 OA 
BRANCH   4   5
HETATM    5  C   UNL     1      -9.544   9.324  65.674  1.00  0.00    -0.254 A  
HETATM    6  C   UNL     1      -9.896   8.600  66.839  1.00  0.00    -0.305 A  
HETATM    7  C   UNL     1     -10.552   9.271  67.901  1.00  0.00    -0.288 A  
HETATM    8  C   UNL     1      -9.829  10.696  65.620  1.00  0.00    -0.307 A  
HETATM    9  C   UNL     1     -10.865  10.632  67.787  1.00  0.00    -0.286 A  
HETATM   10  C   UNL     1     -10.515  11.329  66.641  1.00  0.00    -0.292 A  
BRANCH   6  11
HETATM   11  C   UNL     1      -9.623   7.114  66.992  1.00  0.00    -0.159 C  
HETATM   12  C   UNL     1      -9.985   4.941  66.184  1.00  0.00    -0.231 C  
HETATM   13  N   UNL     1     -10.196   6.310  66.133  1.00  0.00    -0.410 N  
HETATM   14  H   UNL     1     -10.809   6.696  65.415  1.00  0.00     0.000 HD 
HETATM   15  N   UNL     1      -8.801   6.711  68.034  1.00  0.00    -0.116 NA 
HETATM   16  N   UNL     1      -7.786   3.332  68.630  1.00  0.00    -0.058 NA 
HETATM   17  C   UNL     1      -7.737   4.628  68.980  1.00  0.00    -0.071 A  
HETATM   18  C   UNL     1      -9.094   4.537  67.226  1.00  0.00    -0.127 A  
HETATM   19  O   UNL     1     -10.515   4.150  65.411  1.00  0.00    -0.201 OA 
HETATM   20  C   UNL     1      -8.870   2.049  66.893  1.00  0.00    -0.128 C  
HETATM   21  C   UNL     1      -8.534   5.401  68.118  1.00  0.00    -0.097 A  
HETATM   22  N   UNL     1      -8.613   3.306  67.554  1.00  0.00    -0.098 NA 
BRANCH  17  23
HETATM   23  C   UNL     1      -6.909   5.050  70.147  1.00  0.00    -0.044 C  
BRANCH  23  24
HETATM   24  C   UNL     1      -6.718   3.961  71.205  1.00  0.00    -0.031 C  
HETATM   25  C   UNL     1      -7.813   3.939  72.264  1.00  0.00    -0.076 C  
ENDBRANCH  23  24
ENDBRANCH  17  23
ENDBRANCH   6  11
BRANCH   9  26
HETATM   26  S   UNL     1     -11.783  11.492  69.045  1.00  0.00    -0.355 S  
HETATM   27  O   UNL     1     -10.873  11.754  70.136  1.00  0.00     0.332 OA 
HETATM   28  O   UNL     1     -13.029  10.782  69.218  1.00  0.00    -0.021 OA 
BRANCH  26  29
HETATM   29  N   UNL     1     -12.114  13.008  68.324  1.00  0.00    -0.250 N  
HETATM   30  H   UNL     1     -12.905  13.139  67.693  1.00  0.00     0.000 HD 
BRANCH  29  31
HETATM   31  C   UNL     1     -11.198  14.116  68.662  1.00  0.00    -0.266 C  
BRANCH  31  32
HETATM   32  C   UNL     1     -10.492  14.674  67.431  1.00  0.00    -0.255 C  
BRANCH  32  33
HETATM   33  C   UNL     1      -9.389  15.661  67.856  1.00  0.00    -0.195 C  
HETATM   34  C   UNL     1      -7.996  15.226  67.404  1.00  0.00    -0.211 C  
HETATM   35  C   UNL     1      -7.222  16.522  67.404  1.00  0.00    -0.178 C  
HETATM   36  C   UNL     1     -10.352  17.891  68.078  1.00  0.00    -0.387 C  
HETATM   37  N   UNL     1      -9.571  16.987  67.240  1.00  0.00    -0.240 NA 
HETATM   38  C   UNL     1      -8.242  17.543  66.933  1.00  0.00    -0.228 C  
ENDBRANCH  32  33
ENDBRANCH  31  32
ENDBRANCH  29  31
ENDBRANCH  26  29
ENDBRANCH   9  26
ENDBRANCH   4   5
ENDBRANCH   3   4
ENDBRANCH   2   3
TORSDOF 11
ENDMDL
MODEL      244
REMARK 921   NORMALIZED FREE ENERGY PREDICTED BY IDOCK:   -3.31 KCAL/MOL
REMARK 922        TOTAL FREE ENERGY PREDICTED BY IDOCK:   -7.68 KCAL/MOL
REMARK 923 INTER-LIGAND FREE ENERGY PREDICTED BY IDOCK:   -5.93 KCAL/MOL
REMARK 924 INTRA-LIGAND FREE ENERGY PREDICTED BY IDOCK:   -1.75 KCAL/MOL
REMARK 927      BINDING AFFINITY PREDICTED BY RF-SCORE:    0.00 PKD
ROOT
HETATM    1  C   UNL     1      -8.413  15.910  69.594  1.00  0.00     0.052 C  
HETATM    2  C   UNL     1      -7.266  15.793  68.607  1.00  0.00    -0.135 C  
ENDROOT
BRANCH   2   3
HETATM    3  C   UNL     1      -6.427  14.547  68.837  1.00  0.00    -0.092 C  
BRANCH   3   4
HETATM    4  O   UNL     1      -7.233  13.400  69.166  1.00  0.00    -0.068 OA 
BRANCH   4   5
HETATM    5  C   UNL     1      -7.516  12.571  68.096  1.00  0.00    -0.117 A  
HETATM    6  C   UNL     1      -8.835  12.092  67.901  1.00  0.00    -0.174 A  
HETATM    7  C   UNL     1      -9.095  11.187  66.842  1.00  0.00    -0.166 A  
HETATM    8  C   UNL     1      -6.510  12.156  67.213  1.00  0.00    -0.152 A  
HETATM    9  C   UNL     1      -8.051  10.757  66.012  1.00  0.00    -0.158 A  
HETATM   10  C   UNL     1      -6.765  11.233  66.214  1.00  0.00    -0.011 A  
BRANCH   6  11
HETATM   11  C   UNL     1      -9.990  12.489  68.802  1.00  0.00    -0.015 C  
HETATM   12  C   UNL     1     -11.406  14.195  69.572  1.00  0.00    -0.259 C  
HETATM   13  N   UNL     1     -10.347  13.748  68.798  1.00  0.00    -0.330 N  
HETATM   14  H   UNL     1      -9.836  14.412  68.216  1.00  0.00     0.000 HD 
HETATM   15  N   UNL     1     -10.579  11.498  69.575  1.00  0.00    -0.020 NA 
HETATM   16  N   UNL     1     -13.420  11.993  71.692  1.00  0.00    -0.117 NA 
HETATM   17  C   UNL     1     -12.493  11.164  71.184  1.00  0.00    -0.393 A  
HETATM   18  C   UNL     1     -12.042  13.160  70.324  1.00  0.00    -0.328 A  
HETATM   19  O   UNL     1     -11.761  15.369  69.612  1.00  0.00    -0.294 OA 
HETATM   20  C   UNL     1     -13.960  14.336  71.461  1.00  0.00    -0.339 C  
HETATM   21  C   UNL     1     -11.628  11.862  70.323  1.00  0.00    -0.089 A  
HETATM   22  N   UNL     1     -13.127  13.200  71.146  1.00  0.00    -0.188 NA 
BRANCH  17  23
HETATM   23  C   UNL     1     -12.497   9.722  71.567  1.00  0.00    -0.495 C  
BRANCH  23  24
HETATM   24  C   UNL     1     -13.651   8.917  70.963  1.00  0.00     0.009 C  
HETATM   25  C   UNL     1     -14.201   7.845  71.895  1.00  0.00    -0.508 C  
ENDBRANCH  23  24
ENDBRANCH  17  23
ENDBRANCH   6  11
BRANCH   9  26
HETATM   26  S   UNL     1      -8.305   9.541  64.738  1.00  0.00    -0.163 S  
HETATM   27  O   UNL     1      -8.328   8.248  65.380  1.00  0.00    -0.146 OA 
HETATM   28  O   UNL     1      -7.401   9.865  63.659  1.00  0.00    -0.119 OA 
BRANCH  26  29
HETATM   29  N   UNL     1      -9.906   9.845  64.218  1.00  0.00    -0.433 N  
HETATM   30  H   UNL     1     -10.700   9.331  64.601  1.00  0.00     0.000 HD 
BRANCH  29  31
HETATM   31  C   UNL     1     -10.081  10.890  63.189  1.00  0.00    -0.264 C  
BRANCH  31  32
HETATM   32  C   UNL     1     -11.432  11.588  63.302  1.00  0.00    -0.180 C  
BRANCH  32  33
HETATM   33  C   UNL     1     -11.362  12.704  64.363  1.00  0.00    -0.344 C  
HETATM   34  C   UNL     1     -11.368  14.104  63.754  1.00  0.00     0.405 C  
HETATM   35  C   UNL     1     -11.859  14.965  64.893  1.00  0.00    -0.337 C  
HETATM   36  C   UNL     1     -12.326  11.885  66.449  1.00  0.00     1.103 C  
HETATM   37  N   UNL     1     -12.538  12.691  65.250  1.00  0.00    -0.663 NA 
HETATM   38  C   UNL     1     -12.881  14.083  65.587  1.00  0.00    -0.406 C  
ENDBRANCH  32  33
ENDBRANCH  31  32
ENDBRANCH  29  31
ENDBRANCH  26  29
ENDBRANCH   9  26
ENDBRANCH   4   5
ENDBRANCH   3   4
ENDBRANCH   2   3
TORSDOF 11
ENDMDL
MODEL      245
REMARK 921   NORMALIZED FREE ENERGY PREDICTED BY IDOCK:   -3.29 KCAL/MOL
REMARK 922        TOTAL FREE ENERGY PREDICTED BY IDOCK:   -7.63 KCAL/MOL
REMARK 923 INTER-LIGAND FREE ENERGY PREDICTED BY IDOCK:   -6.98 KCAL/MOL
REMARK 924 INTRA-LIGAND FREE ENERGY PREDICTED BY IDOCK:   -0.65 KCAL/MOL
REMARK 927      BINDING AFFINITY PREDICTED BY RF-SCORE:    0.00 PKD
ROOT
HETATM    1  C   UNL     1      -7.933   8.324  64.791  1.00  0.00    -0.146 C  
HETATM    2  C   UNL     1      -8.930   9.463  64.675  1.00  0.00    -0.233 C  
ENDROOT
BRANCH   2   3
HETATM    3  C   UNL     1      -8.622  10.604  65.630  1.00  0.00    -0.182 C  
BRANCH   3   4
HETATM    4  O   UNL     1      -7.649  10.235  66.624  1.00  0.00    -0.104 OA 
BRANCH   4   5
HETATM    5  C   UNL     1      -8.183   9.686  67.776  1.00  0.00    -0.114 A  
HETATM    6  C   UNL     1      -8.879  10.509  68.696  1.00  0.00    -0.147 A  
HETATM    7  C   UNL     1      -9.359   9.946  69.903  1.00  0.00    -0.250 A  
HETATM    8  C   UNL     1      -8.016   8.328  68.077  1.00  0.00    -0.123 A  
HETATM    9  C   UNL     1      -9.127   8.594  70.191  1.00  0.00    -0.158 A  
HETATM   10  C   UNL     1      -8.445   7.800  69.283  1.00  0.00    -0.138 A  
BRANCH   6  11
HETATM   11  C   UNL     1      -9.112  11.989  68.454  1.00  0.00    -0.158 C  
HETATM   12  C   UNL     1      -8.410  14.195  68.843  1.00  0.00    -0.003 C  
HETATM   13  N   UNL     1      -8.286  12.827  69.028  1.00  0.00    -0.313 N  
HETATM   14  H   UNL     1      -7.538  12.467  69.620  1.00  0.00     0.000 HD 
HETATM   15  N   UNL     1     -10.188  12.353  67.657  1.00  0.00    -0.205 NA 
HETATM   16  N   UNL     1     -10.974  15.715  66.717  1.00  0.00    -0.279 NA 
HETATM   17  C   UNL     1     -11.258  14.403  66.649  1.00  0.00    -0.339 A  
HETATM   18  C   UNL     1      -9.487  14.560  67.978  1.00  0.00    -0.209 A  
HETATM   19  O   UNL     1      -7.669  15.015  69.376  1.00  0.00    -0.188 OA 
HETATM   20  C   UNL     1      -9.287  17.066  67.797  1.00  0.00    -0.237 C  
HETATM   21  C   UNL     1     -10.344  13.662  67.417  1.00  0.00    -0.244 A  
HETATM   22  N   UNL     1      -9.886  15.781  67.527  1.00  0.00    -0.228 NA 
BRANCH  17  23
HETATM   23  C   UNL     1     -12.416  13.937  65.833  1.00  0.00    -0.519 C  
BRANCH  23  24
HETATM   24  C   UNL     1     -12.110  13.785  64.341  1.00  0.00    -0.474 C  
HETATM   25  C   UNL     1     -11.944  12.337  63.897  1.00  0.00    -0.582 C  
ENDBRANCH  23  24
ENDBRANCH  17  23
ENDBRANCH   6  11
BRANCH   9  26
HETATM   26  S   UNL     1      -9.615   7.868  71.740  1.00  0.00    -0.176 S  
HETATM   27  O   UNL     1     -10.978   7.416  71.591  1.00  0.00    -0.224 OA 
HETATM   28  O   UNL     1      -9.200   8.779  72.782  1.00  0.00    -0.305 OA 
BRANCH  26  29
HETATM   29  N   UNL     1      -8.651   6.458  71.835  1.00  0.00    -0.127 N  
HETATM   30  H   UNL     1      -7.730   6.467  72.274  1.00  0.00     0.000 HD 
BRANCH  29  31
HETATM   31  C   UNL     1      -9.219   5.227  71.249  1.00  0.00    -0.146 C  
BRANCH  31  32
HETATM   32  C   UNL     1      -8.145   4.193  70.931  1.00  0.00    -0.070 C  
BRANCH  32  33
HETATM   33  C   UNL     1      -8.279   3.724  69.469  1.00  0.00    -0.053 C  
HETATM   34  C   UNL     1      -7.210   4.318  68.554  1.00  0.00    -0.056 C  
HETATM   35  C   UNL     1      -7.171   3.340  67.404  1.00  0.00    -0.058 C  
HETATM   36  C   UNL     1      -9.356   1.536  69.427  1.00  0.00    -0.104 C  
HETATM   37  N   UNL     1      -8.096   2.268  69.341  1.00  0.00    -0.044 NA 
HETATM   38  C   UNL     1      -7.397   1.997  68.074  1.00  0.00    -0.047 C  
ENDBRANCH  32  33
ENDBRANCH  31  32
ENDBRANCH  29  31
ENDBRANCH  26  29
ENDBRANCH   9  26
ENDBRANCH   4   5
ENDBRANCH   3   4
ENDBRANCH   2   3
TORSDOF 11
ENDMDL
MODEL      246
REMARK 921   NORMALIZED FREE ENERGY PREDICTED BY IDOCK:   -3.27 KCAL/MOL
REMARK 922        TOTAL FREE ENERGY PREDICTED BY IDOCK:   -7.61 KCAL/MOL
REMARK 923 INTER-LIGAND FREE ENERGY PREDICTED BY IDOCK:   -7.67 KCAL/MOL
REMARK 924 INTRA-LIGAND FREE ENERGY PREDICTED BY IDOCK:    0.07 KCAL/MOL
REMARK 927      BINDING AFFINITY PREDICTED BY RF-SCORE:    0.00 PKD
ROOT
HETATM    1  C   UNL     1     -13.078  11.771  63.557  1.00  0.00    -0.055 C  
HETATM    2  C   UNL     1     -11.824  12.214  64.287  1.00  0.00    -0.460 C  
ENDROOT
BRANCH   2   3
HETATM    3  C   UNL     1     -11.608  13.717  64.212  1.00  0.00    -0.382 C  
BRANCH   3   4
HETATM    4  O   UNL     1     -10.302  14.104  64.676  1.00  0.00    -0.432 OA 
BRANCH   4   5
HETATM    5  C   UNL     1      -9.704  13.197  65.533  1.00  0.00    -0.043 A  
HETATM    6  C   UNL     1      -9.175  13.635  66.771  1.00  0.00    -0.251 A  
HETATM    7  C   UNL     1      -8.504  12.708  67.606  1.00  0.00    -0.173 A  
HETATM    8  C   UNL     1      -9.572  11.847  65.182  1.00  0.00    -0.132 A  
HETATM    9  C   UNL     1      -8.348  11.377  67.196  1.00  0.00    -0.155 A  
HETATM   10  C   UNL     1      -8.869  10.961  65.981  1.00  0.00    -0.198 A  
BRANCH   6  11
HETATM   11  C   UNL     1      -9.274  15.076  67.239  1.00  0.00    -0.201 C  
HETATM   12  C   UNL     1     -10.660  16.867  67.857  1.00  0.00    -0.361 C  
HETATM   13  N   UNL     1     -10.476  15.568  67.410  1.00  0.00    -0.275 N  
HETATM   14  H   UNL     1     -11.289  14.986  67.210  1.00  0.00     0.000 HD 
HETATM   15  N   UNL     1      -8.093  15.775  67.440  1.00  0.00    -0.155 NA 
HETATM   16  N   UNL     1      -7.899  19.121  68.692  1.00  0.00    -0.344 NA 
HETATM   17  C   UNL     1      -7.271  18.015  68.258  1.00  0.00    -0.248 A  
HETATM   18  C   UNL     1      -9.439  17.563  68.113  1.00  0.00    -0.291 A  
HETATM   19  O   UNL     1     -11.767  17.373  68.013  1.00  0.00     0.549 OA 
HETATM   20  C   UNL     1     -10.197  19.789  69.021  1.00  0.00    -0.266 C  
HETATM   21  C   UNL     1      -8.205  17.027  67.901  1.00  0.00    -0.200 A  
HETATM   22  N   UNL     1      -9.218  18.815  68.600  1.00  0.00    -0.351 NA 
BRANCH  17  23
HETATM   23  C   UNL     1      -5.780  17.978  68.215  1.00  0.00    -0.161 C  
BRANCH  23  24
HETATM   24  C   UNL     1      -5.148  19.114  67.407  1.00  0.00    -0.161 C  
HETATM   25  C   UNL     1      -5.756  19.289  66.020  1.00  0.00    -0.177 C  
ENDBRANCH  23  24
ENDBRANCH  17  23
ENDBRANCH   6  11
BRANCH   9  26
HETATM   26  S   UNL     1      -7.420  10.202  68.157  1.00  0.00    -0.083 S  
HETATM   27  O   UNL     1      -6.797  10.929  69.237  1.00  0.00    -0.081 OA 
HETATM   28  O   UNL     1      -6.672   9.392  67.223  1.00  0.00    -0.073 OA 
BRANCH  26  29
HETATM   29  N   UNL     1      -8.634   9.231  68.870  1.00  0.00    -0.128 N  
HETATM   30  H   UNL     1      -8.402   8.450  69.485  1.00  0.00     0.000 HD 
BRANCH  29  31
HETATM   31  C   UNL     1     -10.033   9.580  68.552  1.00  0.00    -0.167 C  
BRANCH  31  32
HETATM   32  C   UNL     1     -10.724  10.297  69.707  1.00  0.00    -0.328 C  
BRANCH  32  33
HETATM   33  C   UNL     1     -11.745   9.358  70.377  1.00  0.00    -0.144 C  
HETATM   34  C   UNL     1     -11.263   7.911  70.451  1.00  0.00    -0.240 C  
HETATM   35  C   UNL     1     -12.086   7.339  71.580  1.00  0.00    -0.359 C  
HETATM   36  C   UNL     1     -13.119  10.646  71.927  1.00  0.00    -0.458 C  
HETATM   37  N   UNL     1     -11.993   9.729  71.781  1.00  0.00    -0.372 NA 
HETATM   38  C   UNL     1     -12.194   8.495  72.559  1.00  0.00    -0.315 C  
ENDBRANCH  32  33
ENDBRANCH  31  32
ENDBRANCH  29  31
ENDBRANCH  26  29
ENDBRANCH   9  26
ENDBRANCH   4   5
ENDBRANCH   3   4
ENDBRANCH   2   3
TORSDOF 11
ENDMDL
MODEL      247
REMARK 921   NORMALIZED FREE ENERGY PREDICTED BY IDOCK:   -3.24 KCAL/MOL
REMARK 922        TOTAL FREE ENERGY PREDICTED BY IDOCK:   -7.56 KCAL/MOL
REMARK 923 INTER-LIGAND FREE ENERGY PREDICTED BY IDOCK:   -6.29 KCAL/MOL
REMARK 924 INTRA-LIGAND FREE ENERGY PREDICTED BY IDOCK:   -1.27 KCAL/MOL
REMARK 927      BINDING AFFINITY PREDICTED BY RF-SCORE:    0.00 PKD
ROOT
HETATM    1  C   UNL     1     -10.711   3.886  64.670  1.00  0.00    -0.136 C  
HETATM    2  C   UNL     1     -10.450   4.688  65.932  1.00  0.00    -0.305 C  
ENDROOT
BRANCH   2   3
HETATM    3  C   UNL     1      -9.158   5.484  65.857  1.00  0.00    -0.155 C  
BRANCH   3   4
HETATM    4  O   UNL     1      -8.130   4.938  66.704  1.00  0.00    -0.106 OA 
BRANCH   4   5
HETATM    5  C   UNL     1      -8.511   4.746  68.020  1.00  0.00    -0.102 A  
HETATM    6  C   UNL     1      -8.528   5.840  68.920  1.00  0.00    -0.104 A  
HETATM    7  C   UNL     1      -8.853   5.614  70.280  1.00  0.00    -0.146 A  
HETATM    8  C   UNL     1      -8.849   3.473  68.499  1.00  0.00    -0.160 A  
HETATM    9  C   UNL     1      -9.134   4.317  70.730  1.00  0.00    -0.112 A  
HETATM   10  C   UNL     1      -9.115   3.255  69.839  1.00  0.00    -0.199 A  
BRANCH   6  11
HETATM   11  C   UNL     1      -8.183   7.255  68.492  1.00  0.00    -0.125 C  
HETATM   12  C   UNL     1      -6.510   8.799  67.921  1.00  0.00    -0.057 C  
HETATM   13  N   UNL     1      -6.915   7.539  68.332  1.00  0.00    -0.076 N  
HETATM   14  H   UNL     1      -6.213   6.821  68.512  1.00  0.00     0.000 HD 
HETATM   15  N   UNL     1      -9.227   8.151  68.315  1.00  0.00    -0.135 NA 
HETATM   16  N   UNL     1      -8.844  11.515  67.159  1.00  0.00    -0.163 NA 
HETATM   17  C   UNL     1      -9.652  10.521  67.563  1.00  0.00    -0.160 A  
HETATM   18  C   UNL     1      -7.593   9.701  67.688  1.00  0.00    -0.091 A  
HETATM   19  O   UNL     1      -5.333   9.113  67.775  1.00  0.00    -0.034 OA 
HETATM   20  C   UNL     1      -6.465  11.789  66.840  1.00  0.00    -0.121 C  
HETATM   21  C   UNL     1      -8.902   9.378  67.889  1.00  0.00    -0.124 A  
HETATM   22  N   UNL     1      -7.596  10.986  67.237  1.00  0.00    -0.106 NA 
BRANCH  17  23
HETATM   23  C   UNL     1     -11.127  10.738  67.610  1.00  0.00    -0.384 C  
BRANCH  23  24
HETATM   24  C   UNL     1     -11.585  12.064  66.999  1.00  0.00    -0.387 C  
HETATM   25  C   UNL     1     -11.766  12.010  65.487  1.00  0.00    -0.315 C  
ENDBRANCH  23  24
ENDBRANCH  17  23
ENDBRANCH   6  11
BRANCH   9  26
HETATM   26  S   UNL     1      -9.442   3.966  72.447  1.00  0.00    -0.134 S  
HETATM   27  O   UNL     1      -8.287   4.415  73.189  1.00  0.00    -0.094 OA 
HETATM   28  O   UNL     1      -9.942   2.613  72.518  1.00  0.00    -0.135 OA 
BRANCH  26  29
HETATM   29  N   UNL     1     -10.713   5.039  72.846  1.00  0.00    -0.225 N  
HETATM   30  H   UNL     1     -10.922   5.285  73.814  1.00  0.00     0.000 HD 
BRANCH  29  31
HETATM   31  C   UNL     1     -11.492   5.591  71.720  1.00  0.00     0.050 C  
BRANCH  31  32
HETATM   32  C   UNL     1     -12.618   6.504  72.192  1.00  0.00    -0.157 C  
BRANCH  32  33
HETATM   33  C   UNL     1     -12.145   7.970  72.192  1.00  0.00    -0.343 C  
HETATM   34  C   UNL     1     -10.769   8.150  71.554  1.00  0.00    -0.286 C  
HETATM   35  C   UNL     1     -10.771   9.607  71.156  1.00  0.00    -0.365 C  
HETATM   36  C   UNL     1     -14.092   9.439  72.189  1.00  0.00    -0.211 C  
HETATM   37  N   UNL     1     -13.031   8.833  71.392  1.00  0.00    -0.301 NA 
HETATM   38  C   UNL     1     -12.205   9.852  70.722  1.00  0.00    -0.291 C  
ENDBRANCH  32  33
ENDBRANCH  31  32
ENDBRANCH  29  31
ENDBRANCH  26  29
ENDBRANCH   9  26
ENDBRANCH   4   5
ENDBRANCH   3   4
ENDBRANCH   2   3
TORSDOF 11
ENDMDL
MODEL      248
REMARK 921   NORMALIZED FREE ENERGY PREDICTED BY IDOCK:   -3.24 KCAL/MOL
REMARK 922        TOTAL FREE ENERGY PREDICTED BY IDOCK:   -7.56 KCAL/MOL
REMARK 923 INTER-LIGAND FREE ENERGY PREDICTED BY IDOCK:   -5.95 KCAL/MOL
REMARK 924 INTRA-LIGAND FREE ENERGY PREDICTED BY IDOCK:   -1.61 KCAL/MOL
REMARK 927      BINDING AFFINITY PREDICTED BY RF-SCORE:    0.00 PKD
ROOT
HETATM    1  C   UNL     1      -8.758   4.490  70.331  1.00  0.00    -0.116 C  
HETATM    2  C   UNL     1      -7.310   4.936  70.417  1.00  0.00    -0.054 C  
ENDROOT
BRANCH   2   3
HETATM    3  C   UNL     1      -7.171   6.447  70.499  1.00  0.00    -0.074 C  
BRANCH   3   4
HETATM    4  O   UNL     1      -8.317   7.130  69.958  1.00  0.00    -0.134 OA 
BRANCH   4   5
HETATM    5  C   UNL     1      -8.038   8.359  69.389  1.00  0.00    -0.114 A  
HETATM    6  C   UNL     1      -8.041   8.504  67.980  1.00  0.00    -0.115 A  
HETATM    7  C   UNL     1      -7.685   9.751  67.410  1.00  0.00    -0.095 A  
HETATM    8  C   UNL     1      -7.711   9.468  70.181  1.00  0.00    -0.161 A  
HETATM    9  C   UNL     1      -7.314  10.821  68.235  1.00  0.00    -0.086 A  
HETATM   10  C   UNL     1      -7.315  10.666  69.612  1.00  0.00    -0.133 A  
BRANCH   6  11
HETATM   11  C   UNL     1      -8.387   7.362  67.041  1.00  0.00    -0.121 C  
HETATM   12  C   UNL     1      -9.760   5.510  66.596  1.00  0.00    -0.159 C  
HETATM   13  N   UNL     1      -9.361   6.565  67.403  1.00  0.00    -0.120 N  
HETATM   14  H   UNL     1      -9.834   6.723  68.293  1.00  0.00     0.000 HD 
HETATM   15  N   UNL     1      -7.644   7.233  65.877  1.00  0.00    -0.086 NA 
HETATM   16  N   UNL     1      -8.254   4.785  63.339  1.00  0.00    -0.100 NA 
HETATM   17  C   UNL     1      -7.536   5.831  63.782  1.00  0.00    -0.080 A  
HETATM   18  C   UNL     1      -9.026   5.415  65.374  1.00  0.00    -0.124 A  
HETATM   19  O   UNL     1     -10.654   4.730  66.905  1.00  0.00    -0.158 OA 
HETATM   20  C   UNL     1     -10.128   3.501  64.161  1.00  0.00    -0.204 C  
HETATM   21  C   UNL     1      -8.001   6.249  65.041  1.00  0.00    -0.120 A  
HETATM   22  N   UNL     1      -9.159   4.558  64.325  1.00  0.00    -0.151 NA 
BRANCH  17  23
HETATM   23  C   UNL     1      -6.425   6.374  62.948  1.00  0.00    -0.034 C  
BRANCH  23  24
HETATM   24  C   UNL     1      -6.546   7.868  62.639  1.00  0.00    -0.084 C  
HETATM   25  C   UNL     1      -7.971   8.316  62.338  1.00  0.00    -0.156 C  
ENDBRANCH  23  24
ENDBRANCH  17  23
ENDBRANCH   6  11
BRANCH   9  26
HETATM   26  S   UNL     1      -6.755  12.372  67.565  1.00  0.00    -0.154 S  
HETATM   27  O   UNL     1      -5.819  12.070  66.509  1.00  0.00    -0.237 OA 
HETATM   28  O   UNL     1      -6.424  13.221  68.687  1.00  0.00    -0.075 OA 
BRANCH  26  29
HETATM   29  N   UNL     1      -8.152  12.998  66.803  1.00  0.00    -0.398 N  
HETATM   30  H   UNL     1      -8.092  13.569  65.959  1.00  0.00     0.000 HD 
BRANCH  29  31
HETATM   31  C   UNL     1      -9.450  12.670  67.426  1.00  0.00    -0.189 C  
BRANCH  31  32
HETATM   32  C   UNL     1     -10.390  13.870  67.464  1.00  0.00    -0.245 C  
BRANCH  32  33
HETATM   33  C   UNL     1     -10.637  14.302  68.922  1.00  0.00    -0.245 C  
HETATM   34  C   UNL     1     -10.596  15.818  69.107  1.00  0.00    -0.242 C  
HETATM   35  C   UNL     1     -11.389  16.023  70.376  1.00  0.00    -0.405 C  
HETATM   36  C   UNL     1     -11.993  12.611  70.038  1.00  0.00    -0.306 C  
HETATM   37  N   UNL     1     -11.980  13.917  69.388  1.00  0.00    -0.336 NA 
HETATM   38  C   UNL     1     -12.482  14.974  70.283  1.00  0.00    -0.337 C  
ENDBRANCH  32  33
ENDBRANCH  31  32
ENDBRANCH  29  31
ENDBRANCH  26  29
ENDBRANCH   9  26
ENDBRANCH   4   5
ENDBRANCH   3   4
ENDBRANCH   2   3
TORSDOF 11
ENDMDL
MODEL      249
REMARK 921   NORMALIZED FREE ENERGY PREDICTED BY IDOCK:   -3.23 KCAL/MOL
REMARK 922        TOTAL FREE ENERGY PREDICTED BY IDOCK:   -7.53 KCAL/MOL
REMARK 923 INTER-LIGAND FREE ENERGY PREDICTED BY IDOCK:   -6.35 KCAL/MOL
REMARK 924 INTRA-LIGAND FREE ENERGY PREDICTED BY IDOCK:   -1.19 KCAL/MOL
REMARK 927      BINDING AFFINITY PREDICTED BY RF-SCORE:    0.00 PKD
ROOT
HETATM    1  C   UNL     1     -10.348  13.499  65.538  1.00  0.00    -0.309 C  
HETATM    2  C   UNL     1      -9.432  13.955  66.659  1.00  0.00    -0.296 C  
ENDROOT
BRANCH   2   3
HETATM    3  C   UNL     1      -9.677  13.195  67.953  1.00  0.00    -0.221 C  
BRANCH   3   4
HETATM    4  O   UNL     1      -8.496  12.513  68.416  1.00  0.00    -0.168 OA 
BRANCH   4   5
HETATM    5  C   UNL     1      -8.128  11.419  67.653  1.00  0.00    -0.124 A  
HETATM    6  C   UNL     1      -8.639  10.135  67.963  1.00  0.00    -0.118 A  
HETATM    7  C   UNL     1      -8.198   9.015  67.218  1.00  0.00    -0.103 A  
HETATM    8  C   UNL     1      -7.219  11.547  66.593  1.00  0.00    -0.068 A  
HETATM    9  C   UNL     1      -7.249   9.177  66.198  1.00  0.00    -0.090 A  
HETATM   10  C   UNL     1      -6.757  10.439  65.906  1.00  0.00    -0.127 A  
BRANCH   6  11
HETATM   11  C   UNL     1      -9.630   9.900  69.089  1.00  0.00    -0.199 C  
HETATM   12  C   UNL     1     -11.770  10.309  69.962  1.00  0.00    -0.254 C  
HETATM   13  N   UNL     1     -10.796  10.487  68.991  1.00  0.00    -0.216 N  
HETATM   14  H   UNL     1     -10.991  11.085  68.189  1.00  0.00     0.000 HD 
HETATM   15  N   UNL     1      -9.231   9.094  70.145  1.00  0.00    -0.189 NA 
HETATM   16  N   UNL     1     -11.322   8.166  72.896  1.00  0.00    -0.339 NA 
HETATM   17  C   UNL     1     -10.133   8.088  72.275  1.00  0.00    -0.246 A  
HETATM   18  C   UNL     1     -11.372   9.435  71.019  1.00  0.00    -0.337 A  
HETATM   19  O   UNL     1     -12.869  10.854  69.919  1.00  0.00    -0.172 OA 
HETATM   20  C   UNL     1     -13.428   9.270  72.467  1.00  0.00    -0.404 C  
HETATM   21  C   UNL     1     -10.140   8.860  71.101  1.00  0.00    -0.271 A  
HETATM   22  N   UNL     1     -12.060   8.987  72.105  1.00  0.00    -0.360 NA 
BRANCH  17  23
HETATM   23  C   UNL     1      -9.043   7.257  72.864  1.00  0.00    -0.176 C  
BRANCH  23  24
HETATM   24  C   UNL     1      -8.571   7.728  74.242  1.00  0.00    -0.268 C  
HETATM   25  C   UNL     1      -7.059   7.677  74.420  1.00  0.00    -0.139 C  
ENDBRANCH  23  24
ENDBRANCH  17  23
ENDBRANCH   6  11
BRANCH   9  26
HETATM   26  S   UNL     1      -6.584   7.788  65.307  1.00  0.00    -0.041 S  
HETATM   27  O   UNL     1      -5.794   7.019  66.239  1.00  0.00    -0.032 OA 
HETATM   28  O   UNL     1      -6.052   8.300  64.065  1.00  0.00    -0.065 OA 
BRANCH  26  29
HETATM   29  N   UNL     1      -7.967   6.844  64.959  1.00  0.00    -0.121 N  
HETATM   30  H   UNL     1      -8.585   7.067  64.178  1.00  0.00     0.000 HD 
BRANCH  29  31
HETATM   31  C   UNL     1      -8.222   5.691  65.845  1.00  0.00    -0.119 C  
BRANCH  31  32
HETATM   32  C   UNL     1      -9.602   5.083  65.617  1.00  0.00    -0.138 C  
BRANCH  32  33
HETATM   33  C   UNL     1      -9.480   3.566  65.383  1.00  0.00    -0.152 C  
HETATM   34  C   UNL     1      -9.150   3.212  63.935  1.00  0.00    -0.101 C  
HETATM   35  C   UNL     1      -8.538   1.836  64.055  1.00  0.00    -0.079 C  
HETATM   36  C   UNL     1      -8.805   2.488  67.465  1.00  0.00    -0.136 C  
HETATM   37  N   UNL     1      -8.374   2.979  66.160  1.00  0.00    -0.095 NA 
HETATM   38  C   UNL     1      -7.758   1.910  65.355  1.00  0.00    -0.072 C  
ENDBRANCH  32  33
ENDBRANCH  31  32
ENDBRANCH  29  31
ENDBRANCH  26  29
ENDBRANCH   9  26
ENDBRANCH   4   5
ENDBRANCH   3   4
ENDBRANCH   2   3
TORSDOF 11
ENDMDL
MODEL      250
REMARK 921   NORMALIZED FREE ENERGY PREDICTED BY IDOCK:   -3.22 KCAL/MOL
REMARK 922        TOTAL FREE ENERGY PREDICTED BY IDOCK:   -7.52 KCAL/MOL
REMARK 923 INTER-LIGAND FREE ENERGY PREDICTED BY IDOCK:   -5.62 KCAL/MOL
REMARK 924 INTRA-LIGAND FREE ENERGY PREDICTED BY IDOCK:   -1.90 KCAL/MOL
REMARK 927      BINDING AFFINITY PREDICTED BY RF-SCORE:    0.00 PKD
ROOT
HETATM    1  C   UNL     1     -10.810   5.039  67.267  1.00  0.00     0.277 C  
HETATM    2  C   UNL     1     -10.523   4.518  65.870  1.00  0.00    -0.262 C  
ENDROOT
BRANCH   2   3
HETATM    3  C   UNL     1      -9.119   3.951  65.739  1.00  0.00    -0.145 C  
BRANCH   3   4
HETATM    4  O   UNL     1      -8.166   4.664  66.549  1.00  0.00    -0.106 OA 
BRANCH   4   5
HETATM    5  C   UNL     1      -7.908   5.957  66.130  1.00  0.00    -0.104 A  
HETATM    6  C   UNL     1      -7.690   6.980  67.084  1.00  0.00    -0.108 A  
HETATM    7  C   UNL     1      -7.497   8.312  66.642  1.00  0.00    -0.086 A  
HETATM    8  C   UNL     1      -7.897   6.290  64.769  1.00  0.00    -0.110 A  
HETATM    9  C   UNL     1      -7.543   8.612  65.273  1.00  0.00    -0.088 A  
HETATM   10  C   UNL     1      -7.759   7.601  64.350  1.00  0.00    -0.127 A  
BRANCH   6  11
HETATM   11  C   UNL     1      -7.678   6.715  68.579  1.00  0.00    -0.105 C  
HETATM   12  C   UNL     1      -6.552   5.789  70.419  1.00  0.00    -0.044 C  
HETATM   13  N   UNL     1      -6.656   6.055  69.062  1.00  0.00    -0.049 N  
HETATM   14  H   UNL     1      -5.924   5.732  68.430  1.00  0.00     0.000 HD 
HETATM   15  N   UNL     1      -8.753   7.175  69.327  1.00  0.00    -0.136 NA 
HETATM   16  N   UNL     1      -9.020   6.899  72.884  1.00  0.00    -0.126 NA 
HETATM   17  C   UNL     1      -9.542   7.317  71.718  1.00  0.00    -0.150 A  
HETATM   18  C   UNL     1      -7.634   6.313  71.190  1.00  0.00    -0.094 A  
HETATM   19  O   UNL     1      -5.621   5.160  70.910  1.00  0.00    -0.011 OA 
HETATM   20  C   UNL     1      -7.008   5.748  73.564  1.00  0.00    -0.085 C  
HETATM   21  C   UNL     1      -8.696   6.974  70.650  1.00  0.00    -0.149 A  
HETATM   22  N   UNL     1      -7.855   6.297  72.533  1.00  0.00    -0.102 NA 
BRANCH  17  23
HETATM   23  C   UNL     1     -10.849   8.037  71.707  1.00  0.00    -0.297 C  
BRANCH  23  24
HETATM   24  C   UNL     1     -12.063   7.134  71.939  1.00  0.00    -0.357 C  
HETATM   25  C   UNL     1     -13.273   7.509  71.094  1.00  0.00    -0.232 C  
ENDBRANCH  23  24
ENDBRANCH  17  23
ENDBRANCH   6  11
BRANCH   9  26
HETATM   26  S   UNL     1      -7.415  10.283  64.675  1.00  0.00    -0.043 S  
HETATM   27  O   UNL     1      -6.458  10.278  63.594  1.00  0.00    -0.135 OA 
HETATM   28  O   UNL     1      -7.286  11.136  65.833  1.00  0.00    -0.028 OA 
BRANCH  26  29
HETATM   29  N   UNL     1      -8.943  10.563  63.960  1.00  0.00    -0.204 N  
HETATM   30  H   UNL     1      -9.042  10.746  62.961  1.00  0.00     0.000 HD 
BRANCH  29  31
HETATM   31  C   UNL     1     -10.113  10.525  64.861  1.00  0.00    -0.333 C  
BRANCH  31  32
HETATM   32  C   UNL     1     -10.481  11.910  65.383  1.00  0.00    -0.312 C  
BRANCH  32  33
HETATM   33  C   UNL     1     -11.410  11.783  66.606  1.00  0.00    -0.316 C  
HETATM   34  C   UNL     1     -11.251  10.452  67.338  1.00  0.00    -0.205 C  
HETATM   35  C   UNL     1     -11.771  10.765  68.721  1.00  0.00    -0.315 C  
HETATM   36  C   UNL     1     -11.903  14.011  67.468  1.00  0.00    -0.407 C  
HETATM   37  N   UNL     1     -11.108  12.798  67.631  1.00  0.00    -0.247 NA 
HETATM   38  C   UNL     1     -11.309  12.191  68.958  1.00  0.00    -0.276 C  
ENDBRANCH  32  33
ENDBRANCH  31  32
ENDBRANCH  29  31
ENDBRANCH  26  29
ENDBRANCH   9  26
ENDBRANCH   4   5
ENDBRANCH   3   4
ENDBRANCH   2   3
TORSDOF 11
ENDMDL
MODEL      251
REMARK 921   NORMALIZED FREE ENERGY PREDICTED BY IDOCK:   -3.21 KCAL/MOL
REMARK 922        TOTAL FREE ENERGY PREDICTED BY IDOCK:   -7.52 KCAL/MOL
REMARK 923 INTER-LIGAND FREE ENERGY PREDICTED BY IDOCK:   -6.04 KCAL/MOL
REMARK 924 INTRA-LIGAND FREE ENERGY PREDICTED BY IDOCK:   -1.47 KCAL/MOL
REMARK 927      BINDING AFFINITY PREDICTED BY RF-SCORE:    0.00 PKD
ROOT
HETATM    1  C   UNL     1      -5.895   9.140  74.373  1.00  0.00    -0.095 C  
HETATM    2  C   UNL     1      -6.078   8.932  72.881  1.00  0.00    -0.023 C  
ENDROOT
BRANCH   2   3
HETATM    3  C   UNL     1      -7.531   8.692  72.503  1.00  0.00     0.050 C  
BRANCH   3   4
HETATM    4  O   UNL     1      -7.909   9.407  71.312  1.00  0.00    -0.335 OA 
BRANCH   4   5
HETATM    5  C   UNL     1      -8.359   8.605  70.278  1.00  0.00    -0.129 A  
HETATM    6  C   UNL     1      -8.738   9.186  69.044  1.00  0.00    -0.135 A  
HETATM    7  C   UNL     1      -9.263   8.360  68.020  1.00  0.00    -0.143 A  
HETATM    8  C   UNL     1      -8.487   7.218  70.439  1.00  0.00    -0.139 A  
HETATM    9  C   UNL     1      -9.423   6.985  68.238  1.00  0.00    -0.128 A  
HETATM   10  C   UNL     1      -9.049   6.429  69.451  1.00  0.00    -0.140 A  
BRANCH   6  11
HETATM   11  C   UNL     1      -8.630  10.677  68.775  1.00  0.00    -0.150 C  
HETATM   12  C   UNL     1      -7.306  12.613  68.854  1.00  0.00    -0.016 C  
HETATM   13  N   UNL     1      -7.500  11.260  69.086  1.00  0.00    -0.233 N  
HETATM   14  H   UNL     1      -6.751  10.711  69.507  1.00  0.00     0.000 HD 
HETATM   15  N   UNL     1      -9.734  11.318  68.233  1.00  0.00    -0.191 NA 
HETATM   16  N   UNL     1      -9.823  14.772  67.303  1.00  0.00    -0.229 NA 
HETATM   17  C   UNL     1     -10.446  13.585  67.383  1.00  0.00    -0.247 A  
HETATM   18  C   UNL     1      -8.427  13.257  68.246  1.00  0.00    -0.160 A  
HETATM   19  O   UNL     1      -6.271  13.203  69.146  1.00  0.00    -0.088 OA 
HETATM   20  C   UNL     1      -7.632  15.619  67.871  1.00  0.00    -0.131 C  
HETATM   21  C   UNL     1      -9.597  12.622  67.957  1.00  0.00    -0.213 A  
HETATM   22  N   UNL     1      -8.592  14.542  67.828  1.00  0.00    -0.166 NA 
BRANCH  17  23
HETATM   23  C   UNL     1     -11.848  13.449  66.892  1.00  0.00    -0.453 C  
BRANCH  23  24
HETATM   24  C   UNL     1     -11.969  12.774  65.524  1.00  0.00    -0.497 C  
HETATM   25  C   UNL     1     -11.019  13.340  64.476  1.00  0.00    -0.398 C  
ENDBRANCH  23  24
ENDBRANCH  17  23
ENDBRANCH   6  11
BRANCH   9  26
HETATM   26  S   UNL     1     -10.177   5.924  67.025  1.00  0.00    -0.238 S  
HETATM   27  O   UNL     1     -11.509   6.427  66.785  1.00  0.00    -0.141 OA 
HETATM   28  O   UNL     1      -9.914   4.564  67.434  1.00  0.00    -0.177 OA 
BRANCH  26  29
HETATM   29  N   UNL     1      -9.279   6.249  65.606  1.00  0.00    -0.373 N  
HETATM   30  H   UNL     1      -9.371   7.133  65.105  1.00  0.00     0.000 HD 
BRANCH  29  31
HETATM   31  C   UNL     1      -8.364   5.187  65.143  1.00  0.00    -0.141 C  
BRANCH  31  32
HETATM   32  C   UNL     1      -8.021   5.326  63.664  1.00  0.00    -0.101 C  
BRANCH  32  33
HETATM   33  C   UNL     1      -8.021   3.942  62.988  1.00  0.00    -0.075 C  
HETATM   34  C   UNL     1      -6.861   3.059  63.442  1.00  0.00    -0.035 C  
HETATM   35  C   UNL     1      -7.358   1.666  63.137  1.00  0.00    -0.044 C  
HETATM   36  C   UNL     1     -10.307   3.353  62.372  1.00  0.00    -0.150 C  
HETATM   37  N   UNL     1      -9.224   3.164  63.332  1.00  0.00    -0.094 NA 
HETATM   38  C   UNL     1      -8.843   1.746  63.447  1.00  0.00    -0.087 C  
ENDBRANCH  32  33
ENDBRANCH  31  32
ENDBRANCH  29  31
ENDBRANCH  26  29
ENDBRANCH   9  26
ENDBRANCH   4   5
ENDBRANCH   3   4
ENDBRANCH   2   3
TORSDOF 11
ENDMDL
MODEL      252
REMARK 921   NORMALIZED FREE ENERGY PREDICTED BY IDOCK:   -3.20 KCAL/MOL
REMARK 922        TOTAL FREE ENERGY PREDICTED BY IDOCK:   -7.50 KCAL/MOL
REMARK 923 INTER-LIGAND FREE ENERGY PREDICTED BY IDOCK:   -5.89 KCAL/MOL
REMARK 924 INTRA-LIGAND FREE ENERGY PREDICTED BY IDOCK:   -1.60 KCAL/MOL
REMARK 927      BINDING AFFINITY PREDICTED BY RF-SCORE:    0.00 PKD
ROOT
HETATM    1  C   UNL     1      -8.506   4.537  71.006  1.00  0.00    -0.106 C  
HETATM    2  C   UNL     1      -7.087   5.071  70.935  1.00  0.00    -0.055 C  
ENDROOT
BRANCH   2   3
HETATM    3  C   UNL     1      -7.041   6.584  70.806  1.00  0.00    -0.069 C  
BRANCH   3   4
HETATM    4  O   UNL     1      -8.195   7.108  70.124  1.00  0.00    -0.130 OA 
BRANCH   4   5
HETATM    5  C   UNL     1      -8.014   8.362  69.567  1.00  0.00    -0.111 A  
HETATM    6  C   UNL     1      -8.097   8.533  68.164  1.00  0.00    -0.119 A  
HETATM    7  C   UNL     1      -7.841   9.808  67.604  1.00  0.00    -0.095 A  
HETATM    8  C   UNL     1      -7.708   9.473  70.365  1.00  0.00    -0.177 A  
HETATM    9  C   UNL     1      -7.487  10.882  68.432  1.00  0.00    -0.098 A  
HETATM   10  C   UNL     1      -7.409  10.701  69.804  1.00  0.00    -0.115 A  
BRANCH   6  11
HETATM   11  C   UNL     1      -8.428   7.391  67.219  1.00  0.00    -0.118 C  
HETATM   12  C   UNL     1      -9.690   5.452  66.821  1.00  0.00    -0.157 C  
HETATM   13  N   UNL     1      -9.311   6.514  67.627  1.00  0.00    -0.119 N  
HETATM   14  H   UNL     1      -9.726   6.614  68.553  1.00  0.00     0.000 HD 
HETATM   15  N   UNL     1      -7.767   7.346  66.001  1.00  0.00    -0.091 NA 
HETATM   16  N   UNL     1      -8.383   4.921  63.443  1.00  0.00    -0.110 NA 
HETATM   17  C   UNL     1      -7.713   6.007  63.863  1.00  0.00    -0.101 A  
HETATM   18  C   UNL     1      -9.045   5.442  65.546  1.00  0.00    -0.118 A  
HETATM   19  O   UNL     1     -10.500   4.599  67.170  1.00  0.00    -0.099 OA 
HETATM   20  C   UNL     1     -10.091   3.480  64.360  1.00  0.00    -0.182 C  
HETATM   21  C   UNL     1      -8.112   6.358  65.165  1.00  0.00    -0.136 A  
HETATM   22  N   UNL     1      -9.193   4.603  64.485  1.00  0.00    -0.138 NA 
BRANCH  17  23
HETATM   23  C   UNL     1      -6.710   6.652  62.967  1.00  0.00    -0.042 C  
BRANCH  23  24
HETATM   24  C   UNL     1      -6.983   8.131  62.683  1.00  0.00    -0.087 C  
HETATM   25  C   UNL     1      -5.793   9.038  62.971  1.00  0.00    -0.088 C  
ENDBRANCH  23  24
ENDBRANCH  17  23
ENDBRANCH   6  11
BRANCH   9  26
HETATM   26  S   UNL     1      -7.050  12.474  67.769  1.00  0.00    -0.142 S  
HETATM   27  O   UNL     1      -5.896  12.283  66.922  1.00  0.00    -0.274 OA 
HETATM   28  O   UNL     1      -7.068  13.409  68.870  1.00  0.00    -0.102 OA 
BRANCH  26  29
HETATM   29  N   UNL     1      -8.355  12.837  66.724  1.00  0.00    -0.404 N  
HETATM   30  H   UNL     1      -8.488  12.342  65.842  1.00  0.00     0.000 HD 
BRANCH  29  31
HETATM   31  C   UNL     1      -9.279  13.901  67.164  1.00  0.00    -0.239 C  
BRANCH  31  32
HETATM   32  C   UNL     1      -9.271  15.097  66.217  1.00  0.00    -0.336 C  
BRANCH  32  33
HETATM   33  C   UNL     1      -8.837  16.367  66.974  1.00  0.00    -0.199 C  
HETATM   34  C   UNL     1      -7.621  17.046  66.347  1.00  0.00    -0.350 C  
HETATM   35  C   UNL     1      -7.732  18.466  66.849  1.00  0.00    -0.240 C  
HETATM   36  C   UNL     1     -10.775  17.327  68.102  1.00  0.00    -0.363 C  
HETATM   37  N   UNL     1      -9.883  17.404  66.949  1.00  0.00    -0.277 NA 
HETATM   38  C   UNL     1      -9.229  18.721  66.857  1.00  0.00    -0.307 C  
ENDBRANCH  32  33
ENDBRANCH  31  32
ENDBRANCH  29  31
ENDBRANCH  26  29
ENDBRANCH   9  26
ENDBRANCH   4   5
ENDBRANCH   3   4
ENDBRANCH   2   3
TORSDOF 11
ENDMDL
MODEL      253
REMARK 921   NORMALIZED FREE ENERGY PREDICTED BY IDOCK:   -3.20 KCAL/MOL
REMARK 922        TOTAL FREE ENERGY PREDICTED BY IDOCK:   -7.48 KCAL/MOL
REMARK 923 INTER-LIGAND FREE ENERGY PREDICTED BY IDOCK:   -6.05 KCAL/MOL
REMARK 924 INTRA-LIGAND FREE ENERGY PREDICTED BY IDOCK:   -1.43 KCAL/MOL
REMARK 927      BINDING AFFINITY PREDICTED BY RF-SCORE:    0.00 PKD
ROOT
HETATM    1  C   UNL     1     -13.214  11.803  71.443  1.00  0.00    -0.193 C  
HETATM    2  C   UNL     1     -13.563  10.429  71.986  1.00  0.00    -0.257 C  
ENDROOT
BRANCH   2   3
HETATM    3  C   UNL     1     -12.595   9.356  71.515  1.00  0.00    -0.362 C  
BRANCH   3   4
HETATM    4  O   UNL     1     -11.482   9.906  70.788  1.00  0.00    -0.298 OA 
BRANCH   4   5
HETATM    5  C   UNL     1     -10.678   8.966  70.168  1.00  0.00    -0.225 A  
HETATM    6  C   UNL     1      -9.871   9.340  69.067  1.00  0.00    -0.168 A  
HETATM    7  C   UNL     1      -9.107   8.351  68.400  1.00  0.00    -0.135 A  
HETATM    8  C   UNL     1     -10.674   7.628  70.585  1.00  0.00    -0.237 A  
HETATM    9  C   UNL     1      -9.169   7.014  68.815  1.00  0.00    -0.132 A  
HETATM   10  C   UNL     1      -9.964   6.662  69.894  1.00  0.00    -0.188 A  
BRANCH   6  11
HETATM   11  C   UNL     1      -9.806  10.765  68.547  1.00  0.00    -0.177 C  
HETATM   12  C   UNL     1     -10.977  12.705  67.932  1.00  0.00    -0.230 C  
HETATM   13  N   UNL     1     -10.942  11.393  68.381  1.00  0.00    -0.199 N  
HETATM   14  H   UNL     1     -11.817  10.910  68.585  1.00  0.00     0.000 HD 
HETATM   15  N   UNL     1      -8.555  11.298  68.272  1.00  0.00    -0.147 NA 
HETATM   16  N   UNL     1      -7.970  14.659  67.194  1.00  0.00    -0.192 NA 
HETATM   17  C   UNL     1      -7.477  13.456  67.533  1.00  0.00    -0.162 A  
HETATM   18  C   UNL     1      -9.683  13.265  67.702  1.00  0.00    -0.219 A  
HETATM   19  O   UNL     1     -12.019  13.324  67.746  1.00  0.00    -0.349 OA 
HETATM   20  C   UNL     1     -10.169  15.649  67.048  1.00  0.00    -0.274 C  
HETATM   21  C   UNL     1      -8.520  12.573  67.863  1.00  0.00    -0.171 A  
HETATM   22  N   UNL     1      -9.315  14.517  67.313  1.00  0.00    -0.203 NA 
BRANCH  17  23
HETATM   23  C   UNL     1      -6.003  13.228  67.519  1.00  0.00    -0.073 C  
BRANCH  23  24
HETATM   24  C   UNL     1      -5.257  13.881  68.684  1.00  0.00    -0.089 C  
HETATM   25  C   UNL     1      -5.265  15.404  68.639  1.00  0.00    -0.095 C  
ENDBRANCH  23  24
ENDBRANCH  17  23
ENDBRANCH   6  11
BRANCH   9  26
HETATM   26  S   UNL     1      -8.315   5.720  67.944  1.00  0.00    -0.103 S  
HETATM   27  O   UNL     1      -8.952   4.473  68.296  1.00  0.00    -0.107 OA 
HETATM   28  O   UNL     1      -6.900   5.955  68.122  1.00  0.00    -0.062 OA 
BRANCH  26  29
HETATM   29  N   UNL     1      -8.715   6.017  66.307  1.00  0.00    -0.133 N  
HETATM   30  H   UNL     1      -9.679   6.168  66.011  1.00  0.00     0.000 HD 
BRANCH  29  31
HETATM   31  C   UNL     1      -7.594   6.044  65.346  1.00  0.00    -0.086 C  
BRANCH  31  32
HETATM   32  C   UNL     1      -6.722   7.284  65.514  1.00  0.00    -0.052 C  
BRANCH  32  33
HETATM   33  C   UNL     1      -6.756   8.132  64.229  1.00  0.00    -0.066 C  
HETATM   34  C   UNL     1      -7.839   7.684  63.250  1.00  0.00    -0.134 C  
HETATM   35  C   UNL     1      -8.065   8.919  62.410  1.00  0.00    -0.155 C  
HETATM   36  C   UNL     1      -5.892  10.361  64.718  1.00  0.00    -0.129 C  
HETATM   37  N   UNL     1      -7.082   9.541  64.509  1.00  0.00    -0.102 NA 
HETATM   38  C   UNL     1      -7.908  10.056  63.404  1.00  0.00    -0.151 C  
ENDBRANCH  32  33
ENDBRANCH  31  32
ENDBRANCH  29  31
ENDBRANCH  26  29
ENDBRANCH   9  26
ENDBRANCH   4   5
ENDBRANCH   3   4
ENDBRANCH   2   3
TORSDOF 11
ENDMDL
MODEL      254
REMARK 921   NORMALIZED FREE ENERGY PREDICTED BY IDOCK:   -3.17 KCAL/MOL
REMARK 922        TOTAL FREE ENERGY PREDICTED BY IDOCK:   -7.44 KCAL/MOL
REMARK 923 INTER-LIGAND FREE ENERGY PREDICTED BY IDOCK:   -6.08 KCAL/MOL
REMARK 924 INTRA-LIGAND FREE ENERGY PREDICTED BY IDOCK:   -1.36 KCAL/MOL
REMARK 927      BINDING AFFINITY PREDICTED BY RF-SCORE:    0.00 PKD
ROOT
HETATM    1  C   UNL     1      -8.856   9.687  63.806  1.00  0.00    -0.257 C  
HETATM    2  C   UNL     1      -8.329   8.435  64.483  1.00  0.00    -0.125 C  
ENDROOT
BRANCH   2   3
HETATM    3  C   UNL     1      -6.831   8.495  64.728  1.00  0.00    -0.072 C  
BRANCH   3   4
HETATM    4  O   UNL     1      -6.502   8.371  66.124  1.00  0.00    -0.052 OA 
BRANCH   4   5
HETATM    5  C   UNL     1      -6.488   9.567  66.820  1.00  0.00    -0.067 A  
HETATM    6  C   UNL     1      -7.117   9.657  68.086  1.00  0.00    -0.079 A  
HETATM    7  C   UNL     1      -7.155  10.905  68.754  1.00  0.00    -0.083 A  
HETATM    8  C   UNL     1      -5.895  10.715  66.277  1.00  0.00    -0.104 A  
HETATM    9  C   UNL     1      -6.595  12.042  68.154  1.00  0.00    -0.055 A  
HETATM   10  C   UNL     1      -5.984  11.940  66.915  1.00  0.00    -0.115 A  
BRANCH   6  11
HETATM   11  C   UNL     1      -7.781   8.467  68.755  1.00  0.00    -0.102 C  
HETATM   12  C   UNL     1      -8.450   7.439  70.757  1.00  0.00    -0.131 C  
HETATM   13  N   UNL     1      -7.841   8.473  70.063  1.00  0.00    -0.099 N  
HETATM   14  H   UNL     1      -7.432   9.251  70.580  1.00  0.00     0.000 HD 
HETATM   15  N   UNL     1      -8.265   7.453  67.942  1.00  0.00    -0.119 NA 
HETATM   16  N   UNL     1     -10.035   4.575  69.118  1.00  0.00    -0.151 NA 
HETATM   17  C   UNL     1      -9.536   5.279  68.088  1.00  0.00    -0.129 A  
HETATM   18  C   UNL     1      -8.994   6.425  69.911  1.00  0.00    -0.142 A  
HETATM   19  O   UNL     1      -8.512   7.396  71.981  1.00  0.00    -0.105 OA 
HETATM   20  C   UNL     1     -10.110   4.837  71.519  1.00  0.00    -0.190 C  
HETATM   21  C   UNL     1      -8.892   6.439  68.552  1.00  0.00    -0.119 A  
HETATM   22  N   UNL     1      -9.697   5.299  70.215  1.00  0.00    -0.180 NA 
BRANCH  17  23
HETATM   23  C   UNL     1      -9.716   4.781  66.694  1.00  0.00    -0.205 C  
BRANCH  23  24
HETATM   24  C   UNL     1      -8.532   3.969  66.162  1.00  0.00    -0.109 C  
HETATM   25  C   UNL     1      -8.188   4.272  64.709  1.00  0.00    -0.103 C  
ENDBRANCH  23  24
ENDBRANCH  17  23
ENDBRANCH   6  11
BRANCH   9  26
HETATM   26  S   UNL     1      -6.713  13.652  68.903  1.00  0.00    -0.112 S  
HETATM   27  O   UNL     1      -6.267  14.613  67.923  1.00  0.00    -0.139 OA 
HETATM   28  O   UNL     1      -6.131  13.547  70.221  1.00  0.00    -0.150 OA 
BRANCH  26  29
HETATM   29  N   UNL     1      -8.400  13.885  69.069  1.00  0.00    -0.344 N  
HETATM   30  H   UNL     1      -8.791  14.434  69.835  1.00  0.00     0.000 HD 
BRANCH  29  31
HETATM   31  C   UNL     1      -9.260  13.252  68.049  1.00  0.00    -0.217 C  
BRANCH  31  32
HETATM   32  C   UNL     1     -10.004  14.282  67.206  1.00  0.00    -0.252 C  
BRANCH  32  33
HETATM   33  C   UNL     1     -11.138  14.921  68.030  1.00  0.00    -0.295 C  
HETATM   34  C   UNL     1     -11.843  13.921  68.945  1.00  0.00    -0.393 C  
HETATM   35  C   UNL     1     -12.457  14.808  70.002  1.00  0.00    -0.327 C  
HETATM   36  C   UNL     1     -10.655  17.290  68.354  1.00  0.00    -0.368 C  
HETATM   37  N   UNL     1     -10.633  15.956  68.948  1.00  0.00    -0.230 NA 
HETATM   38  C   UNL     1     -11.422  15.903  70.189  1.00  0.00    -0.361 C  
ENDBRANCH  32  33
ENDBRANCH  31  32
ENDBRANCH  29  31
ENDBRANCH  26  29
ENDBRANCH   9  26
ENDBRANCH   4   5
ENDBRANCH   3   4
ENDBRANCH   2   3
TORSDOF 11
ENDMDL
MODEL      255
REMARK 921   NORMALIZED FREE ENERGY PREDICTED BY IDOCK:   -3.15 KCAL/MOL
REMARK 922        TOTAL FREE ENERGY PREDICTED BY IDOCK:   -7.42 KCAL/MOL
REMARK 923 INTER-LIGAND FREE ENERGY PREDICTED BY IDOCK:   -5.66 KCAL/MOL
REMARK 924 INTRA-LIGAND FREE ENERGY PREDICTED BY IDOCK:   -1.75 KCAL/MOL
REMARK 927      BINDING AFFINITY PREDICTED BY RF-SCORE:    0.00 PKD
ROOT
HETATM    1  C   UNL     1      -5.876   8.869  74.334  1.00  0.00    -0.134 C  
HETATM    2  C   UNL     1      -6.049   8.550  72.860  1.00  0.00    -0.087 C  
ENDROOT
BRANCH   2   3
HETATM    3  C   UNL     1      -7.496   8.261  72.495  1.00  0.00    -0.113 C  
BRANCH   3   4
HETATM    4  O   UNL     1      -7.939   9.037  71.367  1.00  0.00    -0.264 OA 
BRANCH   4   5
HETATM    5  C   UNL     1      -8.397   8.289  70.298  1.00  0.00    -0.123 A  
HETATM    6  C   UNL     1      -8.680   8.919  69.061  1.00  0.00    -0.136 A  
HETATM    7  C   UNL     1      -9.214   8.151  67.998  1.00  0.00    -0.137 A  
HETATM    8  C   UNL     1      -8.627   6.912  70.422  1.00  0.00    -0.143 A  
HETATM    9  C   UNL     1      -9.478   6.786  68.179  1.00  0.00    -0.120 A  
HETATM   10  C   UNL     1      -9.197   6.182  69.394  1.00  0.00    -0.137 A  
BRANCH   6  11
HETATM   11  C   UNL     1      -8.459  10.403  68.830  1.00  0.00    -0.144 C  
HETATM   12  C   UNL     1      -6.958  12.208  68.846  1.00  0.00    -0.102 C  
HETATM   13  N   UNL     1      -7.256  10.870  69.053  1.00  0.00    -0.091 N  
HETATM   14  H   UNL     1      -6.527  10.239  69.385  1.00  0.00     0.000 HD 
HETATM   15  N   UNL     1      -9.542  11.162  68.414  1.00  0.00    -0.185 NA 
HETATM   16  N   UNL     1      -9.392  14.645  67.606  1.00  0.00    -0.197 NA 
HETATM   17  C   UNL     1     -10.113  13.516  67.707  1.00  0.00    -0.236 A  
HETATM   18  C   UNL     1      -8.064  12.973  68.366  1.00  0.00    -0.131 A  
HETATM   19  O   UNL     1      -5.850  12.690  69.059  1.00  0.00    -0.068 OA 
HETATM   20  C   UNL     1      -7.090  15.267  67.993  1.00  0.00    -0.128 C  
HETATM   21  C   UNL     1      -9.310  12.458  68.169  1.00  0.00    -0.209 A  
HETATM   22  N   UNL     1      -8.146  14.283  68.006  1.00  0.00    -0.134 NA 
BRANCH  17  23
HETATM   23  C   UNL     1     -11.560  13.526  67.345  1.00  0.00    -0.392 C  
BRANCH  23  24
HETATM   24  C   UNL     1     -11.852  13.060  65.916  1.00  0.00    -0.468 C  
HETATM   25  C   UNL     1     -10.711  13.326  64.942  1.00  0.00    -0.365 C  
ENDBRANCH  23  24
ENDBRANCH  17  23
ENDBRANCH   6  11
BRANCH   9  26
HETATM   26  S   UNL     1     -10.249   5.804  66.911  1.00  0.00    -0.245 S  
HETATM   27  O   UNL     1     -11.522   6.415  66.610  1.00  0.00    -0.046 OA 
HETATM   28  O   UNL     1     -10.117   4.422  67.311  1.00  0.00    -0.156 OA 
BRANCH  26  29
HETATM   29  N   UNL     1      -9.254   6.073  65.545  1.00  0.00    -0.367 N  
HETATM   30  H   UNL     1      -9.379   6.888  64.945  1.00  0.00     0.000 HD 
BRANCH  29  31
HETATM   31  C   UNL     1      -8.206   5.066  65.281  1.00  0.00    -0.123 C  
BRANCH  31  32
HETATM   32  C   UNL     1      -7.803   5.029  63.810  1.00  0.00    -0.088 C  
BRANCH  32  33
HETATM   33  C   UNL     1      -6.974   6.279  63.458  1.00  0.00    -0.046 C  
HETATM   34  C   UNL     1      -7.793   7.354  62.746  1.00  0.00    -0.130 C  
HETATM   35  C   UNL     1      -7.002   8.612  63.012  1.00  0.00    -0.090 C  
HETATM   36  C   UNL     1      -5.130   6.488  65.041  1.00  0.00    -0.018 C  
HETATM   37  N   UNL     1      -6.461   6.954  64.662  1.00  0.00    -0.042 NA 
HETATM   38  C   UNL     1      -6.479   8.407  64.423  1.00  0.00    -0.066 C  
ENDBRANCH  32  33
ENDBRANCH  31  32
ENDBRANCH  29  31
ENDBRANCH  26  29
ENDBRANCH   9  26
ENDBRANCH   4   5
ENDBRANCH   3   4
ENDBRANCH   2   3
TORSDOF 11
ENDMDL
MODEL      256
REMARK 921   NORMALIZED FREE ENERGY PREDICTED BY IDOCK:   -3.06 KCAL/MOL
REMARK 922        TOTAL FREE ENERGY PREDICTED BY IDOCK:   -7.27 KCAL/MOL
REMARK 923 INTER-LIGAND FREE ENERGY PREDICTED BY IDOCK:   -6.45 KCAL/MOL
REMARK 924 INTRA-LIGAND FREE ENERGY PREDICTED BY IDOCK:   -0.81 KCAL/MOL
REMARK 927      BINDING AFFINITY PREDICTED BY RF-SCORE:    0.00 PKD
ROOT
HETATM    1  C   UNL     1      -9.266   4.370  64.936  1.00  0.00    -0.157 C  
HETATM    2  C   UNL     1     -10.530   4.604  65.743  1.00  0.00    -0.290 C  
ENDROOT
BRANCH   2   3
HETATM    3  C   UNL     1     -10.270   4.606  67.241  1.00  0.00    -0.066 C  
BRANCH   3   4
HETATM    4  O   UNL     1     -10.871   5.738  67.897  1.00  0.00    -0.248 OA 
BRANCH   4   5
HETATM    5  C   UNL     1     -10.141   6.909  67.807  1.00  0.00    -0.161 A  
HETATM    6  C   UNL     1      -9.208   7.241  68.819  1.00  0.00    -0.137 A  
HETATM    7  C   UNL     1      -8.519   8.477  68.749  1.00  0.00    -0.123 A  
HETATM    8  C   UNL     1     -10.334   7.805  66.746  1.00  0.00    -0.348 A  
HETATM    9  C   UNL     1      -8.778   9.368  67.699  1.00  0.00    -0.116 A  
HETATM   10  C   UNL     1      -9.694   9.032  66.715  1.00  0.00    -0.279 A  
BRANCH   6  11
HETATM   11  C   UNL     1      -8.928   6.333  70.003  1.00  0.00    -0.149 C  
HETATM   12  C   UNL     1      -9.542   4.425  71.225  1.00  0.00    -0.172 C  
HETATM   13  N   UNL     1      -9.736   5.319  70.183  1.00  0.00    -0.179 N  
HETATM   14  H   UNL     1     -10.521   5.184  69.546  1.00  0.00     0.000 HD 
HETATM   15  N   UNL     1      -7.849   6.645  70.818  1.00  0.00    -0.104 NA 
HETATM   16  N   UNL     1      -6.764   4.670  73.597  1.00  0.00    -0.061 NA 
HETATM   17  C   UNL     1      -6.595   5.750  72.815  1.00  0.00    -0.068 A  
HETATM   18  C   UNL     1      -8.398   4.721  72.027  1.00  0.00    -0.118 A  
HETATM   19  O   UNL     1     -10.284   3.473  71.440  1.00  0.00    -0.055 OA 
HETATM   20  C   UNL     1      -8.321   2.824  73.685  1.00  0.00    -0.072 C  
HETATM   21  C   UNL     1      -7.592   5.801  71.825  1.00  0.00    -0.096 A  
HETATM   22  N   UNL     1      -7.865   4.057  73.090  1.00  0.00    -0.083 NA 
BRANCH  17  23
HETATM   23  C   UNL     1      -5.461   6.683  73.076  1.00  0.00    -0.038 C  
BRANCH  23  24
HETATM   24  C   UNL     1      -5.796   8.157  72.838  1.00  0.00    -0.058 C  
HETATM   25  C   UNL     1      -5.613   9.032  74.072  1.00  0.00    -0.121 C  
ENDBRANCH  23  24
ENDBRANCH  17  23
ENDBRANCH   6  11
BRANCH   9  26
HETATM   26  S   UNL     1      -8.021  10.977  67.625  1.00  0.00    -0.118 S  
HETATM   27  O   UNL     1      -7.114  10.972  66.502  1.00  0.00    -0.131 OA 
HETATM   28  O   UNL     1      -7.603  11.308  68.968  1.00  0.00    -0.128 OA 
BRANCH  26  29
HETATM   29  N   UNL     1      -9.318  12.003  67.189  1.00  0.00    -0.182 N  
HETATM   30  H   UNL     1     -10.281  11.669  67.169  1.00  0.00     0.000 HD 
BRANCH  29  31
HETATM   31  C   UNL     1      -8.972  13.397  66.844  1.00  0.00    -0.209 C  
BRANCH  31  32
HETATM   32  C   UNL     1     -10.027  14.047  65.954  1.00  0.00    -0.325 C  
BRANCH  32  33
HETATM   33  C   UNL     1     -10.902  12.965  65.295  1.00  0.00    -0.292 C  
HETATM   34  C   UNL     1     -12.397  13.217  65.479  1.00  0.00    -0.529 C  
HETATM   35  C   UNL     1     -13.013  12.434  64.343  1.00  0.00    -0.219 C  
HETATM   36  C   UNL     1      -9.685  11.981  63.425  1.00  0.00    -0.182 C  
HETATM   37  N   UNL     1     -10.719  12.926  63.834  1.00  0.00    -0.399 NA 
HETATM   38  C   UNL     1     -12.016  12.613  63.211  1.00  0.00    -0.441 C  
ENDBRANCH  32  33
ENDBRANCH  31  32
ENDBRANCH  29  31
ENDBRANCH  26  29
ENDBRANCH   9  26
ENDBRANCH   4   5
ENDBRANCH   3   4
ENDBRANCH   2   3
TORSDOF 11
ENDMDL
MODEL      257
REMARK 921   NORMALIZED FREE ENERGY PREDICTED BY IDOCK:   -3.06 KCAL/MOL
REMARK 922        TOTAL FREE ENERGY PREDICTED BY IDOCK:   -7.26 KCAL/MOL
REMARK 923 INTER-LIGAND FREE ENERGY PREDICTED BY IDOCK:   -6.28 KCAL/MOL
REMARK 924 INTRA-LIGAND FREE ENERGY PREDICTED BY IDOCK:   -0.98 KCAL/MOL
REMARK 927      BINDING AFFINITY PREDICTED BY RF-SCORE:    0.00 PKD
ROOT
HETATM    1  C   UNL     1     -11.870   6.466  69.139  1.00  0.00     0.439 C  
HETATM    2  C   UNL     1     -10.487   7.091  69.106  1.00  0.00    -0.218 C  
ENDROOT
BRANCH   2   3
HETATM    3  C   UNL     1      -9.635   6.557  67.967  1.00  0.00    -0.119 C  
BRANCH   3   4
HETATM    4  O   UNL     1      -8.646   7.509  67.533  1.00  0.00    -0.122 OA 
BRANCH   4   5
HETATM    5  C   UNL     1      -9.139   8.777  67.284  1.00  0.00    -0.132 A  
HETATM    6  C   UNL     1      -8.921   9.819  68.218  1.00  0.00    -0.119 A  
HETATM    7  C   UNL     1      -9.492  11.093  67.982  1.00  0.00    -0.174 A  
HETATM    8  C   UNL     1      -9.892   9.049  66.133  1.00  0.00    -0.349 A  
HETATM    9  C   UNL     1     -10.281  11.311  66.844  1.00  0.00    -0.219 A  
HETATM   10  C   UNL     1     -10.487  10.283  65.938  1.00  0.00    -0.167 A  
BRANCH   6  11
HETATM   11  C   UNL     1      -8.116   9.621  69.490  1.00  0.00    -0.129 C  
HETATM   12  C   UNL     1      -6.303  10.307  70.813  1.00  0.00    -0.028 C  
HETATM   13  N   UNL     1      -7.081  10.403  69.670  1.00  0.00    -0.118 N  
HETATM   14  H   UNL     1      -6.844  11.092  68.957  1.00  0.00     0.000 HD 
HETATM   15  N   UNL     1      -8.520   8.622  70.364  1.00  0.00    -0.129 NA 
HETATM   16  N   UNL     1      -6.994   7.953  73.530  1.00  0.00    -0.095 NA 
HETATM   17  C   UNL     1      -7.944   7.663  72.625  1.00  0.00    -0.106 A  
HETATM   18  C   UNL     1      -6.756   9.314  71.734  1.00  0.00     0.155 A  
HETATM   19  O   UNL     1      -5.315  11.007  71.014  1.00  0.00    -0.110 OA 
HETATM   20  C   UNL     1      -5.191   9.553  73.694  1.00  0.00    -0.074 C  
HETATM   21  C   UNL     1      -7.825   8.501  71.502  1.00  0.00    -0.125 A  
HETATM   22  N   UNL     1      -6.290   8.967  72.965  1.00  0.00    -0.299 NA 
BRANCH  17  23
HETATM   23  C   UNL     1      -8.926   6.576  72.904  1.00  0.00    -0.135 C  
BRANCH  23  24
HETATM   24  C   UNL     1      -8.784   5.355  71.992  1.00  0.00    -0.131 C  
HETATM   25  C   UNL     1     -10.103   4.646  71.710  1.00  0.00    -0.261 C  
ENDBRANCH  23  24
ENDBRANCH  17  23
ENDBRANCH   6  11
BRANCH   9  26
HETATM   26  S   UNL     1     -11.108  12.861  66.558  1.00  0.00    -0.297 S  
HETATM   27  O   UNL     1     -12.359  12.564  65.902  1.00  0.00    -0.626 OA 
HETATM   28  O   UNL     1     -10.127  13.765  66.004  1.00  0.00    -0.295 OA 
BRANCH  26  29
HETATM   29  N   UNL     1     -11.508  13.390  68.135  1.00  0.00    -0.284 N  
HETATM   30  H   UNL     1     -11.713  12.730  68.885  1.00  0.00     0.000 HD 
BRANCH  29  31
HETATM   31  C   UNL     1     -11.539  14.850  68.355  1.00  0.00    -0.325 C  
BRANCH  31  32
HETATM   32  C   UNL     1     -10.896  15.246  69.680  1.00  0.00    -0.294 C  
BRANCH  32  33
HETATM   33  C   UNL     1      -9.548  15.945  69.425  1.00  0.00    -0.265 C  
HETATM   34  C   UNL     1      -8.454  14.981  68.971  1.00  0.00    -0.200 C  
HETATM   35  C   UNL     1      -7.476  15.889  68.264  1.00  0.00    -0.128 C  
HETATM   36  C   UNL     1      -9.957  18.271  68.812  1.00  0.00    -0.370 C  
HETATM   37  N   UNL     1      -9.638  16.929  68.332  1.00  0.00    -0.246 NA 
HETATM   38  C   UNL     1      -8.372  16.908  67.582  1.00  0.00    -0.184 C  
ENDBRANCH  32  33
ENDBRANCH  31  32
ENDBRANCH  29  31
ENDBRANCH  26  29
ENDBRANCH   9  26
ENDBRANCH   4   5
ENDBRANCH   3   4
ENDBRANCH   2   3
TORSDOF 11
ENDMDL
MODEL      258
REMARK 921   NORMALIZED FREE ENERGY PREDICTED BY IDOCK:   -3.05 KCAL/MOL
REMARK 922        TOTAL FREE ENERGY PREDICTED BY IDOCK:   -7.25 KCAL/MOL
REMARK 923 INTER-LIGAND FREE ENERGY PREDICTED BY IDOCK:   -6.97 KCAL/MOL
REMARK 924 INTRA-LIGAND FREE ENERGY PREDICTED BY IDOCK:   -0.28 KCAL/MOL
REMARK 927      BINDING AFFINITY PREDICTED BY RF-SCORE:    0.00 PKD
ROOT
HETATM    1  C   UNL     1      -5.859   8.862  62.463  1.00  0.00    -0.090 C  
HETATM    2  C   UNL     1      -6.232  10.101  63.255  1.00  0.00    -0.141 C  
ENDROOT
BRANCH   2   3
HETATM    3  C   UNL     1      -6.286   9.841  64.751  1.00  0.00    -0.095 C  
BRANCH   3   4
HETATM    4  O   UNL     1      -7.222  10.704  65.422  1.00  0.00    -0.110 OA 
BRANCH   4   5
HETATM    5  C   UNL     1      -7.938  10.097  66.438  1.00  0.00    -0.120 A  
HETATM    6  C   UNL     1      -9.166  10.654  66.870  1.00  0.00    -0.172 A  
HETATM    7  C   UNL     1      -9.853  10.061  67.957  1.00  0.00    -0.164 A  
HETATM    8  C   UNL     1      -7.452   8.952  67.084  1.00  0.00    -0.084 A  
HETATM    9  C   UNL     1      -9.308   8.947  68.610  1.00  0.00    -0.140 A  
HETATM   10  C   UNL     1      -8.105   8.412  68.178  1.00  0.00    -0.120 A  
BRANCH   6  11
HETATM   11  C   UNL     1      -9.774  11.889  66.228  1.00  0.00    -0.229 C  
HETATM   12  C   UNL     1     -11.435  12.781  64.830  1.00  0.00    -0.317 C  
HETATM   13  N   UNL     1     -10.803  11.708  65.439  1.00  0.00    -0.289 N  
HETATM   14  H   UNL     1     -11.145  10.762  65.270  1.00  0.00     0.000 HD 
HETATM   15  N   UNL     1      -9.194  13.117  66.509  1.00  0.00    -0.218 NA 
HETATM   16  N   UNL     1     -10.426  16.263  65.333  1.00  0.00    -0.551 NA 
HETATM   17  C   UNL     1      -9.522  15.576  66.052  1.00  0.00    -0.352 A  
HETATM   18  C   UNL     1     -10.866  14.047  65.166  1.00  0.00    -0.369 A  
HETATM   19  O   UNL     1     -12.390  12.655  64.070  1.00  0.00    -0.460 OA 
HETATM   20  C   UNL     1     -12.357  15.706  63.992  1.00  0.00     0.253 C  
HETATM   21  C   UNL     1      -9.778  14.196  65.973  1.00  0.00    -0.274 A  
HETATM   22  N   UNL     1     -11.236  15.308  64.811  1.00  0.00    -0.410 NA 
BRANCH  17  23
HETATM   23  C   UNL     1      -8.447  16.306  66.784  1.00  0.00    -0.283 C  
BRANCH  23  24
HETATM   24  C   UNL     1      -8.380  17.802  66.470  1.00  0.00    -0.294 C  
HETATM   25  C   UNL     1      -6.999  18.273  66.032  1.00  0.00    -0.315 C  
ENDBRANCH  23  24
ENDBRANCH  17  23
ENDBRANCH   6  11
BRANCH   9  26
HETATM   26  S   UNL     1     -10.076   8.233  70.047  1.00  0.00    -0.200 S  
HETATM   27  O   UNL     1     -11.418   8.761  70.122  1.00  0.00    -0.168 OA 
HETATM   28  O   UNL     1      -9.128   8.345  71.131  1.00  0.00    -0.149 OA 
BRANCH  26  29
HETATM   29  N   UNL     1     -10.234   6.582  69.630  1.00  0.00    -0.180 N  
HETATM   30  H   UNL     1     -11.011   6.015  69.971  1.00  0.00     0.000 HD 
BRANCH  29  31
HETATM   31  C   UNL     1      -9.190   6.018  68.750  1.00  0.00    -0.123 C  
BRANCH  31  32
HETATM   32  C   UNL     1      -8.127   5.257  69.535  1.00  0.00    -0.094 C  
BRANCH  32  33
HETATM   33  C   UNL     1      -7.998   3.820  68.993  1.00  0.00    -0.058 C  
HETATM   34  C   UNL     1      -8.897   2.827  69.725  1.00  0.00    -0.146 C  
HETATM   35  C   UNL     1      -9.044   1.705  68.725  1.00  0.00    -0.177 C  
HETATM   36  C   UNL     1      -7.316   3.906  66.653  1.00  0.00    -0.072 C  
HETATM   37  N   UNL     1      -8.424   3.724  67.586  1.00  0.00    -0.094 NA 
HETATM   38  C   UNL     1      -9.090   2.426  67.390  1.00  0.00    -0.163 C  
ENDBRANCH  32  33
ENDBRANCH  31  32
ENDBRANCH  29  31
ENDBRANCH  26  29
ENDBRANCH   9  26
ENDBRANCH   4   5
ENDBRANCH   3   4
ENDBRANCH   2   3
TORSDOF 11
ENDMDL
MODEL      259
REMARK 921   NORMALIZED FREE ENERGY PREDICTED BY IDOCK:   -3.03 KCAL/MOL
REMARK 922        TOTAL FREE ENERGY PREDICTED BY IDOCK:   -7.20 KCAL/MOL
REMARK 923 INTER-LIGAND FREE ENERGY PREDICTED BY IDOCK:   -5.57 KCAL/MOL
REMARK 924 INTRA-LIGAND FREE ENERGY PREDICTED BY IDOCK:   -1.63 KCAL/MOL
REMARK 927      BINDING AFFINITY PREDICTED BY RF-SCORE:    0.00 PKD
ROOT
HETATM    1  C   UNL     1     -10.906   4.527  65.465  1.00  0.00    -0.085 C  
HETATM    2  C   UNL     1     -10.084   5.436  66.360  1.00  0.00    -0.239 C  
ENDROOT
BRANCH   2   3
HETATM    3  C   UNL     1      -8.895   6.045  65.635  1.00  0.00    -0.109 C  
BRANCH   3   4
HETATM    4  O   UNL     1      -7.639   5.624  66.199  1.00  0.00    -0.088 OA 
BRANCH   4   5
HETATM    5  C   UNL     1      -7.730   5.092  67.472  1.00  0.00    -0.091 A  
HETATM    6  C   UNL     1      -7.781   5.951  68.597  1.00  0.00    -0.094 A  
HETATM    7  C   UNL     1      -7.803   5.390  69.898  1.00  0.00    -0.081 A  
HETATM    8  C   UNL     1      -7.734   3.706  67.681  1.00  0.00    -0.074 A  
HETATM    9  C   UNL     1      -7.754   3.999  70.065  1.00  0.00    -0.052 A  
HETATM   10  C   UNL     1      -7.704   3.170  68.956  1.00  0.00    -0.047 A  
BRANCH   6  11
HETATM   11  C   UNL     1      -7.786   7.464  68.471  1.00  0.00    -0.122 C  
HETATM   12  C   UNL     1      -6.582   9.413  67.960  1.00  0.00    -0.063 C  
HETATM   13  N   UNL     1      -6.663   8.038  68.122  1.00  0.00    -0.063 N  
HETATM   14  H   UNL     1      -5.834   7.466  67.966  1.00  0.00     0.000 HD 
HETATM   15  N   UNL     1      -8.970   8.132  68.746  1.00  0.00    -0.144 NA 
HETATM   16  N   UNL     1      -9.436  11.663  68.404  1.00  0.00    -0.194 NA 
HETATM   17  C   UNL     1      -9.946  10.458  68.711  1.00  0.00    -0.188 A  
HETATM   18  C   UNL     1      -7.819  10.090  68.192  1.00  0.00    -0.089 A  
HETATM   19  O   UNL     1      -5.547   9.994  67.651  1.00  0.00    -0.042 OA 
HETATM   20  C   UNL     1      -7.291  12.498  67.669  1.00  0.00    -0.134 C  
HETATM   21  C   UNL     1      -8.964   9.461  68.578  1.00  0.00    -0.128 A  
HETATM   22  N   UNL     1      -8.141  11.408  68.084  1.00  0.00    -0.130 NA 
BRANCH  17  23
HETATM   23  C   UNL     1     -11.375  10.341  69.120  1.00  0.00    -0.244 C  
BRANCH  23  24
HETATM   24  C   UNL     1     -11.932  11.586  69.815  1.00  0.00    -0.415 C  
HETATM   25  C   UNL     1     -12.347  11.345  71.261  1.00  0.00    -0.344 C  
ENDBRANCH  23  24
ENDBRANCH  17  23
ENDBRANCH   6  11
BRANCH   9  26
HETATM   26  S   UNL     1      -7.670   3.251  71.677  1.00  0.00    -0.053 S  
HETATM   27  O   UNL     1      -6.321   3.426  72.161  1.00  0.00    -0.013 OA 
HETATM   28  O   UNL     1      -8.304   1.957  71.575  1.00  0.00    -0.050 OA 
BRANCH  26  29
HETATM   29  N   UNL     1      -8.657   4.268  72.635  1.00  0.00    -0.104 N  
HETATM   30  H   UNL     1      -8.272   4.824  73.398  1.00  0.00     0.000 HD 
BRANCH  29  31
HETATM   31  C   UNL     1     -10.095   4.301  72.300  1.00  0.00    -0.182 C  
BRANCH  31  32
HETATM   32  C   UNL     1     -10.932   4.914  73.418  1.00  0.00    -0.394 C  
BRANCH  32  33
HETATM   33  C   UNL     1     -10.760   6.445  73.428  1.00  0.00    -0.262 C  
HETATM   34  C   UNL     1      -9.431   6.889  74.036  1.00  0.00    -0.273 C  
HETATM   35  C   UNL     1      -9.235   8.265  73.446  1.00  0.00    -0.221 C  
HETATM   36  C   UNL     1     -12.065   7.408  71.607  1.00  0.00    -0.317 C  
HETATM   37  N   UNL     1     -10.739   7.004  72.066  1.00  0.00    -0.212 NA 
HETATM   38  C   UNL     1      -9.789   8.129  72.039  1.00  0.00    -0.232 C  
ENDBRANCH  32  33
ENDBRANCH  31  32
ENDBRANCH  29  31
ENDBRANCH  26  29
ENDBRANCH   9  26
ENDBRANCH   4   5
ENDBRANCH   3   4
ENDBRANCH   2   3
TORSDOF 11
ENDMDL
MODEL      260
REMARK 921   NORMALIZED FREE ENERGY PREDICTED BY IDOCK:   -3.00 KCAL/MOL
REMARK 922        TOTAL FREE ENERGY PREDICTED BY IDOCK:   -7.17 KCAL/MOL
REMARK 923 INTER-LIGAND FREE ENERGY PREDICTED BY IDOCK:   -5.46 KCAL/MOL
REMARK 924 INTRA-LIGAND FREE ENERGY PREDICTED BY IDOCK:   -1.71 KCAL/MOL
REMARK 927      BINDING AFFINITY PREDICTED BY RF-SCORE:    0.00 PKD
ROOT
HETATM    1  C   UNL     1      -9.484   9.205  70.427  1.00  0.00    -0.269 C  
HETATM    2  C   UNL     1      -8.184   8.870  69.721  1.00  0.00    -0.119 C  
ENDROOT
BRANCH   2   3
HETATM    3  C   UNL     1      -6.974   9.479  70.411  1.00  0.00    -0.112 C  
BRANCH   3   4
HETATM    4  O   UNL     1      -6.100  10.152  69.486  1.00  0.00    -0.040 OA 
BRANCH   4   5
HETATM    5  C   UNL     1      -6.399  11.486  69.280  1.00  0.00    -0.091 A  
HETATM    6  C   UNL     1      -6.745  11.943  67.985  1.00  0.00    -0.070 A  
HETATM    7  C   UNL     1      -6.980  13.324  67.776  1.00  0.00    -0.154 A  
HETATM    8  C   UNL     1      -6.328  12.416  70.327  1.00  0.00     0.141 A  
HETATM    9  C   UNL     1      -6.849  14.229  68.838  1.00  0.00    -0.104 A  
HETATM   10  C   UNL     1      -6.509  13.769  70.101  1.00  0.00     0.009 A  
BRANCH   6  11
HETATM   11  C   UNL     1      -6.852  11.011  66.791  1.00  0.00    -0.128 C  
HETATM   12  C   UNL     1      -5.964  10.323  64.730  1.00  0.00    -0.132 C  
HETATM   13  N   UNL     1      -5.957  11.146  65.845  1.00  0.00    -0.338 N  
HETATM   14  H   UNL     1      -5.243  11.869  65.930  1.00  0.00     0.000 HD 
HETATM   15  N   UNL     1      -7.893  10.094  66.776  1.00  0.00    -0.107 NA 
HETATM   16  N   UNL     1      -8.390   7.626  64.234  1.00  0.00     0.003 NA 
HETATM   17  C   UNL     1      -8.785   8.184  65.391  1.00  0.00    -0.094 A  
HETATM   18  C   UNL     1      -7.006   9.345  64.747  1.00  0.00    -0.098 A  
HETATM   19  O   UNL     1      -5.156  10.426  63.813  1.00  0.00    -0.110 OA 
HETATM   20  C   UNL     1      -6.593   7.992  62.661  1.00  0.00    -0.086 C  
HETATM   21  C   UNL     1      -7.937   9.250  65.737  1.00  0.00    -0.109 A  
HETATM   22  N   UNL     1      -7.300   8.348  63.868  1.00  0.00    -0.097 NA 
BRANCH  17  23
HETATM   23  C   UNL     1      -9.979   7.645  66.104  1.00  0.00     0.132 C  
BRANCH  23  24
HETATM   24  C   UNL     1      -9.644   6.733  67.286  1.00  0.00    -0.165 C  
HETATM   25  C   UNL     1     -10.670   6.788  68.411  1.00  0.00    -0.284 C  
ENDBRANCH  23  24
ENDBRANCH  17  23
ENDBRANCH   6  11
BRANCH   9  26
HETATM   26  S   UNL     1      -7.027  15.983  68.604  1.00  0.00    -0.142 S  
HETATM   27  O   UNL     1      -7.160  16.214  67.185  1.00  0.00    -0.182 OA 
HETATM   28  O   UNL     1      -6.013  16.621  69.410  1.00  0.00    -0.160 OA 
BRANCH  26  29
HETATM   29  N   UNL     1      -8.559  16.319  69.289  1.00  0.00    -0.208 N  
HETATM   30  H   UNL     1      -8.652  16.696  70.232  1.00  0.00     0.000 HD 
BRANCH  29  31
HETATM   31  C   UNL     1      -9.738  16.035  68.445  1.00  0.00    -0.213 C  
BRANCH  31  32
HETATM   32  C   UNL     1     -11.032  16.530  69.082  1.00  0.00    -0.303 C  
BRANCH  32  33
HETATM   33  C   UNL     1     -11.949  15.336  69.411  1.00  0.00    -0.315 C  
HETATM   34  C   UNL     1     -11.448  14.021  68.817  1.00  0.00    -0.327 C  
HETATM   35  C   UNL     1     -12.111  12.983  69.690  1.00  0.00    -0.304 C  
HETATM   36  C   UNL     1     -13.119  15.779  71.505  1.00  0.00    -0.400 C  
HETATM   37  N   UNL     1     -12.013  15.077  70.859  1.00  0.00    -0.295 NA 
HETATM   38  C   UNL     1     -12.100  13.622  71.068  1.00  0.00    -0.188 C  
ENDBRANCH  32  33
ENDBRANCH  31  32
ENDBRANCH  29  31
ENDBRANCH  26  29
ENDBRANCH   9  26
ENDBRANCH   4   5
ENDBRANCH   3   4
ENDBRANCH   2   3
TORSDOF 11
ENDMDL
MODEL      261
REMARK 921   NORMALIZED FREE ENERGY PREDICTED BY IDOCK:   -2.98 KCAL/MOL
REMARK 922        TOTAL FREE ENERGY PREDICTED BY IDOCK:   -7.14 KCAL/MOL
REMARK 923 INTER-LIGAND FREE ENERGY PREDICTED BY IDOCK:   -5.36 KCAL/MOL
REMARK 924 INTRA-LIGAND FREE ENERGY PREDICTED BY IDOCK:   -1.78 KCAL/MOL
REMARK 927      BINDING AFFINITY PREDICTED BY RF-SCORE:    0.00 PKD
ROOT
HETATM    1  C   UNL     1      -6.950   4.568  69.770  1.00  0.00    -0.049 C  
HETATM    2  C   UNL     1      -5.560   5.175  69.805  1.00  0.00    -0.012 C  
ENDROOT
BRANCH   2   3
HETATM    3  C   UNL     1      -5.579   6.649  70.173  1.00  0.00    -0.019 C  
BRANCH   3   4
HETATM    4  O   UNL     1      -6.909   7.199  70.150  1.00  0.00    -0.056 OA 
BRANCH   4   5
HETATM    5  C   UNL     1      -6.991   8.486  69.648  1.00  0.00    -0.047 A  
HETATM    6  C   UNL     1      -7.538   8.710  68.361  1.00  0.00    -0.096 A  
HETATM    7  C   UNL     1      -7.550  10.024  67.833  1.00  0.00    -0.089 A  
HETATM    8  C   UNL     1      -6.503   9.581  70.375  1.00  0.00    -0.079 A  
HETATM    9  C   UNL     1      -7.007  11.085  68.570  1.00  0.00    -0.070 A  
HETATM   10  C   UNL     1      -6.474  10.851  69.828  1.00  0.00    -0.128 A  
BRANCH   6  11
HETATM   11  C   UNL     1      -8.094   7.589  67.502  1.00  0.00    -0.113 C  
HETATM   12  C   UNL     1      -9.990   6.449  66.718  1.00  0.00    -0.171 C  
HETATM   13  N   UNL     1      -9.394   7.432  67.492  1.00  0.00    -0.129 N  
HETATM   14  H   UNL     1      -9.978   8.044  68.062  1.00  0.00     0.000 HD 
HETATM   15  N   UNL     1      -7.193   6.802  66.801  1.00  0.00    -0.075 NA 
HETATM   16  N   UNL     1      -8.110   4.178  64.548  1.00  0.00    -0.092 NA 
HETATM   17  C   UNL     1      -7.146   4.906  65.137  1.00  0.00    -0.063 A  
HETATM   18  C   UNL     1      -9.060   5.677  65.957  1.00  0.00    -0.156 A  
HETATM   19  O   UNL     1     -11.202   6.256  66.692  1.00  0.00    -0.243 OA 
HETATM   20  C   UNL     1     -10.524   4.128  64.611  1.00  0.00    -0.168 C  
HETATM   21  C   UNL     1      -7.710   5.852  66.011  1.00  0.00    -0.099 A  
HETATM   22  N   UNL     1      -9.265   4.674  65.060  1.00  0.00    -0.155 NA 
BRANCH  17  23
HETATM   23  C   UNL     1      -5.714   4.641  64.814  1.00  0.00    -0.014 C  
BRANCH  23  24
HETATM   24  C   UNL     1      -5.216   3.265  65.264  1.00  0.00    -0.009 C  
HETATM   25  C   UNL     1      -5.468   2.976  66.739  1.00  0.00    -0.020 C  
ENDBRANCH  23  24
ENDBRANCH  17  23
ENDBRANCH   6  11
BRANCH   9  26
HETATM   26  S   UNL     1      -6.901  12.732  67.906  1.00  0.00    -0.132 S  
HETATM   27  O   UNL     1      -5.786  12.753  66.989  1.00  0.00    -0.324 OA 
HETATM   28  O   UNL     1      -7.015  13.644  69.021  1.00  0.00    -0.109 OA 
BRANCH  26  29
HETATM   29  N   UNL     1      -8.312  12.862  66.949  1.00  0.00    -0.382 N  
HETATM   30  H   UNL     1      -8.264  12.946  65.933  1.00  0.00     0.000 HD 
BRANCH  29  31
HETATM   31  C   UNL     1      -9.603  12.845  67.666  1.00  0.00    -0.196 C  
BRANCH  31  32
HETATM   32  C   UNL     1     -10.563  13.910  67.146  1.00  0.00    -0.277 C  
BRANCH  32  33
HETATM   33  C   UNL     1      -9.921  15.305  67.268  1.00  0.00    -0.226 C  
HETATM   34  C   UNL     1      -9.720  15.987  65.917  1.00  0.00    -0.378 C  
HETATM   35  C   UNL     1      -9.644  17.450  66.286  1.00  0.00    -0.260 C  
HETATM   36  C   UNL     1     -10.473  16.251  69.448  1.00  0.00    -0.292 C  
HETATM   37  N   UNL     1     -10.777  16.239  68.021  1.00  0.00    -0.320 NA 
HETATM   38  C   UNL     1     -10.639  17.578  67.426  1.00  0.00    -0.311 C  
ENDBRANCH  32  33
ENDBRANCH  31  32
ENDBRANCH  29  31
ENDBRANCH  26  29
ENDBRANCH   9  26
ENDBRANCH   4   5
ENDBRANCH   3   4
ENDBRANCH   2   3
TORSDOF 11
ENDMDL
MODEL      262
REMARK 921   NORMALIZED FREE ENERGY PREDICTED BY IDOCK:   -2.94 KCAL/MOL
REMARK 922        TOTAL FREE ENERGY PREDICTED BY IDOCK:   -7.06 KCAL/MOL
REMARK 923 INTER-LIGAND FREE ENERGY PREDICTED BY IDOCK:   -5.60 KCAL/MOL
REMARK 924 INTRA-LIGAND FREE ENERGY PREDICTED BY IDOCK:   -1.46 KCAL/MOL
REMARK 927      BINDING AFFINITY PREDICTED BY RF-SCORE:    0.00 PKD
ROOT
HETATM    1  C   UNL     1     -12.418  12.651  63.797  1.00  0.00    -0.514 C  
HETATM    2  C   UNL     1     -12.643  12.450  65.284  1.00  0.00    -0.114 C  
ENDROOT
BRANCH   2   3
HETATM    3  C   UNL     1     -11.928  11.221  65.819  1.00  0.00     1.180 C  
BRANCH   3   4
HETATM    4  O   UNL     1     -10.538  11.193  65.446  1.00  0.00    -0.265 OA 
BRANCH   4   5
HETATM    5  C   UNL     1      -9.741  12.093  66.130  1.00  0.00    -0.240 A  
HETATM    6  C   UNL     1      -9.016  11.672  67.271  1.00  0.00    -0.169 A  
HETATM    7  C   UNL     1      -8.260  12.621  68.003  1.00  0.00    -0.167 A  
HETATM    8  C   UNL     1      -9.664  13.437  65.740  1.00  0.00    -0.147 A  
HETATM    9  C   UNL     1      -8.250  13.966  67.609  1.00  0.00    -0.177 A  
HETATM   10  C   UNL     1      -8.964  14.366  66.491  1.00  0.00    -0.191 A  
BRANCH   6  11
HETATM   11  C   UNL     1      -9.033  10.237  67.767  1.00  0.00    -0.134 C  
HETATM   12  C   UNL     1      -8.418   8.003  67.390  1.00  0.00    -0.126 C  
HETATM   13  N   UNL     1      -8.469   9.334  67.005  1.00  0.00    -0.123 N  
HETATM   14  H   UNL     1      -8.060   9.614  66.114  1.00  0.00     0.000 HD 
HETATM   15  N   UNL     1      -9.654   9.979  68.981  1.00  0.00    -0.186 NA 
HETATM   16  N   UNL     1      -9.762   6.772  70.565  1.00  0.00    -0.176 NA 
HETATM   17  C   UNL     1     -10.075   8.079  70.586  1.00  0.00    -0.194 A  
HETATM   18  C   UNL     1      -9.011   7.753  68.665  1.00  0.00    -0.133 A  
HETATM   19  O   UNL     1      -7.915   7.123  66.699  1.00  0.00    -0.107 OA 
HETATM   20  C   UNL     1      -8.595   5.297  69.049  1.00  0.00    -0.094 C  
HETATM   21  C   UNL     1      -9.612   8.714  69.421  1.00  0.00    -0.166 A  
HETATM   22  N   UNL     1      -9.108   6.603  69.388  1.00  0.00    -0.143 NA 
BRANCH  17  23
HETATM   23  C   UNL     1     -10.816   8.645  71.751  1.00  0.00    -0.395 C  
BRANCH  23  24
HETATM   24  C   UNL     1     -10.919   7.697  72.948  1.00  0.00    -0.456 C  
HETATM   25  C   UNL     1      -9.649   7.631  73.787  1.00  0.00    -0.275 C  
ENDBRANCH  23  24
ENDBRANCH  17  23
ENDBRANCH   6  11
BRANCH   9  26
HETATM   26  S   UNL     1      -7.405  15.214  68.555  1.00  0.00    -0.127 S  
HETATM   27  O   UNL     1      -6.075  15.338  68.009  1.00  0.00    -0.122 OA 
HETATM   28  O   UNL     1      -7.656  14.928  69.949  1.00  0.00    -0.130 OA 
BRANCH  26  29
HETATM   29  N   UNL     1      -8.231  16.652  68.137  1.00  0.00    -0.186 N  
HETATM   30  H   UNL     1      -7.981  17.191  67.308  1.00  0.00     0.000 HD 
BRANCH  29  31
HETATM   31  C   UNL     1      -9.326  17.073  69.035  1.00  0.00    -0.167 C  
BRANCH  31  32
HETATM   32  C   UNL     1     -10.687  17.012  68.351  1.00  0.00    -0.361 C  
BRANCH  32  33
HETATM   33  C   UNL     1     -10.763  18.068  67.231  1.00  0.00    -0.290 C  
HETATM   34  C   UNL     1     -10.207  19.425  67.656  1.00  0.00    -0.526 C  
HETATM   35  C   UNL     1      -9.859  20.074  66.338  1.00  0.00    -0.578 C  
HETATM   36  C   UNL     1     -10.704  16.944  65.067  1.00  0.00    -0.040 C  
HETATM   37  N   UNL     1      -9.945  17.691  66.066  1.00  0.00    -0.523 NA 
HETATM   38  C   UNL     1      -9.357  18.915  65.496  1.00  0.00     0.961 C  
ENDBRANCH  32  33
ENDBRANCH  31  32
ENDBRANCH  29  31
ENDBRANCH  26  29
ENDBRANCH   9  26
ENDBRANCH   4   5
ENDBRANCH   3   4
ENDBRANCH   2   3
TORSDOF 11
ENDMDL
MODEL      263
REMARK 921   NORMALIZED FREE ENERGY PREDICTED BY IDOCK:   -2.88 KCAL/MOL
REMARK 922        TOTAL FREE ENERGY PREDICTED BY IDOCK:   -6.97 KCAL/MOL
REMARK 923 INTER-LIGAND FREE ENERGY PREDICTED BY IDOCK:   -5.63 KCAL/MOL
REMARK 924 INTRA-LIGAND FREE ENERGY PREDICTED BY IDOCK:   -1.34 KCAL/MOL
REMARK 927      BINDING AFFINITY PREDICTED BY RF-SCORE:    0.00 PKD
ROOT
HETATM    1  C   UNL     1      -5.553  15.865  70.602  1.00  0.00    -0.065 C  
HETATM    2  C   UNL     1      -6.506  14.694  70.452  1.00  0.00    -0.110 C  
ENDROOT
BRANCH   2   3
HETATM    3  C   UNL     1      -7.805  15.086  69.768  1.00  0.00    -0.007 C  
BRANCH   3   4
HETATM    4  O   UNL     1      -7.600  15.506  68.406  1.00  0.00    -0.112 OA 
BRANCH   4   5
HETATM    5  C   UNL     1      -8.702  15.354  67.585  1.00  0.00    -0.167 A  
HETATM    6  C   UNL     1      -9.049  14.071  67.096  1.00  0.00    -0.239 A  
HETATM    7  C   UNL     1     -10.139  13.941  66.200  1.00  0.00    -0.317 A  
HETATM    8  C   UNL     1      -9.470  16.458  67.189  1.00  0.00    -0.238 A  
HETATM    9  C   UNL     1     -10.850  15.077  65.788  1.00  0.00    -0.350 A  
HETATM   10  C   UNL     1     -10.499  16.327  66.274  1.00  0.00    -0.314 A  
BRANCH   6  11
HETATM   11  C   UNL     1      -8.281  12.816  67.473  1.00  0.00    -0.179 C  
HETATM   12  C   UNL     1      -6.273  11.608  67.338  1.00  0.00    -0.101 C  
HETATM   13  N   UNL     1      -7.056  12.708  67.024  1.00  0.00    -0.373 N  
HETATM   14  H   UNL     1      -6.671  13.446  66.434  1.00  0.00     0.000 HD 
HETATM   15  N   UNL     1      -8.930  11.869  68.251  1.00  0.00    -0.178 NA 
HETATM   16  N   UNL     1      -7.416   8.870  69.484  1.00  0.00    -0.074 NA 
HETATM   17  C   UNL     1      -8.494   9.670  69.407  1.00  0.00    -0.156 A  
HETATM   18  C   UNL     1      -6.929  10.662  68.184  1.00  0.00    -0.073 A  
HETATM   19  O   UNL     1      -5.128  11.458  66.925  1.00  0.00    -0.069 OA 
HETATM   20  C   UNL     1      -5.159   8.923  68.624  1.00  0.00    -0.034 C  
HETATM   21  C   UNL     1      -8.215  10.796  68.613  1.00  0.00    -0.139 A  
HETATM   22  N   UNL     1      -6.476   9.503  68.736  1.00  0.00    -0.047 NA 
BRANCH  17  23
HETATM   23  C   UNL     1      -9.749   9.291  70.118  1.00  0.00    -0.252 C  
BRANCH  23  24
HETATM   24  C   UNL     1      -9.523   8.636  71.483  1.00  0.00    -0.320 C  
HETATM   25  C   UNL     1     -10.793   8.496  72.312  1.00  0.00    -0.418 C  
ENDBRANCH  23  24
ENDBRANCH  17  23
ENDBRANCH   6  11
BRANCH   9  26
HETATM   26  S   UNL     1     -12.155  14.980  64.582  1.00  0.00    -0.241 S  
HETATM   27  O   UNL     1     -11.636  15.517  63.346  1.00  0.00     0.399 OA 
HETATM   28  O   UNL     1     -13.351  15.485  65.215  1.00  0.00     1.128 OA 
BRANCH  26  29
HETATM   29  N   UNL     1     -12.338  13.298  64.334  1.00  0.00    -0.555 N  
HETATM   30  H   UNL     1     -13.234  12.831  64.472  1.00  0.00     0.000 HD 
BRANCH  29  31
HETATM   31  C   UNL     1     -11.133  12.556  63.911  1.00  0.00    -0.423 C  
BRANCH  31  32
HETATM   32  C   UNL     1     -10.966  11.247  64.675  1.00  0.00    -0.281 C  
BRANCH  32  33
HETATM   33  C   UNL     1      -9.889  10.375  64.001  1.00  0.00    -0.289 C  
HETATM   34  C   UNL     1      -9.241  11.056  62.798  1.00  0.00    -0.374 C  
HETATM   35  C   UNL     1      -7.920  10.335  62.674  1.00  0.00    -0.162 C  
HETATM   36  C   UNL     1      -8.942   8.853  65.654  1.00  0.00    -0.201 C  
HETATM   37  N   UNL     1      -8.763  10.095  64.908  1.00  0.00    -0.169 NA 
HETATM   38  C   UNL     1      -7.522  10.077  64.116  1.00  0.00    -0.132 C  
ENDBRANCH  32  33
ENDBRANCH  31  32
ENDBRANCH  29  31
ENDBRANCH  26  29
ENDBRANCH   9  26
ENDBRANCH   4   5
ENDBRANCH   3   4
ENDBRANCH   2   3
TORSDOF 11
ENDMDL
MODEL      264
REMARK 921   NORMALIZED FREE ENERGY PREDICTED BY IDOCK:   -2.78 KCAL/MOL
REMARK 922        TOTAL FREE ENERGY PREDICTED BY IDOCK:   -6.80 KCAL/MOL
REMARK 923 INTER-LIGAND FREE ENERGY PREDICTED BY IDOCK:   -5.43 KCAL/MOL
REMARK 924 INTRA-LIGAND FREE ENERGY PREDICTED BY IDOCK:   -1.37 KCAL/MOL
REMARK 927      BINDING AFFINITY PREDICTED BY RF-SCORE:    0.00 PKD
ROOT
HETATM    1  C   UNL     1      -6.541   7.311  74.025  1.00  0.00    -0.077 C  
HETATM    2  C   UNL     1      -6.673   7.152  72.522  1.00  0.00    -0.063 C  
ENDROOT
BRANCH   2   3
HETATM    3  C   UNL     1      -8.123   7.098  72.068  1.00  0.00    -0.099 C  
BRANCH   3   4
HETATM    4  O   UNL     1      -8.243   6.883  70.650  1.00  0.00    -0.117 OA 
BRANCH   4   5
HETATM    5  C   UNL     1      -8.083   8.021  69.880  1.00  0.00    -0.117 A  
HETATM    6  C   UNL     1      -7.944   7.913  68.475  1.00  0.00    -0.121 A  
HETATM    7  C   UNL     1      -7.711   9.081  67.709  1.00  0.00    -0.097 A  
HETATM    8  C   UNL     1      -8.016   9.292  70.469  1.00  0.00    -0.188 A  
HETATM    9  C   UNL     1      -7.600  10.327  68.341  1.00  0.00    -0.092 A  
HETATM   10  C   UNL     1      -7.738  10.419  69.717  1.00  0.00    -0.126 A  
BRANCH   6  11
HETATM   11  C   UNL     1      -8.007   6.581  67.748  1.00  0.00    -0.115 C  
HETATM   12  C   UNL     1      -8.949   4.435  67.625  1.00  0.00    -0.118 C  
HETATM   13  N   UNL     1      -8.811   5.670  68.237  1.00  0.00    -0.109 N  
HETATM   14  H   UNL     1      -9.343   5.873  69.083  1.00  0.00     0.000 HD 
HETATM   15  N   UNL     1      -7.204   6.416  66.629  1.00  0.00    -0.075 NA 
HETATM   16  N   UNL     1      -7.188   3.501  64.554  1.00  0.00    -0.061 NA 
HETATM   17  C   UNL     1      -6.721   4.734  64.812  1.00  0.00    -0.044 A  
HETATM   18  C   UNL     1      -8.160   4.290  66.442  1.00  0.00    -0.102 A  
HETATM   19  O   UNL     1      -9.676   3.547  68.059  1.00  0.00    -0.147 OA 
HETATM   20  C   UNL     1      -8.791   2.010  65.575  1.00  0.00    -0.121 C  
HETATM   21  C   UNL     1      -7.315   5.252  65.976  1.00  0.00    -0.081 A  
HETATM   22  N   UNL     1      -8.069   3.259  65.558  1.00  0.00    -0.089 NA 
BRANCH  17  23
HETATM   23  C   UNL     1      -5.710   5.349  63.903  1.00  0.00    -0.017 C  
BRANCH  23  24
HETATM   24  C   UNL     1      -6.239   6.531  63.087  1.00  0.00    -0.037 C  
HETATM   25  C   UNL     1      -5.360   7.773  63.170  1.00  0.00    -0.049 C  
ENDBRANCH  23  24
ENDBRANCH  17  23
ENDBRANCH   6  11
BRANCH   9  26
HETATM   26  S   UNL     1      -7.201  11.806  67.436  1.00  0.00    -0.143 S  
HETATM   27  O   UNL     1      -6.310  11.425  66.365  1.00  0.00    -0.126 OA 
HETATM   28  O   UNL     1      -6.868  12.819  68.410  1.00  0.00    -0.076 OA 
BRANCH  26  29
HETATM   29  N   UNL     1      -8.685  12.227  66.697  1.00  0.00    -0.322 N  
HETATM   30  H   UNL     1      -8.729  12.551  65.731  1.00  0.00     0.000 HD 
BRANCH  29  31
HETATM   31  C   UNL     1      -9.899  12.098  67.528  1.00  0.00    -0.191 C  
BRANCH  31  32
HETATM   32  C   UNL     1     -10.267  13.408  68.216  1.00  0.00    -0.250 C  
BRANCH  32  33
HETATM   33  C   UNL     1     -10.785  14.422  67.179  1.00  0.00    -0.283 C  
HETATM   34  C   UNL     1      -9.835  15.600  66.974  1.00  0.00    -0.237 C  
HETATM   35  C   UNL     1     -10.219  16.108  65.604  1.00  0.00    -0.390 C  
HETATM   36  C   UNL     1     -12.241  13.273  65.594  1.00  0.00    -0.462 C  
HETATM   37  N   UNL     1     -10.910  13.821  65.839  1.00  0.00    -0.281 NA 
HETATM   38  C   UNL     1     -10.551  14.839  64.838  1.00  0.00    -0.406 C  
ENDBRANCH  32  33
ENDBRANCH  31  32
ENDBRANCH  29  31
ENDBRANCH  26  29
ENDBRANCH   9  26
ENDBRANCH   4   5
ENDBRANCH   3   4
ENDBRANCH   2   3
TORSDOF 11
ENDMDL
MODEL      265
REMARK 921   NORMALIZED FREE ENERGY PREDICTED BY IDOCK:   -2.65 KCAL/MOL
REMARK 922        TOTAL FREE ENERGY PREDICTED BY IDOCK:   -6.60 KCAL/MOL
REMARK 923 INTER-LIGAND FREE ENERGY PREDICTED BY IDOCK:   -4.59 KCAL/MOL
REMARK 924 INTRA-LIGAND FREE ENERGY PREDICTED BY IDOCK:   -2.01 KCAL/MOL
REMARK 927      BINDING AFFINITY PREDICTED BY RF-SCORE:    0.00 PKD
ROOT
HETATM    1  C   UNL     1      -6.374  17.373  70.246  1.00  0.00     0.406 C  
HETATM    2  C   UNL     1      -5.140  16.743  70.865  1.00  0.00    -0.206 C  
ENDROOT
BRANCH   2   3
HETATM    3  C   UNL     1      -5.214  15.225  70.888  1.00  0.00    -0.138 C  
BRANCH   3   4
HETATM    4  O   UNL     1      -6.465  14.732  70.375  1.00  0.00    -0.175 OA 
BRANCH   4   5
HETATM    5  C   UNL     1      -6.343  13.756  69.402  1.00  0.00    -0.111 A  
HETATM    6  C   UNL     1      -7.086  13.857  68.201  1.00  0.00    -0.118 A  
HETATM    7  C   UNL     1      -7.004  12.815  67.245  1.00  0.00    -0.087 A  
HETATM    8  C   UNL     1      -5.521  12.637  69.596  1.00  0.00    -0.085 A  
HETATM    9  C   UNL     1      -6.210  11.688  67.499  1.00  0.00    -0.083 A  
HETATM   10  C   UNL     1      -5.488  11.601  68.679  1.00  0.00    -0.042 A  
BRANCH   6  11
HETATM   11  C   UNL     1      -7.998  15.033  67.899  1.00  0.00    -0.138 C  
HETATM   12  C   UNL     1      -8.313  17.048  66.738  1.00  0.00    -0.234 C  
HETATM   13  N   UNL     1      -7.540  15.951  67.087  1.00  0.00    -0.199 N  
HETATM   14  H   UNL     1      -6.599  15.859  66.704  1.00  0.00     0.000 HD 
HETATM   15  N   UNL     1      -9.242  15.061  68.512  1.00  0.00    -0.185 NA 
HETATM   16  N   UNL     1     -11.734  17.563  67.936  1.00  0.00     0.907 NA 
HETATM   17  C   UNL     1     -11.359  16.432  68.558  1.00  0.00    -0.289 A  
HETATM   18  C   UNL     1      -9.613  17.044  67.330  1.00  0.00    -0.246 A  
HETATM   19  O   UNL     1      -7.917  17.940  65.995  1.00  0.00    -0.477 OA 
HETATM   20  C   UNL     1     -10.724  19.084  66.354  1.00  0.00    -0.324 C  
HETATM   21  C   UNL     1     -10.048  16.082  68.192  1.00  0.00    -0.234 A  
HETATM   22  N   UNL     1     -10.654  17.909  67.189  1.00  0.00    -0.343 NA 
BRANCH  17  23
HETATM   23  C   UNL     1     -12.306  15.747  69.484  1.00  0.00    -0.084 C  
BRANCH  23  24
HETATM   24  C   UNL     1     -11.904  15.820  70.958  1.00  0.00    -0.460 C  
HETATM   25  C   UNL     1     -10.873  14.773  71.363  1.00  0.00     0.519 C  
ENDBRANCH  23  24
ENDBRANCH  17  23
ENDBRANCH   6  11
BRANCH   9  26
HETATM   26  S   UNL     1      -6.159  10.305  66.380  1.00  0.00    -0.082 S  
HETATM   27  O   UNL     1      -5.779   9.144  67.151  1.00  0.00    -0.044 OA 
HETATM   28  O   UNL     1      -5.435  10.739  65.208  1.00  0.00    -0.140 OA 
BRANCH  26  29
HETATM   29  N   UNL     1      -7.800  10.081  65.955  1.00  0.00    -0.115 N  
HETATM   30  H   UNL     1      -8.214  10.553  65.151  1.00  0.00     0.000 HD 
BRANCH  29  31
HETATM   31  C   UNL     1      -8.588   9.171  66.811  1.00  0.00    -0.127 C  
BRANCH  31  32
HETATM   32  C   UNL     1     -10.081   9.250  66.513  1.00  0.00    -0.343 C  
BRANCH  32  33
HETATM   33  C   UNL     1     -10.768  10.207  67.506  1.00  0.00    -0.290 C  
HETATM   34  C   UNL     1     -10.176  10.130  68.911  1.00  0.00    -0.213 C  
HETATM   35  C   UNL     1     -10.562  11.461  69.512  1.00  0.00    -0.029 C  
HETATM   36  C   UNL     1     -11.688  12.105  66.280  1.00  0.00    -0.320 C  
HETATM   37  N   UNL     1     -10.596  11.617  67.117  1.00  0.00    -0.223 NA 
HETATM   38  C   UNL     1     -10.450  12.422  68.341  1.00  0.00    -0.235 C  
ENDBRANCH  32  33
ENDBRANCH  31  32
ENDBRANCH  29  31
ENDBRANCH  26  29
ENDBRANCH   9  26
ENDBRANCH   4   5
ENDBRANCH   3   4
ENDBRANCH   2   3
TORSDOF 11
ENDMDL
MODEL      266
REMARK 921   NORMALIZED FREE ENERGY PREDICTED BY IDOCK:   -2.65 KCAL/MOL
REMARK 922        TOTAL FREE ENERGY PREDICTED BY IDOCK:   -6.59 KCAL/MOL
REMARK 923 INTER-LIGAND FREE ENERGY PREDICTED BY IDOCK:   -7.55 KCAL/MOL
REMARK 924 INTRA-LIGAND FREE ENERGY PREDICTED BY IDOCK:    0.96 KCAL/MOL
REMARK 927      BINDING AFFINITY PREDICTED BY RF-SCORE:    0.00 PKD
ROOT
HETATM    1  C   UNL     1      -6.617  17.727  69.788  1.00  0.00     0.019 C  
HETATM    2  C   UNL     1      -6.287  16.254  69.627  1.00  0.00    -0.198 C  
ENDROOT
BRANCH   2   3
HETATM    3  C   UNL     1      -5.718  15.933  68.256  1.00  0.00    -0.111 C  
BRANCH   3   4
HETATM    4  O   UNL     1      -5.725  14.520  67.979  1.00  0.00    -0.124 OA 
BRANCH   4   5
HETATM    5  C   UNL     1      -6.977  13.991  67.724  1.00  0.00    -0.177 A  
HETATM    6  C   UNL     1      -7.971  14.788  67.106  1.00  0.00    -0.205 A  
HETATM    7  C   UNL     1      -9.269  14.255  66.915  1.00  0.00    -0.268 A  
HETATM    8  C   UNL     1      -7.303  12.681  68.103  1.00  0.00    -0.112 A  
HETATM    9  C   UNL     1      -9.569  12.958  67.354  1.00  0.00    -0.203 A  
HETATM   10  C   UNL     1      -8.587  12.188  67.959  1.00  0.00    -0.175 A  
BRANCH   6  11
HETATM   11  C   UNL     1      -7.711  16.215  66.656  1.00  0.00    -0.230 C  
HETATM   12  C   UNL     1      -6.230  17.740  65.662  1.00  0.00    -0.106 C  
HETATM   13  N   UNL     1      -6.544  16.470  66.121  1.00  0.00     0.527 N  
HETATM   14  H   UNL     1      -5.855  15.723  66.041  1.00  0.00     0.000 HD 
HETATM   15  N   UNL     1      -8.717  17.150  66.855  1.00  0.00    -0.222 NA 
HETATM   16  N   UNL     1      -8.559  20.562  65.789  1.00  0.00     0.240 NA 
HETATM   17  C   UNL     1      -9.246  19.570  66.381  1.00  0.00    -0.371 A  
HETATM   18  C   UNL     1      -7.289  18.685  65.820  1.00  0.00    -0.156 A  
HETATM   19  O   UNL     1      -5.143  18.027  65.170  1.00  0.00    -0.150 OA 
HETATM   20  C   UNL     1      -6.386  20.784  64.757  1.00  0.00    -0.270 C  
HETATM   21  C   UNL     1      -8.484  18.389  66.405  1.00  0.00    -0.245 A  
HETATM   22  N   UNL     1      -7.374  19.993  65.451  1.00  0.00    -0.328 NA 
BRANCH  17  23
HETATM   23  C   UNL     1     -10.622  19.828  66.896  1.00  0.00    -0.588 C  
BRANCH  23  24
HETATM   24  C   UNL     1     -10.662  20.451  68.293  1.00  0.00     0.104 C  
HETATM   25  C   UNL     1      -9.891  19.655  69.339  1.00  0.00    -0.235 C  
ENDBRANCH  23  24
ENDBRANCH  17  23
ENDBRANCH   6  11
BRANCH   9  26
HETATM   26  S   UNL     1     -11.211  12.283  67.235  1.00  0.00    -0.321 S  
HETATM   27  O   UNL     1     -11.224  11.386  66.104  1.00  0.00    -0.254 OA 
HETATM   28  O   UNL     1     -12.131  13.388  67.370  1.00  0.00    -0.355 OA 
BRANCH  26  29
HETATM   29  N   UNL     1     -11.333  11.299  68.629  1.00  0.00    -0.245 N  
HETATM   30  H   UNL     1     -10.654  10.564  68.827  1.00  0.00     0.000 HD 
BRANCH  29  31
HETATM   31  C   UNL     1     -12.471  11.567  69.531  1.00  0.00     0.004 C  
BRANCH  31  32
HETATM   32  C   UNL     1     -12.038  12.285  70.805  1.00  0.00    -0.259 C  
BRANCH  32  33
HETATM   33  C   UNL     1     -12.630  13.707  70.837  1.00  0.00    -0.346 C  
HETATM   34  C   UNL     1     -13.690  13.885  71.922  1.00  0.00    -0.521 C  
HETATM   35  C   UNL     1     -13.695  15.378  72.145  1.00  0.00    -0.618 C  
HETATM   36  C   UNL     1     -10.979  15.279  69.968  1.00  0.00    -0.288 C  
HETATM   37  N   UNL     1     -11.608  14.718  71.160  1.00  0.00    -0.302 NA 
HETATM   38  C   UNL     1     -12.235  15.764  71.986  1.00  0.00    -0.465 C  
ENDBRANCH  32  33
ENDBRANCH  31  32
ENDBRANCH  29  31
ENDBRANCH  26  29
ENDBRANCH   9  26
ENDBRANCH   4   5
ENDBRANCH   3   4
ENDBRANCH   2   3
TORSDOF 11
ENDMDL
MODEL      267
REMARK 921   NORMALIZED FREE ENERGY PREDICTED BY IDOCK:   -2.57 KCAL/MOL
REMARK 922        TOTAL FREE ENERGY PREDICTED BY IDOCK:   -6.46 KCAL/MOL
REMARK 923 INTER-LIGAND FREE ENERGY PREDICTED BY IDOCK:   -5.34 KCAL/MOL
REMARK 924 INTRA-LIGAND FREE ENERGY PREDICTED BY IDOCK:   -1.12 KCAL/MOL
REMARK 927      BINDING AFFINITY PREDICTED BY RF-SCORE:    0.00 PKD
ROOT
HETATM    1  C   UNL     1      -9.529  10.948  62.432  1.00  0.00    -0.205 C  
HETATM    2  C   UNL     1      -9.029   9.518  62.337  1.00  0.00    -0.279 C  
ENDROOT
BRANCH   2   3
HETATM    3  C   UNL     1      -7.597   9.369  62.826  1.00  0.00    -0.111 C  
BRANCH   3   4
HETATM    4  O   UNL     1      -7.466   8.343  63.826  1.00  0.00    -0.107 OA 
BRANCH   4   5
HETATM    5  C   UNL     1      -7.208   8.812  65.101  1.00  0.00    -0.087 A  
HETATM    6  C   UNL     1      -7.441   7.980  66.223  1.00  0.00    -0.082 A  
HETATM    7  C   UNL     1      -7.239   8.498  67.526  1.00  0.00    -0.084 A  
HETATM    8  C   UNL     1      -6.753  10.121  65.315  1.00  0.00    -0.122 A  
HETATM    9  C   UNL     1      -6.832   9.829  67.698  1.00  0.00    -0.085 A  
HETATM   10  C   UNL     1      -6.608  10.633  66.592  1.00  0.00    -0.101 A  
BRANCH   6  11
HETATM   11  C   UNL     1      -7.929   6.548  66.092  1.00  0.00    -0.110 C  
HETATM   12  C   UNL     1      -8.873   4.895  64.718  1.00  0.00    -0.147 C  
HETATM   13  N   UNL     1      -8.425   6.189  64.934  1.00  0.00    -0.296 N  
HETATM   14  H   UNL     1      -8.483   6.873  64.180  1.00  0.00     0.000 HD 
HETATM   15  N   UNL     1      -7.830   5.725  67.204  1.00  0.00    -0.101 NA 
HETATM   16  N   UNL     1      -8.713   2.258  67.252  1.00  0.00    -0.113 NA 
HETATM   17  C   UNL     1      -8.236   3.335  67.900  1.00  0.00    -0.079 A  
HETATM   18  C   UNL     1      -8.718   4.039  65.850  1.00  0.00    -0.116 A  
HETATM   19  O   UNL     1      -9.360   4.522  63.655  1.00  0.00    -0.132 OA 
HETATM   20  C   UNL     1      -9.503   1.794  65.016  1.00  0.00     0.011 C  
HETATM   21  C   UNL     1      -8.220   4.453  67.049  1.00  0.00    -0.101 A  
HETATM   22  N   UNL     1      -8.991   2.714  66.004  1.00  0.00    -0.139 NA 
BRANCH  17  23
HETATM   23  C   UNL     1      -7.817   3.216  69.326  1.00  0.00    -0.054 C  
BRANCH  23  24
HETATM   24  C   UNL     1      -8.962   3.372  70.330  1.00  0.00    -0.167 C  
HETATM   25  C   UNL     1      -9.256   2.105  71.124  1.00  0.00    -0.185 C  
ENDBRANCH  23  24
ENDBRANCH  17  23
ENDBRANCH   6  11
BRANCH   9  26
HETATM   26  S   UNL     1      -6.670  10.558  69.313  1.00  0.00    -0.081 S  
HETATM   27  O   UNL     1      -5.696  11.619  69.207  1.00  0.00    -0.052 OA 
HETATM   28  O   UNL     1      -6.544   9.470  70.255  1.00  0.00    -0.057 OA 
BRANCH  26  29
HETATM   29  N   UNL     1      -8.183  11.318  69.556  1.00  0.00    -0.295 N  
HETATM   30  H   UNL     1      -8.626  11.347  70.474  1.00  0.00     0.000 HD 
BRANCH  29  31
HETATM   31  C   UNL     1      -8.815  11.930  68.370  1.00  0.00    -0.159 C  
BRANCH  31  32
HETATM   32  C   UNL     1      -9.069  13.421  68.559  1.00  0.00    -0.077 C  
BRANCH  32  33
HETATM   33  C   UNL     1     -10.412  13.815  67.915  1.00  0.00    -0.246 C  
HETATM   34  C   UNL     1     -10.240  14.607  66.621  1.00  0.00    -0.275 C  
HETATM   35  C   UNL     1     -11.556  14.384  65.913  1.00  0.00    -0.361 C  
HETATM   36  C   UNL     1     -12.114  12.191  68.559  1.00  0.00    -0.057 C  
HETATM   37  N   UNL     1     -11.195  12.633  67.515  1.00  0.00    -0.272 NA 
HETATM   38  C   UNL     1     -11.907  12.949  66.265  1.00  0.00    -0.416 C  
ENDBRANCH  32  33
ENDBRANCH  31  32
ENDBRANCH  29  31
ENDBRANCH  26  29
ENDBRANCH   9  26
ENDBRANCH   4   5
ENDBRANCH   3   4
ENDBRANCH   2   3
TORSDOF 11
ENDMDL
MODEL      268
REMARK 921   NORMALIZED FREE ENERGY PREDICTED BY IDOCK:   -2.57 KCAL/MOL
REMARK 922        TOTAL FREE ENERGY PREDICTED BY IDOCK:   -6.45 KCAL/MOL
REMARK 923 INTER-LIGAND FREE ENERGY PREDICTED BY IDOCK:   -5.90 KCAL/MOL
REMARK 924 INTRA-LIGAND FREE ENERGY PREDICTED BY IDOCK:   -0.55 KCAL/MOL
REMARK 927      BINDING AFFINITY PREDICTED BY RF-SCORE:    0.00 PKD
ROOT
HETATM    1  C   UNL     1      -9.529  10.956  62.441  1.00  0.00    -0.205 C  
HETATM    2  C   UNL     1      -9.079   9.510  62.335  1.00  0.00    -0.257 C  
ENDROOT
BRANCH   2   3
HETATM    3  C   UNL     1      -7.667   9.302  62.857  1.00  0.00    -0.120 C  
BRANCH   3   4
HETATM    4  O   UNL     1      -7.589   8.218  63.801  1.00  0.00    -0.117 OA 
BRANCH   4   5
HETATM    5  C   UNL     1      -7.406   8.611  65.114  1.00  0.00    -0.088 A  
HETATM    6  C   UNL     1      -7.633   7.691  66.167  1.00  0.00    -0.088 A  
HETATM    7  C   UNL     1      -7.509   8.128  67.509  1.00  0.00    -0.094 A  
HETATM    8  C   UNL     1      -7.034   9.924  65.434  1.00  0.00    -0.113 A  
HETATM    9  C   UNL     1      -7.185   9.463  67.787  1.00  0.00    -0.083 A  
HETATM   10  C   UNL     1      -6.966  10.353  66.747  1.00  0.00    -0.103 A  
BRANCH   6  11
HETATM   11  C   UNL     1      -8.033   6.248  65.920  1.00  0.00    -0.116 C  
HETATM   12  C   UNL     1      -8.719   4.619  64.375  1.00  0.00    -0.148 C  
HETATM   13  N   UNL     1      -8.363   5.920  64.696  1.00  0.00    -0.239 N  
HETATM   14  H   UNL     1      -8.357   6.633  63.967  1.00  0.00     0.000 HD 
HETATM   15  N   UNL     1      -8.037   5.382  67.004  1.00  0.00    -0.101 NA 
HETATM   16  N   UNL     1      -8.756   1.882  66.806  1.00  0.00    -0.111 NA 
HETATM   17  C   UNL     1      -8.415   2.948  67.550  1.00  0.00    -0.089 A  
HETATM   18  C   UNL     1      -8.669   3.721  65.484  1.00  0.00    -0.118 A  
HETATM   19  O   UNL     1      -9.052   4.273  63.246  1.00  0.00    -0.128 OA 
HETATM   20  C   UNL     1      -9.237   1.484  64.472  1.00  0.00    -0.125 C  
HETATM   21  C   UNL     1      -8.344   4.103  66.751  1.00  0.00    -0.101 A  
HETATM   22  N   UNL     1      -8.897   2.381  65.551  1.00  0.00    -0.124 NA 
BRANCH  17  23
HETATM   23  C   UNL     1      -8.173   2.784  69.012  1.00  0.00    -0.074 C  
BRANCH  23  24
HETATM   24  C   UNL     1      -9.441   2.853  69.868  1.00  0.00    -0.173 C  
HETATM   25  C   UNL     1      -9.386   3.918  70.956  1.00  0.00    -0.222 C  
ENDBRANCH  23  24
ENDBRANCH  17  23
ENDBRANCH   6  11
BRANCH   9  26
HETATM   26  S   UNL     1      -7.124  10.087  69.452  1.00  0.00    -0.087 S  
HETATM   27  O   UNL     1      -7.440  11.494  69.395  1.00  0.00    -0.031 OA 
HETATM   28  O   UNL     1      -5.909   9.580  70.047  1.00  0.00    -0.034 OA 
BRANCH  26  29
HETATM   29  N   UNL     1      -8.458   9.326  70.206  1.00  0.00    -0.183 N  
HETATM   30  H   UNL     1      -8.512   9.221  71.219  1.00  0.00     0.000 HD 
BRANCH  29  31
HETATM   31  C   UNL     1      -9.528   8.831  69.316  1.00  0.00    -0.161 C  
BRANCH  31  32
HETATM   32  C   UNL     1     -10.626   9.869  69.105  1.00  0.00    -0.240 C  
BRANCH  32  33
HETATM   33  C   UNL     1     -11.051  10.470  70.458  1.00  0.00    -0.187 C  
HETATM   34  C   UNL     1     -11.981  11.672  70.307  1.00  0.00    -0.445 C  
HETATM   35  C   UNL     1     -12.687  11.721  71.642  1.00  0.00    -0.357 C  
HETATM   36  C   UNL     1     -10.985   8.728  72.164  1.00  0.00    -0.334 C  
HETATM   37  N   UNL     1     -11.827   9.512  71.265  1.00  0.00    -0.344 NA 
HETATM   38  C   UNL     1     -12.862  10.256  72.002  1.00  0.00    -0.359 C  
ENDBRANCH  32  33
ENDBRANCH  31  32
ENDBRANCH  29  31
ENDBRANCH  26  29
ENDBRANCH   9  26
ENDBRANCH   4   5
ENDBRANCH   3   4
ENDBRANCH   2   3
TORSDOF 11
ENDMDL
MODEL      269
REMARK 921   NORMALIZED FREE ENERGY PREDICTED BY IDOCK:   -2.51 KCAL/MOL
REMARK 922        TOTAL FREE ENERGY PREDICTED BY IDOCK:   -6.36 KCAL/MOL
REMARK 923 INTER-LIGAND FREE ENERGY PREDICTED BY IDOCK:   -6.02 KCAL/MOL
REMARK 924 INTRA-LIGAND FREE ENERGY PREDICTED BY IDOCK:   -0.34 KCAL/MOL
REMARK 927      BINDING AFFINITY PREDICTED BY RF-SCORE:    0.00 PKD
ROOT
HETATM    1  C   UNL     1     -13.277  13.484  65.123  1.00  0.00     0.101 C  
HETATM    2  C   UNL     1     -12.913  14.772  65.838  1.00  0.00     0.530 C  
ENDROOT
BRANCH   2   3
HETATM    3  C   UNL     1     -12.169  14.524  67.140  1.00  0.00    -0.152 C  
BRANCH   3   4
HETATM    4  O   UNL     1     -11.083  13.592  66.978  1.00  0.00    -0.291 OA 
BRANCH   4   5
HETATM    5  C   UNL     1      -9.825  14.139  67.155  1.00  0.00    -0.253 A  
HETATM    6  C   UNL     1      -8.787  13.358  67.719  1.00  0.00    -0.199 A  
HETATM    7  C   UNL     1      -7.524  13.953  67.959  1.00  0.00    -0.135 A  
HETATM    8  C   UNL     1      -9.560  15.474  66.821  1.00  0.00    -0.251 A  
HETATM    9  C   UNL     1      -7.315  15.306  67.658  1.00  0.00    -0.178 A  
HETATM   10  C   UNL     1      -8.339  16.059  67.106  1.00  0.00    -0.228 A  
BRANCH   6  11
HETATM   11  C   UNL     1      -8.977  11.903  68.108  1.00  0.00    -0.185 C  
HETATM   12  C   UNL     1      -9.962  10.357  69.574  1.00  0.00    -0.202 C  
HETATM   13  N   UNL     1      -9.716  11.657  69.160  1.00  0.00    -0.408 N  
HETATM   14  H   UNL     1     -10.117  12.434  69.685  1.00  0.00     0.000 HD 
HETATM   15  N   UNL     1      -8.348  10.939  67.335  1.00  0.00    -0.116 NA 
HETATM   16  N   UNL     1      -8.681   7.409  67.821  1.00  0.00    -0.126 NA 
HETATM   17  C   UNL     1      -8.160   8.432  67.121  1.00  0.00    -0.104 A  
HETATM   18  C   UNL     1      -9.355   9.367  68.742  1.00  0.00    -0.146 A  
HETATM   19  O   UNL     1     -10.633  10.082  70.564  1.00  0.00    -0.292 OA 
HETATM   20  C   UNL     1     -10.143   7.187  69.731  1.00  0.00    -0.195 C  
HETATM   21  C   UNL     1      -8.571   9.661  67.667  1.00  0.00    -0.126 A  
HETATM   22  N   UNL     1      -9.410   8.008  68.797  1.00  0.00    -0.147 NA 
BRANCH  17  23
HETATM   23  C   UNL     1      -7.283   8.156  65.947  1.00  0.00    -0.072 C  
BRANCH  23  24
HETATM   24  C   UNL     1      -7.947   7.320  64.851  1.00  0.00    -0.127 C  
HETATM   25  C   UNL     1      -7.335   7.524  63.471  1.00  0.00    -0.090 C  
ENDBRANCH  23  24
ENDBRANCH  17  23
ENDBRANCH   6  11
BRANCH   9  26
HETATM   26  S   UNL     1      -5.782  16.126  68.039  1.00  0.00    -0.127 S  
HETATM   27  O   UNL     1      -5.133  16.425  66.785  1.00  0.00    -0.342 OA 
HETATM   28  O   UNL     1      -5.147  15.363  69.089  1.00  0.00    -0.095 OA 
BRANCH  26  29
HETATM   29  N   UNL     1      -6.289  17.626  68.686  1.00  0.00    -0.184 N  
HETATM   30  H   UNL     1      -6.846  17.680  69.539  1.00  0.00     0.000 HD 
BRANCH  29  31
HETATM   31  C   UNL     1      -5.880  18.838  67.948  1.00  0.00    -0.197 C  
BRANCH  31  32
HETATM   32  C   UNL     1      -6.754  19.088  66.724  1.00  0.00    -0.202 C  
BRANCH  32  33
HETATM   33  C   UNL     1      -8.123  19.646  67.157  1.00  0.00    -0.282 C  
HETATM   34  C   UNL     1      -9.209  19.440  66.103  1.00  0.00    -0.323 C  
HETATM   35  C   UNL     1     -10.482  19.514  66.912  1.00  0.00    -0.589 C  
HETATM   36  C   UNL     1      -8.261  19.625  69.592  1.00  0.00     0.435 C  
HETATM   37  N   UNL     1      -8.643  18.958  68.351  1.00  0.00    -0.335 NA 
HETATM   38  C   UNL     1     -10.106  18.847  68.223  1.00  0.00    -0.388 C  
ENDBRANCH  32  33
ENDBRANCH  31  32
ENDBRANCH  29  31
ENDBRANCH  26  29
ENDBRANCH   9  26
ENDBRANCH   4   5
ENDBRANCH   3   4
ENDBRANCH   2   3
TORSDOF 11
ENDMDL
MODEL      270
REMARK 921   NORMALIZED FREE ENERGY PREDICTED BY IDOCK:   -2.49 KCAL/MOL
REMARK 922        TOTAL FREE ENERGY PREDICTED BY IDOCK:   -6.32 KCAL/MOL
REMARK 923 INTER-LIGAND FREE ENERGY PREDICTED BY IDOCK:   -4.86 KCAL/MOL
REMARK 924 INTRA-LIGAND FREE ENERGY PREDICTED BY IDOCK:   -1.46 KCAL/MOL
REMARK 927      BINDING AFFINITY PREDICTED BY RF-SCORE:    0.00 PKD
ROOT
HETATM    1  C   UNL     1      -9.447   9.079  70.855  1.00  0.00    -0.331 C  
HETATM    2  C   UNL     1      -8.769   8.218  69.805  1.00  0.00    -0.134 C  
ENDROOT
BRANCH   2   3
HETATM    3  C   UNL     1      -7.319   7.919  70.148  1.00  0.00    -0.070 C  
BRANCH   3   4
HETATM    4  O   UNL     1      -6.410   8.408  69.144  1.00  0.00    -0.041 OA 
BRANCH   4   5
HETATM    5  C   UNL     1      -6.378   9.785  69.020  1.00  0.00    -0.041 A  
HETATM    6  C   UNL     1      -6.431  10.382  67.736  1.00  0.00    -0.061 A  
HETATM    7  C   UNL     1      -6.326  11.790  67.621  1.00  0.00    -0.082 A  
HETATM    8  C   UNL     1      -6.253  10.613  70.144  1.00  0.00    -0.125 A  
HETATM    9  C   UNL     1      -6.152  12.578  68.766  1.00  0.00    -0.070 A  
HETATM   10  C   UNL     1      -6.101  11.982  70.016  1.00  0.00    -0.146 A  
BRANCH   6  11
HETATM   11  C   UNL     1      -6.570   9.569  66.462  1.00  0.00    -0.071 C  
HETATM   12  C   UNL     1      -5.900   7.686  65.230  1.00  0.00    -0.038 C  
HETATM   13  N   UNL     1      -5.822   8.500  66.350  1.00  0.00    -0.047 N  
HETATM   14  H   UNL     1      -5.171   8.263  67.098  1.00  0.00     0.000 HD 
HETATM   15  N   UNL     1      -7.465  10.017  65.502  1.00  0.00    -0.130 NA 
HETATM   16  N   UNL     1      -8.200   8.301  62.450  1.00  0.00    -0.173 NA 
HETATM   17  C   UNL     1      -8.419   9.346  63.265  1.00  0.00    -0.202 A  
HETATM   18  C   UNL     1      -6.862   8.124  64.270  1.00  0.00    -0.066 A  
HETATM   19  O   UNL     1      -5.205   6.686  65.077  1.00  0.00    -0.024 OA 
HETATM   20  C   UNL     1      -6.795   6.336  62.495  1.00  0.00    -0.038 C  
HETATM   21  C   UNL     1      -7.607   9.256  64.409  1.00  0.00    -0.115 A  
HETATM   22  N   UNL     1      -7.253   7.569  63.090  1.00  0.00    -0.077 NA 
BRANCH  17  23
HETATM   23  C   UNL     1      -9.417  10.387  62.884  1.00  0.00    -0.354 C  
BRANCH  23  24
HETATM   24  C   UNL     1      -9.046  11.803  63.329  1.00  0.00     0.152 C  
HETATM   25  C   UNL     1     -10.245  12.645  63.751  1.00  0.00    -0.281 C  
ENDBRANCH  23  24
ENDBRANCH  17  23
ENDBRANCH   6  11
BRANCH   9  26
HETATM   26  S   UNL     1      -5.907  14.338  68.665  1.00  0.00    -0.093 S  
HETATM   27  O   UNL     1      -5.448  14.630  67.328  1.00  0.00    -0.291 OA 
HETATM   28  O   UNL     1      -5.177  14.731  69.848  1.00  0.00    -0.093 OA 
BRANCH  26  29
HETATM   29  N   UNL     1      -7.496  14.963  68.773  1.00  0.00    -0.123 N  
HETATM   30  H   UNL     1      -7.884  15.287  69.659  1.00  0.00     0.000 HD 
BRANCH  29  31
HETATM   31  C   UNL     1      -8.276  15.010  67.520  1.00  0.00    -0.182 C  
BRANCH  31  32
HETATM   32  C   UNL     1      -8.729  13.624  67.073  1.00  0.00    -0.204 C  
BRANCH  32  33
HETATM   33  C   UNL     1     -10.226  13.433  67.381  1.00  0.00    -0.237 C  
HETATM   34  C   UNL     1     -11.118  14.423  66.634  1.00  0.00    -0.326 C  
HETATM   35  C   UNL     1     -12.457  13.726  66.621  1.00  0.00    -0.307 C  
HETATM   36  C   UNL     1     -10.624  11.109  68.005  1.00  0.00    -0.198 C  
HETATM   37  N   UNL     1     -10.712  12.112  66.947  1.00  0.00    -0.229 NA 
HETATM   38  C   UNL     1     -12.091  12.262  66.455  1.00  0.00    -0.015 C  
ENDBRANCH  32  33
ENDBRANCH  31  32
ENDBRANCH  29  31
ENDBRANCH  26  29
ENDBRANCH   9  26
ENDBRANCH   4   5
ENDBRANCH   3   4
ENDBRANCH   2   3
TORSDOF 11
ENDMDL
MODEL      271
REMARK 921   NORMALIZED FREE ENERGY PREDICTED BY IDOCK:   -2.46 KCAL/MOL
REMARK 922        TOTAL FREE ENERGY PREDICTED BY IDOCK:   -6.27 KCAL/MOL
REMARK 923 INTER-LIGAND FREE ENERGY PREDICTED BY IDOCK:   -3.98 KCAL/MOL
REMARK 924 INTRA-LIGAND FREE ENERGY PREDICTED BY IDOCK:   -2.29 KCAL/MOL
REMARK 927      BINDING AFFINITY PREDICTED BY RF-SCORE:    0.00 PKD
ROOT
HETATM    1  C   UNL     1      -6.532  17.372  70.140  1.00  0.00     0.377 C  
HETATM    2  C   UNL     1      -5.428  16.425  70.570  1.00  0.00    -0.146 C  
ENDROOT
BRANCH   2   3
HETATM    3  C   UNL     1      -5.831  14.965  70.438  1.00  0.00    -0.152 C  
BRANCH   3   4
HETATM    4  O   UNL     1      -7.189  14.814  69.986  1.00  0.00    -0.136 OA 
BRANCH   4   5
HETATM    5  C   UNL     1      -7.364  13.858  69.002  1.00  0.00    -0.055 A  
HETATM    6  C   UNL     1      -7.494  14.251  67.647  1.00  0.00    -0.194 A  
HETATM    7  C   UNL     1      -7.743  13.267  66.660  1.00  0.00     0.731 A  
HETATM    8  C   UNL     1      -7.456  12.496  69.321  1.00  0.00     0.290 A  
HETATM    9  C   UNL     1      -7.879  11.921  67.027  1.00  0.00    -0.152 A  
HETATM   10  C   UNL     1      -7.751  11.549  68.355  1.00  0.00    -0.129 A  
BRANCH   6  11
HETATM   11  C   UNL     1      -7.404  15.701  67.205  1.00  0.00    -0.212 C  
HETATM   12  C   UNL     1      -6.146  17.372  66.139  1.00  0.00    -0.151 C  
HETATM   13  N   UNL     1      -6.305  16.073  66.598  1.00  0.00     0.361 N  
HETATM   14  H   UNL     1      -5.555  15.397  66.460  1.00  0.00     0.000 HD 
HETATM   15  N   UNL     1      -8.479  16.532  67.484  1.00  0.00    -0.174 NA 
HETATM   16  N   UNL     1      -8.722  19.953  66.466  1.00  0.00    -0.344 NA 
HETATM   17  C   UNL     1      -9.270  18.894  67.085  1.00  0.00    -0.290 A  
HETATM   18  C   UNL     1      -7.279  18.208  66.382  1.00  0.00    -0.247 A  
HETATM   19  O   UNL     1      -5.128  17.767  65.581  1.00  0.00    -0.176 OA 
HETATM   20  C   UNL     1      -6.655  20.394  65.296  1.00  0.00    -0.276 C  
HETATM   21  C   UNL     1      -8.397  17.792  67.040  1.00  0.00    -0.226 A  
HETATM   22  N   UNL     1      -7.513  19.505  66.040  1.00  0.00    -0.289 NA 
BRANCH  17  23
HETATM   23  C   UNL     1     -10.626  19.011  67.694  1.00  0.00    -0.526 C  
BRANCH  23  24
HETATM   24  C   UNL     1     -10.740  20.099  68.764  1.00  0.00     0.275 C  
HETATM   25  C   UNL     1     -10.220  19.669  70.130  1.00  0.00     0.655 C  
ENDBRANCH  23  24
ENDBRANCH  17  23
ENDBRANCH   6  11
BRANCH   9  26
HETATM   26  S   UNL     1      -8.299  10.663  65.840  1.00  0.00    -0.161 S  
HETATM   27  O   UNL     1      -8.872   9.558  66.572  1.00  0.00    -0.135 OA 
HETATM   28  O   UNL     1      -7.162  10.517  64.962  1.00  0.00    -0.100 OA 
BRANCH  26  29
HETATM   29  N   UNL     1      -9.583  11.369  64.956  1.00  0.00    -0.253 N  
HETATM   30  H   UNL     1      -9.412  11.943  64.130  1.00  0.00     0.000 HD 
BRANCH  29  31
HETATM   31  C   UNL     1     -10.950  11.105  65.449  1.00  0.00    -0.081 C  
BRANCH  31  32
HETATM   32  C   UNL     1     -12.000  11.910  64.690  1.00  0.00    -0.251 C  
BRANCH  32  33
HETATM   33  C   UNL     1     -12.356  13.186  65.476  1.00  0.00    -0.474 C  
HETATM   34  C   UNL     1     -12.267  12.996  66.989  1.00  0.00    -0.217 C  
HETATM   35  C   UNL     1     -12.087  14.408  67.495  1.00  0.00    -0.327 C  
HETATM   36  C   UNL     1     -11.868  15.137  64.097  1.00  0.00    -0.148 C  
HETATM   37  N   UNL     1     -11.418  14.285  65.193  1.00  0.00    -0.337 NA 
HETATM   38  C   UNL     1     -11.217  15.055  66.432  1.00  0.00    -0.310 C  
ENDBRANCH  32  33
ENDBRANCH  31  32
ENDBRANCH  29  31
ENDBRANCH  26  29
ENDBRANCH   9  26
ENDBRANCH   4   5
ENDBRANCH   3   4
ENDBRANCH   2   3
TORSDOF 11
ENDMDL
MODEL      272
REMARK 921   NORMALIZED FREE ENERGY PREDICTED BY IDOCK:   -2.32 KCAL/MOL
REMARK 922        TOTAL FREE ENERGY PREDICTED BY IDOCK:   -6.05 KCAL/MOL
REMARK 923 INTER-LIGAND FREE ENERGY PREDICTED BY IDOCK:   -5.35 KCAL/MOL
REMARK 924 INTRA-LIGAND FREE ENERGY PREDICTED BY IDOCK:   -0.70 KCAL/MOL
REMARK 927      BINDING AFFINITY PREDICTED BY RF-SCORE:    0.00 PKD
ROOT
HETATM    1  C   UNL     1     -10.668   3.336  63.609  1.00  0.00    -0.247 C  
HETATM    2  C   UNL     1     -10.502   4.047  64.940  1.00  0.00    -0.175 C  
ENDROOT
BRANCH   2   3
HETATM    3  C   UNL     1      -9.188   4.805  65.034  1.00  0.00    -0.133 C  
BRANCH   3   4
HETATM    4  O   UNL     1      -8.220   4.117  65.847  1.00  0.00    -0.107 OA 
BRANCH   4   5
HETATM    5  C   UNL     1      -8.499   4.121  67.202  1.00  0.00    -0.100 A  
HETATM    6  C   UNL     1      -8.084   5.209  68.007  1.00  0.00    -0.098 A  
HETATM    7  C   UNL     1      -8.316   5.166  69.404  1.00  0.00    -0.090 A  
HETATM    8  C   UNL     1      -9.157   3.043  67.810  1.00  0.00    -0.223 A  
HETATM    9  C   UNL     1      -8.931   4.047  69.981  1.00  0.00    -0.097 A  
HETATM   10  C   UNL     1      -9.332   2.988  69.182  1.00  0.00    -0.220 A  
BRANCH   6  11
HETATM   11  C   UNL     1      -7.370   6.422  67.438  1.00  0.00    -0.087 C  
HETATM   12  C   UNL     1      -6.331   7.420  65.585  1.00  0.00    -0.041 C  
HETATM   13  N   UNL     1      -6.970   6.351  66.193  1.00  0.00    -0.064 N  
HETATM   14  H   UNL     1      -7.132   5.495  65.663  1.00  0.00     0.000 HD 
HETATM   15  N   UNL     1      -7.179   7.512  68.274  1.00  0.00    -0.091 NA 
HETATM   16  N   UNL     1      -5.695  10.609  67.268  1.00  0.00    -0.044 NA 
HETATM   17  C   UNL     1      -6.269   9.865  68.228  1.00  0.00    -0.050 A  
HETATM   18  C   UNL     1      -6.185   8.559  66.435  1.00  0.00    -0.057 A  
HETATM   19  O   UNL     1      -5.924   7.390  64.428  1.00  0.00    -0.037 OA 
HETATM   20  C   UNL     1      -5.126  10.290  64.941  1.00  0.00    -0.097 C  
HETATM   21  C   UNL     1      -6.592   8.589  67.735  1.00  0.00    -0.062 A  
HETATM   22  N   UNL     1      -5.663   9.791  66.184  1.00  0.00    -0.055 NA 
BRANCH  17  23
HETATM   23  C   UNL     1      -6.475  10.441  69.589  1.00  0.00    -0.076 C  
BRANCH  23  24
HETATM   24  C   UNL     1      -5.586  11.648  69.898  1.00  0.00    -0.102 C  
HETATM   25  C   UNL     1      -6.344  12.968  69.951  1.00  0.00    -0.034 C  
ENDBRANCH  23  24
ENDBRANCH  17  23
ENDBRANCH   6  11
BRANCH   9  26
HETATM   26  S   UNL     1      -9.146   3.898  71.741  1.00  0.00    -0.125 S  
HETATM   27  O   UNL     1      -7.829   3.838  72.330  1.00  0.00    -0.065 OA 
HETATM   28  O   UNL     1     -10.149   2.881  71.958  1.00  0.00    -0.168 OA 
BRANCH  26  29
HETATM   29  N   UNL     1      -9.801   5.414  72.187  1.00  0.00    -0.166 N  
HETATM   30  H   UNL     1      -9.521   5.886  73.046  1.00  0.00     0.000 HD 
BRANCH  29  31
HETATM   31  C   UNL     1     -10.793   6.004  71.265  1.00  0.00    -0.272 C  
BRANCH  31  32
HETATM   32  C   UNL     1     -11.855   6.812  72.004  1.00  0.00    -0.351 C  
BRANCH  32  33
HETATM   33  C   UNL     1     -11.580   8.319  71.840  1.00  0.00    -0.315 C  
HETATM   34  C   UNL     1     -10.403   8.611  70.912  1.00  0.00    -0.262 C  
HETATM   35  C   UNL     1     -10.671  10.028  70.463  1.00  0.00    -0.352 C  
HETATM   36  C   UNL     1     -13.654   9.553  72.196  1.00  0.00    -0.424 C  
HETATM   37  N   UNL     1     -12.716   9.019  71.214  1.00  0.00    -0.297 NA 
HETATM   38  C   UNL     1     -12.184  10.078  70.340  1.00  0.00    -0.170 C  
ENDBRANCH  32  33
ENDBRANCH  31  32
ENDBRANCH  29  31
ENDBRANCH  26  29
ENDBRANCH   9  26
ENDBRANCH   4   5
ENDBRANCH   3   4
ENDBRANCH   2   3
TORSDOF 11
ENDMDL
MODEL      273
REMARK 921   NORMALIZED FREE ENERGY PREDICTED BY IDOCK:   -2.23 KCAL/MOL
REMARK 922        TOTAL FREE ENERGY PREDICTED BY IDOCK:   -5.89 KCAL/MOL
REMARK 923 INTER-LIGAND FREE ENERGY PREDICTED BY IDOCK:   -5.22 KCAL/MOL
REMARK 924 INTRA-LIGAND FREE ENERGY PREDICTED BY IDOCK:   -0.68 KCAL/MOL
REMARK 927      BINDING AFFINITY PREDICTED BY RF-SCORE:    0.00 PKD
ROOT
HETATM    1  C   UNL     1      -6.073  16.158  70.669  1.00  0.00     0.315 C  
HETATM    2  C   UNL     1      -5.150  15.115  70.068  1.00  0.00    -0.098 C  
ENDROOT
BRANCH   2   3
HETATM    3  C   UNL     1      -5.833  14.283  68.995  1.00  0.00    -0.089 C  
BRANCH   3   4
HETATM    4  O   UNL     1      -7.214  14.021  69.305  1.00  0.00    -0.098 OA 
BRANCH   4   5
HETATM    5  C   UNL     1      -7.806  13.049  68.519  1.00  0.00    -0.105 A  
HETATM    6  C   UNL     1      -8.664  13.423  67.457  1.00  0.00    -0.205 A  
HETATM    7  C   UNL     1      -9.318  12.416  66.705  1.00  0.00    -0.220 A  
HETATM    8  C   UNL     1      -7.604  11.686  68.776  1.00  0.00    -0.119 A  
HETATM    9  C   UNL     1      -9.129  11.065  67.027  1.00  0.00    -0.147 A  
HETATM   10  C   UNL     1      -8.287  10.712  68.069  1.00  0.00    -0.118 A  
BRANCH   6  11
HETATM   11  C   UNL     1      -8.940  14.873  67.100  1.00  0.00    -0.214 C  
HETATM   12  C   UNL     1     -10.500  16.623  66.986  1.00  0.00    -0.283 C  
HETATM   13  N   UNL     1     -10.164  15.307  67.264  1.00  0.00    -0.245 N  
HETATM   14  H   UNL     1     -10.882  14.667  67.602  1.00  0.00     0.000 HD 
HETATM   15  N   UNL     1      -7.885  15.632  66.614  1.00  0.00    -0.180 NA 
HETATM   16  N   UNL     1      -8.085  19.115  65.820  1.00  0.00    -0.424 NA 
HETATM   17  C   UNL     1      -7.351  17.993  65.902  1.00  0.00    -0.213 A  
HETATM   18  C   UNL     1      -9.398  17.413  66.537  1.00  0.00    -0.270 A  
HETATM   19  O   UNL     1     -11.637  17.066  67.109  1.00  0.00     0.555 OA 
HETATM   20  C   UNL     1     -10.378  19.721  66.281  1.00  0.00    -0.519 C  
HETATM   21  C   UNL     1      -8.140  16.921  66.354  1.00  0.00    -0.315 A  
HETATM   22  N   UNL     1      -9.325  18.735  66.220  1.00  0.00    -0.430 NA 
BRANCH  17  23
HETATM   23  C   UNL     1      -5.906  18.023  65.532  1.00  0.00    -0.188 C  
BRANCH  23  24
HETATM   24  C   UNL     1      -5.448  19.342  64.906  1.00  0.00    -0.231 C  
HETATM   25  C   UNL     1      -5.414  19.316  63.383  1.00  0.00    -0.349 C  
ENDBRANCH  23  24
ENDBRANCH  17  23
ENDBRANCH   6  11
BRANCH   9  26
HETATM   26  S   UNL     1     -10.010   9.769  66.184  1.00  0.00    -0.255 S  
HETATM   27  O   UNL     1      -9.891  10.021  64.767  1.00  0.00    -0.322 OA 
HETATM   28  O   UNL     1     -11.284   9.623  66.850  1.00  0.00     0.118 OA 
BRANCH  26  29
HETATM   29  N   UNL     1      -9.066   8.379  66.504  1.00  0.00    -0.164 N  
HETATM   30  H   UNL     1      -8.240   8.418  67.102  1.00  0.00     0.000 HD 
BRANCH  29  31
HETATM   31  C   UNL     1      -9.506   7.119  65.871  1.00  0.00     0.197 C  
BRANCH  31  32
HETATM   32  C   UNL     1      -9.349   5.922  66.803  1.00  0.00    -0.144 C  
BRANCH  32  33
HETATM   33  C   UNL     1      -8.010   5.212  66.530  1.00  0.00    -0.104 C  
HETATM   34  C   UNL     1      -7.830   3.943  67.361  1.00  0.00    -0.087 C  
HETATM   35  C   UNL     1      -6.814   3.160  66.564  1.00  0.00    -0.053 C  
HETATM   36  C   UNL     1      -7.276   5.732  64.263  1.00  0.00    -0.055 C  
HETATM   37  N   UNL     1      -7.909   4.748  65.136  1.00  0.00    -0.089 NA 
HETATM   38  C   UNL     1      -7.184   3.466  65.124  1.00  0.00    -0.067 C  
ENDBRANCH  32  33
ENDBRANCH  31  32
ENDBRANCH  29  31
ENDBRANCH  26  29
ENDBRANCH   9  26
ENDBRANCH   4   5
ENDBRANCH   3   4
ENDBRANCH   2   3
TORSDOF 11
ENDMDL
MODEL      274
REMARK 921   NORMALIZED FREE ENERGY PREDICTED BY IDOCK:   -2.02 KCAL/MOL
REMARK 922        TOTAL FREE ENERGY PREDICTED BY IDOCK:   -5.55 KCAL/MOL
REMARK 923 INTER-LIGAND FREE ENERGY PREDICTED BY IDOCK:   -5.74 KCAL/MOL
REMARK 924 INTRA-LIGAND FREE ENERGY PREDICTED BY IDOCK:    0.19 KCAL/MOL
REMARK 927      BINDING AFFINITY PREDICTED BY RF-SCORE:    0.00 PKD
ROOT
HETATM    1  C   UNL     1     -11.030  16.381  64.580  1.00  0.00    -0.160 C  
HETATM    2  C   UNL     1     -12.165  15.390  64.404  1.00  0.00    -0.161 C  
ENDROOT
BRANCH   2   3
HETATM    3  C   UNL     1     -12.059  14.210  65.355  1.00  0.00    -0.410 C  
BRANCH   3   4
HETATM    4  O   UNL     1     -11.616  14.605  66.667  1.00  0.00    -0.362 OA 
BRANCH   4   5
HETATM    5  C   UNL     1     -10.672  13.766  67.232  1.00  0.00    -0.283 A  
HETATM    6  C   UNL     1      -9.494  14.307  67.801  1.00  0.00    -0.216 A  
HETATM    7  C   UNL     1      -8.505  13.431  68.313  1.00  0.00    -0.166 A  
HETATM    8  C   UNL     1     -10.838  12.374  67.219  1.00  0.00    -0.279 A  
HETATM    9  C   UNL     1      -8.686  12.044  68.235  1.00  0.00    -0.178 A  
HETATM   10  C   UNL     1      -9.844  11.527  67.674  1.00  0.00    -0.192 A  
BRANCH   6  11
HETATM   11  C   UNL     1      -9.228  15.801  67.865  1.00  0.00    -0.191 C  
HETATM   12  C   UNL     1     -10.079  17.976  67.633  1.00  0.00    -0.347 C  
HETATM   13  N   UNL     1     -10.225  16.598  67.577  1.00  0.00    -0.282 N  
HETATM   14  H   UNL     1     -11.124  16.200  67.308  1.00  0.00     0.000 HD 
HETATM   15  N   UNL     1      -7.950  16.217  68.209  1.00  0.00    -0.147 NA 
HETATM   16  N   UNL     1      -6.969  19.632  68.628  1.00  0.00    -0.314 NA 
HETATM   17  C   UNL     1      -6.646  18.328  68.661  1.00  0.00    -0.230 A  
HETATM   18  C   UNL     1      -8.776  18.397  68.039  1.00  0.00    -0.287 A  
HETATM   19  O   UNL     1     -10.981  18.759  67.354  1.00  0.00    -0.422 OA 
HETATM   20  C   UNL     1      -8.963  20.908  68.146  1.00  0.00     0.529 C  
HETATM   21  C   UNL     1      -7.753  17.538  68.308  1.00  0.00    -0.247 A  
HETATM   22  N   UNL     1      -8.274  19.644  68.254  1.00  0.00    -0.330 NA 
BRANCH  17  23
HETATM   23  C   UNL     1      -5.262  17.917  69.038  1.00  0.00    -0.174 C  
BRANCH  23  24
HETATM   24  C   UNL     1      -5.189  17.035  70.287  1.00  0.00    -0.213 C  
HETATM   25  C   UNL     1      -6.461  16.237  70.546  1.00  0.00     0.665 C  
ENDBRANCH  23  24
ENDBRANCH  17  23
ENDBRANCH   6  11
BRANCH   9  26
HETATM   26  S   UNL     1      -7.428  10.902  68.764  1.00  0.00    -0.121 S  
HETATM   27  O   UNL     1      -6.744  11.507  69.883  1.00  0.00    -0.108 OA 
HETATM   28  O   UNL     1      -6.740  10.453  67.575  1.00  0.00    -0.069 OA 
BRANCH  26  29
HETATM   29  N   UNL     1      -8.326   9.594  69.402  1.00  0.00    -0.132 N  
HETATM   30  H   UNL     1      -9.333   9.514  69.256  1.00  0.00     0.000 HD 
BRANCH  29  31
HETATM   31  C   UNL     1      -7.571   8.586  70.173  1.00  0.00    -0.068 C  
BRANCH  31  32
HETATM   32  C   UNL     1      -7.428   7.270  69.415  1.00  0.00    -0.092 C  
BRANCH  32  33
HETATM   33  C   UNL     1      -8.318   6.190  70.059  1.00  0.00    -0.125 C  
HETATM   34  C   UNL     1      -9.113   5.386  69.033  1.00  0.00    -0.136 C  
HETATM   35  C   UNL     1      -9.423   4.107  69.774  1.00  0.00    -0.265 C  
HETATM   36  C   UNL     1      -7.333   5.505  72.183  1.00  0.00    -0.090 C  
HETATM   37  N   UNL     1      -7.521   5.177  70.773  1.00  0.00    -0.072 NA 
HETATM   38  C   UNL     1      -8.173   3.868  70.603  1.00  0.00    -0.065 C  
ENDBRANCH  32  33
ENDBRANCH  31  32
ENDBRANCH  29  31
ENDBRANCH  26  29
ENDBRANCH   9  26
ENDBRANCH   4   5
ENDBRANCH   3   4
ENDBRANCH   2   3
TORSDOF 11
ENDMDL
MODEL      275
REMARK 921   NORMALIZED FREE ENERGY PREDICTED BY IDOCK:   -1.50 KCAL/MOL
REMARK 922        TOTAL FREE ENERGY PREDICTED BY IDOCK:   -4.69 KCAL/MOL
REMARK 923 INTER-LIGAND FREE ENERGY PREDICTED BY IDOCK:   -6.15 KCAL/MOL
REMARK 924 INTRA-LIGAND FREE ENERGY PREDICTED BY IDOCK:    1.46 KCAL/MOL
REMARK 927      BINDING AFFINITY PREDICTED BY RF-SCORE:    0.00 PKD
ROOT
HETATM    1  C   UNL     1      -5.125  20.125  70.220  1.00  0.00    -0.255 C  
HETATM    2  C   UNL     1      -5.851  19.003  70.939  1.00  0.00    -0.030 C  
ENDROOT
BRANCH   2   3
HETATM    3  C   UNL     1      -5.928  17.734  70.107  1.00  0.00    -0.118 C  
BRANCH   3   4
HETATM    4  O   UNL     1      -5.141  16.666  70.667  1.00  0.00    -0.199 OA 
BRANCH   4   5
HETATM    5  C   UNL     1      -5.490  15.403  70.226  1.00  0.00    -0.131 A  
HETATM    6  C   UNL     1      -6.220  15.249  69.022  1.00  0.00    -0.103 A  
HETATM    7  C   UNL     1      -6.630  13.954  68.620  1.00  0.00    -0.095 A  
HETATM    8  C   UNL     1      -5.170  14.260  70.972  1.00  0.00    -0.137 A  
HETATM    9  C   UNL     1      -6.333  12.842  69.420  1.00  0.00    -0.110 A  
HETATM   10  C   UNL     1      -5.620  13.006  70.597  1.00  0.00    -0.178 A  
BRANCH   6  11
HETATM   11  C   UNL     1      -6.608  16.426  68.145  1.00  0.00    -0.128 C  
HETATM   12  C   UNL     1      -6.040  17.837  66.358  1.00  0.00    -0.205 C  
HETATM   13  N   UNL     1      -5.757  16.788  67.219  1.00  0.00    -0.149 N  
HETATM   14  H   UNL     1      -4.872  16.290  67.129  1.00  0.00     0.000 HD 
HETATM   15  N   UNL     1      -7.825  17.043  68.393  1.00  0.00    -0.223 NA 
HETATM   16  N   UNL     1      -9.172  19.731  66.452  1.00  0.00    -0.374 NA 
HETATM   17  C   UNL     1      -9.304  18.870  67.475  1.00  0.00    -0.294 A  
HETATM   18  C   UNL     1      -7.318  18.434  66.583  1.00  0.00    -0.225 A  
HETATM   19  O   UNL     1      -5.264  18.221  65.488  1.00  0.00    -0.153 OA 
HETATM   20  C   UNL     1      -7.500  20.167  64.763  1.00  0.00     0.660 C  
HETATM   21  C   UNL     1      -8.169  18.046  67.574  1.00  0.00    -0.235 A  
HETATM   22  N   UNL     1      -7.957  19.437  65.921  1.00  0.00    -0.441 NA 
BRANCH  17  23
HETATM   23  C   UNL     1     -10.539  18.897  68.311  1.00  0.00    -0.224 C  
BRANCH  23  24
HETATM   24  C   UNL     1     -11.235  17.540  68.443  1.00  0.00     0.311 C  
HETATM   25  C   UNL     1     -10.796  16.744  69.665  1.00  0.00    -0.205 C  
ENDBRANCH  23  24
ENDBRANCH  17  23
ENDBRANCH   6  11
BRANCH   9  26
HETATM   26  S   UNL     1      -6.919  11.212  69.015  1.00  0.00    -0.110 S  
HETATM   27  O   UNL     1      -6.830  10.414  70.215  1.00  0.00    -0.152 OA 
HETATM   28  O   UNL     1      -6.286  10.833  67.772  1.00  0.00    -0.057 OA 
BRANCH  26  29
HETATM   29  N   UNL     1      -8.588  11.454  68.724  1.00  0.00    -0.311 N  
HETATM   30  H   UNL     1      -9.111  12.193  69.194  1.00  0.00     0.000 HD 
BRANCH  29  31
HETATM   31  C   UNL     1      -9.232  10.540  67.759  1.00  0.00    -0.145 C  
BRANCH  31  32
HETATM   32  C   UNL     1     -10.398  11.201  67.032  1.00  0.00    -0.263 C  
BRANCH  32  33
HETATM   33  C   UNL     1     -11.466  11.652  68.046  1.00  0.00    -0.315 C  
HETATM   34  C   UNL     1     -11.375  10.907  69.376  1.00  0.00    -0.347 C  
HETATM   35  C   UNL     1     -12.064  11.847  70.337  1.00  0.00    -0.421 C  
HETATM   36  C   UNL     1     -12.097  13.959  67.569  1.00  0.00    -0.331 C  
HETATM   37  N   UNL     1     -11.308  13.070  68.415  1.00  0.00    -0.270 NA 
HETATM   38  C   UNL     1     -11.658  13.222  69.837  1.00  0.00    -0.190 C  
ENDBRANCH  32  33
ENDBRANCH  31  32
ENDBRANCH  29  31
ENDBRANCH  26  29
ENDBRANCH   9  26
ENDBRANCH   4   5
ENDBRANCH   3   4
ENDBRANCH   2   3
TORSDOF 11
ENDMDL
MODEL      276
REMARK 921   NORMALIZED FREE ENERGY PREDICTED BY IDOCK:   -1.26 KCAL/MOL
REMARK 922        TOTAL FREE ENERGY PREDICTED BY IDOCK:   -4.31 KCAL/MOL
REMARK 923 INTER-LIGAND FREE ENERGY PREDICTED BY IDOCK:   -3.64 KCAL/MOL
REMARK 924 INTRA-LIGAND FREE ENERGY PREDICTED BY IDOCK:   -0.67 KCAL/MOL
REMARK 927      BINDING AFFINITY PREDICTED BY RF-SCORE:    0.00 PKD
ROOT
HETATM    1  C   UNL     1     -11.850   7.080  68.509  1.00  0.00     1.160 C  
HETATM    2  C   UNL     1     -10.469   7.517  68.960  1.00  0.00    -0.216 C  
ENDROOT
BRANCH   2   3
HETATM    3  C   UNL     1      -9.371   6.606  68.436  1.00  0.00    -0.123 C  
BRANCH   3   4
HETATM    4  O   UNL     1      -8.376   7.327  67.686  1.00  0.00    -0.116 OA 
BRANCH   4   5
HETATM    5  C   UNL     1      -8.838   8.482  67.080  1.00  0.00    -0.129 A  
HETATM    6  C   UNL     1      -8.611   9.741  67.688  1.00  0.00    -0.125 A  
HETATM    7  C   UNL     1      -9.150  10.907  67.092  1.00  0.00    -0.152 A  
HETATM    8  C   UNL     1      -9.569   8.432  65.885  1.00  0.00    -0.119 A  
HETATM    9  C   UNL     1      -9.919  10.809  65.924  1.00  0.00    -0.250 A  
HETATM   10  C   UNL     1     -10.135   9.571  65.339  1.00  0.00     0.025 A  
BRANCH   6  11
HETATM   11  C   UNL     1      -7.827   9.895  68.979  1.00  0.00    -0.095 C  
HETATM   12  C   UNL     1      -7.097   8.914  70.983  1.00  0.00    -0.090 C  
HETATM   13  N   UNL     1      -7.807   8.869  69.793  1.00  0.00    -0.086 N  
HETATM   14  H   UNL     1      -8.321   8.024  69.547  1.00  0.00     0.000 HD 
HETATM   15  N   UNL     1      -7.201  11.110  69.215  1.00  0.00    -0.121 NA 
HETATM   16  N   UNL     1      -5.132  11.813  72.049  1.00  0.00    -0.349 NA 
HETATM   17  C   UNL     1      -5.682  12.224  70.894  1.00  0.00    -0.028 A  
HETATM   18  C   UNL     1      -6.411  10.149  71.194  1.00  0.00     0.155 A  
HETATM   19  O   UNL     1      -7.066   7.983  71.781  1.00  0.00    -0.064 OA 
HETATM   20  C   UNL     1      -5.159   9.777  73.350  1.00  0.00    -0.045 C  
HETATM   21  C   UNL     1      -6.475  11.205  70.337  1.00  0.00     0.064 A  
HETATM   22  N   UNL     1      -5.586  10.543  72.203  1.00  0.00    -0.252 NA 
BRANCH  17  23
HETATM   23  C   UNL     1      -5.404  13.599  70.389  1.00  0.00    -0.119 C  
BRANCH  23  24
HETATM   24  C   UNL     1      -6.608  14.283  69.738  1.00  0.00    -0.125 C  
HETATM   25  C   UNL     1      -6.260  15.580  69.018  1.00  0.00    -0.111 C  
ENDBRANCH  23  24
ENDBRANCH  17  23
ENDBRANCH   6  11
BRANCH   9  26
HETATM   26  S   UNL     1     -10.708  12.229  65.198  1.00  0.00    -0.305 S  
HETATM   27  O   UNL     1     -11.953  11.779  64.622  1.00  0.00    -0.216 OA 
HETATM   28  O   UNL     1      -9.699  12.927  64.435  1.00  0.00    -0.054 OA 
BRANCH  26  29
HETATM   29  N   UNL     1     -11.124  13.184  66.554  1.00  0.00    -0.289 N  
HETATM   30  H   UNL     1     -10.575  13.161  67.414  1.00  0.00     0.000 HD 
BRANCH  29  31
HETATM   31  C   UNL     1     -12.317  14.044  66.418  1.00  0.00    -0.431 C  
BRANCH  31  32
HETATM   32  C   UNL     1     -12.053  15.471  66.884  1.00  0.00     0.706 C  
BRANCH  32  33
HETATM   33  C   UNL     1     -10.560  15.651  67.217  1.00  0.00    -0.305 C  
HETATM   34  C   UNL     1      -9.775  16.315  66.087  1.00  0.00    -0.357 C  
HETATM   35  C   UNL     1      -8.574  16.886  66.803  1.00  0.00    -0.256 C  
HETATM   36  C   UNL     1     -10.294  15.819  69.636  1.00  0.00    -0.290 C  
HETATM   37  N   UNL     1     -10.359  16.545  68.371  1.00  0.00    -0.277 NA 
HETATM   38  C   UNL     1      -9.140  17.337  68.138  1.00  0.00    -0.257 C  
ENDBRANCH  32  33
ENDBRANCH  31  32
ENDBRANCH  29  31
ENDBRANCH  26  29
ENDBRANCH   9  26
ENDBRANCH   4   5
ENDBRANCH   3   4
ENDBRANCH   2   3
TORSDOF 11
ENDMDL
MODEL      277
REMARK 921   NORMALIZED FREE ENERGY PREDICTED BY IDOCK:   -1.24 KCAL/MOL
REMARK 922        TOTAL FREE ENERGY PREDICTED BY IDOCK:   -4.26 KCAL/MOL
REMARK 923 INTER-LIGAND FREE ENERGY PREDICTED BY IDOCK:   -6.32 KCAL/MOL
REMARK 924 INTRA-LIGAND FREE ENERGY PREDICTED BY IDOCK:    2.05 KCAL/MOL
REMARK 927      BINDING AFFINITY PREDICTED BY RF-SCORE:    0.00 PKD
ROOT
HETATM    1  C   UNL     1      -5.146  20.051  69.945  1.00  0.00    -0.222 C  
HETATM    2  C   UNL     1      -5.978  18.974  70.617  1.00  0.00    -0.033 C  
ENDROOT
BRANCH   2   3
HETATM    3  C   UNL     1      -6.183  17.759  69.728  1.00  0.00    -0.174 C  
BRANCH   3   4
HETATM    4  O   UNL     1      -5.503  16.594  70.232  1.00  0.00    -0.190 OA 
BRANCH   4   5
HETATM    5  C   UNL     1      -5.952  15.395  69.709  1.00  0.00    -0.141 A  
HETATM    6  C   UNL     1      -6.585  15.367  68.443  1.00  0.00    -0.113 A  
HETATM    7  C   UNL     1      -7.102  14.143  67.952  1.00  0.00    -0.168 A  
HETATM    8  C   UNL     1      -5.829  14.198  70.429  1.00  0.00    -0.158 A  
HETATM    9  C   UNL     1      -7.005  12.978  68.725  1.00  0.00    -0.103 A  
HETATM   10  C   UNL     1      -6.383  13.019  69.963  1.00  0.00     0.007 A  
BRANCH   6  11
HETATM   11  C   UNL     1      -6.760  16.610  67.589  1.00  0.00    -0.139 C  
HETATM   12  C   UNL     1      -5.957  17.927  65.819  1.00  0.00    -0.188 C  
HETATM   13  N   UNL     1      -5.863  16.829  66.660  1.00  0.00    -0.108 N  
HETATM   14  H   UNL     1      -5.083  16.181  66.555  1.00  0.00     0.000 HD 
HETATM   15  N   UNL     1      -7.844  17.433  67.857  1.00  0.00    -0.197 NA 
HETATM   16  N   UNL     1      -8.694  20.353  65.971  1.00  0.00    -0.028 NA 
HETATM   17  C   UNL     1      -8.973  19.513  66.982  1.00  0.00    -0.308 A  
HETATM   18  C   UNL     1      -7.105  18.741  66.066  1.00  0.00    -0.268 A  
HETATM   19  O   UNL     1      -5.130  18.179  64.949  1.00  0.00    -0.127 OA 
HETATM   20  C   UNL     1      -6.981  20.510  64.275  1.00  0.00     0.277 C  
HETATM   21  C   UNL     1      -8.006  18.496  67.058  1.00  0.00    -0.236 A  
HETATM   22  N   UNL     1      -7.555  19.854  65.425  1.00  0.00    -0.349 NA 
BRANCH  17  23
HETATM   23  C   UNL     1     -10.178  19.747  67.830  1.00  0.00    -0.571 C  
BRANCH  23  24
HETATM   24  C   UNL     1     -10.157  19.005  69.168  1.00  0.00    -0.236 C  
HETATM   25  C   UNL     1     -10.722  17.592  69.091  1.00  0.00     0.051 C  
ENDBRANCH  23  24
ENDBRANCH  17  23
ENDBRANCH   6  11
BRANCH   9  26
HETATM   26  S   UNL     1      -7.733  11.441  68.202  1.00  0.00    -0.126 S  
HETATM   27  O   UNL     1      -8.203  10.764  69.388  1.00  0.00    -0.124 OA 
HETATM   28  O   UNL     1      -6.814  10.837  67.266  1.00  0.00    -0.075 OA 
BRANCH  26  29
HETATM   29  N   UNL     1      -9.131  11.938  67.350  1.00  0.00    -0.173 N  
HETATM   30  H   UNL     1      -9.078  12.288  66.393  1.00  0.00     0.000 HD 
BRANCH  29  31
HETATM   31  C   UNL     1     -10.417  11.835  68.068  1.00  0.00    -0.199 C  
BRANCH  31  32
HETATM   32  C   UNL     1     -11.573  11.499  67.132  1.00  0.00    -0.249 C  
BRANCH  32  33
HETATM   33  C   UNL     1     -11.519  12.399  65.883  1.00  0.00    -0.374 C  
HETATM   34  C   UNL     1     -11.371  13.880  66.223  1.00  0.00    -0.329 C  
HETATM   35  C   UNL     1     -10.786  14.459  64.957  1.00  0.00    -0.440 C  
HETATM   36  C   UNL     1     -10.633  11.112  64.009  1.00  0.00    -0.368 C  
HETATM   37  N   UNL     1     -10.346  12.101  65.043  1.00  0.00    -0.279 NA 
HETATM   38  C   UNL     1      -9.857  13.364  64.464  1.00  0.00     0.143 C  
ENDBRANCH  32  33
ENDBRANCH  31  32
ENDBRANCH  29  31
ENDBRANCH  26  29
ENDBRANCH   9  26
ENDBRANCH   4   5
ENDBRANCH   3   4
ENDBRANCH   2   3
TORSDOF 11
ENDMDL
MODEL      278
REMARK 921   NORMALIZED FREE ENERGY PREDICTED BY IDOCK:   -1.12 KCAL/MOL
REMARK 922        TOTAL FREE ENERGY PREDICTED BY IDOCK:   -4.08 KCAL/MOL
REMARK 923 INTER-LIGAND FREE ENERGY PREDICTED BY IDOCK:   -5.15 KCAL/MOL
REMARK 924 INTRA-LIGAND FREE ENERGY PREDICTED BY IDOCK:    1.07 KCAL/MOL
REMARK 927      BINDING AFFINITY PREDICTED BY RF-SCORE:    0.00 PKD
ROOT
HETATM    1  C   UNL     1     -12.021   6.546  69.142  1.00  0.00     0.691 C  
HETATM    2  C   UNL     1     -10.631   6.847  69.674  1.00  0.00    -0.258 C  
ENDROOT
BRANCH   2   3
HETATM    3  C   UNL     1      -9.590   5.864  69.166  1.00  0.00    -0.136 C  
BRANCH   3   4
HETATM    4  O   UNL     1      -8.557   6.511  68.400  1.00  0.00    -0.119 OA 
BRANCH   4   5
HETATM    5  C   UNL     1      -8.874   7.787  67.971  1.00  0.00    -0.124 A  
HETATM    6  C   UNL     1      -8.549   8.906  68.775  1.00  0.00    -0.136 A  
HETATM    7  C   UNL     1      -8.942  10.200  68.355  1.00  0.00    -0.123 A  
HETATM    8  C   UNL     1      -9.552   7.999  66.762  1.00  0.00    -0.281 A  
HETATM    9  C   UNL     1      -9.663  10.365  67.165  1.00  0.00    -0.172 A  
HETATM   10  C   UNL     1      -9.976   9.261  66.387  1.00  0.00    -0.356 A  
BRANCH   6  11
HETATM   11  C   UNL     1      -7.812   8.777  70.097  1.00  0.00    -0.094 C  
HETATM   12  C   UNL     1      -6.288   9.716  71.615  1.00  0.00     0.198 C  
HETATM   13  N   UNL     1      -6.985   9.740  70.417  1.00  0.00    -0.126 N  
HETATM   14  H   UNL     1      -6.851  10.521  69.774  1.00  0.00     0.000 HD 
HETATM   15  N   UNL     1      -8.053   7.647  70.864  1.00  0.00    -0.101 NA 
HETATM   16  N   UNL     1      -6.648   7.053  74.101  1.00  0.00    -0.081 NA 
HETATM   17  C   UNL     1      -7.446   6.646  73.099  1.00  0.00    -0.088 A  
HETATM   18  C   UNL     1      -6.581   8.577  72.425  1.00  0.00    -0.082 A  
HETATM   19  O   UNL     1      -5.491  10.587  71.946  1.00  0.00    -0.307 OA 
HETATM   20  C   UNL     1      -5.247   8.975  74.526  1.00  0.00    -0.111 C  
HETATM   21  C   UNL     1      -7.431   7.580  72.048  1.00  0.00    -0.080 A  
HETATM   22  N   UNL     1      -6.140   8.235  73.667  1.00  0.00    -0.099 NA 
BRANCH  17  23
HETATM   23  C   UNL     1      -8.189   5.359  73.220  1.00  0.00    -0.115 C  
BRANCH  23  24
HETATM   24  C   UNL     1      -9.697   5.482  72.990  1.00  0.00    -0.164 C  
HETATM   25  C   UNL     1     -10.484   5.806  74.254  1.00  0.00    -0.237 C  
ENDBRANCH  23  24
ENDBRANCH  17  23
ENDBRANCH   6  11
BRANCH   9  26
HETATM   26  S   UNL     1     -10.273  11.955  66.649  1.00  0.00    -0.213 S  
HETATM   27  O   UNL     1     -11.595  11.751  66.105  1.00  0.00    -0.418 OA 
HETATM   28  O   UNL     1      -9.210  12.594  65.908  1.00  0.00    -0.085 OA 
BRANCH  26  29
HETATM   29  N   UNL     1     -10.487  12.792  68.126  1.00  0.00    -0.229 N  
HETATM   30  H   UNL     1      -9.792  12.749  68.871  1.00  0.00     0.000 HD 
BRANCH  29  31
HETATM   31  C   UNL     1     -11.729  13.579  68.266  1.00  0.00    -0.359 C  
BRANCH  31  32
HETATM   32  C   UNL     1     -11.513  15.054  67.944  1.00  0.00    -0.354 C  
BRANCH  32  33
HETATM   33  C   UNL     1     -11.023  15.212  66.492  1.00  0.00    -0.318 C  
HETATM   34  C   UNL     1     -12.039  14.718  65.465  1.00  0.00    -0.137 C  
HETATM   35  C   UNL     1     -11.637  15.457  64.211  1.00  0.00    -0.196 C  
HETATM   36  C   UNL     1      -9.436  17.060  66.380  1.00  0.00    -0.271 C  
HETATM   37  N   UNL     1     -10.807  16.625  66.136  1.00  0.00    -0.109 NA 
HETATM   38  C   UNL     1     -11.194  16.813  64.728  1.00  0.00     0.040 C  
ENDBRANCH  32  33
ENDBRANCH  31  32
ENDBRANCH  29  31
ENDBRANCH  26  29
ENDBRANCH   9  26
ENDBRANCH   4   5
ENDBRANCH   3   4
ENDBRANCH   2   3
TORSDOF 11
ENDMDL
MODEL      279
REMARK 921   NORMALIZED FREE ENERGY PREDICTED BY IDOCK:   -1.00 KCAL/MOL
REMARK 922        TOTAL FREE ENERGY PREDICTED BY IDOCK:   -3.88 KCAL/MOL
REMARK 923 INTER-LIGAND FREE ENERGY PREDICTED BY IDOCK:   -3.87 KCAL/MOL
REMARK 924 INTRA-LIGAND FREE ENERGY PREDICTED BY IDOCK:   -0.02 KCAL/MOL
REMARK 927      BINDING AFFINITY PREDICTED BY RF-SCORE:    0.00 PKD
ROOT
HETATM    1  C   UNL     1      -8.666  14.334  69.783  1.00  0.00     0.892 C  
HETATM    2  C   UNL     1      -7.518  13.365  69.574  1.00  0.00     0.495 C  
ENDROOT
BRANCH   2   3
HETATM    3  C   UNL     1      -7.899  12.197  68.679  1.00  0.00    -0.078 C  
BRANCH   3   4
HETATM    4  O   UNL     1      -9.263  11.781  68.877  1.00  0.00    -0.059 OA 
BRANCH   4   5
HETATM    5  C   UNL     1      -9.406  10.502  69.384  1.00  0.00    -0.117 A  
HETATM    6  C   UNL     1      -9.164   9.380  68.555  1.00  0.00    -0.131 A  
HETATM    7  C   UNL     1      -9.383   8.078  69.069  1.00  0.00    -0.147 A  
HETATM    8  C   UNL     1      -9.829  10.288  70.704  1.00  0.00     0.579 A  
HETATM    9  C   UNL     1      -9.855   7.908  70.377  1.00  0.00    -0.183 A  
HETATM   10  C   UNL     1     -10.089   9.014  71.178  1.00  0.00    -0.365 A  
BRANCH   6  11
HETATM   11  C   UNL     1      -8.699   9.512  67.116  1.00  0.00    -0.132 C  
HETATM   12  C   UNL     1      -7.090   8.967  65.496  1.00  0.00    -0.080 C  
HETATM   13  N   UNL     1      -7.578   8.918  66.793  1.00  0.00    -0.086 N  
HETATM   14  H   UNL     1      -7.055   8.412  67.507  1.00  0.00     0.000 HD 
HETATM   15  N   UNL     1      -9.482  10.260  66.249  1.00  0.00    -0.170 NA 
HETATM   16  N   UNL     1      -8.820  10.671  62.757  1.00  0.00    -0.230 NA 
HETATM   17  C   UNL     1      -9.604  10.924  63.818  1.00  0.00    -0.292 A  
HETATM   18  C   UNL     1      -7.929   9.693  64.596  1.00  0.00    -0.135 A  
HETATM   19  O   UNL     1      -6.036   8.440  65.154  1.00  0.00    -0.048 OA 
HETATM   20  C   UNL     1      -6.784   9.430  62.366  1.00  0.00    -0.094 C  
HETATM   21  C   UNL     1      -9.078  10.320  64.973  1.00  0.00    -0.207 A  
HETATM   22  N   UNL     1      -7.811   9.913  63.258  1.00  0.00    -0.140 NA 
BRANCH  17  23
HETATM   23  C   UNL     1     -10.836  11.748  63.650  1.00  0.00    -0.508 C  
BRANCH  23  24
HETATM   24  C   UNL     1     -10.995  12.858  64.692  1.00  0.00    -0.357 C  
HETATM   25  C   UNL     1     -12.088  13.863  64.352  1.00  0.00    -0.477 C  
ENDBRANCH  23  24
ENDBRANCH  17  23
ENDBRANCH   6  11
BRANCH   9  26
HETATM   26  S   UNL     1     -10.248   6.300  71.031  1.00  0.00    -0.196 S  
HETATM   27  O   UNL     1     -11.676   6.261  71.239  1.00  0.00    -0.310 OA 
HETATM   28  O   UNL     1      -9.295   6.028  72.082  1.00  0.00    -0.149 OA 
BRANCH  26  29
HETATM   29  N   UNL     1      -9.926   5.252  69.718  1.00  0.00    -0.213 N  
HETATM   30  H   UNL     1     -10.487   5.274  68.866  1.00  0.00     0.000 HD 
BRANCH  29  31
HETATM   31  C   UNL     1      -8.796   4.316  69.880  1.00  0.00    -0.081 C  
BRANCH  31  32
HETATM   32  C   UNL     1      -9.252   2.941  70.357  1.00  0.00    -0.211 C  
BRANCH  32  33
HETATM   33  C   UNL     1      -9.409   2.939  71.890  1.00  0.00    -0.120 C  
HETATM   34  C   UNL     1     -10.285   1.795  72.396  1.00  0.00    -0.225 C  
HETATM   35  C   UNL     1      -9.848   1.646  73.833  1.00  0.00    -0.107 C  
HETATM   36  C   UNL     1      -7.454   3.996  72.896  1.00  0.00    -0.073 C  
HETATM   37  N   UNL     1      -8.120   2.737  72.574  1.00  0.00    -0.055 NA 
HETATM   38  C   UNL     1      -8.356   1.924  73.778  1.00  0.00    -0.054 C  
ENDBRANCH  32  33
ENDBRANCH  31  32
ENDBRANCH  29  31
ENDBRANCH  26  29
ENDBRANCH   9  26
ENDBRANCH   4   5
ENDBRANCH   3   4
ENDBRANCH   2   3
TORSDOF 11
ENDMDL
MODEL      280
REMARK 921   NORMALIZED FREE ENERGY PREDICTED BY IDOCK:   -0.98 KCAL/MOL
REMARK 922        TOTAL FREE ENERGY PREDICTED BY IDOCK:   -3.84 KCAL/MOL
REMARK 923 INTER-LIGAND FREE ENERGY PREDICTED BY IDOCK:   -2.56 KCAL/MOL
REMARK 924 INTRA-LIGAND FREE ENERGY PREDICTED BY IDOCK:   -1.28 KCAL/MOL
REMARK 927      BINDING AFFINITY PREDICTED BY RF-SCORE:    0.00 PKD
ROOT
HETATM    1  C   UNL     1     -11.910  14.209  67.603  1.00  0.00    -0.427 C  
HETATM    2  C   UNL     1     -12.759  13.366  68.537  1.00  0.00     1.013 C  
ENDROOT
BRANCH   2   3
HETATM    3  C   UNL     1     -12.499  13.681  70.001  1.00  0.00    -0.204 C  
BRANCH   3   4
HETATM    4  O   UNL     1     -11.294  13.060  70.486  1.00  0.00     0.271 OA 
BRANCH   4   5
HETATM    5  C   UNL     1     -11.251  11.687  70.327  1.00  0.00     0.304 A  
HETATM    6  C   UNL     1     -10.199  11.092  69.588  1.00  0.00     0.070 A  
HETATM    7  C   UNL     1     -10.206   9.692  69.375  1.00  0.00    -0.220 A  
HETATM    8  C   UNL     1     -12.256  10.863  70.853  1.00  0.00    -0.485 A  
HETATM    9  C   UNL     1     -11.257   8.909  69.874  1.00  0.00    -0.065 A  
HETATM   10  C   UNL     1     -12.281   9.504  70.595  1.00  0.00    -0.191 A  
BRANCH   6  11
HETATM   11  C   UNL     1      -9.064  11.901  68.986  1.00  0.00     0.303 C  
HETATM   12  C   UNL     1      -8.116  14.017  68.621  1.00  0.00    -0.113 C  
HETATM   13  N   UNL     1      -9.120  13.202  69.120  1.00  0.00    -0.066 N  
HETATM   14  H   UNL     1      -9.916  13.623  69.599  1.00  0.00     0.000 HD 
HETATM   15  N   UNL     1      -8.057  11.212  68.325  1.00  0.00    -0.124 NA 
HETATM   16  N   UNL     1      -5.140  12.733  66.920  1.00  0.00    -0.272 NA 
HETATM   17  C   UNL     1      -5.850  11.621  67.174  1.00  0.00    -0.122 A  
HETATM   18  C   UNL     1      -7.056  13.297  67.990  1.00  0.00    -0.122 A  
HETATM   19  O   UNL     1      -8.138  15.240  68.709  1.00  0.00    -0.142 OA 
HETATM   20  C   UNL     1      -5.404  15.093  67.360  1.00  0.00     0.270 C  
HETATM   21  C   UNL     1      -7.042  11.942  67.847  1.00  0.00    -0.093 A  
HETATM   22  N   UNL     1      -5.893  13.738  67.434  1.00  0.00    -0.335 NA 
BRANCH  17  23
HETATM   23  C   UNL     1      -5.327  10.292  66.744  1.00  0.00    -0.041 C  
BRANCH  23  24
HETATM   24  C   UNL     1      -5.844   9.826  65.381  1.00  0.00    -0.069 C  
HETATM   25  C   UNL     1      -5.263  10.605  64.208  1.00  0.00    -0.142 C  
ENDBRANCH  23  24
ENDBRANCH  17  23
ENDBRANCH   6  11
BRANCH   9  26
HETATM   26  S   UNL     1     -11.368   7.165  69.540  1.00  0.00     0.059 S  
HETATM   27  O   UNL     1     -11.399   7.005  68.106  1.00  0.00     0.020 OA 
HETATM   28  O   UNL     1     -12.392   6.634  70.411  1.00  0.00    -0.274 OA 
BRANCH  26  29
HETATM   29  N   UNL     1      -9.850   6.568  70.057  1.00  0.00    -0.165 N  
HETATM   30  H   UNL     1      -9.203   7.145  70.595  1.00  0.00     0.000 HD 
BRANCH  29  31
HETATM   31  C   UNL     1      -9.525   5.176  69.686  1.00  0.00    -0.143 C  
BRANCH  31  32
HETATM   32  C   UNL     1      -8.881   4.410  70.837  1.00  0.00    -0.146 C  
BRANCH  32  33
HETATM   33  C   UNL     1      -9.396   4.949  72.185  1.00  0.00    -0.136 C  
HETATM   34  C   UNL     1     -10.813   4.480  72.510  1.00  0.00    -0.145 C  
HETATM   35  C   UNL     1     -10.878   4.621  74.012  1.00  0.00    -0.328 C  
HETATM   36  C   UNL     1      -7.497   5.375  73.655  1.00  0.00    -0.091 C  
HETATM   37  N   UNL     1      -8.586   4.464  73.315  1.00  0.00    -0.097 NA 
HETATM   38  C   UNL     1      -9.480   4.236  74.463  1.00  0.00    -0.111 C  
ENDBRANCH  32  33
ENDBRANCH  31  32
ENDBRANCH  29  31
ENDBRANCH  26  29
ENDBRANCH   9  26
ENDBRANCH   4   5
ENDBRANCH   3   4
ENDBRANCH   2   3
TORSDOF 11
ENDMDL
MODEL      281
REMARK 921   NORMALIZED FREE ENERGY PREDICTED BY IDOCK:   -0.86 KCAL/MOL
REMARK 922        TOTAL FREE ENERGY PREDICTED BY IDOCK:   -3.64 KCAL/MOL
REMARK 923 INTER-LIGAND FREE ENERGY PREDICTED BY IDOCK:   -6.59 KCAL/MOL
REMARK 924 INTRA-LIGAND FREE ENERGY PREDICTED BY IDOCK:    2.95 KCAL/MOL
REMARK 927      BINDING AFFINITY PREDICTED BY RF-SCORE:    0.00 PKD
ROOT
HETATM    1  C   UNL     1      -6.365  10.403  62.806  1.00  0.00    -0.139 C  
HETATM    2  C   UNL     1      -6.233   9.826  64.203  1.00  0.00    -0.116 C  
ENDROOT
BRANCH   2   3
HETATM    3  C   UNL     1      -7.306   8.794  64.509  1.00  0.00    -0.102 C  
BRANCH   3   4
HETATM    4  O   UNL     1      -8.595   9.180  63.997  1.00  0.00    -0.193 OA 
BRANCH   4   5
HETATM    5  C   UNL     1      -9.196  10.223  64.679  1.00  0.00    -0.244 A  
HETATM    6  C   UNL     1      -9.783   9.995  65.947  1.00  0.00    -0.309 A  
HETATM    7  C   UNL     1     -10.456  11.056  66.601  1.00  0.00    -0.307 A  
HETATM    8  C   UNL     1      -9.272  11.507  64.121  1.00  0.00     0.073 A  
HETATM    9  C   UNL     1     -10.554  12.312  65.986  1.00  0.00    -0.254 A  
HETATM   10  C   UNL     1      -9.976  12.522  64.745  1.00  0.00    -0.177 A  
BRANCH   6  11
HETATM   11  C   UNL     1      -9.747   8.641  66.633  1.00  0.00    -0.247 C  
HETATM   12  C   UNL     1      -9.915   7.431  68.637  1.00  0.00    -0.169 C  
HETATM   13  N   UNL     1      -9.911   8.624  67.932  1.00  0.00    -0.166 N  
HETATM   14  H   UNL     1     -10.037   9.503  68.433  1.00  0.00     0.000 HD 
HETATM   15  N   UNL     1      -9.530   7.521  65.844  1.00  0.00     0.064 NA 
HETATM   16  N   UNL     1      -9.540   4.153  67.052  1.00  0.00    -0.193 NA 
HETATM   17  C   UNL     1      -9.420   5.007  66.021  1.00  0.00    -0.161 A  
HETATM   18  C   UNL     1      -9.745   6.277  67.812  1.00  0.00    -0.118 A  
HETATM   19  O   UNL     1     -10.047   7.371  69.856  1.00  0.00    -0.190 OA 
HETATM   20  C   UNL     1      -9.948   4.351  69.424  1.00  0.00    -0.095 C  
HETATM   21  C   UNL     1      -9.553   6.334  66.464  1.00  0.00    -0.146 A  
HETATM   22  N   UNL     1      -9.745   4.953  68.129  1.00  0.00    -0.147 NA 
BRANCH  17  23
HETATM   23  C   UNL     1      -9.180   4.480  64.646  1.00  0.00    -0.145 C  
BRANCH  23  24
HETATM   24  C   UNL     1      -7.787   4.786  64.092  1.00  0.00    -0.083 C  
HETATM   25  C   UNL     1      -7.762   5.948  63.108  1.00  0.00    -0.094 C  
ENDBRANCH  23  24
ENDBRANCH  17  23
ENDBRANCH   6  11
BRANCH   9  26
HETATM   26  S   UNL     1     -11.480  13.644  66.717  1.00  0.00    -0.364 S  
HETATM   27  O   UNL     1     -10.612  14.296  67.669  1.00  0.00    -0.250 OA 
HETATM   28  O   UNL     1     -12.775  13.111  67.074  1.00  0.00    -0.004 OA 
BRANCH  26  29
HETATM   29  N   UNL     1     -11.681  14.742  65.421  1.00  0.00    -0.324 N  
HETATM   30  H   UNL     1     -12.443  14.645  64.750  1.00  0.00     0.000 HD 
BRANCH  29  31
HETATM   31  C   UNL     1     -10.694  15.837  65.322  1.00  0.00    -0.428 C  
BRANCH  31  32
HETATM   32  C   UNL     1      -9.361  15.469  65.965  1.00  0.00    -0.379 C  
BRANCH  32  33
HETATM   33  C   UNL     1      -9.022  16.469  67.087  1.00  0.00    -0.205 C  
HETATM   34  C   UNL     1      -8.161  15.856  68.189  1.00  0.00    -0.145 C  
HETATM   35  C   UNL     1      -7.508  17.065  68.817  1.00  0.00    -0.242 C  
HETATM   36  C   UNL     1      -9.048  18.732  66.176  1.00  0.00    -0.141 C  
HETATM   37  N   UNL     1      -8.222  17.601  66.589  1.00  0.00    -0.246 NA 
HETATM   38  C   UNL     1      -7.261  17.986  67.636  1.00  0.00    -0.206 C  
ENDBRANCH  32  33
ENDBRANCH  31  32
ENDBRANCH  29  31
ENDBRANCH  26  29
ENDBRANCH   9  26
ENDBRANCH   4   5
ENDBRANCH   3   4
ENDBRANCH   2   3
TORSDOF 11
ENDMDL
MODEL      282
REMARK 921   NORMALIZED FREE ENERGY PREDICTED BY IDOCK:   -0.70 KCAL/MOL
REMARK 922        TOTAL FREE ENERGY PREDICTED BY IDOCK:   -3.39 KCAL/MOL
REMARK 923 INTER-LIGAND FREE ENERGY PREDICTED BY IDOCK:   -2.73 KCAL/MOL
REMARK 924 INTRA-LIGAND FREE ENERGY PREDICTED BY IDOCK:   -0.66 KCAL/MOL
REMARK 927      BINDING AFFINITY PREDICTED BY RF-SCORE:    0.00 PKD
ROOT
HETATM    1  C   UNL     1      -8.670  14.345  69.812  1.00  0.00     0.731 C  
HETATM    2  C   UNL     1      -7.617  13.271  69.608  1.00  0.00     0.818 C  
ENDROOT
BRANCH   2   3
HETATM    3  C   UNL     1      -8.104  12.141  68.716  1.00  0.00     0.033 C  
BRANCH   3   4
HETATM    4  O   UNL     1      -9.511  11.886  68.880  1.00  0.00    -0.056 OA 
BRANCH   4   5
HETATM    5  C   UNL     1      -9.815  10.623  69.355  1.00  0.00    -0.139 A  
HETATM    6  C   UNL     1      -9.684   9.496  68.507  1.00  0.00    -0.162 A  
HETATM    7  C   UNL     1     -10.065   8.219  68.986  1.00  0.00    -0.208 A  
HETATM    8  C   UNL     1     -10.293  10.434  70.660  1.00  0.00     0.384 A  
HETATM    9  C   UNL     1     -10.587   8.080  70.280  1.00  0.00    -0.231 A  
HETATM   10  C   UNL     1     -10.711   9.190  71.100  1.00  0.00    -0.380 A  
BRANCH   6  11
HETATM   11  C   UNL     1      -9.171   9.601  67.082  1.00  0.00    -0.134 C  
HETATM   12  C   UNL     1      -9.036  10.874  65.114  1.00  0.00    -0.180 C  
HETATM   13  N   UNL     1      -9.481  10.683  66.413  1.00  0.00    -0.167 N  
HETATM   14  H   UNL     1     -10.059  11.397  66.855  1.00  0.00     0.000 HD 
HETATM   15  N   UNL     1      -8.424   8.544  66.583  1.00  0.00    -0.111 NA 
HETATM   16  N   UNL     1      -6.904   8.481  63.345  1.00  0.00    -0.088 NA 
HETATM   17  C   UNL     1      -7.130   7.876  64.523  1.00  0.00    -0.073 A  
HETATM   18  C   UNL     1      -8.223   9.806  64.625  1.00  0.00    -0.150 A  
HETATM   19  O   UNL     1      -9.317  11.863  64.446  1.00  0.00     0.020 OA 
HETATM   20  C   UNL     1      -7.519  10.588  62.335  1.00  0.00    -0.142 C  
HETATM   21  C   UNL     1      -7.940   8.682  65.342  1.00  0.00    -0.111 A  
HETATM   22  N   UNL     1      -7.574   9.658  63.438  1.00  0.00    -0.119 NA 
BRANCH  17  23
HETATM   23  C   UNL     1      -6.541   6.532  64.792  1.00  0.00    -0.038 C  
BRANCH  23  24
HETATM   24  C   UNL     1      -6.245   5.715  63.532  1.00  0.00    -0.025 C  
HETATM   25  C   UNL     1      -7.496   5.234  62.808  1.00  0.00    -0.049 C  
ENDBRANCH  23  24
ENDBRANCH  17  23
ENDBRANCH   6  11
BRANCH   9  26
HETATM   26  S   UNL     1     -11.180   6.517  70.889  1.00  0.00    -0.330 S  
HETATM   27  O   UNL     1     -12.601   6.654  71.107  1.00  0.00    -0.303 OA 
HETATM   28  O   UNL     1     -10.265   6.092  71.923  1.00  0.00    -0.195 OA 
BRANCH  26  29
HETATM   29  N   UNL     1     -11.001   5.477  69.542  1.00  0.00    -0.203 N  
HETATM   30  H   UNL     1     -11.809   5.106  69.041  1.00  0.00     0.000 HD 
BRANCH  29  31
HETATM   31  C   UNL     1      -9.619   5.142  69.143  1.00  0.00    -0.146 C  
BRANCH  31  32
HETATM   32  C   UNL     1      -9.367   5.413  67.663  1.00  0.00    -0.122 C  
BRANCH  32  33
HETATM   33  C   UNL     1      -9.892   4.240  66.815  1.00  0.00    -0.205 C  
HETATM   34  C   UNL     1     -10.169   4.632  65.365  1.00  0.00    -0.172 C  
HETATM   35  C   UNL     1     -10.105   3.309  64.640  1.00  0.00    -0.036 C  
HETATM   36  C   UNL     1      -9.073   2.143  67.754  1.00  0.00    -0.175 C  
HETATM   37  N   UNL     1      -8.905   3.152  66.712  1.00  0.00    -0.136 NA 
HETATM   38  C   UNL     1      -9.001   2.562  65.367  1.00  0.00    -0.131 C  
ENDBRANCH  32  33
ENDBRANCH  31  32
ENDBRANCH  29  31
ENDBRANCH  26  29
ENDBRANCH   9  26
ENDBRANCH   4   5
ENDBRANCH   3   4
ENDBRANCH   2   3
TORSDOF 11
ENDMDL
MODEL      283
REMARK 921   NORMALIZED FREE ENERGY PREDICTED BY IDOCK:   -0.52 KCAL/MOL
REMARK 922        TOTAL FREE ENERGY PREDICTED BY IDOCK:   -3.09 KCAL/MOL
REMARK 923 INTER-LIGAND FREE ENERGY PREDICTED BY IDOCK:   -2.25 KCAL/MOL
REMARK 924 INTRA-LIGAND FREE ENERGY PREDICTED BY IDOCK:   -0.84 KCAL/MOL
REMARK 927      BINDING AFFINITY PREDICTED BY RF-SCORE:    0.00 PKD
ROOT
HETATM    1  C   UNL     1      -8.667  14.334  69.781  1.00  0.00     0.892 C  
HETATM    2  C   UNL     1      -7.515  13.369  69.562  1.00  0.00     0.495 C  
ENDROOT
BRANCH   2   3
HETATM    3  C   UNL     1      -7.898  12.201  68.668  1.00  0.00    -0.078 C  
BRANCH   3   4
HETATM    4  O   UNL     1      -9.259  11.779  68.876  1.00  0.00    -0.059 OA 
BRANCH   4   5
HETATM    5  C   UNL     1      -9.393  10.497  69.377  1.00  0.00    -0.117 A  
HETATM    6  C   UNL     1      -9.152   9.380  68.539  1.00  0.00    -0.131 A  
HETATM    7  C   UNL     1      -9.361   8.075  69.047  1.00  0.00    -0.147 A  
HETATM    8  C   UNL     1      -9.804  10.273  70.698  1.00  0.00     0.579 A  
HETATM    9  C   UNL     1      -9.822   7.895  70.358  1.00  0.00    -0.183 A  
HETATM   10  C   UNL     1     -10.054   8.995  71.167  1.00  0.00    -0.365 A  
BRANCH   6  11
HETATM   11  C   UNL     1      -8.700   9.523  67.097  1.00  0.00    -0.132 C  
HETATM   12  C   UNL     1      -7.032   9.120  65.495  1.00  0.00    -0.081 C  
HETATM   13  N   UNL     1      -7.516   9.053  66.793  1.00  0.00    -0.086 N  
HETATM   14  H   UNL     1      -6.941   8.632  67.522  1.00  0.00     0.000 HD 
HETATM   15  N   UNL     1      -9.560  10.149  66.207  1.00  0.00    -0.182 NA 
HETATM   16  N   UNL     1      -8.936  10.531  62.705  1.00  0.00    -0.240 NA 
HETATM   17  C   UNL     1      -9.748  10.722  63.758  1.00  0.00    -0.321 A  
HETATM   18  C   UNL     1      -7.945   9.717  64.573  1.00  0.00    -0.144 A  
HETATM   19  O   UNL     1      -5.923   8.709  65.170  1.00  0.00    -0.048 OA 
HETATM   20  C   UNL     1      -6.769   9.523  62.353  1.00  0.00    -0.094 C  
HETATM   21  C   UNL     1      -9.161  10.218  64.931  1.00  0.00    -0.213 A  
HETATM   22  N   UNL     1      -7.848   9.910  63.229  1.00  0.00    -0.140 NA 
BRANCH  17  23
HETATM   23  C   UNL     1     -11.067  11.393  63.564  1.00  0.00    -0.373 C  
BRANCH  23  24
HETATM   24  C   UNL     1     -11.832  11.656  64.863  1.00  0.00    -0.018 C  
HETATM   25  C   UNL     1     -12.327  13.090  65.001  1.00  0.00    -0.526 C  
ENDBRANCH  23  24
ENDBRANCH  17  23
ENDBRANCH   6  11
BRANCH   9  26
HETATM   26  S   UNL     1     -10.203   6.282  71.005  1.00  0.00    -0.196 S  
HETATM   27  O   UNL     1     -11.481   6.378  71.671  1.00  0.00    -0.278 OA 
HETATM   28  O   UNL     1      -9.011   5.799  71.664  1.00  0.00    -0.136 OA 
BRANCH  26  29
HETATM   29  N   UNL     1     -10.466   5.345  69.598  1.00  0.00    -0.295 N  
HETATM   30  H   UNL     1     -11.384   5.286  69.158  1.00  0.00     0.000 HD 
BRANCH  29  31
HETATM   31  C   UNL     1      -9.296   4.626  69.053  1.00  0.00    -0.142 C  
BRANCH  31  32
HETATM   32  C   UNL     1      -9.214   4.731  67.534  1.00  0.00    -0.142 C  
BRANCH  32  33
HETATM   33  C   UNL     1      -9.573   3.378  66.891  1.00  0.00    -0.073 C  
HETATM   34  C   UNL     1     -10.397   3.527  65.614  1.00  0.00     0.513 C  
HETATM   35  C   UNL     1     -10.142   2.223  64.895  1.00  0.00     0.475 C  
HETATM   36  C   UNL     1      -7.879   1.730  67.495  1.00  0.00    -0.060 C  
HETATM   37  N   UNL     1      -8.374   2.637  66.464  1.00  0.00    -0.087 NA 
HETATM   38  C   UNL     1      -8.690   1.920  65.218  1.00  0.00    -0.116 C  
ENDBRANCH  32  33
ENDBRANCH  31  32
ENDBRANCH  29  31
ENDBRANCH  26  29
ENDBRANCH   9  26
ENDBRANCH   4   5
ENDBRANCH   3   4
ENDBRANCH   2   3
TORSDOF 11
ENDMDL
MODEL      284
REMARK 921   NORMALIZED FREE ENERGY PREDICTED BY IDOCK:   -0.32 KCAL/MOL
REMARK 922        TOTAL FREE ENERGY PREDICTED BY IDOCK:   -2.76 KCAL/MOL
REMARK 923 INTER-LIGAND FREE ENERGY PREDICTED BY IDOCK:   -0.61 KCAL/MOL
REMARK 924 INTRA-LIGAND FREE ENERGY PREDICTED BY IDOCK:   -2.15 KCAL/MOL
REMARK 927      BINDING AFFINITY PREDICTED BY RF-SCORE:    0.00 PKD
ROOT
HETATM    1  C   UNL     1     -13.650  13.026  65.378  1.00  0.00     1.849 C  
HETATM    2  C   UNL     1     -13.278  14.052  66.433  1.00  0.00     1.183 C  
ENDROOT
BRANCH   2   3
HETATM    3  C   UNL     1     -12.452  13.453  67.559  1.00  0.00     0.211 C  
BRANCH   3   4
HETATM    4  O   UNL     1     -11.517  12.467  67.085  1.00  0.00    -0.308 OA 
BRANCH   4   5
HETATM    5  C   UNL     1     -10.187  12.794  67.281  1.00  0.00    -0.232 A  
HETATM    6  C   UNL     1      -9.228  11.772  67.479  1.00  0.00    -0.175 A  
HETATM    7  C   UNL     1      -7.883  12.125  67.749  1.00  0.00    -0.148 A  
HETATM    8  C   UNL     1      -9.768  14.131  67.329  1.00  0.00    -0.236 A  
HETATM    9  C   UNL     1      -7.514  13.475  67.838  1.00  0.00    -0.153 A  
HETATM   10  C   UNL     1      -8.463  14.466  67.643  1.00  0.00    -0.191 A  
BRANCH   6  11
HETATM   11  C   UNL     1      -9.585  10.297  67.441  1.00  0.00    -0.158 C  
HETATM   12  C   UNL     1      -9.602   8.293  66.218  1.00  0.00    -0.196 C  
HETATM   13  N   UNL     1      -9.329   9.648  66.333  1.00  0.00    -0.164 N  
HETATM   14  H   UNL     1      -8.923  10.147  65.542  1.00  0.00     0.000 HD 
HETATM   15  N   UNL     1     -10.168   9.742  68.571  1.00  0.00    -0.179 NA 
HETATM   16  N   UNL     1     -11.001   6.282  68.937  1.00  0.00    -0.340 NA 
HETATM   17  C   UNL     1     -10.960   7.519  69.461  1.00  0.00    -0.113 A  
HETATM   18  C   UNL     1     -10.152   7.717  67.404  1.00  0.00    -0.222 A  
HETATM   19  O   UNL     1      -9.394   7.651  65.193  1.00  0.00     0.480 OA 
HETATM   20  C   UNL     1     -10.366   5.271  66.838  1.00  0.00    -0.255 C  
HETATM   21  C   UNL     1     -10.428   8.429  68.532  1.00  0.00    -0.164 A  
HETATM   22  N   UNL     1     -10.496   6.431  67.686  1.00  0.00    -0.195 NA 
BRANCH  17  23
HETATM   23  C   UNL     1     -11.446   7.751  70.852  1.00  0.00    -0.294 C  
BRANCH  23  24
HETATM   24  C   UNL     1     -12.901   8.218  70.938  1.00  0.00     0.140 C  
HETATM   25  C   UNL     1     -13.864   7.136  71.411  1.00  0.00    -0.368 C  
ENDBRANCH  23  24
ENDBRANCH  17  23
ENDBRANCH   6  11
BRANCH   9  26
HETATM   26  S   UNL     1      -5.863  13.969  68.281  1.00  0.00    -0.127 S  
HETATM   27  O   UNL     1      -5.967  14.815  69.446  1.00  0.00    -0.097 OA 
HETATM   28  O   UNL     1      -5.208  14.388  67.063  1.00  0.00     0.172 OA 
BRANCH  26  29
HETATM   29  N   UNL     1      -5.145  12.510  68.812  1.00  0.00    -0.055 N  
HETATM   30  H   UNL     1      -4.729  11.848  68.156  1.00  0.00     0.000 HD 
BRANCH  29  31
HETATM   31  C   UNL     1      -5.157  12.257  70.267  1.00  0.00    -0.095 C  
BRANCH  31  32
HETATM   32  C   UNL     1      -6.244  11.265  70.669  1.00  0.00     0.114 C  
BRANCH  32  33
HETATM   33  C   UNL     1      -5.712   9.824  70.555  1.00  0.00    -0.057 C  
HETATM   34  C   UNL     1      -5.497   9.160  71.913  1.00  0.00    -0.066 C  
HETATM   35  C   UNL     1      -5.546   7.688  71.580  1.00  0.00    -0.035 C  
HETATM   36  C   UNL     1      -6.435   8.871  68.429  1.00  0.00    -0.055 C  
HETATM   37  N   UNL     1      -6.669   8.939  69.868  1.00  0.00    -0.044 NA 
HETATM   38  C   UNL     1      -6.601   7.607  70.492  1.00  0.00    -0.038 C  
ENDBRANCH  32  33
ENDBRANCH  31  32
ENDBRANCH  29  31
ENDBRANCH  26  29
ENDBRANCH   9  26
ENDBRANCH   4   5
ENDBRANCH   3   4
ENDBRANCH   2   3
TORSDOF 11
ENDMDL
MODEL      285
REMARK 921   NORMALIZED FREE ENERGY PREDICTED BY IDOCK:   -0.29 KCAL/MOL
REMARK 922        TOTAL FREE ENERGY PREDICTED BY IDOCK:   -2.71 KCAL/MOL
REMARK 923 INTER-LIGAND FREE ENERGY PREDICTED BY IDOCK:   -4.03 KCAL/MOL
REMARK 924 INTRA-LIGAND FREE ENERGY PREDICTED BY IDOCK:    1.32 KCAL/MOL
REMARK 927      BINDING AFFINITY PREDICTED BY RF-SCORE:    0.00 PKD
ROOT
HETATM    1  C   UNL     1      -5.125  20.125  70.220  1.00  0.00    -0.255 C  
HETATM    2  C   UNL     1      -5.861  18.989  70.906  1.00  0.00    -0.030 C  
ENDROOT
BRANCH   2   3
HETATM    3  C   UNL     1      -5.923  17.736  70.048  1.00  0.00    -0.184 C  
BRANCH   3   4
HETATM    4  O   UNL     1      -5.144  16.658  70.599  1.00  0.00    -0.199 OA 
BRANCH   4   5
HETATM    5  C   UNL     1      -5.484  15.403  70.128  1.00  0.00    -0.131 A  
HETATM    6  C   UNL     1      -6.194  15.272  68.910  1.00  0.00    -0.094 A  
HETATM    7  C   UNL     1      -6.597  13.985  68.477  1.00  0.00    -0.097 A  
HETATM    8  C   UNL     1      -5.173  14.246  70.857  1.00  0.00    -0.131 A  
HETATM    9  C   UNL     1      -6.311  12.858  69.260  1.00  0.00    -0.108 A  
HETATM   10  C   UNL     1      -5.616  13.000  70.450  1.00  0.00    -0.159 A  
BRANCH   6  11
HETATM   11  C   UNL     1      -6.571  16.465  68.051  1.00  0.00    -0.135 C  
HETATM   12  C   UNL     1      -5.977  17.912  66.301  1.00  0.00    -0.196 C  
HETATM   13  N   UNL     1      -5.706  16.846  67.145  1.00  0.00    -0.150 N  
HETATM   14  H   UNL     1      -4.819  16.352  67.059  1.00  0.00     0.000 HD 
HETATM   15  N   UNL     1      -7.793  17.077  68.291  1.00  0.00    -0.207 NA 
HETATM   16  N   UNL     1      -9.113  19.800  66.382  1.00  0.00    -0.369 NA 
HETATM   17  C   UNL     1      -9.259  18.920  67.387  1.00  0.00    -0.286 A  
HETATM   18  C   UNL     1      -7.259  18.503  66.517  1.00  0.00    -0.227 A  
HETATM   19  O   UNL     1      -5.188  18.313  65.451  1.00  0.00    -0.152 OA 
HETATM   20  C   UNL     1      -7.416  20.271  64.728  1.00  0.00     0.604 C  
HETATM   21  C   UNL     1      -8.125  18.095  67.487  1.00  0.00    -0.238 A  
HETATM   22  N   UNL     1      -7.889  19.518  65.865  1.00  0.00    -0.411 NA 
BRANCH  17  23
HETATM   23  C   UNL     1     -10.507  18.929  68.204  1.00  0.00    -0.387 C  
BRANCH  23  24
HETATM   24  C   UNL     1     -10.315  19.437  69.635  1.00  0.00     0.393 C  
HETATM   25  C   UNL     1     -10.570  20.931  69.791  1.00  0.00     0.980 C  
ENDBRANCH  23  24
ENDBRANCH  17  23
ENDBRANCH   6  11
BRANCH   9  26
HETATM   26  S   UNL     1      -6.889  11.235  68.813  1.00  0.00    -0.090 S  
HETATM   27  O   UNL     1      -5.918  10.285  69.304  1.00  0.00    -0.037 OA 
HETATM   28  O   UNL     1      -7.293  11.298  67.428  1.00  0.00    -0.102 OA 
BRANCH  26  29
HETATM   29  N   UNL     1      -8.286  11.035  69.780  1.00  0.00    -0.183 N  
HETATM   30  H   UNL     1      -8.232  11.005  70.798  1.00  0.00     0.000 HD 
BRANCH  29  31
HETATM   31  C   UNL     1      -9.573  10.909  69.066  1.00  0.00    -0.156 C  
BRANCH  31  32
HETATM   32  C   UNL     1     -10.572  10.048  69.831  1.00  0.00    -0.324 C  
BRANCH  32  33
HETATM   33  C   UNL     1     -10.240   8.556  69.639  1.00  0.00    -0.209 C  
HETATM   34  C   UNL     1      -9.399   8.290  68.393  1.00  0.00    -0.136 C  
HETATM   35  C   UNL     1      -8.745   6.965  68.705  1.00  0.00    -0.129 C  
HETATM   36  C   UNL     1     -10.235   7.453  71.815  1.00  0.00    -0.191 C  
HETATM   37  N   UNL     1      -9.424   8.029  70.747  1.00  0.00    -0.161 NA 
HETATM   38  C   UNL     1      -8.474   7.048  70.197  1.00  0.00    -0.139 C  
ENDBRANCH  32  33
ENDBRANCH  31  32
ENDBRANCH  29  31
ENDBRANCH  26  29
ENDBRANCH   9  26
ENDBRANCH   4   5
ENDBRANCH   3   4
ENDBRANCH   2   3
TORSDOF 11
ENDMDL
MODEL      286
REMARK 921   NORMALIZED FREE ENERGY PREDICTED BY IDOCK:   -0.08 KCAL/MOL
REMARK 922        TOTAL FREE ENERGY PREDICTED BY IDOCK:   -2.37 KCAL/MOL
REMARK 923 INTER-LIGAND FREE ENERGY PREDICTED BY IDOCK:   -2.35 KCAL/MOL
REMARK 924 INTRA-LIGAND FREE ENERGY PREDICTED BY IDOCK:   -0.02 KCAL/MOL
REMARK 927      BINDING AFFINITY PREDICTED BY RF-SCORE:    0.00 PKD
ROOT
HETATM    1  C   UNL     1     -11.093  16.691  64.525  1.00  0.00     0.081 C  
HETATM    2  C   UNL     1     -12.371  15.904  64.300  1.00  0.00     0.331 C  
ENDROOT
BRANCH   2   3
HETATM    3  C   UNL     1     -12.380  14.583  65.051  1.00  0.00    -0.349 C  
BRANCH   3   4
HETATM    4  O   UNL     1     -11.723  14.679  66.329  1.00  0.00    -0.370 OA 
BRANCH   4   5
HETATM    5  C   UNL     1     -10.588  13.897  66.452  1.00  0.00    -0.280 A  
HETATM    6  C   UNL     1      -9.370  14.480  66.878  1.00  0.00    -0.258 A  
HETATM    7  C   UNL     1      -8.201  13.682  66.932  1.00  0.00     0.044 A  
HETATM    8  C   UNL     1     -10.607  12.534  66.124  1.00  0.00    -0.279 A  
HETATM    9  C   UNL     1      -8.250  12.335  66.547  1.00  0.00     0.116 A  
HETATM   10  C   UNL     1      -9.449  11.777  66.131  1.00  0.00    -0.240 A  
BRANCH   6  11
HETATM   11  C   UNL     1      -9.253  15.945  67.259  1.00  0.00    -0.206 C  
HETATM   12  C   UNL     1     -10.327  18.017  67.514  1.00  0.00    -0.385 C  
HETATM   13  N   UNL     1     -10.336  16.675  67.165  1.00  0.00    -0.298 N  
HETATM   14  H   UNL     1     -11.200  16.250  66.829  1.00  0.00     0.000 HD 
HETATM   15  N   UNL     1      -8.012  16.411  67.666  1.00  0.00    -0.146 NA 
HETATM   16  N   UNL     1      -7.365  19.743  68.799  1.00  0.00    -0.328 NA 
HETATM   17  C   UNL     1      -6.911  18.504  68.545  1.00  0.00    -0.264 A  
HETATM   18  C   UNL     1      -9.058  18.477  67.983  1.00  0.00    -0.301 A  
HETATM   19  O   UNL     1     -11.313  18.741  67.424  1.00  0.00    -0.004 OA 
HETATM   20  C   UNL     1      -9.494  20.873  68.632  1.00  0.00     0.958 C  
HETATM   21  C   UNL     1      -7.945  17.694  68.045  1.00  0.00    -0.241 A  
HETATM   22  N   UNL     1      -8.678  19.696  68.455  1.00  0.00    -0.333 NA 
BRANCH  17  23
HETATM   23  C   UNL     1      -5.480  18.172  68.804  1.00  0.00    -0.179 C  
BRANCH  23  24
HETATM   24  C   UNL     1      -5.274  16.943  69.694  1.00  0.00    -0.157 C  
HETATM   25  C   UNL     1      -6.010  17.023  71.025  1.00  0.00     0.886 C  
ENDBRANCH  23  24
ENDBRANCH  17  23
ENDBRANCH   6  11
BRANCH   9  26
HETATM   26  S   UNL     1      -6.789  11.321  66.493  1.00  0.00    -0.057 S  
HETATM   27  O   UNL     1      -5.965  11.697  67.618  1.00  0.00    -0.051 OA 
HETATM   28  O   UNL     1      -6.312  11.341  65.130  1.00  0.00     0.361 OA 
BRANCH  26  29
HETATM   29  N   UNL     1      -7.384   9.755  66.839  1.00  0.00    -0.091 N  
HETATM   30  H   UNL     1      -8.376   9.584  67.008  1.00  0.00     0.000 HD 
BRANCH  29  31
HETATM   31  C   UNL     1      -6.391   8.663  66.881  1.00  0.00    -0.060 C  
BRANCH  31  32
HETATM   32  C   UNL     1      -5.913   8.267  65.488  1.00  0.00    -0.045 C  
BRANCH  32  33
HETATM   33  C   UNL     1      -6.573   6.943  65.059  1.00  0.00    -0.043 C  
HETATM   34  C   UNL     1      -7.155   7.000  63.648  1.00  0.00    -0.061 C  
HETATM   35  C   UNL     1      -7.210   5.544  63.248  1.00  0.00    -0.048 C  
HETATM   36  C   UNL     1      -5.525   5.099  66.263  1.00  0.00    -0.013 C  
HETATM   37  N   UNL     1      -5.602   5.837  65.006  1.00  0.00    -0.019 NA 
HETATM   38  C   UNL     1      -5.961   4.957  63.881  1.00  0.00    -0.018 C  
ENDBRANCH  32  33
ENDBRANCH  31  32
ENDBRANCH  29  31
ENDBRANCH  26  29
ENDBRANCH   9  26
ENDBRANCH   4   5
ENDBRANCH   3   4
ENDBRANCH   2   3
TORSDOF 11
ENDMDL
MODEL      287
REMARK 921   NORMALIZED FREE ENERGY PREDICTED BY IDOCK:   -0.05 KCAL/MOL
REMARK 922        TOTAL FREE ENERGY PREDICTED BY IDOCK:   -2.32 KCAL/MOL
REMARK 923 INTER-LIGAND FREE ENERGY PREDICTED BY IDOCK:   -1.83 KCAL/MOL
REMARK 924 INTRA-LIGAND FREE ENERGY PREDICTED BY IDOCK:   -0.49 KCAL/MOL
REMARK 927      BINDING AFFINITY PREDICTED BY RF-SCORE:    0.00 PKD
ROOT
HETATM    1  C   UNL     1      -8.666  14.334  69.783  1.00  0.00     0.892 C  
HETATM    2  C   UNL     1      -7.529  13.353  69.571  1.00  0.00     0.495 C  
ENDROOT
BRANCH   2   3
HETATM    3  C   UNL     1      -7.929  12.181  68.689  1.00  0.00    -0.063 C  
BRANCH   3   4
HETATM    4  O   UNL     1      -9.295  11.780  68.902  1.00  0.00    -0.068 OA 
BRANCH   4   5
HETATM    5  C   UNL     1      -9.445  10.506  69.420  1.00  0.00    -0.136 A  
HETATM    6  C   UNL     1      -9.221   9.376  68.597  1.00  0.00    -0.131 A  
HETATM    7  C   UNL     1      -9.447   8.080  69.122  1.00  0.00    -0.155 A  
HETATM    8  C   UNL     1      -9.858  10.306  70.744  1.00  0.00     0.805 A  
HETATM    9  C   UNL     1      -9.909   7.924  70.436  1.00  0.00    -0.183 A  
HETATM   10  C   UNL     1     -10.126   9.039  71.231  1.00  0.00    -0.384 A  
BRANCH   6  11
HETATM   11  C   UNL     1      -8.768   9.493  67.153  1.00  0.00    -0.132 C  
HETATM   12  C   UNL     1      -8.743  10.767  65.182  1.00  0.00    -0.164 C  
HETATM   13  N   UNL     1      -9.131  10.567  66.498  1.00  0.00    -0.155 N  
HETATM   14  H   UNL     1      -9.709  11.266  66.962  1.00  0.00     0.000 HD 
HETATM   15  N   UNL     1      -8.016   8.454  66.624  1.00  0.00    -0.096 NA 
HETATM   16  N   UNL     1      -6.624   8.427  63.328  1.00  0.00    -0.085 NA 
HETATM   17  C   UNL     1      -6.788   7.817  64.514  1.00  0.00    -0.058 A  
HETATM   18  C   UNL     1      -7.923   9.720  64.660  1.00  0.00    -0.139 A  
HETATM   19  O   UNL     1      -9.075  11.749  64.526  1.00  0.00     0.137 OA 
HETATM   20  C   UNL     1      -7.331  10.518  62.345  1.00  0.00    -0.139 C  
HETATM   21  C   UNL     1      -7.585   8.603  65.365  1.00  0.00    -0.087 A  
HETATM   22  N   UNL     1      -7.319   9.587  63.448  1.00  0.00    -0.103 NA 
BRANCH  17  23
HETATM   23  C   UNL     1      -6.155   6.489  64.758  1.00  0.00    -0.037 C  
BRANCH  23  24
HETATM   24  C   UNL     1      -7.099   5.448  65.366  1.00  0.00    -0.066 C  
HETATM   25  C   UNL     1      -7.468   4.324  64.406  1.00  0.00    -0.071 C  
ENDBRANCH  23  24
ENDBRANCH  17  23
ENDBRANCH   6  11
BRANCH   9  26
HETATM   26  S   UNL     1     -10.311   6.325  71.106  1.00  0.00    -0.216 S  
HETATM   27  O   UNL     1     -11.738   6.300  71.327  1.00  0.00    -0.310 OA 
HETATM   28  O   UNL     1      -9.351   6.052  72.150  1.00  0.00    -0.149 OA 
BRANCH  26  29
HETATM   29  N   UNL     1     -10.011   5.264  69.798  1.00  0.00    -0.213 N  
HETATM   30  H   UNL     1     -10.579   5.284  68.951  1.00  0.00     0.000 HD 
BRANCH  29  31
HETATM   31  C   UNL     1      -8.888   4.318  69.957  1.00  0.00    -0.077 C  
BRANCH  31  32
HETATM   32  C   UNL     1      -9.352   2.952  70.449  1.00  0.00    -0.222 C  
BRANCH  32  33
HETATM   33  C   UNL     1      -9.496   2.963  71.983  1.00  0.00    -0.127 C  
HETATM   34  C   UNL     1     -10.749   2.237  72.467  1.00  0.00    -0.059 C  
HETATM   35  C   UNL     1     -10.403   1.883  73.894  1.00  0.00    -0.170 C  
HETATM   36  C   UNL     1      -7.282   3.137  72.992  1.00  0.00    -0.045 C  
HETATM   37  N   UNL     1      -8.388   2.251  72.643  1.00  0.00    -0.058 NA 
HETATM   38  C   UNL     1      -8.922   1.557  73.827  1.00  0.00    -0.058 C  
ENDBRANCH  32  33
ENDBRANCH  31  32
ENDBRANCH  29  31
ENDBRANCH  26  29
ENDBRANCH   9  26
ENDBRANCH   4   5
ENDBRANCH   3   4
ENDBRANCH   2   3
TORSDOF 11
ENDMDL
MODEL      288
REMARK 921   NORMALIZED FREE ENERGY PREDICTED BY IDOCK:   -0.04 KCAL/MOL
REMARK 922        TOTAL FREE ENERGY PREDICTED BY IDOCK:   -2.30 KCAL/MOL
REMARK 923 INTER-LIGAND FREE ENERGY PREDICTED BY IDOCK:   -2.14 KCAL/MOL
REMARK 924 INTRA-LIGAND FREE ENERGY PREDICTED BY IDOCK:   -0.15 KCAL/MOL
REMARK 927      BINDING AFFINITY PREDICTED BY RF-SCORE:    0.00 PKD
ROOT
HETATM    1  C   UNL     1      -9.393  15.689  65.791  1.00  0.00    -0.303 C  
HETATM    2  C   UNL     1      -8.762  14.674  66.726  1.00  0.00    -0.233 C  
ENDROOT
BRANCH   2   3
HETATM    3  C   UNL     1      -9.466  13.328  66.682  1.00  0.00    -0.260 C  
BRANCH   3   4
HETATM    4  O   UNL     1      -8.679  12.323  66.016  1.00  0.00     0.038 OA 
BRANCH   4   5
HETATM    5  C   UNL     1      -9.083  11.023  66.258  1.00  0.00    -0.182 A  
HETATM    6  C   UNL     1      -8.661  10.357  67.435  1.00  0.00    -0.125 A  
HETATM    7  C   UNL     1      -9.025   9.003  67.635  1.00  0.00    -0.130 A  
HETATM    8  C   UNL     1      -9.877  10.326  65.337  1.00  0.00    -0.362 A  
HETATM    9  C   UNL     1      -9.778   8.326  66.665  1.00  0.00    -0.251 A  
HETATM   10  C   UNL     1     -10.184   8.989  65.518  1.00  0.00     0.700 A  
BRANCH   6  11
HETATM   11  C   UNL     1      -7.803  11.030  68.492  1.00  0.00    -0.129 C  
HETATM   12  C   UNL     1      -6.799  13.006  69.264  1.00  0.00    -0.019 C  
HETATM   13  N   UNL     1      -7.554  12.306  68.336  1.00  0.00    -0.123 N  
HETATM   14  H   UNL     1      -7.921  12.792  67.518  1.00  0.00     0.000 HD 
HETATM   15  N   UNL     1      -7.333  10.250  69.538  1.00  0.00    -0.116 NA 
HETATM   16  N   UNL     1      -5.429  11.490  72.302  1.00  0.00    -0.007 NA 
HETATM   17  C   UNL     1      -6.025  10.455  71.685  1.00  0.00     0.428 A  
HETATM   18  C   UNL     1      -6.363  12.209  70.366  1.00  0.00     0.267 A  
HETATM   19  O   UNL     1      -6.527  14.197  69.148  1.00  0.00    -0.099 OA 
HETATM   20  C   UNL     1      -5.171  13.851  71.861  1.00  0.00    -0.200 C  
HETATM   21  C   UNL     1      -6.621  10.876  70.484  1.00  0.00     0.179 A  
HETATM   22  N   UNL     1      -5.658  12.547  71.481  1.00  0.00    -0.385 NA 
BRANCH  17  23
HETATM   23  C   UNL     1      -5.981   9.099  72.304  1.00  0.00     0.000 C  
BRANCH  23  24
HETATM   24  C   UNL     1      -7.301   8.657  72.939  1.00  0.00     0.032 C  
HETATM   25  C   UNL     1      -7.942   7.460  72.249  1.00  0.00    -0.110 C  
ENDBRANCH  23  24
ENDBRANCH  17  23
ENDBRANCH   6  11
BRANCH   9  26
HETATM   26  S   UNL     1     -10.168   6.597  66.819  1.00  0.00    -0.171 S  
HETATM   27  O   UNL     1     -11.566   6.443  66.493  1.00  0.00     0.286 OA 
HETATM   28  O   UNL     1      -9.599   6.147  68.068  1.00  0.00    -0.116 OA 
BRANCH  26  29
HETATM   29  N   UNL     1      -9.295   5.881  65.534  1.00  0.00    -0.368 N  
HETATM   30  H   UNL     1      -9.665   5.086  65.013  1.00  0.00     0.000 HD 
BRANCH  29  31
HETATM   31  C   UNL     1      -7.979   6.473  65.216  1.00  0.00    -0.119 C  
BRANCH  31  32
HETATM   32  C   UNL     1      -6.880   5.962  66.142  1.00  0.00    -0.061 C  
BRANCH  32  33
HETATM   33  C   UNL     1      -6.768   4.429  66.032  1.00  0.00    -0.053 C  
HETATM   34  C   UNL     1      -5.547   3.979  65.232  1.00  0.00    -0.014 C  
HETATM   35  C   UNL     1      -5.326   2.567  65.722  1.00  0.00    -0.008 C  
HETATM   36  C   UNL     1      -7.857   3.407  67.961  1.00  0.00    -0.067 C  
HETATM   37  N   UNL     1      -6.589   3.797  67.351  1.00  0.00    -0.041 NA 
HETATM   38  C   UNL     1      -5.686   2.644  67.195  1.00  0.00    -0.022 C  
ENDBRANCH  32  33
ENDBRANCH  31  32
ENDBRANCH  29  31
ENDBRANCH  26  29
ENDBRANCH   9  26
ENDBRANCH   4   5
ENDBRANCH   3   4
ENDBRANCH   2   3
TORSDOF 11
ENDMDL
MODEL      289
REMARK 921   NORMALIZED FREE ENERGY PREDICTED BY IDOCK:   -0.03 KCAL/MOL
REMARK 922        TOTAL FREE ENERGY PREDICTED BY IDOCK:   -2.28 KCAL/MOL
REMARK 923 INTER-LIGAND FREE ENERGY PREDICTED BY IDOCK:   -4.28 KCAL/MOL
REMARK 924 INTRA-LIGAND FREE ENERGY PREDICTED BY IDOCK:    2.00 KCAL/MOL
REMARK 927      BINDING AFFINITY PREDICTED BY RF-SCORE:    0.00 PKD
ROOT
HETATM    1  C   UNL     1      -8.052   8.946  65.330  1.00  0.00    -0.126 C  
HETATM    2  C   UNL     1      -8.826  10.249  65.396  1.00  0.00    -0.192 C  
ENDROOT
BRANCH   2   3
HETATM    3  C   UNL     1      -8.051  11.350  66.102  1.00  0.00    -0.011 C  
BRANCH   3   4
HETATM    4  O   UNL     1      -6.799  10.879  66.635  1.00  0.00    -0.110 OA 
BRANCH   4   5
HETATM    5  C   UNL     1      -6.881  10.340  67.906  1.00  0.00    -0.074 A  
HETATM    6  C   UNL     1      -7.254  11.158  69.000  1.00  0.00    -0.118 A  
HETATM    7  C   UNL     1      -7.265  10.608  70.305  1.00  0.00     0.219 A  
HETATM    8  C   UNL     1      -6.561   8.996  68.146  1.00  0.00    -0.060 A  
HETATM    9  C   UNL     1      -6.890   9.273  70.510  1.00  0.00    -0.087 A  
HETATM   10  C   UNL     1      -6.526   8.483  69.430  1.00  0.00    -0.037 A  
BRANCH   6  11
HETATM   11  C   UNL     1      -7.622  12.622  68.838  1.00  0.00     0.055 C  
HETATM   12  C   UNL     1      -7.160  14.854  69.398  1.00  0.00    -0.175 C  
HETATM   13  N   UNL     1      -6.909  13.495  69.504  1.00  0.00    -0.302 N  
HETATM   14  H   UNL     1      -6.158  13.169  70.112  1.00  0.00     0.000 HD 
HETATM   15  N   UNL     1      -8.690  12.933  68.009  1.00  0.00    -0.183 NA 
HETATM   16  N   UNL     1      -9.761  16.259  67.239  1.00  0.00    -0.235 NA 
HETATM   17  C   UNL     1      -9.911  14.934  67.075  1.00  0.00    -0.237 A  
HETATM   18  C   UNL     1      -8.227  15.171  68.502  1.00  0.00    -0.148 A  
HETATM   19  O   UNL     1      -6.529  15.704  70.018  1.00  0.00    -0.162 OA 
HETATM   20  C   UNL     1      -8.267  17.691  68.486  1.00  0.00    -0.292 C  
HETATM   21  C   UNL     1      -8.963  14.234  67.843  1.00  0.00    -0.186 A  
HETATM   22  N   UNL     1      -8.724  16.375  68.106  1.00  0.00    -0.187 NA 
BRANCH  17  23
HETATM   23  C   UNL     1     -10.978  14.414  66.172  1.00  0.00    -0.320 C  
BRANCH  23  24
HETATM   24  C   UNL     1     -11.522  15.449  65.185  1.00  0.00    -0.208 C  
HETATM   25  C   UNL     1     -11.810  14.881  63.801  1.00  0.00     0.379 C  
ENDBRANCH  23  24
ENDBRANCH  17  23
ENDBRANCH   6  11
BRANCH   9  26
HETATM   26  S   UNL     1      -6.783   8.568  72.140  1.00  0.00    -0.060 S  
HETATM   27  O   UNL     1      -8.132   8.433  72.637  1.00  0.00    -0.226 OA 
HETATM   28  O   UNL     1      -5.756   9.296  72.848  1.00  0.00    -0.223 OA 
BRANCH  26  29
HETATM   29  N   UNL     1      -6.220   6.980  71.845  1.00  0.00    -0.038 N  
HETATM   30  H   UNL     1      -5.303   6.669  72.166  1.00  0.00     0.000 HD 
BRANCH  29  31
HETATM   31  C   UNL     1      -7.129   6.082  71.105  1.00  0.00    -0.073 C  
BRANCH  31  32
HETATM   32  C   UNL     1      -8.553   6.128  71.649  1.00  0.00    -0.134 C  
BRANCH  32  33
HETATM   33  C   UNL     1      -8.934   4.762  72.250  1.00  0.00    -0.126 C  
HETATM   34  C   UNL     1      -9.416   3.764  71.199  1.00  0.00    -0.236 C  
HETATM   35  C   UNL     1      -9.181   2.431  71.868  1.00  0.00    -0.157 C  
HETATM   36  C   UNL     1      -7.660   4.406  74.299  1.00  0.00    -0.077 C  
HETATM   37  N   UNL     1      -7.779   4.097  72.877  1.00  0.00    -0.079 NA 
HETATM   38  C   UNL     1      -7.895   2.648  72.645  1.00  0.00    -0.054 C  
ENDBRANCH  32  33
ENDBRANCH  31  32
ENDBRANCH  29  31
ENDBRANCH  26  29
ENDBRANCH   9  26
ENDBRANCH   4   5
ENDBRANCH   3   4
ENDBRANCH   2   3
TORSDOF 11
ENDMDL
MODEL      290
REMARK 921   NORMALIZED FREE ENERGY PREDICTED BY IDOCK:    0.02 KCAL/MOL
REMARK 922        TOTAL FREE ENERGY PREDICTED BY IDOCK:   -2.20 KCAL/MOL
REMARK 923 INTER-LIGAND FREE ENERGY PREDICTED BY IDOCK:   -0.83 KCAL/MOL
REMARK 924 INTRA-LIGAND FREE ENERGY PREDICTED BY IDOCK:   -1.38 KCAL/MOL
REMARK 927      BINDING AFFINITY PREDICTED BY RF-SCORE:    0.00 PKD
ROOT
HETATM    1  C   UNL     1      -6.856  12.758  66.714  1.00  0.00     0.673 C  
HETATM    2  C   UNL     1      -6.330  11.342  66.864  1.00  0.00    -0.137 C  
ENDROOT
BRANCH   2   3
HETATM    3  C   UNL     1      -5.899  10.739  65.538  1.00  0.00    -0.102 C  
BRANCH   3   4
HETATM    4  O   UNL     1      -6.808   9.721  65.081  1.00  0.00    -0.096 OA 
BRANCH   4   5
HETATM    5  C   UNL     1      -7.233   8.846  66.065  1.00  0.00    -0.089 A  
HETATM    6  C   UNL     1      -8.507   9.013  66.660  1.00  0.00    -0.126 A  
HETATM    7  C   UNL     1      -8.898   8.152  67.714  1.00  0.00    -0.130 A  
HETATM    8  C   UNL     1      -6.407   7.808  66.519  1.00  0.00    -0.046 A  
HETATM    9  C   UNL     1      -8.023   7.159  68.174  1.00  0.00    -0.119 A  
HETATM   10  C   UNL     1      -6.779   7.006  67.583  1.00  0.00    -0.068 A  
BRANCH   6  11
HETATM   11  C   UNL     1      -9.472  10.104  66.232  1.00  0.00    -0.180 C  
HETATM   12  C   UNL     1     -10.825  10.998  64.535  1.00  0.00    -0.187 C  
HETATM   13  N   UNL     1      -9.922  10.056  65.004  1.00  0.00    -0.344 N  
HETATM   14  H   UNL     1      -9.603   9.314  64.382  1.00  0.00     0.000 HD 
HETATM   15  N   UNL     1      -9.799  11.081  67.161  1.00  0.00    -0.181 NA 
HETATM   16  N   UNL     1     -12.154  13.714  66.597  1.00  0.00    -0.415 NA 
HETATM   17  C   UNL     1     -11.292  13.097  67.423  1.00  0.00    -0.306 A  
HETATM   18  C   UNL     1     -11.199  11.969  65.513  1.00  0.00    -0.321 A  
HETATM   19  O   UNL     1     -11.258  11.000  63.387  1.00  0.00    -0.077 OA 
HETATM   20  C   UNL     1     -12.920  13.380  64.330  1.00  0.00     0.246 C  
HETATM   21  C   UNL     1     -10.691  12.003  66.777  1.00  0.00    -0.243 A  
HETATM   22  N   UNL     1     -12.084  13.002  65.444  1.00  0.00    -0.417 NA 
BRANCH  17  23
HETATM   23  C   UNL     1     -11.098  13.611  68.810  1.00  0.00    -0.302 C  
BRANCH  23  24
HETATM   24  C   UNL     1      -9.632  13.794  69.209  1.00  0.00     0.461 C  
HETATM   25  C   UNL     1      -9.376  15.049  70.035  1.00  0.00     0.305 C  
ENDBRANCH  23  24
ENDBRANCH  17  23
ENDBRANCH   6  11
BRANCH   9  26
HETATM   26  S   UNL     1      -8.425   6.125  69.565  1.00  0.00    -0.121 S  
HETATM   27  O   UNL     1      -8.796   6.997  70.654  1.00  0.00    -0.148 OA 
HETATM   28  O   UNL     1      -7.375   5.138  69.673  1.00  0.00    -0.058 OA 
BRANCH  26  29
HETATM   29  N   UNL     1      -9.862   5.340  69.069  1.00  0.00    -0.153 N  
HETATM   30  H   UNL     1     -10.210   5.415  68.114  1.00  0.00     0.000 HD 
BRANCH  29  31
HETATM   31  C   UNL     1     -10.571   4.548  70.094  1.00  0.00     0.606 C  
BRANCH  31  32
HETATM   32  C   UNL     1     -11.648   5.360  70.805  1.00  0.00     0.918 C  
BRANCH  32  33
HETATM   33  C   UNL     1     -11.356   5.417  72.316  1.00  0.00    -0.134 C  
HETATM   34  C   UNL     1     -10.071   4.688  72.701  1.00  0.00    -0.224 C  
HETATM   35  C   UNL     1      -9.701   5.329  74.017  1.00  0.00    -0.164 C  
HETATM   36  C   UNL     1     -12.370   7.430  73.251  1.00  0.00     1.438 C  
HETATM   37  N   UNL     1     -11.140   6.799  72.781  1.00  0.00    -0.263 NA 
HETATM   38  C   UNL     1     -10.106   6.780  73.829  1.00  0.00    -0.321 C  
ENDBRANCH  32  33
ENDBRANCH  31  32
ENDBRANCH  29  31
ENDBRANCH  26  29
ENDBRANCH   9  26
ENDBRANCH   4   5
ENDBRANCH   3   4
ENDBRANCH   2   3
TORSDOF 11
ENDMDL
MODEL      291
REMARK 921   NORMALIZED FREE ENERGY PREDICTED BY IDOCK:    0.37 KCAL/MOL
REMARK 922        TOTAL FREE ENERGY PREDICTED BY IDOCK:   -1.63 KCAL/MOL
REMARK 923 INTER-LIGAND FREE ENERGY PREDICTED BY IDOCK:   -0.60 KCAL/MOL
REMARK 924 INTRA-LIGAND FREE ENERGY PREDICTED BY IDOCK:   -1.03 KCAL/MOL
REMARK 927      BINDING AFFINITY PREDICTED BY RF-SCORE:    0.00 PKD
ROOT
HETATM    1  C   UNL     1     -11.947  14.249  67.677  1.00  0.00    -0.400 C  
HETATM    2  C   UNL     1     -12.800  13.483  68.671  1.00  0.00     1.360 C  
ENDROOT
BRANCH   2   3
HETATM    3  C   UNL     1     -12.485  13.852  70.112  1.00  0.00    -0.292 C  
BRANCH   3   4
HETATM    4  O   UNL     1     -11.259  13.254  70.572  1.00  0.00     0.381 OA 
BRANCH   4   5
HETATM    5  C   UNL     1     -11.161  11.894  70.340  1.00  0.00     0.941 A  
HETATM    6  C   UNL     1     -10.118  11.388  69.526  1.00  0.00     0.290 A  
HETATM    7  C   UNL     1     -10.071  10.002  69.240  1.00  0.00    -0.226 A  
HETATM    8  C   UNL     1     -12.102  10.998  70.865  1.00  0.00    -0.444 A  
HETATM    9  C   UNL     1     -11.061   9.146  69.743  1.00  0.00    -0.125 A  
HETATM   10  C   UNL     1     -12.077   9.654  70.538  1.00  0.00    -0.198 A  
BRANCH   6  11
HETATM   11  C   UNL     1      -9.050  12.279  68.917  1.00  0.00     0.279 C  
HETATM   12  C   UNL     1      -8.285  14.462  68.515  1.00  0.00    -0.151 C  
HETATM   13  N   UNL     1      -9.221  13.573  69.021  1.00  0.00    -0.353 N  
HETATM   14  H   UNL     1     -10.057  13.933  69.481  1.00  0.00     0.000 HD 
HETATM   15  N   UNL     1      -7.979  11.667  68.284  1.00  0.00    -0.136 NA 
HETATM   16  N   UNL     1      -5.186  13.405  66.877  1.00  0.00     0.299 NA 
HETATM   17  C   UNL     1      -5.801  12.242  67.148  1.00  0.00    -0.111 A  
HETATM   18  C   UNL     1      -7.158  13.824  67.912  1.00  0.00    -0.158 A  
HETATM   19  O   UNL     1      -8.414  15.680  68.574  1.00  0.00    -0.161 OA 
HETATM   20  C   UNL     1      -5.661  15.743  67.259  1.00  0.00     0.114 C  
HETATM   21  C   UNL     1      -7.025  12.473  67.800  1.00  0.00    -0.121 A  
HETATM   22  N   UNL     1      -6.031  14.352  67.360  1.00  0.00    -0.312 NA 
BRANCH  17  23
HETATM   23  C   UNL     1      -5.158  10.955  66.755  1.00  0.00    -0.061 C  
BRANCH  23  24
HETATM   24  C   UNL     1      -5.908  10.188  65.663  1.00  0.00    -0.079 C  
HETATM   25  C   UNL     1      -5.195   8.921  65.207  1.00  0.00    -0.038 C  
ENDBRANCH  23  24
ENDBRANCH  17  23
ENDBRANCH   6  11
BRANCH   9  26
HETATM   26  S   UNL     1     -11.108   7.417  69.324  1.00  0.00     0.102 S  
HETATM   27  O   UNL     1     -10.950   7.319  67.892  1.00  0.00    -0.144 OA 
HETATM   28  O   UNL     1     -12.229   6.843  70.031  1.00  0.00    -0.118 OA 
BRANCH  26  29
HETATM   29  N   UNL     1      -9.663   6.808  70.008  1.00  0.00    -0.163 N  
HETATM   30  H   UNL     1      -9.642   5.922  70.514  1.00  0.00     0.000 HD 
BRANCH  29  31
HETATM   31  C   UNL     1      -8.448   7.628  69.829  1.00  0.00    -0.134 C  
BRANCH  31  32
HETATM   32  C   UNL     1      -7.224   6.778  69.502  1.00  0.00    -0.081 C  
BRANCH  32  33
HETATM   33  C   UNL     1      -7.483   5.945  68.232  1.00  0.00    -0.085 C  
HETATM   34  C   UNL     1      -7.327   6.756  66.948  1.00  0.00    -0.082 C  
HETATM   35  C   UNL     1      -7.058   5.694  65.909  1.00  0.00    -0.067 C  
HETATM   36  C   UNL     1      -6.974   3.605  68.694  1.00  0.00    -0.050 C  
HETATM   37  N   UNL     1      -6.509   4.849  68.088  1.00  0.00    -0.040 NA 
HETATM   38  C   UNL     1      -6.213   4.677  66.656  1.00  0.00    -0.032 C  
ENDBRANCH  32  33
ENDBRANCH  31  32
ENDBRANCH  29  31
ENDBRANCH  26  29
ENDBRANCH   9  26
ENDBRANCH   4   5
ENDBRANCH   3   4
ENDBRANCH   2   3
TORSDOF 11
ENDMDL
MODEL      292
REMARK 921   NORMALIZED FREE ENERGY PREDICTED BY IDOCK:    0.47 KCAL/MOL
REMARK 922        TOTAL FREE ENERGY PREDICTED BY IDOCK:   -1.46 KCAL/MOL
REMARK 923 INTER-LIGAND FREE ENERGY PREDICTED BY IDOCK:   -4.80 KCAL/MOL
REMARK 924 INTRA-LIGAND FREE ENERGY PREDICTED BY IDOCK:    3.34 KCAL/MOL
REMARK 927      BINDING AFFINITY PREDICTED BY RF-SCORE:    0.00 PKD
ROOT
HETATM    1  C   UNL     1     -10.199  15.674  64.645  1.00  0.00     0.462 C  
HETATM    2  C   UNL     1     -11.487  15.026  64.171  1.00  0.00     0.000 C  
ENDROOT
BRANCH   2   3
HETATM    3  C   UNL     1     -11.698  13.646  64.773  1.00  0.00    -0.377 C  
BRANCH   3   4
HETATM    4  O   UNL     1     -11.235  13.569  66.134  1.00  0.00    -0.291 OA 
BRANCH   4   5
HETATM    5  C   UNL     1     -10.204  12.669  66.340  1.00  0.00    -0.251 A  
HETATM    6  C   UNL     1      -8.952  13.123  66.821  1.00  0.00    -0.183 A  
HETATM    7  C   UNL     1      -7.886  12.201  66.960  1.00  0.00    -0.123 A  
HETATM    8  C   UNL     1     -10.360  11.308  66.043  1.00  0.00    -0.302 A  
HETATM    9  C   UNL     1      -8.067  10.858  66.604  1.00  0.00    -0.147 A  
HETATM   10  C   UNL     1      -9.297  10.426  66.134  1.00  0.00    -0.210 A  
BRANCH   6  11
HETATM   11  C   UNL     1      -8.691  14.577  67.173  1.00  0.00    -0.219 C  
HETATM   12  C   UNL     1      -9.422  16.805  67.061  1.00  0.00    -0.232 C  
HETATM   13  N   UNL     1      -9.568  15.458  66.765  1.00  0.00    -0.231 N  
HETATM   14  H   UNL     1     -10.373  15.150  66.219  1.00  0.00     0.000 HD 
HETATM   15  N   UNL     1      -7.540  14.873  67.888  1.00  0.00    -0.122 NA 
HETATM   16  N   UNL     1      -6.653  18.139  69.050  1.00  0.00    -0.244 NA 
HETATM   17  C   UNL     1      -6.367  16.828  68.968  1.00  0.00    -0.187 A  
HETATM   18  C   UNL     1      -8.263  17.096  67.844  1.00  0.00    -0.202 A  
HETATM   19  O   UNL     1     -10.210  17.666  66.684  1.00  0.00    -0.317 OA 
HETATM   20  C   UNL     1      -8.436  19.573  68.275  1.00  0.00    -0.340 C  
HETATM   21  C   UNL     1      -7.357  16.155  68.231  1.00  0.00    -0.140 A  
HETATM   22  N   UNL     1      -7.816  18.272  68.364  1.00  0.00    -0.296 NA 
BRANCH  17  23
HETATM   23  C   UNL     1      -5.134  16.296  69.618  1.00  0.00    -0.121 C  
BRANCH  23  24
HETATM   24  C   UNL     1      -5.373  15.076  70.510  1.00  0.00    -0.131 C  
HETATM   25  C   UNL     1      -6.804  14.962  71.020  1.00  0.00     0.777 C  
ENDBRANCH  23  24
ENDBRANCH  17  23
ENDBRANCH   6  11
BRANCH   9  26
HETATM   26  S   UNL     1      -6.730   9.685  66.658  1.00  0.00    -0.080 S  
HETATM   27  O   UNL     1      -5.940   9.990  67.828  1.00  0.00    -0.049 OA 
HETATM   28  O   UNL     1      -6.170   9.624  65.328  1.00  0.00    -0.071 OA 
BRANCH  26  29
HETATM   29  N   UNL     1      -7.520   8.203  66.986  1.00  0.00    -0.087 N  
HETATM   30  H   UNL     1      -8.528   8.154  67.131  1.00  0.00     0.000 HD 
BRANCH  29  31
HETATM   31  C   UNL     1      -6.667   6.998  67.047  1.00  0.00    -0.059 C  
BRANCH  31  32
HETATM   32  C   UNL     1      -7.282   5.821  66.297  1.00  0.00    -0.077 C  
BRANCH  32  33
HETATM   33  C   UNL     1      -8.404   5.186  67.139  1.00  0.00    -0.107 C  
HETATM   34  C   UNL     1      -8.558   5.836  68.512  1.00  0.00    -0.109 C  
HETATM   35  C   UNL     1      -9.978   5.489  68.892  1.00  0.00    -0.236 C  
HETATM   36  C   UNL     1     -10.082   4.233  65.646  1.00  0.00    -0.219 C  
HETATM   37  N   UNL     1      -9.725   5.355  66.509  1.00  0.00    -0.153 NA 
HETATM   38  C   UNL     1     -10.724   5.560  67.572  1.00  0.00    -0.126 C  
ENDBRANCH  32  33
ENDBRANCH  31  32
ENDBRANCH  29  31
ENDBRANCH  26  29
ENDBRANCH   9  26
ENDBRANCH   4   5
ENDBRANCH   3   4
ENDBRANCH   2   3
TORSDOF 11
ENDMDL
MODEL      293
REMARK 921   NORMALIZED FREE ENERGY PREDICTED BY IDOCK:    1.50 KCAL/MOL
REMARK 922        TOTAL FREE ENERGY PREDICTED BY IDOCK:    0.24 KCAL/MOL
REMARK 923 INTER-LIGAND FREE ENERGY PREDICTED BY IDOCK:   -4.23 KCAL/MOL
REMARK 924 INTRA-LIGAND FREE ENERGY PREDICTED BY IDOCK:    4.47 KCAL/MOL
REMARK 927      BINDING AFFINITY PREDICTED BY RF-SCORE:    0.00 PKD
ROOT
HETATM    1  C   UNL     1      -7.899  11.923  68.805  1.00  0.00    -0.052 C  
HETATM    2  C   UNL     1      -9.171  12.751  68.812  1.00  0.00     0.159 C  
ENDROOT
BRANCH   2   3
HETATM    3  C   UNL     1     -10.024  12.514  67.576  1.00  0.00    -0.201 C  
BRANCH   3   4
HETATM    4  O   UNL     1     -10.240  11.114  67.323  1.00  0.00    -0.184 OA 
BRANCH   4   5
HETATM    5  C   UNL     1     -10.665  10.389  68.422  1.00  0.00    -0.225 A  
HETATM    6  C   UNL     1     -10.388   9.003  68.507  1.00  0.00    -0.233 A  
HETATM    7  C   UNL     1     -10.890   8.261  69.605  1.00  0.00    -0.154 A  
HETATM    8  C   UNL     1     -11.406  10.994  69.448  1.00  0.00    -0.352 A  
HETATM    9  C   UNL     1     -11.669   8.893  70.583  1.00  0.00    -0.179 A  
HETATM   10  C   UNL     1     -11.934  10.250  70.488  1.00  0.00    -0.415 A  
BRANCH   6  11
HETATM   11  C   UNL     1      -9.590   8.262  67.449  1.00  0.00    -0.160 C  
HETATM   12  C   UNL     1      -8.783   6.206  66.655  1.00  0.00    -0.124 C  
HETATM   13  N   UNL     1      -9.475   6.965  67.586  1.00  0.00    -0.123 N  
HETATM   14  H   UNL     1      -9.900   6.506  68.391  1.00  0.00     0.000 HD 
HETATM   15  N   UNL     1      -9.029   9.007  66.422  1.00  0.00    -0.147 NA 
HETATM   16  N   UNL     1      -7.226   7.622  63.659  1.00  0.00    -0.074 NA 
HETATM   17  C   UNL     1      -7.720   8.702  64.287  1.00  0.00    -0.128 A  
HETATM   18  C   UNL     1      -8.254   6.972  65.571  1.00  0.00    -0.135 A  
HETATM   19  O   UNL     1      -8.636   4.992  66.753  1.00  0.00    -0.110 OA 
HETATM   20  C   UNL     1      -7.217   5.240  64.063  1.00  0.00    -0.050 C  
HETATM   21  C   UNL     1      -8.373   8.326  65.474  1.00  0.00    -0.155 A  
HETATM   22  N   UNL     1      -7.572   6.581  64.459  1.00  0.00    -0.094 NA 
BRANCH  17  23
HETATM   23  C   UNL     1      -7.530  10.057  63.692  1.00  0.00    -0.137 C  
BRANCH  23  24
HETATM   24  C   UNL     1      -7.316  11.169  64.721  1.00  0.00     0.835 C  
HETATM   25  C   UNL     1      -5.883  11.262  65.231  1.00  0.00     0.590 C  
ENDBRANCH  23  24
ENDBRANCH  17  23
ENDBRANCH   6  11
BRANCH   9  26
HETATM   26  S   UNL     1     -12.412   7.985  71.921  1.00  0.00    -0.335 S  
HETATM   27  O   UNL     1     -13.768   7.679  71.530  1.00  0.00    -0.373 OA 
HETATM   28  O   UNL     1     -12.088   8.690  73.140  1.00  0.00    -0.011 OA 
BRANCH  26  29
HETATM   29  N   UNL     1     -11.563   6.500  71.908  1.00  0.00    -0.297 N  
HETATM   30  H   UNL     1     -11.724   5.785  72.618  1.00  0.00     0.000 HD 
BRANCH  29  31
HETATM   31  C   UNL     1     -10.586   6.306  70.818  1.00  0.00    -0.243 C  
BRANCH  31  32
HETATM   32  C   UNL     1     -10.072   4.871  70.755  1.00  0.00    -0.303 C  
BRANCH  32  33
HETATM   33  C   UNL     1     -10.367   4.146  72.082  1.00  0.00    -0.102 C  
HETATM   34  C   UNL     1      -9.694   2.778  72.174  1.00  0.00    -0.223 C  
HETATM   35  C   UNL     1      -9.631   2.533  73.663  1.00  0.00    -0.117 C  
HETATM   36  C   UNL     1     -10.822   5.802  73.815  1.00  0.00    -0.134 C  
HETATM   37  N   UNL     1      -9.840   4.887  73.241  1.00  0.00    -0.146 NA 
HETATM   38  C   UNL     1      -9.360   3.913  74.236  1.00  0.00    -0.098 C  
ENDBRANCH  32  33
ENDBRANCH  31  32
ENDBRANCH  29  31
ENDBRANCH  26  29
ENDBRANCH   9  26
ENDBRANCH   4   5
ENDBRANCH   3   4
ENDBRANCH   2   3
TORSDOF 11
ENDMDL
MODEL      294
REMARK 921   NORMALIZED FREE ENERGY PREDICTED BY IDOCK:    1.91 KCAL/MOL
REMARK 922        TOTAL FREE ENERGY PREDICTED BY IDOCK:    0.91 KCAL/MOL
REMARK 923 INTER-LIGAND FREE ENERGY PREDICTED BY IDOCK:   -2.05 KCAL/MOL
REMARK 924 INTRA-LIGAND FREE ENERGY PREDICTED BY IDOCK:    2.96 KCAL/MOL
REMARK 927      BINDING AFFINITY PREDICTED BY RF-SCORE:    0.00 PKD
ROOT
HETATM    1  C   UNL     1      -7.371   7.940  71.533  1.00  0.00    -0.068 C  
HETATM    2  C   UNL     1      -6.144   7.430  70.799  1.00  0.00    -0.035 C  
ENDROOT
BRANCH   2   3
HETATM    3  C   UNL     1      -6.502   6.593  69.582  1.00  0.00    -0.044 C  
BRANCH   3   4
HETATM    4  O   UNL     1      -5.420   5.736  69.172  1.00  0.00    -0.004 OA 
BRANCH   4   5
HETATM    5  C   UNL     1      -5.581   5.163  67.924  1.00  0.00    -0.013 A  
HETATM    6  C   UNL     1      -6.246   5.877  66.897  1.00  0.00    -0.030 A  
HETATM    7  C   UNL     1      -6.465   5.249  65.646  1.00  0.00    -0.040 A  
HETATM    8  C   UNL     1      -5.133   3.861  67.660  1.00  0.00    -0.008 A  
HETATM    9  C   UNL     1      -6.046   3.928  65.439  1.00  0.00    -0.024 A  
HETATM   10  C   UNL     1      -5.398   3.240  66.452  1.00  0.00    -0.013 A  
BRANCH   6  11
HETATM   11  C   UNL     1      -6.762   7.292  67.087  1.00  0.00    -0.068 C  
HETATM   12  C   UNL     1      -6.443   9.585  66.703  1.00  0.00    -0.067 C  
HETATM   13  N   UNL     1      -6.036   8.264  66.596  1.00  0.00    -0.052 N  
HETATM   14  H   UNL     1      -5.157   8.046  66.127  1.00  0.00     0.000 HD 
HETATM   15  N   UNL     1      -7.954   7.458  67.776  1.00  0.00    -0.117 NA 
HETATM   16  N   UNL     1      -9.582  10.604  68.288  1.00  0.00    -0.157 NA 
HETATM   17  C   UNL     1      -9.571   9.271  68.459  1.00  0.00    -0.147 A  
HETATM   18  C   UNL     1      -7.698   9.746  67.367  1.00  0.00    -0.095 A  
HETATM   19  O   UNL     1      -5.786  10.527  66.273  1.00  0.00    -0.065 OA 
HETATM   20  C   UNL     1      -8.135  12.224  67.232  1.00  0.00    -0.182 C  
HETATM   21  C   UNL     1      -8.415   8.711  67.887  1.00  0.00    -0.129 A  
HETATM   22  N   UNL     1      -8.433  10.865  67.613  1.00  0.00    -0.122 NA 
BRANCH  17  23
HETATM   23  C   UNL     1     -10.698   8.606  69.176  1.00  0.00    -0.136 C  
BRANCH  23  24
HETATM   24  C   UNL     1     -10.961   9.161  70.578  1.00  0.00    -0.307 C  
HETATM   25  C   UNL     1     -11.825   8.252  71.443  1.00  0.00    -0.330 C  
ENDBRANCH  23  24
ENDBRANCH  17  23
ENDBRANCH   6  11
BRANCH   9  26
HETATM   26  S   UNL     1      -6.394   3.060  63.925  1.00  0.00    -0.023 S  
HETATM   27  O   UNL     1      -5.484   1.942  63.853  1.00  0.00    -0.007 OA 
HETATM   28  O   UNL     1      -6.497   4.055  62.883  1.00  0.00    -0.021 OA 
BRANCH  26  29
HETATM   29  N   UNL     1      -7.947   2.397  64.200  1.00  0.00    -0.076 N  
HETATM   30  H   UNL     1      -8.624   2.289  63.445  1.00  0.00     0.000 HD 
BRANCH  29  31
HETATM   31  C   UNL     1      -8.256   1.987  65.584  1.00  0.00    -0.088 C  
BRANCH  31  32
HETATM   32  C   UNL     1      -8.371   3.181  66.526  1.00  0.00    -0.100 C  
BRANCH  32  33
HETATM   33  C   UNL     1      -9.743   3.860  66.353  1.00  0.00    -0.162 C  
HETATM   34  C   UNL     1     -10.148   4.697  67.565  1.00  0.00    -0.131 C  
HETATM   35  C   UNL     1     -11.152   5.664  66.985  1.00  0.00     0.054 C  
HETATM   36  C   UNL     1     -10.169   4.211  63.977  1.00  0.00    -0.084 C  
HETATM   37  N   UNL     1      -9.744   4.818  65.235  1.00  0.00    -0.129 NA 
HETATM   38  C   UNL     1     -10.600   5.959  65.602  1.00  0.00     0.964 C  
ENDBRANCH  32  33
ENDBRANCH  31  32
ENDBRANCH  29  31
ENDBRANCH  26  29
ENDBRANCH   9  26
ENDBRANCH   4   5
ENDBRANCH   3   4
ENDBRANCH   2   3
TORSDOF 11
ENDMDL
MODEL      295
REMARK 921   NORMALIZED FREE ENERGY PREDICTED BY IDOCK:    1.96 KCAL/MOL
REMARK 922        TOTAL FREE ENERGY PREDICTED BY IDOCK:    0.99 KCAL/MOL
REMARK 923 INTER-LIGAND FREE ENERGY PREDICTED BY IDOCK:   -4.28 KCAL/MOL
REMARK 924 INTRA-LIGAND FREE ENERGY PREDICTED BY IDOCK:    5.27 KCAL/MOL
REMARK 927      BINDING AFFINITY PREDICTED BY RF-SCORE:    0.00 PKD
ROOT
HETATM    1  C   UNL     1      -7.673  11.167  68.899  1.00  0.00    -0.137 C  
HETATM    2  C   UNL     1      -8.974  11.948  68.927  1.00  0.00     0.160 C  
ENDROOT
BRANCH   2   3
HETATM    3  C   UNL     1      -9.858  11.648  67.727  1.00  0.00    -0.179 C  
BRANCH   3   4
HETATM    4  O   UNL     1      -9.937  10.238  67.449  1.00  0.00    -0.176 OA 
BRANCH   4   5
HETATM    5  C   UNL     1     -10.160   9.444  68.559  1.00  0.00    -0.187 A  
HETATM    6  C   UNL     1      -9.590   8.149  68.631  1.00  0.00    -0.151 A  
HETATM    7  C   UNL     1      -9.886   7.322  69.742  1.00  0.00    -0.177 A  
HETATM    8  C   UNL     1     -10.979   9.879  69.610  1.00  0.00    -0.285 A  
HETATM    9  C   UNL     1     -10.750   7.776  70.747  1.00  0.00    -0.226 A  
HETATM   10  C   UNL     1     -11.302   9.044  70.665  1.00  0.00    -0.311 A  
BRANCH   6  11
HETATM   11  C   UNL     1      -8.687   7.592  67.545  1.00  0.00    -0.125 C  
HETATM   12  C   UNL     1      -8.041   7.640  65.288  1.00  0.00    -0.133 C  
HETATM   13  N   UNL     1      -8.838   8.074  66.336  1.00  0.00    -0.148 N  
HETATM   14  H   UNL     1      -9.554   8.779  66.163  1.00  0.00     0.000 HD 
HETATM   15  N   UNL     1      -7.778   6.607  67.901  1.00  0.00    -0.106 NA 
HETATM   16  N   UNL     1      -5.372   5.164  65.679  1.00  0.00    -0.012 NA 
HETATM   17  C   UNL     1      -5.906   5.236  66.910  1.00  0.00    -0.018 A  
HETATM   18  C   UNL     1      -7.070   6.665  65.673  1.00  0.00    -0.061 A  
HETATM   19  O   UNL     1      -8.160   8.051  64.139  1.00  0.00    -0.144 OA 
HETATM   20  C   UNL     1      -5.763   6.252  63.558  1.00  0.00    -0.022 C  
HETATM   21  C   UNL     1      -6.958   6.168  66.937  1.00  0.00    -0.071 A  
HETATM   22  N   UNL     1      -6.095   6.050  64.948  1.00  0.00    -0.025 NA 
BRANCH  17  23
HETATM   23  C   UNL     1      -5.358   4.385  68.006  1.00  0.00    -0.011 C  
BRANCH  23  24
HETATM   24  C   UNL     1      -6.286   3.248  68.440  1.00  0.00    -0.033 C  
HETATM   25  C   UNL     1      -5.633   2.256  69.395  1.00  0.00    -0.017 C  
ENDBRANCH  23  24
ENDBRANCH  17  23
ENDBRANCH   6  11
BRANCH   9  26
HETATM   26  S   UNL     1     -11.237   6.735  72.106  1.00  0.00    -0.270 S  
HETATM   27  O   UNL     1     -12.496   6.125  71.748  1.00  0.00    -0.147 OA 
HETATM   28  O   UNL     1     -11.055   7.506  73.313  1.00  0.00    -0.378 OA 
BRANCH  26  29
HETATM   29  N   UNL     1     -10.074   5.482  72.078  1.00  0.00    -0.181 N  
HETATM   30  H   UNL     1     -10.048   4.759  72.798  1.00  0.00     0.000 HD 
BRANCH  29  31
HETATM   31  C   UNL     1      -9.108   5.498  70.960  1.00  0.00    -0.144 C  
BRANCH  31  32
HETATM   32  C   UNL     1      -8.236   4.248  70.935  1.00  0.00    -0.082 C  
BRANCH  32  33
HETATM   33  C   UNL     1      -8.405   3.459  72.248  1.00  0.00    -0.079 C  
HETATM   34  C   UNL     1      -7.145   3.465  73.111  1.00  0.00    -0.045 C  
HETATM   35  C   UNL     1      -7.682   3.171  74.492  1.00  0.00    -0.057 C  
HETATM   36  C   UNL     1     -10.759   3.468  72.888  1.00  0.00    -0.094 C  
HETATM   37  N   UNL     1      -9.439   4.051  73.114  1.00  0.00    -0.112 NA 
HETATM   38  C   UNL     1      -9.013   3.901  74.515  1.00  0.00    -0.092 C  
ENDBRANCH  32  33
ENDBRANCH  31  32
ENDBRANCH  29  31
ENDBRANCH  26  29
ENDBRANCH   9  26
ENDBRANCH   4   5
ENDBRANCH   3   4
ENDBRANCH   2   3
TORSDOF 11
ENDMDL
MODEL      296
REMARK 921   NORMALIZED FREE ENERGY PREDICTED BY IDOCK:    2.38 KCAL/MOL
REMARK 922        TOTAL FREE ENERGY PREDICTED BY IDOCK:    1.68 KCAL/MOL
REMARK 923 INTER-LIGAND FREE ENERGY PREDICTED BY IDOCK:   -2.11 KCAL/MOL
REMARK 924 INTRA-LIGAND FREE ENERGY PREDICTED BY IDOCK:    3.79 KCAL/MOL
REMARK 927      BINDING AFFINITY PREDICTED BY RF-SCORE:    0.00 PKD
ROOT
HETATM    1  C   UNL     1     -12.448  14.049  62.917  1.00  0.00     1.253 C  
HETATM    2  C   UNL     1     -13.281  13.987  64.184  1.00  0.00     1.336 C  
ENDROOT
BRANCH   2   3
HETATM    3  C   UNL     1     -12.686  13.054  65.225  1.00  0.00    -0.368 C  
BRANCH   3   4
HETATM    4  O   UNL     1     -11.314  12.723  64.940  1.00  0.00    -0.292 OA 
BRANCH   4   5
HETATM    5  C   UNL     1     -10.384  13.486  65.624  1.00  0.00    -0.297 A  
HETATM    6  C   UNL     1      -9.350  12.853  66.356  1.00  0.00    -0.192 A  
HETATM    7  C   UNL     1      -8.448  13.645  67.108  1.00  0.00    -0.186 A  
HETATM    8  C   UNL     1     -10.466  14.885  65.642  1.00  0.00    -0.366 A  
HETATM    9  C   UNL     1      -8.595  15.039  67.141  1.00  0.00    -0.223 A  
HETATM   10  C   UNL     1      -9.612  15.645  66.421  1.00  0.00    -0.316 A  
BRANCH   6  11
HETATM   11  C   UNL     1      -9.179  11.345  66.392  1.00  0.00    -0.197 C  
HETATM   12  C   UNL     1      -8.793   9.366  65.190  1.00  0.00    -0.195 C  
HETATM   13  N   UNL     1      -8.983  10.738  65.249  1.00  0.00    -0.191 N  
HETATM   14  H   UNL     1      -8.970  11.283  64.387  1.00  0.00     0.000 HD 
HETATM   15  N   UNL     1      -9.254  10.714  67.625  1.00  0.00    -0.146 NA 
HETATM   16  N   UNL     1      -8.740   7.212  68.151  1.00  0.00    -0.128 NA 
HETATM   17  C   UNL     1      -9.004   8.427  68.661  1.00  0.00    -0.140 A  
HETATM   18  C   UNL     1      -8.818   8.729  66.469  1.00  0.00    -0.131 A  
HETATM   19  O   UNL     1      -8.625   8.755  64.140  1.00  0.00    -0.158 OA 
HETATM   20  C   UNL     1      -8.307   6.317  65.949  1.00  0.00    -0.142 C  
HETATM   21  C   UNL     1      -9.049   9.391  67.638  1.00  0.00    -0.121 A  
HETATM   22  N   UNL     1      -8.624   7.427  66.815  1.00  0.00    -0.123 NA 
BRANCH  17  23
HETATM   23  C   UNL     1      -9.199   8.587  70.131  1.00  0.00    -0.159 C  
BRANCH  23  24
HETATM   24  C   UNL     1      -8.542   7.492  70.973  1.00  0.00    -0.132 C  
HETATM   25  C   UNL     1      -7.032   7.403  70.789  1.00  0.00    -0.055 C  
ENDBRANCH  23  24
ENDBRANCH  17  23
ENDBRANCH   6  11
BRANCH   9  26
HETATM   26  S   UNL     1      -7.556  16.067  68.156  1.00  0.00    -0.140 S  
HETATM   27  O   UNL     1      -7.288  17.274  67.409  1.00  0.00    -0.157 OA 
HETATM   28  O   UNL     1      -6.509  15.221  68.680  1.00  0.00    -0.091 OA 
BRANCH  26  29
HETATM   29  N   UNL     1      -8.587  16.519  69.444  1.00  0.00    -0.045 N  
HETATM   30  H   UNL     1      -8.745  15.906  70.244  1.00  0.00     0.000 HD 
BRANCH  29  31
HETATM   31  C   UNL     1      -9.237  17.841  69.339  1.00  0.00     0.375 C  
BRANCH  31  32
HETATM   32  C   UNL     1      -8.533  18.750  68.336  1.00  0.00    -0.374 C  
BRANCH  32  33
HETATM   33  C   UNL     1      -7.349  19.467  69.012  1.00  0.00    -0.360 C  
HETATM   34  C   UNL     1      -7.733  20.132  70.332  1.00  0.00     1.031 C  
HETATM   35  C   UNL     1      -6.409  20.246  71.049  1.00  0.00    -0.092 C  
HETATM   36  C   UNL     1      -5.269  18.391  68.332  1.00  0.00    -0.169 C  
HETATM   37  N   UNL     1      -6.276  18.527  69.379  1.00  0.00    -0.256 NA 
HETATM   38  C   UNL     1      -5.681  18.975  70.649  1.00  0.00    -0.159 C  
ENDBRANCH  32  33
ENDBRANCH  31  32
ENDBRANCH  29  31
ENDBRANCH  26  29
ENDBRANCH   9  26
ENDBRANCH   4   5
ENDBRANCH   3   4
ENDBRANCH   2   3
TORSDOF 11
ENDMDL
MODEL      297
REMARK 921   NORMALIZED FREE ENERGY PREDICTED BY IDOCK:    2.72 KCAL/MOL
REMARK 922        TOTAL FREE ENERGY PREDICTED BY IDOCK:    2.23 KCAL/MOL
REMARK 923 INTER-LIGAND FREE ENERGY PREDICTED BY IDOCK:    1.32 KCAL/MOL
REMARK 924 INTRA-LIGAND FREE ENERGY PREDICTED BY IDOCK:    0.91 KCAL/MOL
REMARK 927      BINDING AFFINITY PREDICTED BY RF-SCORE:    0.00 PKD
ROOT
HETATM    1  C   UNL     1     -12.028  14.758  67.036  1.00  0.00    -0.225 C  
HETATM    2  C   UNL     1     -13.238  14.332  67.848  1.00  0.00     3.339 C  
ENDROOT
BRANCH   2   3
HETATM    3  C   UNL     1     -13.323  15.052  69.184  1.00  0.00     2.080 C  
BRANCH   3   4
HETATM    4  O   UNL     1     -12.292  14.630  70.096  1.00  0.00    -0.318 OA 
BRANCH   4   5
HETATM    5  C   UNL     1     -11.939  13.298  69.989  1.00  0.00    -0.329 A  
HETATM    6  C   UNL     1     -10.686  12.940  69.433  1.00  0.00     0.144 A  
HETATM    7  C   UNL     1     -10.368  11.570  69.265  1.00  0.00    -0.010 A  
HETATM    8  C   UNL     1     -12.817  12.279  70.385  1.00  0.00     0.177 A  
HETATM    9  C   UNL     1     -11.295  10.582  69.627  1.00  0.00    -0.281 A  
HETATM   10  C   UNL     1     -12.517  10.946  70.169  1.00  0.00    -0.356 A  
BRANCH   6  11
HETATM   11  C   UNL     1      -9.668  13.971  68.980  1.00  0.00     0.056 C  
HETATM   12  C   UNL     1      -9.229  16.208  68.421  1.00  0.00    -0.203 C  
HETATM   13  N   UNL     1     -10.094  15.197  68.811  1.00  0.00    -0.219 N  
HETATM   14  H   UNL     1     -11.078  15.412  68.968  1.00  0.00     0.000 HD 
HETATM   15  N   UNL     1      -8.366  13.544  68.764  1.00  0.00    -0.009 NA 
HETATM   16  N   UNL     1      -5.649  15.688  67.857  1.00  0.00    -0.130 NA 
HETATM   17  C   UNL     1      -6.094  14.456  68.155  1.00  0.00    -0.137 A  
HETATM   18  C   UNL     1      -7.879  15.773  68.253  1.00  0.00    -0.129 A  
HETATM   19  O   UNL     1      -9.589  17.366  68.234  1.00  0.00    -0.270 OA 
HETATM   20  C   UNL     1      -6.631  17.889  67.693  1.00  0.00    -0.183 C  
HETATM   21  C   UNL     1      -7.475  14.481  68.414  1.00  0.00    -0.116 A  
HETATM   22  N   UNL     1      -6.755  16.471  67.932  1.00  0.00    -0.133 NA 
BRANCH  17  23
HETATM   23  C   UNL     1      -5.142  13.308  68.171  1.00  0.00    -0.100 C  
BRANCH  23  24
HETATM   24  C   UNL     1      -5.503  12.180  67.202  1.00  0.00    -0.105 C  
HETATM   25  C   UNL     1      -6.474  11.160  67.785  1.00  0.00    -0.063 C  
ENDBRANCH  23  24
ENDBRANCH  17  23
ENDBRANCH   6  11
BRANCH   9  26
HETATM   26  S   UNL     1     -10.986   8.854  69.335  1.00  0.00     0.037 S  
HETATM   27  O   UNL     1     -10.733   8.697  67.922  1.00  0.00    -0.194 OA 
HETATM   28  O   UNL     1     -12.015   8.119  70.034  1.00  0.00     0.276 OA 
BRANCH  26  29
HETATM   29  N   UNL     1      -9.492   8.583  70.122  1.00  0.00    -0.163 N  
HETATM   30  H   UNL     1      -9.268   9.027  71.013  1.00  0.00     0.000 HD 
BRANCH  29  31
HETATM   31  C   UNL     1      -8.544   7.673  69.448  1.00  0.00    -0.136 C  
BRANCH  31  32
HETATM   32  C   UNL     1      -7.852   6.734  70.431  1.00  0.00    -0.109 C  
BRANCH  32  33
HETATM   33  C   UNL     1      -8.897   5.872  71.164  1.00  0.00    -0.136 C  
HETATM   34  C   UNL     1      -8.644   4.373  71.009  1.00  0.00    -0.113 C  
HETATM   35  C   UNL     1      -9.369   3.786  72.197  1.00  0.00    -0.182 C  
HETATM   36  C   UNL     1      -9.800   7.136  73.044  1.00  0.00    -0.195 C  
HETATM   37  N   UNL     1      -8.869   6.095  72.619  1.00  0.00    -0.124 NA 
HETATM   38  C   UNL     1      -9.144   4.814  73.291  1.00  0.00    -0.115 C  
ENDBRANCH  32  33
ENDBRANCH  31  32
ENDBRANCH  29  31
ENDBRANCH  26  29
ENDBRANCH   9  26
ENDBRANCH   4   5
ENDBRANCH   3   4
ENDBRANCH   2   3
TORSDOF 11
ENDMDL
MODEL      298
REMARK 921   NORMALIZED FREE ENERGY PREDICTED BY IDOCK:    2.88 KCAL/MOL
REMARK 922        TOTAL FREE ENERGY PREDICTED BY IDOCK:    2.50 KCAL/MOL
REMARK 923 INTER-LIGAND FREE ENERGY PREDICTED BY IDOCK:    1.45 KCAL/MOL
REMARK 924 INTRA-LIGAND FREE ENERGY PREDICTED BY IDOCK:    1.05 KCAL/MOL
REMARK 927      BINDING AFFINITY PREDICTED BY RF-SCORE:    0.00 PKD
ROOT
HETATM    1  C   UNL     1     -14.075  11.350  62.707  1.00  0.00     4.276 C  
HETATM    2  C   UNL     1     -12.581  11.474  62.940  1.00  0.00     0.512 C  
ENDROOT
BRANCH   2   3
HETATM    3  C   UNL     1     -12.081  12.898  62.757  1.00  0.00     0.736 C  
BRANCH   3   4
HETATM    4  O   UNL     1     -10.766  13.090  63.311  1.00  0.00    -0.015 OA 
BRANCH   4   5
HETATM    5  C   UNL     1     -10.403  12.157  64.266  1.00  0.00    -0.334 A  
HETATM    6  C   UNL     1      -9.849  12.584  65.497  1.00  0.00    -0.197 A  
HETATM    7  C   UNL     1      -9.417  11.616  66.437  1.00  0.00    -0.232 A  
HETATM    8  C   UNL     1     -10.535  10.783  64.025  1.00  0.00    -0.287 A  
HETATM    9  C   UNL     1      -9.520  10.250  66.137  1.00  0.00    -0.181 A  
HETATM   10  C   UNL     1     -10.063   9.846  64.928  1.00  0.00    -0.055 A  
BRANCH   6  11
HETATM   11  C   UNL     1      -9.671  14.050  65.850  1.00  0.00    -0.225 C  
HETATM   12  C   UNL     1     -10.505  16.239  65.698  1.00  0.00    -0.368 C  
HETATM   13  N   UNL     1     -10.576  14.886  65.405  1.00  0.00    -0.343 N  
HETATM   14  H   UNL     1     -11.345  14.536  64.834  1.00  0.00     0.000 HD 
HETATM   15  N   UNL     1      -8.561  14.405  66.602  1.00  0.00    -0.108 NA 
HETATM   16  N   UNL     1      -7.876  17.716  67.773  1.00  0.00    -0.206 NA 
HETATM   17  C   UNL     1      -7.524  16.421  67.710  1.00  0.00    -0.142 A  
HETATM   18  C   UNL     1      -9.390  16.590  66.518  1.00  0.00    -0.269 A  
HETATM   19  O   UNL     1     -11.321  17.059  65.288  1.00  0.00     0.069 OA 
HETATM   20  C   UNL     1      -9.698  19.058  66.927  1.00  0.00    -0.324 C  
HETATM   21  C   UNL     1      -8.453  15.696  66.943  1.00  0.00    -0.251 A  
HETATM   22  N   UNL     1      -9.020  17.789  67.046  1.00  0.00    -0.246 NA 
BRANCH  17  23
HETATM   23  C   UNL     1      -6.290  15.953  68.405  1.00  0.00    -0.110 C  
BRANCH  23  24
HETATM   24  C   UNL     1      -6.536  15.396  69.809  1.00  0.00    -0.171 C  
HETATM   25  C   UNL     1      -5.686  14.175  70.139  1.00  0.00    -0.130 C  
ENDBRANCH  23  24
ENDBRANCH  17  23
ENDBRANCH   6  11
BRANCH   9  26
HETATM   26  S   UNL     1      -8.893   8.999  67.236  1.00  0.00    -0.117 S  
HETATM   27  O   UNL     1      -7.811   9.591  67.986  1.00  0.00    -0.087 OA 
HETATM   28  O   UNL     1      -8.739   7.793  66.456  1.00  0.00    -0.134 OA 
BRANCH  26  29
HETATM   29  N   UNL     1     -10.176   8.771  68.345  1.00  0.00    -0.192 N  
HETATM   30  H   UNL     1     -10.029   8.319  69.247  1.00  0.00     0.000 HD 
BRANCH  29  31
HETATM   31  C   UNL     1     -11.505   9.262  67.930  1.00  0.00     0.958 C  
BRANCH  31  32
HETATM   32  C   UNL     1     -11.715  10.729  68.293  1.00  0.00    -0.205 C  
BRANCH  32  33
HETATM   33  C   UNL     1     -12.017  10.862  69.797  1.00  0.00    -0.351 C  
HETATM   34  C   UNL     1     -13.507  11.027  70.092  1.00  0.00     0.976 C  
HETATM   35  C   UNL     1     -13.618  10.575  71.528  1.00  0.00    -0.107 C  
HETATM   36  C   UNL     1     -10.273   9.726  71.068  1.00  0.00    -0.043 C  
HETATM   37  N   UNL     1     -11.633   9.652  70.544  1.00  0.00    -0.273 NA 
HETATM   38  C   UNL     1     -12.617   9.437  71.618  1.00  0.00    -0.375 C  
ENDBRANCH  32  33
ENDBRANCH  31  32
ENDBRANCH  29  31
ENDBRANCH  26  29
ENDBRANCH   9  26
ENDBRANCH   4   5
ENDBRANCH   3   4
ENDBRANCH   2   3
TORSDOF 11
ENDMDL
MODEL      299
REMARK 921   NORMALIZED FREE ENERGY PREDICTED BY IDOCK:    2.91 KCAL/MOL
REMARK 922        TOTAL FREE ENERGY PREDICTED BY IDOCK:    2.54 KCAL/MOL
REMARK 923 INTER-LIGAND FREE ENERGY PREDICTED BY IDOCK:    1.36 KCAL/MOL
REMARK 924 INTRA-LIGAND FREE ENERGY PREDICTED BY IDOCK:    1.18 KCAL/MOL
REMARK 927      BINDING AFFINITY PREDICTED BY RF-SCORE:    0.00 PKD
ROOT
HETATM    1  C   UNL     1      -9.028  13.092  69.947  1.00  0.00     2.802 C  
HETATM    2  C   UNL     1      -9.147  11.621  69.593  1.00  0.00     1.312 C  
ENDROOT
BRANCH   2   3
HETATM    3  C   UNL     1      -7.805  10.909  69.612  1.00  0.00     0.122 C  
BRANCH   3   4
HETATM    4  O   UNL     1      -6.964  11.303  68.512  1.00  0.00    -0.069 OA 
BRANCH   4   5
HETATM    5  C   UNL     1      -7.065  10.496  67.393  1.00  0.00    -0.090 A  
HETATM    6  C   UNL     1      -8.047  10.767  66.410  1.00  0.00    -0.153 A  
HETATM    7  C   UNL     1      -8.184   9.891  65.305  1.00  0.00    -0.145 A  
HETATM    8  C   UNL     1      -6.234   9.379  67.226  1.00  0.00    -0.057 A  
HETATM    9  C   UNL     1      -7.367   8.757  65.202  1.00  0.00    -0.088 A  
HETATM   10  C   UNL     1      -6.410   8.502  66.171  1.00  0.00    -0.053 A  
BRANCH   6  11
HETATM   11  C   UNL     1      -8.989  11.955  66.501  1.00  0.00    -0.199 C  
HETATM   12  C   UNL     1     -11.156  12.795  66.169  1.00  0.00    -0.290 C  
HETATM   13  N   UNL     1     -10.222  11.772  66.099  1.00  0.00    -0.214 N  
HETATM   14  H   UNL     1     -10.500  10.864  65.729  1.00  0.00     0.000 HD 
HETATM   15  N   UNL     1      -8.480  13.149  66.988  1.00  0.00    -0.172 NA 
HETATM   16  N   UNL     1     -10.408  16.117  67.512  1.00  0.00    -0.280 NA 
HETATM   17  C   UNL     1      -9.225  15.485  67.584  1.00  0.00    -0.190 A  
HETATM   18  C   UNL     1     -10.638  14.006  66.721  1.00  0.00    -0.277 A  
HETATM   19  O   UNL     1     -12.315  12.672  65.787  1.00  0.00    -0.594 OA 
HETATM   20  C   UNL     1     -12.642  15.533  66.801  1.00  0.00     1.786 C  
HETATM   21  C   UNL     1      -9.342  14.167  67.107  1.00  0.00    -0.237 A  
HETATM   22  N   UNL     1     -11.252  15.191  66.990  1.00  0.00    -0.331 NA 
BRANCH  17  23
HETATM   23  C   UNL     1      -8.031  16.203  68.118  1.00  0.00    -0.148 C  
BRANCH  23  24
HETATM   24  C   UNL     1      -7.096  16.753  67.038  1.00  0.00    -0.238 C  
HETATM   25  C   UNL     1      -5.980  17.632  67.587  1.00  0.00    -0.156 C  
ENDBRANCH  23  24
ENDBRANCH  17  23
ENDBRANCH   6  11
BRANCH   9  26
HETATM   26  S   UNL     1      -7.573   7.569  63.893  1.00  0.00    -0.119 S  
HETATM   27  O   UNL     1      -8.063   8.285  62.738  1.00  0.00    -0.160 OA 
HETATM   28  O   UNL     1      -8.260   6.432  64.460  1.00  0.00    -0.114 OA 
BRANCH  26  29
HETATM   29  N   UNL     1      -5.968   7.108  63.524  1.00  0.00    -0.043 N  
HETATM   30  H   UNL     1      -5.322   7.744  63.057  1.00  0.00     0.000 HD 
BRANCH  29  31
HETATM   31  C   UNL     1      -5.564   5.742  63.917  1.00  0.00    -0.017 C  
BRANCH  31  32
HETATM   32  C   UNL     1      -5.390   5.606  65.426  1.00  0.00    -0.010 C  
BRANCH  32  33
HETATM   33  C   UNL     1      -6.403   4.589  65.985  1.00  0.00    -0.036 C  
HETATM   34  C   UNL     1      -6.477   3.308  65.157  1.00  0.00    -0.035 C  
HETATM   35  C   UNL     1      -7.034   2.304  66.138  1.00  0.00    -0.044 C  
HETATM   36  C   UNL     1      -6.636   4.931  68.389  1.00  0.00    -0.049 C  
HETATM   37  N   UNL     1      -6.029   4.126  67.333  1.00  0.00    -0.023 NA 
HETATM   38  C   UNL     1      -6.395   2.705  67.455  1.00  0.00    -0.032 C  
ENDBRANCH  32  33
ENDBRANCH  31  32
ENDBRANCH  29  31
ENDBRANCH  26  29
ENDBRANCH   9  26
ENDBRANCH   4   5
ENDBRANCH   3   4
ENDBRANCH   2   3
TORSDOF 11
ENDMDL
MODEL      300
REMARK 921   NORMALIZED FREE ENERGY PREDICTED BY IDOCK:    3.03 KCAL/MOL
REMARK 922        TOTAL FREE ENERGY PREDICTED BY IDOCK:    2.74 KCAL/MOL
REMARK 923 INTER-LIGAND FREE ENERGY PREDICTED BY IDOCK:   -3.20 KCAL/MOL
REMARK 924 INTRA-LIGAND FREE ENERGY PREDICTED BY IDOCK:    5.95 KCAL/MOL
REMARK 927      BINDING AFFINITY PREDICTED BY RF-SCORE:    0.00 PKD
ROOT
HETATM    1  C   UNL     1      -9.758   7.218  66.718  1.00  0.00    -0.260 C  
HETATM    2  C   UNL     1     -10.816   8.222  67.136  1.00  0.00    -0.095 C  
ENDROOT
BRANCH   2   3
HETATM    3  C   UNL     1     -12.021   7.561  67.784  1.00  0.00     2.841 C  
BRANCH   3   4
HETATM    4  O   UNL     1     -11.725   6.234  68.257  1.00  0.00     0.264 OA 
BRANCH   4   5
HETATM    5  C   UNL     1     -10.457   6.082  68.788  1.00  0.00    -0.248 A  
HETATM    6  C   UNL     1      -9.951   7.041  69.699  1.00  0.00    -0.177 A  
HETATM    7  C   UNL     1      -8.625   6.910  70.180  1.00  0.00    -0.141 A  
HETATM    8  C   UNL     1      -9.636   5.010  68.412  1.00  0.00    -0.195 A  
HETATM    9  C   UNL     1      -7.819   5.851  69.740  1.00  0.00    -0.100 A  
HETATM   10  C   UNL     1      -8.326   4.919  68.848  1.00  0.00    -0.082 A  
BRANCH   6  11
HETATM   11  C   UNL     1     -10.766   8.233  70.168  1.00  0.00    -0.239 C  
HETATM   12  C   UNL     1     -12.350   9.077  71.681  1.00  0.00    -0.347 C  
HETATM   13  N   UNL     1     -11.584   8.040  71.172  1.00  0.00    -0.280 N  
HETATM   14  H   UNL     1     -11.659   7.111  71.587  1.00  0.00     0.000 HD 
HETATM   15  N   UNL     1     -10.601   9.435  69.497  1.00  0.00    -0.217 NA 
HETATM   16  N   UNL     1     -12.208  12.503  70.398  1.00  0.00    -0.333 NA 
HETATM   17  C   UNL     1     -11.364  11.838  69.590  1.00  0.00    -0.215 A  
HETATM   18  C   UNL     1     -12.135  10.325  71.020  1.00  0.00    -0.386 A  
HETATM   19  O   UNL     1     -13.141   8.936  72.608  1.00  0.00    -0.418 OA 
HETATM   20  C   UNL     1     -13.578  11.942  72.307  1.00  0.00    -0.004 C  
HETATM   21  C   UNL     1     -11.293  10.484  69.961  1.00  0.00    -0.318 A  
HETATM   22  N   UNL     1     -12.657  11.559  71.264  1.00  0.00    -0.377 NA 
BRANCH  17  23
HETATM   23  C   UNL     1     -10.665  12.564  68.491  1.00  0.00    -0.263 C  
BRANCH  23  24
HETATM   24  C   UNL     1     -11.573  13.481  67.669  1.00  0.00    -0.374 C  
HETATM   25  C   UNL     1     -11.818  12.985  66.249  1.00  0.00    -0.466 C  
ENDBRANCH  23  24
ENDBRANCH  17  23
ENDBRANCH   6  11
BRANCH   9  26
HETATM   26  S   UNL     1      -6.115   5.703  70.230  1.00  0.00    -0.027 S  
HETATM   27  O   UNL     1      -5.340   5.494  69.029  1.00  0.00    -0.003 OA 
HETATM   28  O   UNL     1      -6.077   4.797  71.355  1.00  0.00    -0.016 OA 
BRANCH  26  29
HETATM   29  N   UNL     1      -5.726   7.275  70.783  1.00  0.00    -0.027 N  
HETATM   30  H   UNL     1      -5.475   8.023  70.136  1.00  0.00     0.000 HD 
BRANCH  29  31
HETATM   31  C   UNL     1      -5.774   7.494  72.243  1.00  0.00    -0.036 C  
BRANCH  31  32
HETATM   32  C   UNL     1      -7.183   7.814  72.730  1.00  0.00    -0.096 C  
BRANCH  32  33
HETATM   33  C   UNL     1      -7.608   6.808  73.816  1.00  0.00    -0.081 C  
HETATM   34  C   UNL     1      -9.110   6.530  73.814  1.00  0.00    -0.152 C  
HETATM   35  C   UNL     1      -9.205   5.187  74.497  1.00  0.00    -0.118 C  
HETATM   36  C   UNL     1      -5.730   5.336  74.321  1.00  0.00    -0.039 C  
HETATM   37  N   UNL     1      -6.995   5.485  73.608  1.00  0.00    -0.084 NA 
HETATM   38  C   UNL     1      -7.968   4.454  74.008  1.00  0.00    -0.093 C  
ENDBRANCH  32  33
ENDBRANCH  31  32
ENDBRANCH  29  31
ENDBRANCH  26  29
ENDBRANCH   9  26
ENDBRANCH   4   5
ENDBRANCH   3   4
ENDBRANCH   2   3
TORSDOF 11
ENDMDL
MODEL      301
REMARK 921   NORMALIZED FREE ENERGY PREDICTED BY IDOCK:    4.14 KCAL/MOL
REMARK 922        TOTAL FREE ENERGY PREDICTED BY IDOCK:    4.57 KCAL/MOL
REMARK 923 INTER-LIGAND FREE ENERGY PREDICTED BY IDOCK:    4.69 KCAL/MOL
REMARK 924 INTRA-LIGAND FREE ENERGY PREDICTED BY IDOCK:   -0.12 KCAL/MOL
REMARK 927      BINDING AFFINITY PREDICTED BY RF-SCORE:    0.00 PKD
ROOT
HETATM    1  C   UNL     1      -9.684  16.842  69.327  1.00  0.00    -0.139 C  
HETATM    2  C   UNL     1     -10.138  16.125  70.586  1.00  0.00     0.922 C  
ENDROOT
BRANCH   2   3
HETATM    3  C   UNL     1     -11.640  15.895  70.613  1.00  0.00    -0.400 C  
BRANCH   3   4
HETATM    4  O   UNL     1     -12.067  14.963  69.603  1.00  0.00    -0.300 OA 
BRANCH   4   5
HETATM    5  C   UNL     1     -12.348  13.694  70.074  1.00  0.00    -0.278 A  
HETATM    6  C   UNL     1     -12.276  12.582  69.200  1.00  0.00    -0.051 A  
HETATM    7  C   UNL     1     -12.634  11.298  69.679  1.00  0.00    -0.044 A  
HETATM    8  C   UNL     1     -12.746  13.484  71.401  1.00  0.00    -0.423 A  
HETATM    9  C   UNL     1     -13.076  11.138  71.000  1.00  0.00    -0.126 A  
HETATM   10  C   UNL     1     -13.143  12.234  71.845  1.00  0.00    -0.469 A  
BRANCH   6  11
HETATM   11  C   UNL     1     -11.851  12.709  67.748  1.00  0.00    -0.323 C  
HETATM   12  C   UNL     1     -12.461  12.565  65.485  1.00  0.00    -0.155 C  
HETATM   13  N   UNL     1     -12.754  12.451  66.836  1.00  0.00     1.373 N  
HETATM   14  H   UNL     1     -13.689  12.161  67.123  1.00  0.00     0.000 HD 
HETATM   15  N   UNL     1     -10.539  13.076  67.487  1.00  0.00    -0.229 NA 
HETATM   16  N   UNL     1      -9.200  13.643  64.218  1.00  0.00     1.750 NA 
HETATM   17  C   UNL     1      -9.019  13.622  65.549  1.00  0.00     1.109 A  
HETATM   18  C   UNL     1     -11.123  12.995  65.225  1.00  0.00    -0.286 A  
HETATM   19  O   UNL     1     -13.270  12.316  64.598  1.00  0.00    -0.763 OA 
HETATM   20  C   UNL     1     -11.040  13.206  62.715  1.00  0.00     2.296 C  
HETATM   21  C   UNL     1     -10.202  13.231  66.200  1.00  0.00    -0.296 A  
HETATM   22  N   UNL     1     -10.492  13.264  64.049  1.00  0.00    -0.306 NA 
BRANCH  17  23
HETATM   23  C   UNL     1      -7.691  13.988  66.122  1.00  0.00     2.574 C  
BRANCH  23  24
HETATM   24  C   UNL     1      -7.427  13.404  67.512  1.00  0.00    -0.170 C  
HETATM   25  C   UNL     1      -7.425  14.448  68.622  1.00  0.00    -0.126 C  
ENDBRANCH  23  24
ENDBRANCH  17  23
ENDBRANCH   6  11
BRANCH   9  26
HETATM   26  S   UNL     1     -13.640   9.567  71.616  1.00  0.00    -0.312 S  
HETATM   27  O   UNL     1     -14.222   8.854  70.504  1.00  0.00     0.405 OA 
HETATM   28  O   UNL     1     -14.359   9.829  72.842  1.00  0.00    -0.010 OA 
BRANCH  26  29
HETATM   29  N   UNL     1     -12.187   8.751  72.001  1.00  0.00    -0.353 N  
HETATM   30  H   UNL     1     -12.147   7.734  72.072  1.00  0.00     0.000 HD 
BRANCH  29  31
HETATM   31  C   UNL     1     -10.994   9.592  72.224  1.00  0.00     1.214 C  
BRANCH  31  32
HETATM   32  C   UNL     1      -9.710   8.900  71.778  1.00  0.00    -0.365 C  
BRANCH  32  33
HETATM   33  C   UNL     1      -9.415   7.695  72.691  1.00  0.00    -0.176 C  
HETATM   34  C   UNL     1     -10.667   6.893  73.041  1.00  0.00    -0.328 C  
HETATM   35  C   UNL     1     -10.108   5.540  73.412  1.00  0.00    -0.202 C  
HETATM   36  C   UNL     1      -7.119   6.957  72.326  1.00  0.00    -0.073 C  
HETATM   37  N   UNL     1      -8.530   6.715  72.038  1.00  0.00    -0.116 NA 
HETATM   38  C   UNL     1      -8.943   5.365  72.454  1.00  0.00    -0.135 C  
ENDBRANCH  32  33
ENDBRANCH  31  32
ENDBRANCH  29  31
ENDBRANCH  26  29
ENDBRANCH   9  26
ENDBRANCH   4   5
ENDBRANCH   3   4
ENDBRANCH   2   3
TORSDOF 11
ENDMDL
MODEL      302
REMARK 921   NORMALIZED FREE ENERGY PREDICTED BY IDOCK:    6.71 KCAL/MOL
REMARK 922        TOTAL FREE ENERGY PREDICTED BY IDOCK:    8.79 KCAL/MOL
REMARK 923 INTER-LIGAND FREE ENERGY PREDICTED BY IDOCK:    3.29 KCAL/MOL
REMARK 924 INTRA-LIGAND FREE ENERGY PREDICTED BY IDOCK:    5.50 KCAL/MOL
REMARK 927      BINDING AFFINITY PREDICTED BY RF-SCORE:    0.00 PKD
ROOT
HETATM    1  C   UNL     1      -9.635  11.718  65.924  1.00  0.00    -0.249 C  
HETATM    2  C   UNL     1     -10.997  11.250  66.402  1.00  0.00    -0.285 C  
ENDROOT
BRANCH   2   3
HETATM    3  C   UNL     1     -11.093   9.736  66.490  1.00  0.00     0.475 C  
BRANCH   3   4
HETATM    4  O   UNL     1     -11.148   9.271  67.851  1.00  0.00    -0.098 OA 
BRANCH   4   5
HETATM    5  C   UNL     1     -11.467  10.246  68.779  1.00  0.00    -0.113 A  
HETATM    6  C   UNL     1     -10.677  10.401  69.944  1.00  0.00    -0.331 A  
HETATM    7  C   UNL     1     -11.057  11.356  70.918  1.00  0.00     1.469 A  
HETATM    8  C   UNL     1     -12.590  11.068  68.611  1.00  0.00     0.962 A  
HETATM    9  C   UNL     1     -12.216  12.123  70.737  1.00  0.00    -0.271 A  
HETATM   10  C   UNL     1     -12.981  11.962  69.592  1.00  0.00     0.954 A  
BRANCH   6  11
HETATM   11  C   UNL     1      -9.441   9.560  70.211  1.00  0.00    -0.259 C  
HETATM   12  C   UNL     1      -8.400   7.938  71.551  1.00  0.00    -0.113 C  
HETATM   13  N   UNL     1      -9.475   8.759  71.246  1.00  0.00    -0.225 N  
HETATM   14  H   UNL     1     -10.306   8.738  71.837  1.00  0.00     0.000 HD 
HETATM   15  N   UNL     1      -8.361   9.707  69.354  1.00  0.00    -0.132 NA 
HETATM   16  N   UNL     1      -5.341   7.797  69.545  1.00  0.00    -0.023 NA 
HETATM   17  C   UNL     1      -6.067   8.745  68.929  1.00  0.00    -0.044 A  
HETATM   18  C   UNL     1      -7.312   8.055  70.633  1.00  0.00    -0.056 A  
HETATM   19  O   UNL     1      -8.383   7.186  72.520  1.00  0.00    -0.107 OA 
HETATM   20  C   UNL     1      -5.656   6.336  71.443  1.00  0.00    -0.026 C  
HETATM   21  C   UNL     1      -7.301   8.919  69.579  1.00  0.00    -0.071 A  
HETATM   22  N   UNL     1      -6.126   7.389  70.574  1.00  0.00    -0.031 NA 
BRANCH  17  23
HETATM   23  C   UNL     1      -5.517   9.437  67.728  1.00  0.00    -0.037 C  
BRANCH  23  24
HETATM   24  C   UNL     1      -6.115   8.963  66.402  1.00  0.00    -0.060 C  
HETATM   25  C   UNL     1      -7.605   8.653  66.479  1.00  0.00    -0.088 C  
ENDBRANCH  23  24
ENDBRANCH  17  23
ENDBRANCH   6  11
BRANCH   9  26
HETATM   26  S   UNL     1     -12.794  13.258  71.980  1.00  0.00    -0.158 S  
HETATM   27  O   UNL     1     -11.796  14.292  72.113  1.00  0.00    -0.019 OA 
HETATM   28  O   UNL     1     -13.252  12.463  73.095  1.00  0.00     0.883 OA 
BRANCH  26  29
HETATM   29  N   UNL     1     -14.150  13.993  71.241  1.00  0.00    -0.108 N  
HETATM   30  H   UNL     1     -14.876  13.441  70.784  1.00  0.00     0.000 HD 
BRANCH  29  31
HETATM   31  C   UNL     1     -14.218  15.467  71.300  1.00  0.00    -0.187 C  
BRANCH  31  32
HETATM   32  C   UNL     1     -13.224  16.127  70.350  1.00  0.00     1.576 C  
BRANCH  32  33
HETATM   33  C   UNL     1     -12.082  15.147  70.016  1.00  0.00    -0.345 C  
HETATM   34  C   UNL     1     -12.075  14.722  68.549  1.00  0.00    -0.210 C  
HETATM   35  C   UNL     1     -10.647  14.279  68.335  1.00  0.00    -0.255 C  
HETATM   36  C   UNL     1     -10.233  15.516  71.564  1.00  0.00     1.443 C  
HETATM   37  N   UNL     1     -10.758  15.757  70.223  1.00  0.00    -0.332 NA 
HETATM   38  C   UNL     1      -9.845  15.250  69.184  1.00  0.00    -0.239 C  
ENDBRANCH  32  33
ENDBRANCH  31  32
ENDBRANCH  29  31
ENDBRANCH  26  29
ENDBRANCH   9  26
ENDBRANCH   4   5
ENDBRANCH   3   4
ENDBRANCH   2   3
TORSDOF 11
ENDMDL
MODEL      303
REMARK 921   NORMALIZED FREE ENERGY PREDICTED BY IDOCK:    9.64 KCAL/MOL
REMARK 922        TOTAL FREE ENERGY PREDICTED BY IDOCK:   13.60 KCAL/MOL
REMARK 923 INTER-LIGAND FREE ENERGY PREDICTED BY IDOCK:   12.45 KCAL/MOL
REMARK 924 INTRA-LIGAND FREE ENERGY PREDICTED BY IDOCK:    1.15 KCAL/MOL
REMARK 927      BINDING AFFINITY PREDICTED BY RF-SCORE:    0.00 PKD
ROOT
HETATM    1  C   UNL     1      -9.047  16.340  70.716  1.00  0.00     3.123 C  
HETATM    2  C   UNL     1     -10.294  15.714  71.312  1.00  0.00     0.843 C  
ENDROOT
BRANCH   2   3
HETATM    3  C   UNL     1     -10.340  14.208  71.112  1.00  0.00     3.016 C  
BRANCH   3   4
HETATM    4  O   UNL     1      -9.598  13.790  69.951  1.00  0.00     1.171 OA 
BRANCH   4   5
HETATM    5  C   UNL     1     -10.118  14.228  68.747  1.00  0.00    -0.217 A  
HETATM    6  C   UNL     1     -10.404  13.298  67.718  1.00  0.00    -0.233 A  
HETATM    7  C   UNL     1     -10.869  13.769  66.466  1.00  0.00    -0.287 A  
HETATM    8  C   UNL     1     -10.334  15.591  68.503  1.00  0.00    -0.225 A  
HETATM    9  C   UNL     1     -11.024  15.144  66.246  1.00  0.00    -0.335 A  
HETATM   10  C   UNL     1     -10.740  16.044  67.261  1.00  0.00    -0.295 A  
BRANCH   6  11
HETATM   11  C   UNL     1     -10.206  11.802  67.890  1.00  0.00    -0.191 C  
HETATM   12  C   UNL     1      -8.793   9.947  67.622  1.00  0.00    -0.125 C  
HETATM   13  N   UNL     1      -9.068  11.298  67.482  1.00  0.00    -0.150 N  
HETATM   14  H   UNL     1      -8.374  11.910  67.055  1.00  0.00     0.000 HD 
HETATM   15  N   UNL     1     -11.243  11.072  68.453  1.00  0.00    -0.250 NA 
HETATM   16  N   UNL     1     -11.105   7.571  69.176  1.00  0.00     0.008 NA 
HETATM   17  C   UNL     1     -11.790   8.726  69.202  1.00  0.00     1.413 A  
HETATM   18  C   UNL     1      -9.844   9.210  68.250  1.00  0.00    -0.160 A  
HETATM   19  O   UNL     1      -7.749   9.431  67.237  1.00  0.00    -0.091 OA 
HETATM   20  C   UNL     1      -8.912   6.876  68.437  1.00  0.00    -0.121 C  
HETATM   21  C   UNL     1     -11.026   9.764  68.641  1.00  0.00    -0.147 A  
HETATM   22  N   UNL     1      -9.920   7.897  68.598  1.00  0.00    -0.185 NA 
BRANCH  17  23
HETATM   23  C   UNL     1     -13.166   8.759  69.777  1.00  0.00     3.026 C  
BRANCH  23  24
HETATM   24  C   UNL     1     -13.218   9.150  71.256  1.00  0.00    -0.296 C  
HETATM   25  C   UNL     1     -13.148  10.654  71.493  1.00  0.00    -0.527 C  
ENDBRANCH  23  24
ENDBRANCH  17  23
ENDBRANCH   6  11
BRANCH   9  26
HETATM   26  S   UNL     1     -11.502  15.792  64.659  1.00  0.00    -0.179 S  
HETATM   27  O   UNL     1     -12.700  15.095  64.255  1.00  0.00    -0.606 OA 
HETATM   28  O   UNL     1     -10.309  15.836  63.845  1.00  0.00     1.179 OA 
BRANCH  26  29
HETATM   29  N   UNL     1     -11.978  17.396  65.015  1.00  0.00     2.626 N  
HETATM   30  H   UNL     1     -12.924  17.616  65.328  1.00  0.00     0.000 HD 
BRANCH  29  31
HETATM   31  C   UNL     1     -10.952  18.444  64.848  1.00  0.00     1.715 C  
BRANCH  31  32
HETATM   32  C   UNL     1     -10.803  19.308  66.096  1.00  0.00    -0.357 C  
BRANCH  32  33
HETATM   33  C   UNL     1      -9.481  18.974  66.814  1.00  0.00    -0.329 C  
HETATM   34  C   UNL     1      -8.661  17.912  66.086  1.00  0.00    -0.130 C  
HETATM   35  C   UNL     1      -7.261  18.158  66.598  1.00  0.00    -0.246 C  
HETATM   36  C   UNL     1      -8.763  20.913  68.108  1.00  0.00     0.564 C  
HETATM   37  N   UNL     1      -8.584  20.141  66.882  1.00  0.00    -0.329 NA 
HETATM   38  C   UNL     1      -7.197  19.669  66.736  1.00  0.00    -0.224 C  
ENDBRANCH  32  33
ENDBRANCH  31  32
ENDBRANCH  29  31
ENDBRANCH  26  29
ENDBRANCH   9  26
ENDBRANCH   4   5
ENDBRANCH   3   4
ENDBRANCH   2   3
TORSDOF 11
ENDMDL
MODEL      304
REMARK 921   NORMALIZED FREE ENERGY PREDICTED BY IDOCK:   10.66 KCAL/MOL
REMARK 922        TOTAL FREE ENERGY PREDICTED BY IDOCK:   15.28 KCAL/MOL
REMARK 923 INTER-LIGAND FREE ENERGY PREDICTED BY IDOCK:   11.02 KCAL/MOL
REMARK 924 INTRA-LIGAND FREE ENERGY PREDICTED BY IDOCK:    4.25 KCAL/MOL
REMARK 927      BINDING AFFINITY PREDICTED BY RF-SCORE:    0.00 PKD
ROOT
HETATM    1  C   UNL     1      -6.755   6.428  72.832  1.00  0.00    -0.069 C  
HETATM    2  C   UNL     1      -5.711   5.906  71.862  1.00  0.00    -0.026 C  
ENDROOT
BRANCH   2   3
HETATM    3  C   UNL     1      -6.294   5.595  70.493  1.00  0.00    -0.031 C  
BRANCH   3   4
HETATM    4  O   UNL     1      -5.378   4.855  69.666  1.00  0.00    -0.003 OA 
BRANCH   4   5
HETATM    5  C   UNL     1      -5.592   4.992  68.306  1.00  0.00    -0.016 A  
HETATM    6  C   UNL     1      -6.307   6.109  67.810  1.00  0.00    -0.040 A  
HETATM    7  C   UNL     1      -6.578   6.199  66.423  1.00  0.00    -0.048 A  
HETATM    8  C   UNL     1      -5.146   4.020  67.400  1.00  0.00    -0.011 A  
HETATM    9  C   UNL     1      -6.160   5.180  65.557  1.00  0.00    -0.033 A  
HETATM   10  C   UNL     1      -5.461   4.092  66.055  1.00  0.00    -0.013 A  
BRANCH   6  11
HETATM   11  C   UNL     1      -6.824   7.215  68.713  1.00  0.00    -0.076 C  
HETATM   12  C   UNL     1      -6.324   9.086  70.040  1.00  0.00    -0.038 C  
HETATM   13  N   UNL     1      -5.939   8.034  69.223  1.00  0.00    -0.033 N  
HETATM   14  H   UNL     1      -4.950   7.895  69.017  1.00  0.00     0.000 HD 
HETATM   15  N   UNL     1      -8.190   7.274  68.947  1.00  0.00    -0.124 NA 
HETATM   16  N   UNL     1      -9.814   9.816  70.872  1.00  0.00    -0.086 NA 
HETATM   17  C   UNL     1      -9.904   8.704  70.124  1.00  0.00    -0.180 A  
HETATM   18  C   UNL     1      -7.737   9.174  70.232  1.00  0.00    -0.113 A  
HETATM   19  O   UNL     1      -5.527   9.865  70.552  1.00  0.00    -0.041 OA 
HETATM   20  C   UNL     1      -8.024  11.253  71.627  1.00  0.00     9.086 C  
HETATM   21  C   UNL     1      -8.628   8.288  69.705  1.00  0.00    -0.129 A  
HETATM   22  N   UNL     1      -8.484  10.084  70.915  1.00  0.00     0.296 NA 
BRANCH  17  23
HETATM   23  C   UNL     1     -11.240   8.099  69.853  1.00  0.00    -0.030 C  
BRANCH  23  24
HETATM   24  C   UNL     1     -11.946   7.557  71.098  1.00  0.00    -0.334 C  
HETATM   25  C   UNL     1     -13.458   7.448  70.944  1.00  0.00     0.012 C  
ENDBRANCH  23  24
ENDBRANCH  17  23
ENDBRANCH   6  11
BRANCH   9  26
HETATM   26  S   UNL     1      -6.570   5.194  63.825  1.00  0.00    -0.034 S  
HETATM   27  O   UNL     1      -5.653   4.298  63.161  1.00  0.00    -0.012 OA 
HETATM   28  O   UNL     1      -6.731   6.577  63.441  1.00  0.00    -0.042 OA 
BRANCH  26  29
HETATM   29  N   UNL     1      -8.102   4.433  63.778  1.00  0.00    -0.091 N  
HETATM   30  H   UNL     1      -8.789   4.658  63.058  1.00  0.00     0.000 HD 
BRANCH  29  31
HETATM   31  C   UNL     1      -8.379   3.436  64.831  1.00  0.00    -0.094 C  
BRANCH  31  32
HETATM   32  C   UNL     1      -8.409   4.061  66.222  1.00  0.00    -0.105 C  
BRANCH  32  33
HETATM   33  C   UNL     1      -9.851   4.456  66.593  1.00  0.00    -0.226 C  
HETATM   34  C   UNL     1      -9.927   5.775  67.358  1.00  0.00    -0.172 C  
HETATM   35  C   UNL     1     -11.347   6.225  67.111  1.00  0.00    -0.061 C  
HETATM   36  C   UNL     1     -11.390   3.478  64.973  1.00  0.00     1.752 C  
HETATM   37  N   UNL     1     -10.682   4.682  65.398  1.00  0.00    -0.196 NA 
HETATM   38  C   UNL     1     -11.614   5.786  65.682  1.00  0.00     2.386 C  
ENDBRANCH  32  33
ENDBRANCH  31  32
ENDBRANCH  29  31
ENDBRANCH  26  29
ENDBRANCH   9  26
ENDBRANCH   4   5
ENDBRANCH   3   4
ENDBRANCH   2   3
TORSDOF 11
ENDMDL
MODEL      305
REMARK 921   NORMALIZED FREE ENERGY PREDICTED BY IDOCK:   19.53 KCAL/MOL
REMARK 922        TOTAL FREE ENERGY PREDICTED BY IDOCK:   29.85 KCAL/MOL
REMARK 923 INTER-LIGAND FREE ENERGY PREDICTED BY IDOCK:    6.14 KCAL/MOL
REMARK 924 INTRA-LIGAND FREE ENERGY PREDICTED BY IDOCK:   23.72 KCAL/MOL
REMARK 927      BINDING AFFINITY PREDICTED BY RF-SCORE:    0.00 PKD
ROOT
HETATM    1  C   UNL     1      -9.376  11.683  65.311  1.00  0.00    -0.112 C  
HETATM    2  C   UNL     1     -10.839  11.448  65.641  1.00  0.00    -0.280 C  
ENDROOT
BRANCH   2   3
HETATM    3  C   UNL     1     -11.267  10.012  65.388  1.00  0.00     1.884 C  
BRANCH   3   4
HETATM    4  O   UNL     1     -11.583   9.314  66.607  1.00  0.00     1.490 OA 
BRANCH   4   5
HETATM    5  C   UNL     1     -11.627  10.115  67.733  1.00  0.00     0.529 A  
HETATM    6  C   UNL     1     -11.050   9.666  68.946  1.00  0.00    -0.097 A  
HETATM    7  C   UNL     1     -11.165  10.467  70.108  1.00  0.00    -0.389 A  
HETATM    8  C   UNL     1     -12.272  11.360  67.713  1.00  0.00     0.493 A  
HETATM    9  C   UNL     1     -11.862  11.682  70.059  1.00  0.00    -0.355 A  
HETATM   10  C   UNL     1     -12.423  12.110  68.866  1.00  0.00     0.476 A  
BRANCH   6  11
HETATM   11  C   UNL     1     -10.327   8.336  69.063  1.00  0.00    -0.221 C  
HETATM   12  C   UNL     1      -8.858   6.786  68.088  1.00  0.00    -0.120 C  
HETATM   13  N   UNL     1      -9.573   7.974  68.056  1.00  0.00    -0.149 N  
HETATM   14  H   UNL     1      -9.511   8.575  67.235  1.00  0.00     0.000 HD 
HETATM   15  N   UNL     1     -10.524   7.592  70.217  1.00  0.00    -0.218 NA 
HETATM   16  N   UNL     1      -8.880   4.498  70.945  1.00  0.00    -0.110 NA 
HETATM   17  C   UNL     1      -9.736   5.464  71.320  1.00  0.00    -0.162 A  
HETATM   18  C   UNL     1      -9.023   6.051  69.301  1.00  0.00    -0.122 A  
HETATM   19  O   UNL     1      -8.155   6.401  67.160  1.00  0.00    -0.111 OA 
HETATM   20  C   UNL     1      -7.485   4.075  69.019  1.00  0.00    -0.054 C  
HETATM   21  C   UNL     1      -9.837   6.447  70.320  1.00  0.00    -0.168 A  
HETATM   22  N   UNL     1      -8.455   4.885  69.715  1.00  0.00    -0.082 NA 
BRANCH  17  23
HETATM   23  C   UNL     1     -10.416   5.378  72.645  1.00  0.00    -0.261 C  
BRANCH  23  24
HETATM   24  C   UNL     1      -9.882   6.362  73.688  1.00  0.00    -0.213 C  
HETATM   25  C   UNL     1      -9.519   7.725  73.114  1.00  0.00    -0.325 C  
ENDBRANCH  23  24
ENDBRANCH  17  23
ENDBRANCH   6  11
BRANCH   9  26
HETATM   26  S   UNL     1     -12.127  12.671  71.514  1.00  0.00     1.039 S  
HETATM   27  O   UNL     1     -11.638  13.999  71.224  1.00  0.00     0.003 OA 
HETATM   28  O   UNL     1     -11.666  11.895  72.641  1.00  0.00     3.984 OA 
BRANCH  26  29
HETATM   29  N   UNL     1     -13.831  12.797  71.599  1.00  0.00     0.184 N  
HETATM   30  H   UNL     1     -14.429  11.971  71.595  1.00  0.00     0.000 HD 
BRANCH  29  31
HETATM   31  C   UNL     1     -14.391  14.161  71.680  1.00  0.00    -0.294 C  
BRANCH  31  32
HETATM   32  C   UNL     1     -13.674  15.133  70.750  1.00  0.00    -0.244 C  
BRANCH  32  33
HETATM   33  C   UNL     1     -12.364  14.505  70.237  1.00  0.00    -0.349 C  
HETATM   34  C   UNL     1     -12.301  14.423  68.713  1.00  0.00    -0.080 C  
HETATM   35  C   UNL     1     -10.818  14.339  68.441  1.00  0.00    -0.263 C  
HETATM   36  C   UNL     1     -10.596  14.893  71.872  1.00  0.00     1.404 C  
HETATM   37  N   UNL     1     -11.188  15.311  70.605  1.00  0.00    -0.309 NA 
HETATM   38  C   UNL     1     -10.213  15.241  69.503  1.00  0.00    -0.260 C  
ENDBRANCH  32  33
ENDBRANCH  31  32
ENDBRANCH  29  31
ENDBRANCH  26  29
ENDBRANCH   9  26
ENDBRANCH   4   5
ENDBRANCH   3   4
ENDBRANCH   2   3
TORSDOF 11
ENDMDL
MODEL      306
REMARK 921   NORMALIZED FREE ENERGY PREDICTED BY IDOCK:   22.89 KCAL/MOL
REMARK 922        TOTAL FREE ENERGY PREDICTED BY IDOCK:   35.38 KCAL/MOL
REMARK 923 INTER-LIGAND FREE ENERGY PREDICTED BY IDOCK:   16.77 KCAL/MOL
REMARK 924 INTRA-LIGAND FREE ENERGY PREDICTED BY IDOCK:   18.61 KCAL/MOL
REMARK 927      BINDING AFFINITY PREDICTED BY RF-SCORE:    0.00 PKD
ROOT
HETATM    1  C   UNL     1     -10.198   8.173  67.469  1.00  0.00    -0.309 C  
HETATM    2  C   UNL     1     -11.044   9.433  67.505  1.00  0.00     0.080 C  
ENDROOT
BRANCH   2   3
HETATM    3  C   UNL     1     -12.511   9.139  67.769  1.00  0.00     7.204 C  
BRANCH   3   4
HETATM    4  O   UNL     1     -12.728   7.780  68.191  1.00  0.00     5.690 OA 
BRANCH   4   5
HETATM    5  C   UNL     1     -11.597   7.136  68.660  1.00  0.00     0.681 A  
HETATM    6  C   UNL     1     -10.609   7.865  69.366  1.00  0.00    -0.209 A  
HETATM    7  C   UNL     1      -9.424   7.207  69.779  1.00  0.00    -0.149 A  
HETATM    8  C   UNL     1     -11.384   5.773  68.416  1.00  0.00     0.486 A  
HETATM    9  C   UNL     1      -9.227   5.854  69.470  1.00  0.00    -0.135 A  
HETATM   10  C   UNL     1     -10.202   5.153  68.778  1.00  0.00    -0.202 A  
BRANCH   6  11
HETATM   11  C   UNL     1     -10.753   9.343  69.682  1.00  0.00    -0.235 C  
HETATM   12  C   UNL     1     -11.724  10.993  71.041  1.00  0.00     0.037 C  
HETATM   13  N   UNL     1     -11.550   9.669  70.668  1.00  0.00    -0.284 N  
HETATM   14  H   UNL     1     -12.053   8.937  71.170  1.00  0.00     0.000 HD 
HETATM   15  N   UNL     1     -10.044  10.244  68.902  1.00  0.00    -0.193 NA 
HETATM   16  N   UNL     1      -9.985  13.782  69.429  1.00  0.00     0.333 NA 
HETATM   17  C   UNL     1      -9.569  12.715  68.726  1.00  0.00     0.097 A  
HETATM   18  C   UNL     1     -10.949  11.911  70.268  1.00  0.00     0.937 A  
HETATM   19  O   UNL     1     -12.474  11.343  71.945  1.00  0.00    -0.117 OA 
HETATM   20  C   UNL     1     -11.431  14.145  71.330  1.00  0.00     0.640 C  
HETATM   21  C   UNL     1     -10.147  11.538  69.232  1.00  0.00     0.129 A  
HETATM   22  N   UNL     1     -10.818  13.262  70.367  1.00  0.00     1.180 NA 
BRANCH  17  23
HETATM   23  C   UNL     1      -8.623  12.901  67.588  1.00  0.00    -0.182 C  
BRANCH  23  24
HETATM   24  C   UNL     1      -7.162  13.073  68.009  1.00  0.00    -0.119 C  
HETATM   25  C   UNL     1      -6.277  11.888  67.644  1.00  0.00    -0.083 C  
ENDBRANCH  23  24
ENDBRANCH  17  23
ENDBRANCH   6  11
BRANCH   9  26
HETATM   26  S   UNL     1      -7.712   5.012  69.870  1.00  0.00    -0.060 S  
HETATM   27  O   UNL     1      -7.742   3.733  69.200  1.00  0.00    -0.053 OA 
HETATM   28  O   UNL     1      -7.520   5.144  71.296  1.00  0.00    -0.084 OA 
BRANCH  26  29
HETATM   29  N   UNL     1      -6.521   5.944  69.071  1.00  0.00    -0.047 N  
HETATM   30  H   UNL     1      -6.300   5.799  68.086  1.00  0.00     0.000 HD 
BRANCH  29  31
HETATM   31  C   UNL     1      -5.829   6.968  69.879  1.00  0.00    -0.023 C  
BRANCH  31  32
HETATM   32  C   UNL     1      -6.721   8.170  70.169  1.00  0.00    -0.036 C  
BRANCH  32  33
HETATM   33  C   UNL     1      -6.663   8.522  71.668  1.00  0.00    -0.079 C  
HETATM   34  C   UNL     1      -7.828   9.402  72.117  1.00  0.00     1.037 C  
HETATM   35  C   UNL     1      -7.889   9.145  73.604  1.00  0.00     1.062 C  
HETATM   36  C   UNL     1      -5.461   6.764  72.856  1.00  0.00    -0.038 C  
HETATM   37  N   UNL     1      -6.766   7.323  72.518  1.00  0.00    -0.059 NA 
HETATM   38  C   UNL     1      -7.536   7.673  73.723  1.00  0.00    -0.125 C  
ENDBRANCH  32  33
ENDBRANCH  31  32
ENDBRANCH  29  31
ENDBRANCH  26  29
ENDBRANCH   9  26
ENDBRANCH   4   5
ENDBRANCH   3   4
ENDBRANCH   2   3
TORSDOF 11
ENDMDL
MODEL      307
REMARK 921   NORMALIZED FREE ENERGY PREDICTED BY IDOCK:   38.37 KCAL/MOL
REMARK 922        TOTAL FREE ENERGY PREDICTED BY IDOCK:   60.80 KCAL/MOL
REMARK 923 INTER-LIGAND FREE ENERGY PREDICTED BY IDOCK:   42.43 KCAL/MOL
REMARK 924 INTRA-LIGAND FREE ENERGY PREDICTED BY IDOCK:   18.37 KCAL/MOL
REMARK 927      BINDING AFFINITY PREDICTED BY RF-SCORE:    0.00 PKD
ROOT
HETATM    1  C   UNL     1     -14.238   8.554  63.179  1.00  0.00    15.142 C  
HETATM    2  C   UNL     1     -12.997   9.088  63.870  1.00  0.00    19.182 C  
ENDROOT
BRANCH   2   3
HETATM    3  C   UNL     1     -12.738  10.551  63.550  1.00  0.00     5.039 C  
BRANCH   3   4
HETATM    4  O   UNL     1     -11.395  10.952  63.878  1.00  0.00     0.150 OA 
BRANCH   4   5
HETATM    5  C   UNL     1     -10.883  10.365  65.021  1.00  0.00     0.432 A  
HETATM    6  C   UNL     1     -10.494  11.171  66.119  1.00  0.00    -0.307 A  
HETATM    7  C   UNL     1      -9.907  10.562  67.254  1.00  0.00    -0.209 A  
HETATM    8  C   UNL     1     -10.701   8.977  65.106  1.00  0.00     3.437 A  
HETATM    9  C   UNL     1      -9.695   9.176  67.278  1.00  0.00    -0.173 A  
HETATM   10  C   UNL     1     -10.080   8.398  66.198  1.00  0.00     0.007 A  
BRANCH   6  11
HETATM   11  C   UNL     1     -10.656  12.681  66.122  1.00  0.00    -0.258 C  
HETATM   12  C   UNL     1     -11.905  14.540  65.419  1.00  0.00    -0.344 C  
HETATM   13  N   UNL     1     -11.667  13.175  65.451  1.00  0.00    -0.334 N  
HETATM   14  H   UNL     1     -12.289  12.545  64.945  1.00  0.00     0.000 HD 
HETATM   15  N   UNL     1      -9.721  13.432  66.819  1.00  0.00    -0.255 NA 
HETATM   16  N   UNL     1      -9.847  16.987  67.203  1.00  0.00    -0.262 NA 
HETATM   17  C   UNL     1      -9.232  15.821  67.464  1.00  0.00    -0.204 A  
HETATM   18  C   UNL     1     -10.970  15.303  66.183  1.00  0.00    -0.307 A  
HETATM   19  O   UNL     1     -12.829  15.046  64.789  1.00  0.00    -0.248 OA 
HETATM   20  C   UNL     1     -11.817  17.668  65.982  1.00  0.00     3.094 C  
HETATM   21  C   UNL     1      -9.914  14.757  66.849  1.00  0.00    -0.244 A  
HETATM   22  N   UNL     1     -10.907  16.641  66.428  1.00  0.00    -0.100 NA 
BRANCH  17  23
HETATM   23  C   UNL     1      -8.001  15.805  68.306  1.00  0.00    -0.130 C  
BRANCH  23  24
HETATM   24  C   UNL     1      -8.240  15.384  69.757  1.00  0.00    -0.018 C  
HETATM   25  C   UNL     1      -7.099  14.569  70.354  1.00  0.00     0.348 C  
ENDBRANCH  23  24
ENDBRANCH  17  23
ENDBRANCH   6  11
BRANCH   9  26
HETATM   26  S   UNL     1      -8.864   8.378  68.634  1.00  0.00    -0.136 S  
HETATM   27  O   UNL     1      -7.611   7.868  68.127  1.00  0.00    -0.110 OA 
HETATM   28  O   UNL     1      -9.840   7.544  69.295  1.00  0.00    -0.165 OA 
BRANCH  26  29
HETATM   29  N   UNL     1      -8.466   9.678  69.672  1.00  0.00    -0.157 N  
HETATM   30  H   UNL     1      -8.055   9.522  70.593  1.00  0.00     0.000 HD 
BRANCH  29  31
HETATM   31  C   UNL     1      -8.747  11.038  69.168  1.00  0.00     0.011 C  
BRANCH  31  32
HETATM   32  C   UNL     1      -7.669  11.529  68.208  1.00  0.00    -0.123 C  
BRANCH  32  33
HETATM   33  C   UNL     1      -6.479  10.550  68.204  1.00  0.00    -0.062 C  
HETATM   34  C   UNL     1      -5.818  10.414  69.573  1.00  0.00    -0.039 C  
HETATM   35  C   UNL     1      -5.125   9.075  69.480  1.00  0.00    -0.035 C  
HETATM   36  C   UNL     1      -6.806   8.902  66.435  1.00  0.00    -0.075 C  
HETATM   37  N   UNL     1      -6.898   9.179  67.866  1.00  0.00    -0.068 NA 
HETATM   38  C   UNL     1      -6.085   8.238  68.654  1.00  0.00    -0.045 C  
ENDBRANCH  32  33
ENDBRANCH  31  32
ENDBRANCH  29  31
ENDBRANCH  26  29
ENDBRANCH   9  26
ENDBRANCH   4   5
ENDBRANCH   3   4
ENDBRANCH   2   3
TORSDOF 11
ENDMDL
MODEL      308
REMARK 921   NORMALIZED FREE ENERGY PREDICTED BY IDOCK:   41.56 KCAL/MOL
REMARK 922        TOTAL FREE ENERGY PREDICTED BY IDOCK:   66.05 KCAL/MOL
REMARK 923 INTER-LIGAND FREE ENERGY PREDICTED BY IDOCK:   52.16 KCAL/MOL
REMARK 924 INTRA-LIGAND FREE ENERGY PREDICTED BY IDOCK:   13.89 KCAL/MOL
REMARK 927      BINDING AFFINITY PREDICTED BY RF-SCORE:    0.00 PKD
ROOT
HETATM    1  C   UNL     1     -14.253   8.532  63.165  1.00  0.00    15.142 C  
HETATM    2  C   UNL     1     -13.065   9.267  63.758  1.00  0.00    16.945 C  
ENDROOT
BRANCH   2   3
HETATM    3  C   UNL     1     -12.919  10.676  63.205  1.00  0.00     4.527 C  
BRANCH   3   4
HETATM    4  O   UNL     1     -11.643  11.259  63.530  1.00  0.00    -0.218 OA 
BRANCH   4   5
HETATM    5  C   UNL     1     -11.228  11.045  64.832  1.00  0.00     0.166 A  
HETATM    6  C   UNL     1     -11.018  12.146  65.698  1.00  0.00    -0.337 A  
HETATM    7  C   UNL     1     -10.525  11.916  67.006  1.00  0.00    -0.253 A  
HETATM    8  C   UNL     1     -10.970   9.753  65.309  1.00  0.00     1.891 A  
HETATM    9  C   UNL     1     -10.232  10.612  67.428  1.00  0.00    -0.204 A  
HETATM   10  C   UNL     1     -10.442   9.544  66.571  1.00  0.00    -0.201 A  
BRANCH   6  11
HETATM   11  C   UNL     1     -11.274  13.581  65.273  1.00  0.00    -0.292 C  
HETATM   12  C   UNL     1     -12.537  15.064  63.962  1.00  0.00     0.286 C  
HETATM   13  N   UNL     1     -12.219  13.784  64.390  1.00  0.00    -0.541 N  
HETATM   14  H   UNL     1     -12.731  12.987  64.011  1.00  0.00     0.000 HD 
HETATM   15  N   UNL     1     -10.484  14.574  65.834  1.00  0.00    -0.299 NA 
HETATM   16  N   UNL     1     -10.882  18.076  65.222  1.00  0.00    -0.546 NA 
HETATM   17  C   UNL     1     -10.233  17.084  65.853  1.00  0.00    -0.296 A  
HETATM   18  C   UNL     1     -11.756  16.085  64.585  1.00  0.00    -0.073 A  
HETATM   19  O   UNL     1     -13.402  15.296  63.125  1.00  0.00     1.485 OA 
HETATM   20  C   UNL     1     -12.719  18.223  63.659  1.00  0.00    15.804 C  
HETATM   21  C   UNL     1     -10.763  15.836  65.483  1.00  0.00    -0.383 A  
HETATM   22  N   UNL     1     -11.810  17.440  64.462  1.00  0.00     0.898 NA 
BRANCH  17  23
HETATM   23  C   UNL     1      -9.121  17.407  66.794  1.00  0.00    -0.276 C  
BRANCH  23  24
HETATM   24  C   UNL     1      -9.517  17.363  68.271  1.00  0.00    -0.290 C  
HETATM   25  C   UNL     1      -8.413  16.847  69.185  1.00  0.00    -0.057 C  
ENDBRANCH  23  24
ENDBRANCH  17  23
ENDBRANCH   6  11
BRANCH   9  26
HETATM   26  S   UNL     1      -9.510  10.282  69.020  1.00  0.00    -0.208 S  
HETATM   27  O   UNL     1      -8.174   9.787  68.791  1.00  0.00    -0.101 OA 
HETATM   28  O   UNL     1     -10.495   9.553  69.786  1.00  0.00    -0.204 OA 
BRANCH  26  29
HETATM   29  N   UNL     1      -9.334  11.840  69.703  1.00  0.00     0.548 N  
HETATM   30  H   UNL     1      -8.987  11.972  70.654  1.00  0.00     0.000 HD 
BRANCH  29  31
HETATM   31  C   UNL     1      -9.707  12.984  68.848  1.00  0.00     0.192 C  
BRANCH  31  32
HETATM   32  C   UNL     1      -8.698  13.220  67.729  1.00  0.00    -0.194 C  
BRANCH  32  33
HETATM   33  C   UNL     1      -7.520  12.235  67.864  1.00  0.00    -0.121 C  
HETATM   34  C   UNL     1      -7.838  10.849  67.309  1.00  0.00    -0.116 C  
HETATM   35  C   UNL     1      -6.469  10.279  67.023  1.00  0.00    -0.073 C  
HETATM   36  C   UNL     1      -5.428  13.489  67.881  1.00  0.00    -0.107 C  
HETATM   37  N   UNL     1      -6.346  12.675  67.091  1.00  0.00    -0.224 NA 
HETATM   38  C   UNL     1      -5.679  11.482  66.542  1.00  0.00    -0.113 C  
ENDBRANCH  32  33
ENDBRANCH  31  32
ENDBRANCH  29  31
ENDBRANCH  26  29
ENDBRANCH   9  26
ENDBRANCH   4   5
ENDBRANCH   3   4
ENDBRANCH   2   3
TORSDOF 11
ENDMDL
