MODEL        1
REMARK 921   NORMALIZED FREE ENERGY PREDICTED BY IDOCK:   -7.44 KCAL/MOL
REMARK 922        TOTAL FREE ENERGY PREDICTED BY IDOCK:   -9.80 KCAL/MOL
REMARK 923 INTER-LIGAND FREE ENERGY PREDICTED BY IDOCK:   -8.75 KCAL/MOL
REMARK 924 INTRA-LIGAND FREE ENERGY PREDICTED BY IDOCK:   -1.06 KCAL/MOL
REMARK 927      BINDING AFFINITY PREDICTED BY RF-SCORE:    0.00 PKD
ROOT
HETATM    1  C   UNL     1     -12.358   8.693  72.325  1.00  0.00    -0.382 C  
HETATM    2  N   UNL     1     -12.408   9.970  71.626  1.00  0.00    -0.399 NA 
HETATM    3  C   UNL     1     -13.400  10.943  72.075  1.00  0.00    -0.289 C  
ENDROOT
BRANCH   2   4
HETATM    4  C   UNL     1     -11.635  10.225  70.500  1.00  0.00    -0.338 A  
HETATM    5  C   UNL     1     -12.120  10.888  69.361  1.00  0.00    -0.362 A  
HETATM    6  C   UNL     1     -11.291  11.206  68.256  1.00  0.00    -0.365 A  
HETATM    7  C   UNL     1      -9.915  10.931  68.275  1.00  0.00    -0.187 A  
HETATM    8  C   UNL     1      -9.470  10.140  69.341  1.00  0.00    -0.240 A  
HETATM    9  C   UNL     1     -10.299   9.821  70.425  1.00  0.00    -0.354 A  
BRANCH   7  10
HETATM   10  C   UNL     1      -8.900  11.542  67.266  1.00  0.00    -0.160 C  
HETATM   11  C   UNL     1      -7.724  10.536  66.872  1.00  0.00    -0.114 C  
HETATM   12  C   UNL     1      -8.128   9.406  65.860  1.00  0.00    -0.114 C  
HETATM   13  C   UNL     1      -9.127   8.425  66.521  1.00  0.00    -0.217 C  
HETATM   14  C   UNL     1      -8.720  10.173  64.651  1.00  0.00    -0.205 C  
HETATM   15  C   UNL     1      -8.764   9.115  63.561  1.00  0.00    -0.148 C  
HETATM   16  C   UNL     1      -9.994  10.974  64.954  1.00  0.00    -0.343 C  
HETATM   17  C   UNL     1      -7.341   8.591  63.631  1.00  0.00    -0.106 C  
HETATM   18  C   UNL     1     -10.628  11.457  63.619  1.00  0.00    -0.476 C  
HETATM   19  C   UNL     1     -10.821  12.950  63.463  1.00  0.00    -0.169 C  
HETATM   20  C   UNL     1      -6.983   8.539  65.148  1.00  0.00    -0.075 C  
HETATM   21  C   UNL     1      -9.643  12.083  65.986  1.00  0.00    -0.247 C  
HETATM   22  O   UNL     1      -5.707   9.157  65.271  1.00  0.00    -0.052 OA 
HETATM   23  C   UNL     1     -11.134  13.540  64.787  1.00  0.00    -0.368 C  
HETATM   24  H   UNL     1      -5.029   8.643  64.849  1.00  0.00     0.000 HD 
HETATM   25  C   UNL     1     -12.082  14.481  64.938  1.00  0.00    -0.421 C  
HETATM   26  C   UNL     1     -10.089  13.358  65.799  1.00  0.00    -0.297 C  
HETATM   27  C   UNL     1      -9.753  14.673  66.481  1.00  0.00    -0.297 C  
HETATM   28  C   UNL     1     -11.311  15.746  64.719  1.00  0.00    -0.314 C  
HETATM   29  C   UNL     1     -10.095  15.938  65.618  1.00  0.00    -0.388 C  
HETATM   30  O   UNL     1     -11.662  16.545  63.858  1.00  0.00    -1.148 OA 
BRANCH  20  31
HETATM   31  C   UNL     1      -6.951   7.007  65.497  1.00  0.00    -0.056 C  
HETATM   32  C   UNL     1      -6.251   6.555  66.746  1.00  0.00    -0.040 C  
HETATM   33  O   UNL     1      -7.457   6.149  64.766  1.00  0.00    -0.074 OA 
ENDBRANCH  20  31
ENDBRANCH   7  10
ENDBRANCH   2   4
TORSDOF 3
ENDMDL
MODEL        2
REMARK 921   NORMALIZED FREE ENERGY PREDICTED BY IDOCK:   -7.42 KCAL/MOL
REMARK 922        TOTAL FREE ENERGY PREDICTED BY IDOCK:   -9.77 KCAL/MOL
REMARK 923 INTER-LIGAND FREE ENERGY PREDICTED BY IDOCK:   -8.93 KCAL/MOL
REMARK 924 INTRA-LIGAND FREE ENERGY PREDICTED BY IDOCK:   -0.85 KCAL/MOL
REMARK 927      BINDING AFFINITY PREDICTED BY RF-SCORE:    0.00 PKD
ROOT
HETATM    1  C   UNL     1     -13.779  13.290  72.555  1.00  0.00    -0.508 C  
HETATM    2  N   UNL     1     -12.854  14.321  72.105  1.00  0.00    -0.343 NA 
HETATM    3  C   UNL     1     -12.466  15.344  73.072  1.00  0.00    -0.431 C  
ENDROOT
BRANCH   2   4
HETATM    4  C   UNL     1     -12.443  14.415  70.781  1.00  0.00    -0.352 A  
HETATM    5  C   UNL     1     -12.403  15.622  70.066  1.00  0.00    -0.304 A  
HETATM    6  C   UNL     1     -11.905  15.705  68.741  1.00  0.00    -0.336 A  
HETATM    7  C   UNL     1     -11.359  14.585  68.097  1.00  0.00    -0.319 A  
HETATM    8  C   UNL     1     -11.538  13.361  68.755  1.00  0.00    -0.363 A  
HETATM    9  C   UNL     1     -12.041  13.287  70.060  1.00  0.00    -0.385 A  
BRANCH   7  10
HETATM   10  C   UNL     1     -10.502  14.668  66.801  1.00  0.00    -0.277 C  
HETATM   11  C   UNL     1      -9.798  16.088  66.604  1.00  0.00    -0.273 C  
HETATM   12  C   UNL     1      -8.543  16.339  67.512  1.00  0.00    -0.189 C  
HETATM   13  C   UNL     1      -8.967  16.440  68.998  1.00  0.00    -0.239 C  
HETATM   14  C   UNL     1      -7.611  15.138  67.214  1.00  0.00    -0.236 C  
HETATM   15  C   UNL     1      -6.282  15.578  67.806  1.00  0.00    -0.178 C  
HETATM   16  C   UNL     1      -8.177  13.766  67.607  1.00  0.00    -0.180 C  
HETATM   17  C   UNL     1      -6.142  16.950  67.172  1.00  0.00    -0.208 C  
HETATM   18  C   UNL     1      -7.050  12.699  67.514  1.00  0.00    -0.152 C  
HETATM   19  C   UNL     1      -7.307  11.523  66.596  1.00  0.00    -0.069 C  
HETATM   20  C   UNL     1      -7.572  17.574  67.192  1.00  0.00    -0.200 C  
HETATM   21  C   UNL     1      -9.448  13.496  66.754  1.00  0.00    -0.272 C  
HETATM   22  O   UNL     1      -7.793  18.086  65.882  1.00  0.00    -0.511 OA 
HETATM   23  C   UNL     1      -8.753  11.198  66.615  1.00  0.00    -0.166 C  
HETATM   24  H   UNL     1      -7.218  18.817  65.693  1.00  0.00     0.000 HD 
HETATM   25  C   UNL     1      -9.194   9.930  66.659  1.00  0.00    -0.185 C  
HETATM   26  C   UNL     1      -9.629  12.283  66.160  1.00  0.00    -0.248 C  
HETATM   27  C   UNL     1     -10.619  11.785  65.121  1.00  0.00    -0.332 C  
HETATM   28  C   UNL     1      -9.283   9.574  65.206  1.00  0.00    -0.247 C  
HETATM   29  C   UNL     1     -10.141  10.502  64.355  1.00  0.00    -0.395 C  
HETATM   30  O   UNL     1      -8.683   8.599  64.768  1.00  0.00    -0.159 OA 
BRANCH  20  31
HETATM   31  C   UNL     1      -7.499  18.704  68.281  1.00  0.00    -0.281 C  
HETATM   32  C   UNL     1      -8.555  19.771  68.301  1.00  0.00    -0.317 C  
HETATM   33  O   UNL     1      -6.586  18.768  69.111  1.00  0.00    -0.271 OA 
ENDBRANCH  20  31
ENDBRANCH   7  10
ENDBRANCH   2   4
TORSDOF 3
ENDMDL
MODEL        3
REMARK 921   NORMALIZED FREE ENERGY PREDICTED BY IDOCK:   -7.05 KCAL/MOL
REMARK 922        TOTAL FREE ENERGY PREDICTED BY IDOCK:   -9.35 KCAL/MOL
REMARK 923 INTER-LIGAND FREE ENERGY PREDICTED BY IDOCK:   -8.30 KCAL/MOL
REMARK 924 INTRA-LIGAND FREE ENERGY PREDICTED BY IDOCK:   -1.05 KCAL/MOL
REMARK 927      BINDING AFFINITY PREDICTED BY RF-SCORE:    0.00 PKD
ROOT
HETATM    1  C   UNL     1     -12.084   7.537  71.050  1.00  0.00    -0.277 C  
HETATM    2  N   UNL     1     -12.123   8.993  71.054  1.00  0.00    -0.280 NA 
HETATM    3  C   UNL     1     -13.183   9.634  71.828  1.00  0.00    -0.430 C  
ENDROOT
BRANCH   2   4
HETATM    4  C   UNL     1     -11.272   9.756  70.263  1.00  0.00    -0.288 A  
HETATM    5  C   UNL     1      -9.872   9.672  70.327  1.00  0.00    -0.321 A  
HETATM    6  C   UNL     1      -9.026  10.402  69.455  1.00  0.00    -0.168 A  
HETATM    7  C   UNL     1      -9.554  11.203  68.430  1.00  0.00    -0.192 A  
HETATM    8  C   UNL     1     -10.940  11.400  68.469  1.00  0.00    -0.267 A  
HETATM    9  C   UNL     1     -11.768  10.681  69.340  1.00  0.00    -0.344 A  
BRANCH   7  10
HETATM   10  C   UNL     1      -8.709  11.755  67.246  1.00  0.00    -0.163 C  
HETATM   11  C   UNL     1      -7.536  10.768  66.798  1.00  0.00    -0.129 C  
HETATM   12  C   UNL     1      -7.998   9.526  65.958  1.00  0.00    -0.107 C  
HETATM   13  C   UNL     1      -8.849   8.572  66.832  1.00  0.00    -0.153 C  
HETATM   14  C   UNL     1      -8.780  10.140  64.769  1.00  0.00    -0.202 C  
HETATM   15  C   UNL     1      -8.899   8.978  63.797  1.00  0.00    -0.023 C  
HETATM   16  C   UNL     1     -10.049  10.910  65.159  1.00  0.00    -0.352 C  
HETATM   17  C   UNL     1      -7.450   8.528  63.730  1.00  0.00    -0.118 C  
HETATM   18  C   UNL     1     -10.871  11.229  63.878  1.00  0.00    -0.427 C  
HETATM   19  C   UNL     1     -11.168  12.689  63.610  1.00  0.00    -0.525 C  
HETATM   20  C   UNL     1      -6.903   8.644  65.187  1.00  0.00    -0.068 C  
HETATM   21  C   UNL     1      -9.636  12.131  66.028  1.00  0.00    -0.242 C  
HETATM   22  O   UNL     1      -5.659   9.328  65.085  1.00  0.00    -0.051 OA 
HETATM   23  C   UNL     1     -11.346  13.393  64.902  1.00  0.00    -0.345 C  
HETATM   24  H   UNL     1      -5.011   8.805  64.628  1.00  0.00     0.000 HD 
HETATM   25  C   UNL     1     -12.320  14.301  65.087  1.00  0.00    -0.427 C  
HETATM   26  C   UNL     1     -10.174  13.360  65.783  1.00  0.00    -0.300 C  
HETATM   27  C   UNL     1      -9.832  14.750  66.290  1.00  0.00    -0.316 C  
HETATM   28  C   UNL     1     -11.656  15.571  64.653  1.00  0.00    -0.281 C  
HETATM   29  C   UNL     1     -10.351  15.906  65.364  1.00  0.00    -0.399 C  
HETATM   30  O   UNL     1     -12.156  16.264  63.773  1.00  0.00    -0.959 OA 
BRANCH  20  31
HETATM   31  C   UNL     1      -6.740   7.158  65.670  1.00  0.00    -0.052 C  
HETATM   32  C   UNL     1      -5.818   6.857  66.816  1.00  0.00    -0.022 C  
HETATM   33  O   UNL     1      -7.322   6.215  65.124  1.00  0.00    -0.068 OA 
ENDBRANCH  20  31
ENDBRANCH   7  10
ENDBRANCH   2   4
TORSDOF 3
ENDMDL
MODEL        4
REMARK 921   NORMALIZED FREE ENERGY PREDICTED BY IDOCK:   -7.04 KCAL/MOL
REMARK 922        TOTAL FREE ENERGY PREDICTED BY IDOCK:   -9.33 KCAL/MOL
REMARK 923 INTER-LIGAND FREE ENERGY PREDICTED BY IDOCK:   -8.42 KCAL/MOL
REMARK 924 INTRA-LIGAND FREE ENERGY PREDICTED BY IDOCK:   -0.91 KCAL/MOL
REMARK 927      BINDING AFFINITY PREDICTED BY RF-SCORE:    0.00 PKD
ROOT
HETATM    1  C   UNL     1     -12.195   7.568  71.095  1.00  0.00    -0.301 C  
HETATM    2  N   UNL     1     -12.162   9.023  71.117  1.00  0.00    -0.295 NA 
HETATM    3  C   UNL     1     -13.198   9.708  71.885  1.00  0.00    -0.446 C  
ENDROOT
BRANCH   2   4
HETATM    4  C   UNL     1     -11.263   9.752  70.347  1.00  0.00    -0.300 A  
HETATM    5  C   UNL     1      -9.871   9.583  70.414  1.00  0.00    -0.329 A  
HETATM    6  C   UNL     1      -8.978  10.282  69.562  1.00  0.00    -0.176 A  
HETATM    7  C   UNL     1      -9.452  11.135  68.554  1.00  0.00    -0.193 A  
HETATM    8  C   UNL     1     -10.824  11.413  68.591  1.00  0.00    -0.249 A  
HETATM    9  C   UNL     1     -11.698  10.725  69.443  1.00  0.00    -0.378 A  
BRANCH   7  10
HETATM   10  C   UNL     1      -8.570  11.662  67.386  1.00  0.00    -0.149 C  
HETATM   11  C   UNL     1      -7.455  10.617  66.920  1.00  0.00    -0.115 C  
HETATM   12  C   UNL     1      -7.985   9.424  66.050  1.00  0.00    -0.110 C  
HETATM   13  C   UNL     1      -8.897   8.503  66.899  1.00  0.00    -0.153 C  
HETATM   14  C   UNL     1      -8.723  10.110  64.873  1.00  0.00    -0.198 C  
HETATM   15  C   UNL     1      -8.906   8.980  63.874  1.00  0.00    -0.034 C  
HETATM   16  C   UNL     1      -9.947  10.946  65.275  1.00  0.00    -0.330 C  
HETATM   17  C   UNL     1      -7.487   8.446  63.803  1.00  0.00    -0.120 C  
HETATM   18  C   UNL     1     -10.742  11.342  63.998  1.00  0.00    -0.444 C  
HETATM   19  C   UNL     1     -10.949  12.822  63.763  1.00  0.00    -0.445 C  
HETATM   20  C   UNL     1      -6.941   8.496  65.264  1.00  0.00    -0.078 C  
HETATM   21  C   UNL     1      -9.466  12.120  66.173  1.00  0.00    -0.231 C  
HETATM   22  O   UNL     1      -5.658   9.107  65.182  1.00  0.00    -0.052 OA 
HETATM   23  C   UNL     1     -11.092  13.507  65.070  1.00  0.00    -0.338 C  
HETATM   24  H   UNL     1      -5.040   8.556  64.716  1.00  0.00     0.000 HD 
HETATM   25  C   UNL     1     -12.011  14.466  65.272  1.00  0.00    -0.382 C  
HETATM   26  C   UNL     1      -9.929  13.384  65.954  1.00  0.00    -0.287 C  
HETATM   27  C   UNL     1      -9.507  14.740  66.494  1.00  0.00    -0.316 C  
HETATM   28  C   UNL     1     -11.271  15.705  64.869  1.00  0.00    -0.369 C  
HETATM   29  C   UNL     1      -9.951  15.945  65.593  1.00  0.00    -0.368 C  
HETATM   30  O   UNL     1     -11.724  16.445  64.003  1.00  0.00    -1.044 OA 
BRANCH  20  31
HETATM   31  C   UNL     1      -6.870   6.992  65.713  1.00  0.00    -0.056 C  
HETATM   32  C   UNL     1      -7.692   5.970  64.983  1.00  0.00    -0.097 C  
HETATM   33  O   UNL     1      -6.183   6.616  66.668  1.00  0.00    -0.037 OA 
ENDBRANCH  20  31
ENDBRANCH   7  10
ENDBRANCH   2   4
TORSDOF 3
ENDMDL
MODEL        5
REMARK 921   NORMALIZED FREE ENERGY PREDICTED BY IDOCK:   -7.00 KCAL/MOL
REMARK 922        TOTAL FREE ENERGY PREDICTED BY IDOCK:   -9.29 KCAL/MOL
REMARK 923 INTER-LIGAND FREE ENERGY PREDICTED BY IDOCK:   -8.32 KCAL/MOL
REMARK 924 INTRA-LIGAND FREE ENERGY PREDICTED BY IDOCK:   -0.97 KCAL/MOL
REMARK 927      BINDING AFFINITY PREDICTED BY RF-SCORE:    0.00 PKD
ROOT
HETATM    1  C   UNL     1     -11.380   8.096  72.458  1.00  0.00    -0.401 C  
HETATM    2  N   UNL     1     -11.940   9.197  71.687  1.00  0.00    -0.342 NA 
HETATM    3  C   UNL     1     -13.315   9.591  71.979  1.00  0.00    -0.452 C  
ENDROOT
BRANCH   2   4
HETATM    4  C   UNL     1     -11.252   9.782  70.630  1.00  0.00    -0.334 A  
HETATM    5  C   UNL     1     -11.830  10.708  69.747  1.00  0.00    -0.377 A  
HETATM    6  C   UNL     1     -11.087  11.350  68.725  1.00  0.00    -0.290 A  
HETATM    7  C   UNL     1      -9.707  11.139  68.587  1.00  0.00    -0.202 A  
HETATM    8  C   UNL     1      -9.170  10.108  69.368  1.00  0.00    -0.229 A  
HETATM    9  C   UNL     1      -9.915   9.471  70.370  1.00  0.00    -0.325 A  
BRANCH   7  10
HETATM   10  C   UNL     1      -8.778  12.045  67.727  1.00  0.00    -0.161 C  
HETATM   11  C   UNL     1      -7.972  11.235  66.610  1.00  0.00    -0.159 C  
HETATM   12  C   UNL     1      -8.816  10.818  65.354  1.00  0.00    -0.202 C  
HETATM   13  C   UNL     1      -9.882   9.767  65.748  1.00  0.00    -0.360 C  
HETATM   14  C   UNL     1      -9.420  12.150  64.841  1.00  0.00     0.107 C  
HETATM   15  C   UNL     1      -9.917  11.791  63.451  1.00  0.00    -0.446 C  
HETATM   16  C   UNL     1     -10.385  12.841  65.816  1.00  0.00    -0.297 C  
HETATM   17  C   UNL     1      -8.674  11.136  62.877  1.00  0.00    -0.170 C  
HETATM   18  C   UNL     1     -11.118  13.998  65.080  1.00  0.00    -0.364 C  
HETATM   19  C   UNL     1     -10.972  15.380  65.678  1.00  0.00    -0.330 C  
HETATM   20  C   UNL     1      -8.065  10.291  64.039  1.00  0.00    -0.137 C  
HETATM   21  C   UNL     1      -9.592  13.236  67.094  1.00  0.00    -0.240 C  
HETATM   22  O   UNL     1      -6.678  10.607  64.068  1.00  0.00    -0.352 OA 
HETATM   23  C   UNL     1     -10.884  15.265  67.153  1.00  0.00    -0.322 C  
HETATM   24  H   UNL     1      -6.233  10.294  63.289  1.00  0.00     0.000 HD 
HETATM   25  C   UNL     1     -11.533  16.110  67.971  1.00  0.00    -0.163 C  
HETATM   26  C   UNL     1      -9.745  14.477  67.637  1.00  0.00    -0.215 C  
HETATM   27  C   UNL     1      -8.983  15.226  68.717  1.00  0.00    -0.200 C  
HETATM   28  C   UNL     1     -10.534  17.213  68.144  1.00  0.00    -0.366 C  
HETATM   29  C   UNL     1      -9.164  16.783  68.654  1.00  0.00    -0.257 C  
HETATM   30  O   UNL     1     -10.835  18.371  67.874  1.00  0.00    -0.356 OA 
BRANCH  20  31
HETATM   31  C   UNL     1      -8.339   8.798  63.632  1.00  0.00    -0.143 C  
HETATM   32  C   UNL     1      -7.870   7.695  64.536  1.00  0.00    -0.134 C  
HETATM   33  O   UNL     1      -8.903   8.491  62.577  1.00  0.00    -0.105 OA 
ENDBRANCH  20  31
ENDBRANCH   7  10
ENDBRANCH   2   4
TORSDOF 3
ENDMDL
MODEL        6
REMARK 921   NORMALIZED FREE ENERGY PREDICTED BY IDOCK:   -6.58 KCAL/MOL
REMARK 922        TOTAL FREE ENERGY PREDICTED BY IDOCK:   -8.79 KCAL/MOL
REMARK 923 INTER-LIGAND FREE ENERGY PREDICTED BY IDOCK:   -8.88 KCAL/MOL
REMARK 924 INTRA-LIGAND FREE ENERGY PREDICTED BY IDOCK:    0.09 KCAL/MOL
REMARK 927      BINDING AFFINITY PREDICTED BY RF-SCORE:    0.00 PKD
ROOT
HETATM    1  C   UNL     1     -14.015  13.090  72.349  1.00  0.00    -0.327 C  
HETATM    2  N   UNL     1     -13.265  14.313  72.104  1.00  0.00    -0.369 NA 
HETATM    3  C   UNL     1     -13.765  15.542  72.715  1.00  0.00    -0.553 C  
ENDROOT
BRANCH   2   4
HETATM    4  C   UNL     1     -12.185  14.354  71.230  1.00  0.00    -0.357 A  
HETATM    5  C   UNL     1     -11.792  13.267  70.432  1.00  0.00    -0.270 A  
HETATM    6  C   UNL     1     -10.736  13.357  69.491  1.00  0.00     0.181 A  
HETATM    7  C   UNL     1     -10.068  14.570  69.261  1.00  0.00    -0.083 A  
HETATM    8  C   UNL     1     -10.360  15.603  70.160  1.00  0.00    -0.268 A  
HETATM    9  C   UNL     1     -11.399  15.502  71.095  1.00  0.00    -0.442 A  
BRANCH   7  10
HETATM   10  C   UNL     1      -9.149  14.828  68.032  1.00  0.00    -0.179 C  
HETATM   11  C   UNL     1      -9.514  13.915  66.773  1.00  0.00    -0.287 C  
HETATM   12  C   UNL     1     -10.791  14.361  65.977  1.00  0.00    -0.309 C  
HETATM   13  C   UNL     1     -12.060  14.165  66.843  1.00  0.00    -0.466 C  
HETATM   14  C   UNL     1     -10.514  15.841  65.611  1.00  0.00    -0.402 C  
HETATM   15  C   UNL     1     -11.565  16.138  64.555  1.00  0.00    -0.164 C  
HETATM   16  C   UNL     1     -10.383  16.790  66.811  1.00  0.00    -0.293 C  
HETATM   17  C   UNL     1     -11.346  14.966  63.614  1.00  0.00     1.217 C  
HETATM   18  C   UNL     1     -10.386  18.261  66.305  1.00  0.00    -0.422 C  
HETATM   19  C   UNL     1      -9.183  19.104  66.671  1.00  0.00    -0.367 C  
HETATM   20  C   UNL     1     -11.079  13.732  64.531  1.00  0.00    -0.380 C  
HETATM   21  C   UNL     1      -9.147  16.356  67.648  1.00  0.00    -0.198 C  
HETATM   22  O   UNL     1      -9.923  13.093  64.000  1.00  0.00    -0.721 OA 
HETATM   23  C   UNL     1      -8.687  18.690  68.006  1.00  0.00    -0.325 C  
HETATM   24  H   UNL     1     -10.095  12.720  63.143  1.00  0.00     0.000 HD 
HETATM   25  C   UNL     1      -8.296  19.587  68.927  1.00  0.00    -0.300 C  
HETATM   26  C   UNL     1      -8.258  17.290  68.091  1.00  0.00    -0.231 C  
HETATM   27  C   UNL     1      -6.882  17.178  68.725  1.00  0.00    -0.209 C  
HETATM   28  C   UNL     1      -6.844  19.761  68.603  1.00  0.00    -0.322 C  
HETATM   29  C   UNL     1      -6.017  18.480  68.591  1.00  0.00    -0.203 C  
HETATM   30  O   UNL     1      -6.390  20.874  68.361  1.00  0.00    -0.321 OA 
BRANCH  20  31
HETATM   31  C   UNL     1     -12.374  12.851  64.399  1.00  0.00    -0.398 C  
HETATM   32  C   UNL     1     -12.435  11.794  63.334  1.00  0.00    -0.490 C  
HETATM   33  O   UNL     1     -13.362  13.012  65.122  1.00  0.00    -0.623 OA 
ENDBRANCH  20  31
ENDBRANCH   7  10
ENDBRANCH   2   4
TORSDOF 3
ENDMDL
MODEL        7
REMARK 921   NORMALIZED FREE ENERGY PREDICTED BY IDOCK:   -6.51 KCAL/MOL
REMARK 922        TOTAL FREE ENERGY PREDICTED BY IDOCK:   -8.71 KCAL/MOL
REMARK 923 INTER-LIGAND FREE ENERGY PREDICTED BY IDOCK:   -7.74 KCAL/MOL
REMARK 924 INTRA-LIGAND FREE ENERGY PREDICTED BY IDOCK:   -0.97 KCAL/MOL
REMARK 927      BINDING AFFINITY PREDICTED BY RF-SCORE:    0.00 PKD
ROOT
HETATM    1  C   UNL     1      -8.022   5.677  64.353  1.00  0.00    -0.125 C  
HETATM    2  N   UNL     1      -7.959   7.117  64.150  1.00  0.00    -0.117 NA 
HETATM    3  C   UNL     1      -7.426   7.593  62.876  1.00  0.00    -0.107 C  
ENDROOT
BRANCH   2   4
HETATM    4  C   UNL     1      -8.274   8.019  65.159  1.00  0.00    -0.144 A  
HETATM    5  C   UNL     1      -9.151   7.725  66.215  1.00  0.00    -0.221 A  
HETATM    6  C   UNL     1      -9.396   8.633  67.276  1.00  0.00    -0.186 A  
HETATM    7  C   UNL     1      -8.715   9.857  67.358  1.00  0.00    -0.129 A  
HETATM    8  C   UNL     1      -7.961  10.207  66.231  1.00  0.00    -0.118 A  
HETATM    9  C   UNL     1      -7.732   9.307  65.182  1.00  0.00    -0.108 A  
BRANCH   7  10
HETATM   10  C   UNL     1      -8.677  10.738  68.640  1.00  0.00    -0.152 C  
HETATM   11  C   UNL     1      -8.708  12.304  68.326  1.00  0.00    -0.178 C  
HETATM   12  C   UNL     1     -10.113  12.870  67.916  1.00  0.00    -0.232 C  
HETATM   13  C   UNL     1     -10.542  12.300  66.542  1.00  0.00    -0.263 C  
HETATM   14  C   UNL     1     -11.047  12.451  69.079  1.00  0.00    -0.288 C  
HETATM   15  C   UNL     1     -12.286  13.301  68.850  1.00  0.00    -0.133 C  
HETATM   16  C   UNL     1     -11.215  10.936  69.261  1.00  0.00    -0.327 C  
HETATM   17  C   UNL     1     -11.653  14.674  68.711  1.00  0.00    -0.346 C  
HETATM   18  C   UNL     1     -12.373  10.663  70.262  1.00  0.00    -0.406 C  
HETATM   19  C   UNL     1     -12.027   9.850  71.491  1.00  0.00    -0.473 C  
HETATM   20  C   UNL     1     -10.346  14.456  67.886  1.00  0.00    -0.232 C  
HETATM   21  C   UNL     1      -9.832  10.330  69.632  1.00  0.00    -0.230 C  
HETATM   22  O   UNL     1      -9.320  15.148  68.589  1.00  0.00    -0.184 OA 
HETATM   23  C   UNL     1     -10.988   8.853  71.138  1.00  0.00    -0.356 C  
HETATM   24  H   UNL     1      -9.458  16.087  68.571  1.00  0.00     0.000 HD 
HETATM   25  C   UNL     1     -11.036   7.588  71.587  1.00  0.00    -0.270 C  
HETATM   26  C   UNL     1      -9.730   9.428  70.649  1.00  0.00    -0.336 C  
HETATM   27  C   UNL     1      -8.538   8.833  71.379  1.00  0.00    -0.254 C  
HETATM   28  C   UNL     1     -10.296   7.683  72.886  1.00  0.00    -0.322 C  
HETATM   29  C   UNL     1      -8.887   8.257  72.796  1.00  0.00    -0.310 C  
HETATM   30  O   UNL     1     -10.825   7.322  73.931  1.00  0.00    -0.284 OA 
BRANCH  20  31
HETATM   31  C   UNL     1     -10.652  15.089  66.481  1.00  0.00    -0.305 C  
HETATM   32  C   UNL     1      -9.558  15.813  65.750  1.00  0.00    -0.355 C  
HETATM   33  O   UNL     1     -11.771  15.041  65.961  1.00  0.00    -0.245 OA 
ENDBRANCH  20  31
ENDBRANCH   7  10
ENDBRANCH   2   4
TORSDOF 3
ENDMDL
MODEL        8
REMARK 921   NORMALIZED FREE ENERGY PREDICTED BY IDOCK:   -6.38 KCAL/MOL
REMARK 922        TOTAL FREE ENERGY PREDICTED BY IDOCK:   -8.55 KCAL/MOL
REMARK 923 INTER-LIGAND FREE ENERGY PREDICTED BY IDOCK:   -7.38 KCAL/MOL
REMARK 924 INTRA-LIGAND FREE ENERGY PREDICTED BY IDOCK:   -1.17 KCAL/MOL
REMARK 927      BINDING AFFINITY PREDICTED BY RF-SCORE:    0.00 PKD
ROOT
HETATM    1  C   UNL     1     -13.225   9.366  71.697  1.00  0.00    -0.397 C  
HETATM    2  N   UNL     1     -11.971   8.799  71.220  1.00  0.00    -0.294 NA 
HETATM    3  C   UNL     1     -11.645   7.439  71.640  1.00  0.00    -0.270 C  
ENDROOT
BRANCH   2   4
HETATM    4  C   UNL     1     -11.052   9.549  70.495  1.00  0.00    -0.283 A  
HETATM    5  C   UNL     1      -9.663   9.363  70.578  1.00  0.00    -0.331 A  
HETATM    6  C   UNL     1      -8.749  10.085  69.770  1.00  0.00    -0.198 A  
HETATM    7  C   UNL     1      -9.197  10.984  68.790  1.00  0.00    -0.167 A  
HETATM    8  C   UNL     1     -10.567  11.276  68.817  1.00  0.00    -0.234 A  
HETATM    9  C   UNL     1     -11.462  10.563  69.625  1.00  0.00    -0.349 A  
BRANCH   7  10
HETATM   10  C   UNL     1      -8.290  11.549  67.659  1.00  0.00    -0.135 C  
HETATM   11  C   UNL     1      -7.446  10.420  66.909  1.00  0.00    -0.107 C  
HETATM   12  C   UNL     1      -8.262   9.548  65.890  1.00  0.00    -0.115 C  
HETATM   13  C   UNL     1      -9.297   8.674  66.640  1.00  0.00    -0.246 C  
HETATM   14  C   UNL     1      -8.904  10.583  64.932  1.00  0.00    -0.207 C  
HETATM   15  C   UNL     1      -9.375   9.729  63.767  1.00  0.00    -0.176 C  
HETATM   16  C   UNL     1      -9.902  11.545  65.593  1.00  0.00    -0.269 C  
HETATM   17  C   UNL     1      -8.105   8.954  63.466  1.00  0.00    -0.168 C  
HETATM   18  C   UNL     1     -10.665  12.332  64.490  1.00  0.00    -0.358 C  
HETATM   19  C   UNL     1     -10.571  13.841  64.548  1.00  0.00    -0.405 C  
HETATM   20  C   UNL     1      -7.481   8.608  64.853  1.00  0.00    -0.093 C  
HETATM   21  C   UNL     1      -9.136  12.403  66.640  1.00  0.00    -0.204 C  
HETATM   22  O   UNL     1      -6.105   8.961  64.763  1.00  0.00    -0.064 OA 
HETATM   23  C   UNL     1     -10.495  14.270  65.965  1.00  0.00    -0.306 C  
HETATM   24  H   UNL     1      -5.643   8.403  64.148  1.00  0.00     0.000 HD 
HETATM   25  C   UNL     1     -11.180  15.331  66.424  1.00  0.00    -0.224 C  
HETATM   26  C   UNL     1      -9.336  13.750  66.699  1.00  0.00    -0.277 C  
HETATM   27  C   UNL     1      -8.610  14.865  67.433  1.00  0.00    -0.208 C  
HETATM   28  C   UNL     1     -10.220  16.456  66.184  1.00  0.00    -0.348 C  
HETATM   29  C   UNL     1      -8.842  16.287  66.812  1.00  0.00    -0.263 C  
HETATM   30  O   UNL     1     -10.556  17.426  65.515  1.00  0.00    -0.595 OA 
BRANCH  20  31
HETATM   31  C   UNL     1      -7.701   7.060  65.014  1.00  0.00    -0.115 C  
HETATM   32  C   UNL     1      -6.755   6.271  65.872  1.00  0.00    -0.049 C  
HETATM   33  O   UNL     1      -8.610   6.456  64.436  1.00  0.00     0.073 OA 
ENDBRANCH  20  31
ENDBRANCH   7  10
ENDBRANCH   2   4
TORSDOF 3
ENDMDL
MODEL        9
REMARK 921   NORMALIZED FREE ENERGY PREDICTED BY IDOCK:   -6.33 KCAL/MOL
REMARK 922        TOTAL FREE ENERGY PREDICTED BY IDOCK:   -8.50 KCAL/MOL
REMARK 923 INTER-LIGAND FREE ENERGY PREDICTED BY IDOCK:   -7.57 KCAL/MOL
REMARK 924 INTRA-LIGAND FREE ENERGY PREDICTED BY IDOCK:   -0.93 KCAL/MOL
REMARK 927      BINDING AFFINITY PREDICTED BY RF-SCORE:    0.00 PKD
ROOT
HETATM    1  C   UNL     1     -11.400   6.637  70.360  1.00  0.00    -0.365 C  
HETATM    2  N   UNL     1     -11.558   8.049  70.677  1.00  0.00    -0.243 NA 
HETATM    3  C   UNL     1     -12.697   8.428  71.510  1.00  0.00    -0.308 C  
ENDROOT
BRANCH   2   4
HETATM    4  C   UNL     1     -10.742   9.026  70.120  1.00  0.00    -0.233 A  
HETATM    5  C   UNL     1      -9.362   8.862  69.920  1.00  0.00    -0.172 A  
HETATM    6  C   UNL     1      -8.564   9.842  69.278  1.00  0.00    -0.158 A  
HETATM    7  C   UNL     1      -9.133  11.008  68.745  1.00  0.00    -0.161 A  
HETATM    8  C   UNL     1     -10.475  11.235  69.078  1.00  0.00    -0.221 A  
HETATM    9  C   UNL     1     -11.253  10.265  69.722  1.00  0.00    -0.339 A  
BRANCH   7  10
HETATM   10  C   UNL     1      -8.396  11.950  67.749  1.00  0.00    -0.149 C  
HETATM   11  C   UNL     1      -7.691  11.167  66.549  1.00  0.00    -0.146 C  
HETATM   12  C   UNL     1      -8.663  10.657  65.427  1.00  0.00    -0.195 C  
HETATM   13  C   UNL     1      -9.588   9.547  65.982  1.00  0.00    -0.316 C  
HETATM   14  C   UNL     1      -9.424  11.929  64.976  1.00  0.00    -0.028 C  
HETATM   15  C   UNL     1     -10.076  11.497  63.673  1.00  0.00    -0.427 C  
HETATM   16  C   UNL     1     -10.296  12.579  66.059  1.00  0.00    -0.277 C  
HETATM   17  C   UNL     1      -8.877  10.912  62.948  1.00  0.00    -0.265 C  
HETATM   18  C   UNL     1     -11.203  13.662  65.408  1.00  0.00    -0.306 C  
HETATM   19  C   UNL     1     -11.078  15.068  65.954  1.00  0.00    -0.334 C  
HETATM   20  C   UNL     1      -8.059  10.145  64.033  1.00  0.00    -0.158 C  
HETATM   21  C   UNL     1      -9.371  13.065  67.210  1.00  0.00    -0.220 C  
HETATM   22  O   UNL     1      -6.707  10.556  63.868  1.00  0.00    -0.328 OA 
HETATM   23  C   UNL     1     -10.785  15.000  67.406  1.00  0.00    -0.289 C  
HETATM   24  H   UNL     1      -6.349  10.253  63.041  1.00  0.00     0.000 HD 
HETATM   25  C   UNL     1     -11.377  15.823  68.288  1.00  0.00    -0.354 C  
HETATM   26  C   UNL     1      -9.538  14.307  67.746  1.00  0.00    -0.221 C  
HETATM   27  C   UNL     1      -8.694  15.137  68.698  1.00  0.00    -0.174 C  
HETATM   28  C   UNL     1     -10.447  16.996  68.303  1.00  0.00    -0.363 C  
HETATM   29  C   UNL     1      -8.993  16.676  68.630  1.00  0.00    -0.246 C  
HETATM   30  O   UNL     1     -10.863  18.122  68.054  1.00  0.00    -0.331 OA 
BRANCH  20  31
HETATM   31  C   UNL     1      -8.277   8.626  63.695  1.00  0.00    -0.148 C  
HETATM   32  C   UNL     1      -7.692   7.583  64.603  1.00  0.00    -0.122 C  
HETATM   33  O   UNL     1      -8.890   8.251  62.691  1.00  0.00     0.025 OA 
ENDBRANCH  20  31
ENDBRANCH   7  10
ENDBRANCH   2   4
TORSDOF 3
ENDMDL
MODEL       10
REMARK 921   NORMALIZED FREE ENERGY PREDICTED BY IDOCK:   -6.28 KCAL/MOL
REMARK 922        TOTAL FREE ENERGY PREDICTED BY IDOCK:   -8.44 KCAL/MOL
REMARK 923 INTER-LIGAND FREE ENERGY PREDICTED BY IDOCK:   -7.39 KCAL/MOL
REMARK 924 INTRA-LIGAND FREE ENERGY PREDICTED BY IDOCK:   -1.05 KCAL/MOL
REMARK 927      BINDING AFFINITY PREDICTED BY RF-SCORE:    0.00 PKD
ROOT
HETATM    1  C   UNL     1      -7.899   6.615  63.356  1.00  0.00    -0.106 C  
HETATM    2  N   UNL     1      -8.276   6.270  64.719  1.00  0.00    -0.128 NA 
HETATM    3  C   UNL     1      -8.532   4.862  65.010  1.00  0.00    -0.142 C  
ENDROOT
BRANCH   2   4
HETATM    4  C   UNL     1      -8.507   7.239  65.688  1.00  0.00    -0.131 A  
HETATM    5  C   UNL     1      -9.533   7.153  66.642  1.00  0.00    -0.219 A  
HETATM    6  C   UNL     1      -9.700   8.115  67.670  1.00  0.00    -0.200 A  
HETATM    7  C   UNL     1      -8.796   9.177  67.826  1.00  0.00    -0.125 A  
HETATM    8  C   UNL     1      -7.870   9.342  66.788  1.00  0.00    -0.104 A  
HETATM    9  C   UNL     1      -7.718   8.391  65.770  1.00  0.00    -0.094 A  
BRANCH   7  10
HETATM   10  C   UNL     1      -8.716  10.060  69.104  1.00  0.00    -0.168 C  
HETATM   11  C   UNL     1      -8.820  11.624  68.794  1.00  0.00    -0.017 C  
HETATM   12  C   UNL     1     -10.265  12.141  68.464  1.00  0.00    -0.214 C  
HETATM   13  C   UNL     1     -10.751  11.554  67.116  1.00  0.00    -0.294 C  
HETATM   14  C   UNL     1     -11.117  11.690  69.678  1.00  0.00    -0.177 C  
HETATM   15  C   UNL     1     -12.395  12.497  69.520  1.00  0.00     0.009 C  
HETATM   16  C   UNL     1     -11.220  10.170  69.868  1.00  0.00    -0.343 C  
HETATM   17  C   UNL     1     -11.819  13.891  69.346  1.00  0.00    -0.384 C  
HETATM   18  C   UNL     1     -12.310   9.858  70.933  1.00  0.00    -0.403 C  
HETATM   19  C   UNL     1     -11.866   9.059  72.139  1.00  0.00    -0.384 C  
HETATM   20  C   UNL     1     -10.554  13.717  68.449  1.00  0.00    -0.253 C  
HETATM   21  C   UNL     1      -9.798   9.613  70.159  1.00  0.00    -0.310 C  
HETATM   22  O   UNL     1      -9.515  14.445  69.093  1.00  0.00    -0.386 OA 
HETATM   23  C   UNL     1     -10.815   8.099  71.727  1.00  0.00    -0.317 C  
HETATM   24  H   UNL     1      -9.687  15.379  69.084  1.00  0.00     0.000 HD 
HETATM   25  C   UNL     1     -10.794   6.833  72.177  1.00  0.00    -0.257 C  
HETATM   26  C   UNL     1      -9.608   8.717  71.168  1.00  0.00    -0.309 C  
HETATM   27  C   UNL     1      -8.356   8.165  71.829  1.00  0.00    -0.181 C  
HETATM   28  C   UNL     1      -9.985   6.956  73.432  1.00  0.00    -0.236 C  
HETATM   29  C   UNL     1      -8.604   7.579  73.263  1.00  0.00    -0.203 C  
HETATM   30  O   UNL     1     -10.441   6.578  74.505  1.00  0.00    -0.275 OA 
BRANCH  20  31
HETATM   31  C   UNL     1     -10.961  14.338  67.064  1.00  0.00    -0.303 C  
HETATM   32  C   UNL     1      -9.937  15.103  66.276  1.00  0.00    -0.307 C  
HETATM   33  O   UNL     1     -12.104  14.246  66.606  1.00  0.00    -0.426 OA 
ENDBRANCH  20  31
ENDBRANCH   7  10
ENDBRANCH   2   4
TORSDOF 3
ENDMDL
MODEL       11
REMARK 921   NORMALIZED FREE ENERGY PREDICTED BY IDOCK:   -6.22 KCAL/MOL
REMARK 922        TOTAL FREE ENERGY PREDICTED BY IDOCK:   -8.37 KCAL/MOL
REMARK 923 INTER-LIGAND FREE ENERGY PREDICTED BY IDOCK:   -7.36 KCAL/MOL
REMARK 924 INTRA-LIGAND FREE ENERGY PREDICTED BY IDOCK:   -1.01 KCAL/MOL
REMARK 927      BINDING AFFINITY PREDICTED BY RF-SCORE:    0.00 PKD
ROOT
HETATM    1  C   UNL     1     -11.342   7.877  72.775  1.00  0.00    -0.393 C  
HETATM    2  N   UNL     1     -12.136   8.882  72.082  1.00  0.00    -0.366 NA 
HETATM    3  C   UNL     1     -13.523   9.052  72.505  1.00  0.00    -0.429 C  
ENDROOT
BRANCH   2   4
HETATM    4  C   UNL     1     -11.649   9.575  70.980  1.00  0.00    -0.344 A  
HETATM    5  C   UNL     1     -10.327   9.468  70.519  1.00  0.00    -0.350 A  
HETATM    6  C   UNL     1      -9.875  10.124  69.346  1.00  0.00    -0.247 A  
HETATM    7  C   UNL     1     -10.754  10.867  68.543  1.00  0.00    -0.239 A  
HETATM    8  C   UNL     1     -12.026  11.092  69.085  1.00  0.00    -0.413 A  
HETATM    9  C   UNL     1     -12.461  10.448  70.250  1.00  0.00    -0.296 A  
BRANCH   7  10
HETATM   10  C   UNL     1     -10.420  11.324  67.094  1.00  0.00    -0.259 C  
HETATM   11  C   UNL     1     -10.882  12.822  66.786  1.00  0.00    -0.289 C  
HETATM   12  C   UNL     1      -9.969  13.939  67.405  1.00  0.00    -0.240 C  
HETATM   13  C   UNL     1     -10.074  13.924  68.950  1.00  0.00    -0.106 C  
HETATM   14  C   UNL     1      -8.550  13.606  66.878  1.00  0.00    -0.121 C  
HETATM   15  C   UNL     1      -7.765  14.873  67.177  1.00  0.00    -0.177 C  
HETATM   16  C   UNL     1      -7.985  12.258  67.348  1.00  0.00    -0.171 C  
HETATM   17  C   UNL     1      -8.685  15.914  66.565  1.00  0.00    -0.350 C  
HETATM   18  C   UNL     1      -6.475  12.178  66.982  1.00  0.00    -0.088 C  
HETATM   19  C   UNL     1      -6.052  11.015  66.111  1.00  0.00    -0.119 C  
HETATM   20  C   UNL     1     -10.136  15.455  66.914  1.00  0.00    -0.257 C  
HETATM   21  C   UNL     1      -8.887  11.124  66.786  1.00  0.00    -0.162 C  
HETATM   22  O   UNL     1     -10.872  15.533  65.698  1.00  0.00    -0.334 OA 
HETATM   23  C   UNL     1      -6.887   9.834  66.437  1.00  0.00    -0.088 C  
HETATM   24  H   UNL     1     -10.971  16.432  65.408  1.00  0.00     0.000 HD 
HETATM   25  C   UNL     1      -6.363   8.602  66.542  1.00  0.00    -0.058 C  
HETATM   26  C   UNL     1      -8.325  10.022  66.213  1.00  0.00    -0.127 C  
HETATM   27  C   UNL     1      -8.906   8.876  65.402  1.00  0.00    -0.234 C  
HETATM   28  C   UNL     1      -6.455   8.096  65.134  1.00  0.00    -0.052 C  
HETATM   29  C   UNL     1      -7.848   8.129  64.516  1.00  0.00    -0.138 C  
HETATM   30  O   UNL     1      -5.453   7.700  64.550  1.00  0.00    -0.033 OA 
BRANCH  20  31
HETATM   31  C   UNL     1     -10.631  16.486  67.991  1.00  0.00    -0.328 C  
HETATM   32  C   UNL     1      -9.697  17.567  68.454  1.00  0.00    -0.316 C  
HETATM   33  O   UNL     1     -11.756  16.428  68.497  1.00  0.00    -0.239 OA 
ENDBRANCH  20  31
ENDBRANCH   7  10
ENDBRANCH   2   4
TORSDOF 3
ENDMDL
MODEL       12
REMARK 921   NORMALIZED FREE ENERGY PREDICTED BY IDOCK:   -6.11 KCAL/MOL
REMARK 922        TOTAL FREE ENERGY PREDICTED BY IDOCK:   -8.23 KCAL/MOL
REMARK 923 INTER-LIGAND FREE ENERGY PREDICTED BY IDOCK:   -7.41 KCAL/MOL
REMARK 924 INTRA-LIGAND FREE ENERGY PREDICTED BY IDOCK:   -0.82 KCAL/MOL
REMARK 927      BINDING AFFINITY PREDICTED BY RF-SCORE:    0.00 PKD
ROOT
HETATM    1  C   UNL     1     -12.223  15.616  70.014  1.00  0.00    -0.327 C  
HETATM    2  N   UNL     1     -11.555  14.985  68.884  1.00  0.00    -0.309 NA 
HETATM    3  C   UNL     1     -10.947  15.863  67.887  1.00  0.00    -0.327 C  
ENDROOT
BRANCH   2   4
HETATM    4  C   UNL     1     -11.590  13.611  68.680  1.00  0.00    -0.329 A  
HETATM    5  C   UNL     1     -11.687  13.018  67.412  1.00  0.00    -0.427 A  
HETATM    6  C   UNL     1     -11.642  11.613  67.223  1.00  0.00    -0.316 A  
HETATM    7  C   UNL     1     -11.428  10.741  68.301  1.00  0.00    -0.353 A  
HETATM    8  C   UNL     1     -11.483  11.325  69.573  1.00  0.00    -0.376 A  
HETATM    9  C   UNL     1     -11.538  12.714  69.751  1.00  0.00    -0.285 A  
BRANCH   7  10
HETATM   10  C   UNL     1     -11.035   9.245  68.135  1.00  0.00    -0.060 C  
HETATM   11  C   UNL     1     -10.346   8.930  66.728  1.00  0.00    -0.317 C  
HETATM   12  C   UNL     1      -8.850   9.390  66.604  1.00  0.00    -0.151 C  
HETATM   13  C   UNL     1      -8.761  10.936  66.620  1.00  0.00    -0.156 C  
HETATM   14  C   UNL     1      -8.143   8.716  67.806  1.00  0.00    -0.107 C  
HETATM   15  C   UNL     1      -6.669   8.868  67.469  1.00  0.00    -0.066 C  
HETATM   16  C   UNL     1      -8.636   9.174  69.186  1.00  0.00    -0.133 C  
HETATM   17  C   UNL     1      -6.656   8.324  66.051  1.00  0.00    -0.053 C  
HETATM   18  C   UNL     1      -7.670   8.638  70.281  1.00  0.00    -0.083 C  
HETATM   19  C   UNL     1      -8.284   7.774  71.361  1.00  0.00    -0.106 C  
HETATM   20  C   UNL     1      -7.961   8.858  65.381  1.00  0.00    -0.110 C  
HETATM   21  C   UNL     1     -10.130   8.769  69.334  1.00  0.00    -0.203 C  
HETATM   22  O   UNL     1      -8.563   7.734  64.748  1.00  0.00    -0.367 OA 
HETATM   23  C   UNL     1      -9.663   8.244  71.635  1.00  0.00    -0.261 C  
HETATM   24  H   UNL     1      -8.035   7.419  64.023  1.00  0.00     0.000 HD 
HETATM   25  C   UNL     1     -10.145   8.340  72.885  1.00  0.00    -0.285 C  
HETATM   26  C   UNL     1     -10.569   8.182  70.483  1.00  0.00    -0.228 C  
HETATM   27  C   UNL     1     -11.873   7.493  70.851  1.00  0.00    -0.293 C  
HETATM   28  C   UNL     1     -10.723   6.975  73.107  1.00  0.00    -0.326 C  
HETATM   29  C   UNL     1     -11.751   6.523  72.077  1.00  0.00    -0.367 C  
HETATM   30  O   UNL     1     -10.360   6.295  74.061  1.00  0.00    -0.276 OA 
BRANCH  20  31
HETATM   31  C   UNL     1      -7.466   9.940  64.355  1.00  0.00    -0.137 C  
HETATM   32  C   UNL     1      -8.377  10.359  63.238  1.00  0.00    -0.163 C  
HETATM   33  O   UNL     1      -6.341  10.445  64.413  1.00  0.00    -0.119 OA 
ENDBRANCH  20  31
ENDBRANCH   7  10
ENDBRANCH   2   4
TORSDOF 3
ENDMDL
MODEL       13
REMARK 921   NORMALIZED FREE ENERGY PREDICTED BY IDOCK:   -6.09 KCAL/MOL
REMARK 922        TOTAL FREE ENERGY PREDICTED BY IDOCK:   -8.21 KCAL/MOL
REMARK 923 INTER-LIGAND FREE ENERGY PREDICTED BY IDOCK:   -7.21 KCAL/MOL
REMARK 924 INTRA-LIGAND FREE ENERGY PREDICTED BY IDOCK:   -1.00 KCAL/MOL
REMARK 927      BINDING AFFINITY PREDICTED BY RF-SCORE:    0.00 PKD
ROOT
HETATM    1  C   UNL     1     -12.650  14.070  65.485  1.00  0.00    -0.516 C  
HETATM    2  N   UNL     1     -11.919  12.935  64.937  1.00  0.00    -0.368 NA 
HETATM    3  C   UNL     1     -12.229  12.534  63.568  1.00  0.00    -0.558 C  
ENDROOT
BRANCH   2   4
HETATM    4  C   UNL     1     -11.048  12.177  65.710  1.00  0.00    -0.319 A  
HETATM    5  C   UNL     1     -10.517  12.614  66.934  1.00  0.00    -0.246 A  
HETATM    6  C   UNL     1      -9.693  11.792  67.743  1.00  0.00    -0.185 A  
HETATM    7  C   UNL     1      -9.419  10.462  67.387  1.00  0.00    -0.170 A  
HETATM    8  C   UNL     1      -9.824  10.083  66.101  1.00  0.00    -0.309 A  
HETATM    9  C   UNL     1     -10.630  10.907  65.304  1.00  0.00    -0.259 A  
BRANCH   7  10
HETATM   10  C   UNL     1      -8.817   9.414  68.368  1.00  0.00    -0.128 C  
HETATM   11  C   UNL     1      -9.420   9.516  69.843  1.00  0.00    -0.247 C  
HETATM   12  C   UNL     1     -10.863   8.923  70.013  1.00  0.00    -0.239 C  
HETATM   13  C   UNL     1     -11.891   9.777  69.230  1.00  0.00     0.339 C  
HETATM   14  C   UNL     1     -10.741   7.469  69.491  1.00  0.00    -0.222 C  
HETATM   15  C   UNL     1     -12.018   6.814  69.992  1.00  0.00    -0.179 C  
HETATM   16  C   UNL     1     -10.381   7.343  68.004  1.00  0.00    -0.247 C  
HETATM   17  C   UNL     1     -11.969   7.207  71.458  1.00  0.00    -0.361 C  
HETATM   18  C   UNL     1     -10.562   5.865  67.554  1.00  0.00    -0.347 C  
HETATM   19  C   UNL     1      -9.345   5.183  66.968  1.00  0.00    -0.127 C  
HETATM   20  C   UNL     1     -11.447   8.677  71.486  1.00  0.00    -0.295 C  
HETATM   21  C   UNL     1      -8.969   7.957  67.787  1.00  0.00    -0.128 C  
HETATM   22  O   UNL     1     -10.416   8.707  72.467  1.00  0.00    -0.299 OA 
HETATM   23  C   UNL     1      -8.540   6.181  66.222  1.00  0.00    -0.136 C  
HETATM   24  H   UNL     1     -10.763   8.562  73.340  1.00  0.00     0.000 HD 
HETATM   25  C   UNL     1      -7.987   5.899  65.030  1.00  0.00    -0.123 C  
HETATM   26  C   UNL     1      -8.043   7.296  67.036  1.00  0.00    -0.117 C  
HETATM   27  C   UNL     1      -6.555   7.510  66.818  1.00  0.00    -0.057 C  
HETATM   28  C   UNL     1      -6.656   5.335  65.423  1.00  0.00    -0.040 C  
HETATM   29  C   UNL     1      -5.800   6.232  66.310  1.00  0.00    -0.024 C  
HETATM   30  O   UNL     1      -6.319   4.219  65.044  1.00  0.00    -0.032 OA 
BRANCH  20  31
HETATM   31  C   UNL     1     -12.698   9.536  71.892  1.00  0.00    -0.411 C  
HETATM   32  C   UNL     1     -13.999   8.843  72.180  1.00  0.00    -0.520 C  
HETATM   33  O   UNL     1     -12.664  10.769  71.957  1.00  0.00    -0.345 OA 
ENDBRANCH  20  31
ENDBRANCH   7  10
ENDBRANCH   2   4
TORSDOF 3
ENDMDL
MODEL       14
REMARK 921   NORMALIZED FREE ENERGY PREDICTED BY IDOCK:   -6.07 KCAL/MOL
REMARK 922        TOTAL FREE ENERGY PREDICTED BY IDOCK:   -8.19 KCAL/MOL
REMARK 923 INTER-LIGAND FREE ENERGY PREDICTED BY IDOCK:   -7.21 KCAL/MOL
REMARK 924 INTRA-LIGAND FREE ENERGY PREDICTED BY IDOCK:   -0.98 KCAL/MOL
REMARK 927      BINDING AFFINITY PREDICTED BY RF-SCORE:    0.00 PKD
ROOT
HETATM    1  C   UNL     1     -11.832  15.831  69.557  1.00  0.00    -0.347 C  
HETATM    2  N   UNL     1     -11.287  15.125  68.407  1.00  0.00    -0.300 NA 
HETATM    3  C   UNL     1     -10.776  15.933  67.302  1.00  0.00    -0.306 C  
ENDROOT
BRANCH   2   4
HETATM    4  C   UNL     1     -11.352  13.741  68.292  1.00  0.00    -0.285 A  
HETATM    5  C   UNL     1     -11.589  13.075  67.080  1.00  0.00    -0.413 A  
HETATM    6  C   UNL     1     -11.573  11.661  66.973  1.00  0.00    -0.268 A  
HETATM    7  C   UNL     1     -11.250  10.852  68.073  1.00  0.00    -0.378 A  
HETATM    8  C   UNL     1     -11.164  11.512  69.306  1.00  0.00    -0.336 A  
HETATM    9  C   UNL     1     -11.191  12.909  69.403  1.00  0.00    -0.197 A  
BRANCH   7  10
HETATM   10  C   UNL     1     -10.886   9.343  67.957  1.00  0.00    -0.197 C  
HETATM   11  C   UNL     1     -10.199   8.969  66.564  1.00  0.00    -0.318 C  
HETATM   12  C   UNL     1      -8.694   9.395  66.431  1.00  0.00    -0.149 C  
HETATM   13  C   UNL     1      -8.574  10.939  66.398  1.00  0.00    -0.160 C  
HETATM   14  C   UNL     1      -8.005   8.747  67.658  1.00  0.00    -0.106 C  
HETATM   15  C   UNL     1      -6.527   8.858  67.322  1.00  0.00    -0.061 C  
HETATM   16  C   UNL     1      -8.493   9.259  69.021  1.00  0.00    -0.132 C  
HETATM   17  C   UNL     1      -6.520   8.268  65.923  1.00  0.00    -0.053 C  
HETATM   18  C   UNL     1      -7.542   8.740  70.136  1.00  0.00    -0.072 C  
HETATM   19  C   UNL     1      -8.178   7.923  71.240  1.00  0.00    -0.107 C  
HETATM   20  C   UNL     1      -7.811   8.806  65.230  1.00  0.00    -0.109 C  
HETATM   21  C   UNL     1      -9.996   8.889  69.175  1.00  0.00    -0.192 C  
HETATM   22  O   UNL     1      -8.433   7.675  64.631  1.00  0.00    -0.354 OA 
HETATM   23  C   UNL     1      -9.548   8.430  71.493  1.00  0.00    -0.273 C  
HETATM   24  H   UNL     1      -7.909   7.326  63.919  1.00  0.00     0.000 HD 
HETATM   25  C   UNL     1     -10.033   8.576  72.738  1.00  0.00    -0.193 C  
HETATM   26  C   UNL     1     -10.451   8.349  70.340  1.00  0.00    -0.228 C  
HETATM   27  C   UNL     1     -11.770   7.699  70.724  1.00  0.00    -0.260 C  
HETATM   28  C   UNL     1     -10.638   7.231  73.002  1.00  0.00    -0.326 C  
HETATM   29  C   UNL     1     -11.672   6.766  71.982  1.00  0.00    -0.343 C  
HETATM   30  O   UNL     1     -10.293   6.575  73.978  1.00  0.00    -0.314 OA 
BRANCH  20  31
HETATM   31  C   UNL     1      -7.291   9.844  64.172  1.00  0.00    -0.133 C  
HETATM   32  C   UNL     1      -8.200  10.266  63.053  1.00  0.00    -0.162 C  
HETATM   33  O   UNL     1      -6.148  10.311  64.206  1.00  0.00    -0.132 OA 
ENDBRANCH  20  31
ENDBRANCH   7  10
ENDBRANCH   2   4
TORSDOF 3
ENDMDL
MODEL       15
REMARK 921   NORMALIZED FREE ENERGY PREDICTED BY IDOCK:   -5.96 KCAL/MOL
REMARK 922        TOTAL FREE ENERGY PREDICTED BY IDOCK:   -8.07 KCAL/MOL
REMARK 923 INTER-LIGAND FREE ENERGY PREDICTED BY IDOCK:   -7.17 KCAL/MOL
REMARK 924 INTRA-LIGAND FREE ENERGY PREDICTED BY IDOCK:   -0.90 KCAL/MOL
REMARK 927      BINDING AFFINITY PREDICTED BY RF-SCORE:    0.00 PKD
ROOT
HETATM    1  C   UNL     1      -9.255   4.332  63.182  1.00  0.00    -0.140 C  
HETATM    2  N   UNL     1      -8.501   4.583  64.401  1.00  0.00    -0.116 NA 
HETATM    3  C   UNL     1      -7.734   3.472  64.959  1.00  0.00    -0.081 C  
ENDROOT
BRANCH   2   4
HETATM    4  C   UNL     1      -8.591   5.788  65.089  1.00  0.00    -0.109 A  
HETATM    5  C   UNL     1      -9.330   5.952  66.271  1.00  0.00    -0.168 A  
HETATM    6  C   UNL     1      -9.343   7.170  66.997  1.00  0.00    -0.181 A  
HETATM    7  C   UNL     1      -8.554   8.261  66.601  1.00  0.00    -0.135 A  
HETATM    8  C   UNL     1      -7.941   8.143  65.347  1.00  0.00    -0.126 A  
HETATM    9  C   UNL     1      -7.942   6.938  64.632  1.00  0.00    -0.112 A  
BRANCH   7  10
HETATM   10  C   UNL     1      -8.259   9.487  67.513  1.00  0.00    -0.121 C  
HETATM   11  C   UNL     1      -8.370  10.882  66.745  1.00  0.00    -0.138 C  
HETATM   12  C   UNL     1      -9.835  11.375  66.471  1.00  0.00    -0.237 C  
HETATM   13  C   UNL     1     -10.535  10.438  65.455  1.00  0.00    -0.192 C  
HETATM   14  C   UNL     1     -10.502  11.381  67.869  1.00  0.00    -0.212 C  
HETATM   15  C   UNL     1     -11.769  12.189  67.642  1.00  0.00    -0.386 C  
HETATM   16  C   UNL     1     -10.614  10.004  68.539  1.00  0.00    -0.245 C  
HETATM   17  C   UNL     1     -11.192  13.417  66.962  1.00  0.00    -0.328 C  
HETATM   18  C   UNL     1     -11.535  10.113  69.787  1.00  0.00    -0.288 C  
HETATM   19  C   UNL     1     -10.933   9.694  71.111  1.00  0.00    -0.430 C  
HETATM   20  C   UNL     1     -10.084  12.887  66.000  1.00  0.00    -0.285 C  
HETATM   21  C   UNL     1      -9.178   9.464  68.793  1.00  0.00    -0.132 C  
HETATM   22  O   UNL     1      -8.940  13.701  66.234  1.00  0.00    -0.464 OA 
HETATM   23  C   UNL     1      -9.981   8.581  70.881  1.00  0.00    -0.237 C  
HETATM   24  H   UNL     1      -9.088  14.597  65.955  1.00  0.00     0.000 HD 
HETATM   25  C   UNL     1      -9.924   7.517  71.700  1.00  0.00    -0.200 C  
HETATM   26  C   UNL     1      -8.858   8.910  69.997  1.00  0.00    -0.165 C  
HETATM   27  C   UNL     1      -7.535   8.500  70.620  1.00  0.00    -0.066 C  
HETATM   28  C   UNL     1      -8.930   7.961  72.729  1.00  0.00    -0.198 C  
HETATM   29  C   UNL     1      -7.576   8.402  72.185  1.00  0.00    -0.152 C  
HETATM   30  O   UNL     1      -9.226   7.964  73.918  1.00  0.00    -0.267 OA 
BRANCH  20  31
HETATM   31  C   UNL     1     -10.681  13.079  64.560  1.00  0.00    -0.385 C  
HETATM   32  C   UNL     1     -11.975  13.824  64.398  1.00  0.00    -0.480 C  
HETATM   33  O   UNL     1     -10.142  12.615  63.550  1.00  0.00    -0.392 OA 
ENDBRANCH  20  31
ENDBRANCH   7  10
ENDBRANCH   2   4
TORSDOF 3
ENDMDL
MODEL       16
REMARK 921   NORMALIZED FREE ENERGY PREDICTED BY IDOCK:   -5.88 KCAL/MOL
REMARK 922        TOTAL FREE ENERGY PREDICTED BY IDOCK:   -7.96 KCAL/MOL
REMARK 923 INTER-LIGAND FREE ENERGY PREDICTED BY IDOCK:   -6.87 KCAL/MOL
REMARK 924 INTRA-LIGAND FREE ENERGY PREDICTED BY IDOCK:   -1.09 KCAL/MOL
REMARK 927      BINDING AFFINITY PREDICTED BY RF-SCORE:    0.00 PKD
ROOT
HETATM    1  C   UNL     1     -11.065   7.766  72.456  1.00  0.00    -0.346 C  
HETATM    2  N   UNL     1      -9.740   8.326  72.232  1.00  0.00    -0.261 NA 
HETATM    3  C   UNL     1      -8.787   8.259  73.336  1.00  0.00    -0.200 C  
ENDROOT
BRANCH   2   4
HETATM    4  C   UNL     1      -9.415   9.008  71.065  1.00  0.00    -0.274 A  
HETATM    5  C   UNL     1     -10.340   9.763  70.327  1.00  0.00    -0.348 A  
HETATM    6  C   UNL     1      -9.967  10.515  69.184  1.00  0.00    -0.236 A  
HETATM    7  C   UNL     1      -8.629  10.595  68.770  1.00  0.00    -0.150 A  
HETATM    8  C   UNL     1      -7.742   9.724  69.416  1.00  0.00    -0.109 A  
HETATM    9  C   UNL     1      -8.121   8.977  70.539  1.00  0.00    -0.169 A  
BRANCH   7  10
HETATM   10  C   UNL     1      -8.102  11.647  67.752  1.00  0.00    -0.139 C  
HETATM   11  C   UNL     1      -7.374  10.991  66.491  1.00  0.00    -0.144 C  
HETATM   12  C   UNL     1      -8.335  10.361  65.422  1.00  0.00    -0.166 C  
HETATM   13  C   UNL     1      -9.053   9.121  66.009  1.00  0.00    -0.245 C  
HETATM   14  C   UNL     1      -9.300  11.516  65.050  1.00  0.00    -0.107 C  
HETATM   15  C   UNL     1      -9.969  11.012  63.782  1.00  0.00    -0.404 C  
HETATM   16  C   UNL     1     -10.183  12.018  66.202  1.00  0.00    -0.255 C  
HETATM   17  C   UNL     1      -8.749  10.617  62.969  1.00  0.00    -0.210 C  
HETATM   18  C   UNL     1     -11.277  12.966  65.635  1.00  0.00    -0.325 C  
HETATM   19  C   UNL     1     -11.319  14.367  66.205  1.00  0.00    -0.350 C  
HETATM   20  C   UNL     1      -7.759   9.962  63.981  1.00  0.00    -0.141 C  
HETATM   21  C   UNL     1      -9.261  12.616  67.302  1.00  0.00    -0.195 C  
HETATM   22  O   UNL     1      -6.494  10.567  63.738  1.00  0.00    -0.320 OA 
HETATM   23  C   UNL     1     -10.923  14.323  67.633  1.00  0.00    -0.286 C  
HETATM   24  H   UNL     1      -6.152  10.330  62.884  1.00  0.00     0.000 HD 
HETATM   25  C   UNL     1     -11.567  15.039  68.571  1.00  0.00    -0.348 C  
HETATM   26  C   UNL     1      -9.569  13.814  67.876  1.00  0.00    -0.222 C  
HETATM   27  C   UNL     1      -8.792  14.744  68.791  1.00  0.00    -0.179 C  
HETATM   28  C   UNL     1     -10.816  16.335  68.553  1.00  0.00    -0.330 C  
HETATM   29  C   UNL     1      -9.313  16.224  68.779  1.00  0.00    -0.235 C  
HETATM   30  O   UNL     1     -11.406  17.391  68.358  1.00  0.00     0.016 OA 
BRANCH  20  31
HETATM   31  C   UNL     1      -7.778   8.432  63.622  1.00  0.00    -0.144 C  
HETATM   32  C   UNL     1      -6.772   7.518  64.259  1.00  0.00    -0.048 C  
HETATM   33  O   UNL     1      -8.575   7.951  62.810  1.00  0.00    -0.000 OA 
ENDBRANCH  20  31
ENDBRANCH   7  10
ENDBRANCH   2   4
TORSDOF 3
ENDMDL
MODEL       17
REMARK 921   NORMALIZED FREE ENERGY PREDICTED BY IDOCK:   -5.85 KCAL/MOL
REMARK 922        TOTAL FREE ENERGY PREDICTED BY IDOCK:   -7.93 KCAL/MOL
REMARK 923 INTER-LIGAND FREE ENERGY PREDICTED BY IDOCK:   -7.01 KCAL/MOL
REMARK 924 INTRA-LIGAND FREE ENERGY PREDICTED BY IDOCK:   -0.93 KCAL/MOL
REMARK 927      BINDING AFFINITY PREDICTED BY RF-SCORE:    0.00 PKD
ROOT
HETATM    1  C   UNL     1     -14.366  15.015  71.890  1.00  0.00    -0.584 C  
HETATM    2  N   UNL     1     -12.926  15.159  72.045  1.00  0.00    -0.326 NA 
HETATM    3  C   UNL     1     -12.403  15.261  73.405  1.00  0.00    -0.506 C  
ENDROOT
BRANCH   2   4
HETATM    4  C   UNL     1     -12.079  15.320  70.955  1.00  0.00    -0.344 A  
HETATM    5  C   UNL     1     -10.739  14.901  70.946  1.00  0.00     0.135 A  
HETATM    6  C   UNL     1      -9.917  15.004  69.795  1.00  0.00    -0.073 A  
HETATM    7  C   UNL     1     -10.428  15.472  68.575  1.00  0.00    -0.238 A  
HETATM    8  C   UNL     1     -11.714  16.025  68.630  1.00  0.00    -0.273 A  
HETATM    9  C   UNL     1     -12.516  15.928  69.775  1.00  0.00     0.057 A  
BRANCH   7  10
HETATM   10  C   UNL     1      -9.699  15.299  67.212  1.00  0.00    -0.212 C  
HETATM   11  C   UNL     1      -9.096  16.665  66.645  1.00  0.00    -0.277 C  
HETATM   12  C   UNL     1      -7.778  17.150  67.347  1.00  0.00    -0.191 C  
HETATM   13  C   UNL     1      -8.069  17.558  68.813  1.00  0.00    -0.232 C  
HETATM   14  C   UNL     1      -6.813  15.944  67.220  1.00  0.00    -0.232 C  
HETATM   15  C   UNL     1      -5.461  16.546  67.566  1.00  0.00    -0.170 C  
HETATM   16  C   UNL     1      -7.265  14.673  67.952  1.00  0.00    -0.171 C  
HETATM   17  C   UNL     1      -5.455  17.752  66.643  1.00  0.00    -0.200 C  
HETATM   18  C   UNL     1      -6.095  13.649  67.975  1.00  0.00    -0.138 C  
HETATM   19  C   UNL     1      -6.370  12.294  67.360  1.00  0.00    -0.152 C  
HETATM   20  C   UNL     1      -6.909  18.317  66.674  1.00  0.00    -0.200 C  
HETATM   21  C   UNL     1      -8.593  14.182  67.309  1.00  0.00    -0.231 C  
HETATM   22  O   UNL     1      -7.277  18.524  65.315  1.00  0.00    -0.504 OA 
HETATM   23  C   UNL     1      -7.789  11.933  67.594  1.00  0.00    -0.142 C  
HETATM   24  H   UNL     1      -6.762  19.215  64.916  1.00  0.00     0.000 HD 
HETATM   25  C   UNL     1      -8.155  10.690  67.953  1.00  0.00    -0.111 C  
HETATM   26  C   UNL     1      -8.761  12.862  67.009  1.00  0.00    -0.195 C  
HETATM   27  C   UNL     1      -9.814  12.118  66.206  1.00  0.00    -0.250 C  
HETATM   28  C   UNL     1      -8.356  10.024  66.626  1.00  0.00    -0.125 C  
HETATM   29  C   UNL     1      -9.338  10.715  65.688  1.00  0.00    -0.239 C  
HETATM   30  O   UNL     1      -7.747   8.997  66.348  1.00  0.00    -0.097 OA 
BRANCH  20  31
HETATM   31  C   UNL     1      -6.798  19.659  67.484  1.00  0.00    -0.220 C  
HETATM   32  C   UNL     1      -7.866  20.702  67.322  1.00  0.00    -0.341 C  
HETATM   33  O   UNL     1      -5.847  19.906  68.232  1.00  0.00    -0.224 OA 
ENDBRANCH  20  31
ENDBRANCH   7  10
ENDBRANCH   2   4
TORSDOF 3
ENDMDL
MODEL       18
REMARK 921   NORMALIZED FREE ENERGY PREDICTED BY IDOCK:   -5.83 KCAL/MOL
REMARK 922        TOTAL FREE ENERGY PREDICTED BY IDOCK:   -7.91 KCAL/MOL
REMARK 923 INTER-LIGAND FREE ENERGY PREDICTED BY IDOCK:   -6.74 KCAL/MOL
REMARK 924 INTRA-LIGAND FREE ENERGY PREDICTED BY IDOCK:   -1.17 KCAL/MOL
REMARK 927      BINDING AFFINITY PREDICTED BY RF-SCORE:    0.00 PKD
ROOT
HETATM    1  C   UNL     1     -11.726  15.369  68.954  1.00  0.00    -0.359 C  
HETATM    2  N   UNL     1     -11.089  14.762  67.794  1.00  0.00    -0.288 NA 
HETATM    3  C   UNL     1     -10.853  15.616  66.633  1.00  0.00    -0.266 C  
ENDROOT
BRANCH   2   4
HETATM    4  C   UNL     1     -10.821  13.400  67.729  1.00  0.00    -0.252 A  
HETATM    5  C   UNL     1     -10.058  12.713  68.686  1.00  0.00    -0.131 A  
HETATM    6  C   UNL     1      -9.864  11.309  68.641  1.00  0.00    -0.208 A  
HETATM    7  C   UNL     1     -10.488  10.520  67.662  1.00  0.00    -0.276 A  
HETATM    8  C   UNL     1     -11.119  11.223  66.629  1.00  0.00    -0.299 A  
HETATM    9  C   UNL     1     -11.298  12.612  66.677  1.00  0.00    -0.379 A  
BRANCH   7  10
HETATM   10  C   UNL     1     -10.596   8.970  67.746  1.00  0.00    -0.278 C  
HETATM   11  C   UNL     1     -10.134   8.236  66.405  1.00  0.00    -0.222 C  
HETATM   12  C   UNL     1      -8.581   8.167  66.187  1.00  0.00    -0.154 C  
HETATM   13  C   UNL     1      -8.010   9.585  65.942  1.00  0.00    -0.111 C  
HETATM   14  C   UNL     1      -8.045   7.498  67.478  1.00  0.00    -0.113 C  
HETATM   15  C   UNL     1      -6.623   7.114  67.103  1.00  0.00    -0.059 C  
HETATM   16  C   UNL     1      -8.279   8.299  68.767  1.00  0.00    -0.117 C  
HETATM   17  C   UNL     1      -6.874   6.381  65.797  1.00  0.00    -0.053 C  
HETATM   18  C   UNL     1      -7.461   7.659  69.925  1.00  0.00    -0.083 C  
HETATM   19  C   UNL     1      -8.245   7.217  71.142  1.00  0.00    -0.112 C  
HETATM   20  C   UNL     1      -7.985   7.193  65.062  1.00  0.00    -0.129 C  
HETATM   21  C   UNL     1      -9.811   8.423  68.998  1.00  0.00    -0.184 C  
HETATM   22  O   UNL     1      -8.949   6.238  64.633  1.00  0.00    -0.313 OA 
HETATM   23  C   UNL     1      -9.386   8.141  71.348  1.00  0.00    -0.200 C  
HETATM   24  H   UNL     1      -8.595   5.662  63.966  1.00  0.00     0.000 HD 
HETATM   25  C   UNL     1      -9.731   8.580  72.570  1.00  0.00    -0.326 C  
HETATM   26  C   UNL     1     -10.338   8.195  70.234  1.00  0.00    -0.209 C  
HETATM   27  C   UNL     1     -11.765   8.026  70.727  1.00  0.00    -0.215 C  
HETATM   28  C   UNL     1     -10.693   7.526  73.026  1.00  0.00    -0.384 C  
HETATM   29  C   UNL     1     -11.876   7.272  72.098  1.00  0.00    -0.324 C  
HETATM   30  O   UNL     1     -10.501   6.923  74.076  1.00  0.00    -0.374 OA 
BRANCH  20  31
HETATM   31  C   UNL     1      -7.243   7.887  63.863  1.00  0.00    -0.088 C  
HETATM   32  C   UNL     1      -8.047   8.402  62.704  1.00  0.00    -0.176 C  
HETATM   33  O   UNL     1      -6.014   8.001  63.819  1.00  0.00    -0.060 OA 
ENDBRANCH  20  31
ENDBRANCH   7  10
ENDBRANCH   2   4
TORSDOF 3
ENDMDL
MODEL       19
REMARK 921   NORMALIZED FREE ENERGY PREDICTED BY IDOCK:   -5.80 KCAL/MOL
REMARK 922        TOTAL FREE ENERGY PREDICTED BY IDOCK:   -7.88 KCAL/MOL
REMARK 923 INTER-LIGAND FREE ENERGY PREDICTED BY IDOCK:   -6.85 KCAL/MOL
REMARK 924 INTRA-LIGAND FREE ENERGY PREDICTED BY IDOCK:   -1.02 KCAL/MOL
REMARK 927      BINDING AFFINITY PREDICTED BY RF-SCORE:    0.00 PKD
ROOT
HETATM    1  C   UNL     1     -10.456  15.977  65.495  1.00  0.00    -0.405 C  
HETATM    2  N   UNL     1     -11.120  14.687  65.372  1.00  0.00    -0.331 NA 
HETATM    3  C   UNL     1     -12.252  14.598  64.454  1.00  0.00    -0.452 C  
ENDROOT
BRANCH   2   4
HETATM    4  C   UNL     1     -10.782  13.604  66.176  1.00  0.00    -0.286 A  
HETATM    5  C   UNL     1     -10.863  12.269  65.751  1.00  0.00    -0.313 A  
HETATM    6  C   UNL     1     -10.439  11.186  66.562  1.00  0.00    -0.305 A  
HETATM    7  C   UNL     1      -9.849  11.403  67.817  1.00  0.00    -0.186 A  
HETATM    8  C   UNL     1      -9.910  12.719  68.295  1.00  0.00    -0.224 A  
HETATM    9  C   UNL     1     -10.340  13.782  67.490  1.00  0.00    -0.241 A  
BRANCH   7  10
HETATM   10  C   UNL     1      -9.066  10.312  68.602  1.00  0.00    -0.152 C  
HETATM   11  C   UNL     1      -9.654  10.048  70.064  1.00  0.00    -0.205 C  
HETATM   12  C   UNL     1     -10.975   9.202  70.105  1.00  0.00    -0.267 C  
HETATM   13  C   UNL     1     -12.143   9.999  69.472  1.00  0.00     0.179 C  
HETATM   14  C   UNL     1     -10.621   7.905  69.333  1.00  0.00    -0.209 C  
HETATM   15  C   UNL     1     -11.763   6.969  69.691  1.00  0.00     0.016 C  
HETATM   16  C   UNL     1     -10.269   8.108  67.853  1.00  0.00    -0.274 C  
HETATM   17  C   UNL     1     -11.757   7.096  71.204  1.00  0.00    -0.350 C  
HETATM   18  C   UNL     1     -10.209   6.726  67.144  1.00  0.00    -0.291 C  
HETATM   19  C   UNL     1      -8.906   6.371  66.462  1.00  0.00    -0.140 C  
HETATM   20  C   UNL     1     -11.486   8.604  71.501  1.00  0.00    -0.295 C  
HETATM   21  C   UNL     1      -8.982   8.977  67.769  1.00  0.00    -0.132 C  
HETATM   22  O   UNL     1     -10.459   8.630  72.487  1.00  0.00    -0.299 OA 
HETATM   23  C   UNL     1      -8.290   7.605  65.918  1.00  0.00    -0.140 C  
HETATM   24  H   UNL     1     -10.762   8.275  73.315  1.00  0.00     0.000 HD 
HETATM   25  C   UNL     1      -7.718   7.637  64.703  1.00  0.00    -0.121 C  
HETATM   26  C   UNL     1      -7.972   8.624  66.925  1.00  0.00    -0.095 C  
HETATM   27  C   UNL     1      -6.544   9.118  66.769  1.00  0.00    -0.068 C  
HETATM   28  C   UNL     1      -6.305   7.241  65.007  1.00  0.00    -0.037 C  
HETATM   29  C   UNL     1      -5.596   8.095  66.051  1.00  0.00    -0.036 C  
HETATM   30  O   UNL     1      -5.793   6.283  64.440  1.00  0.00    -0.022 OA 
BRANCH  20  31
HETATM   31  C   UNL     1     -12.856   9.156  72.037  1.00  0.00    -0.408 C  
HETATM   32  C   UNL     1     -14.061   8.261  72.024  1.00  0.00    -0.470 C  
HETATM   33  O   UNL     1     -12.990  10.314  72.445  1.00  0.00    -0.295 OA 
ENDBRANCH  20  31
ENDBRANCH   7  10
ENDBRANCH   2   4
TORSDOF 3
ENDMDL
MODEL       20
REMARK 921   NORMALIZED FREE ENERGY PREDICTED BY IDOCK:   -5.75 KCAL/MOL
REMARK 922        TOTAL FREE ENERGY PREDICTED BY IDOCK:   -7.82 KCAL/MOL
REMARK 923 INTER-LIGAND FREE ENERGY PREDICTED BY IDOCK:   -6.84 KCAL/MOL
REMARK 924 INTRA-LIGAND FREE ENERGY PREDICTED BY IDOCK:   -0.98 KCAL/MOL
REMARK 927      BINDING AFFINITY PREDICTED BY RF-SCORE:    0.00 PKD
ROOT
HETATM    1  C   UNL     1      -8.204   7.929  74.088  1.00  0.00    -0.251 C  
HETATM    2  N   UNL     1      -7.508   8.381  72.892  1.00  0.00    -0.276 NA 
HETATM    3  C   UNL     1      -6.082   8.673  73.013  1.00  0.00    -0.079 C  
ENDROOT
BRANCH   2   4
HETATM    4  C   UNL     1      -8.179   8.646  71.704  1.00  0.00    -0.144 A  
HETATM    5  C   UNL     1      -7.549   8.688  70.450  1.00  0.00    -0.075 A  
HETATM    6  C   UNL     1      -8.268   8.883  69.244  1.00  0.00    -0.114 A  
HETATM    7  C   UNL     1      -9.668   8.977  69.238  1.00  0.00    -0.168 A  
HETATM    8  C   UNL     1     -10.273   9.086  70.497  1.00  0.00    -0.268 A  
HETATM    9  C   UNL     1      -9.553   8.902  71.685  1.00  0.00    -0.363 A  
BRANCH   7  10
HETATM   10  C   UNL     1     -10.535   8.854  67.952  1.00  0.00    -0.281 C  
HETATM   11  C   UNL     1     -11.255  10.221  67.547  1.00  0.00    -0.192 C  
HETATM   12  C   UNL     1     -10.321  11.289  66.876  1.00  0.00    -0.272 C  
HETATM   13  C   UNL     1      -9.282  11.812  67.899  1.00  0.00    -0.181 C  
HETATM   14  C   UNL     1      -9.687  10.542  65.676  1.00  0.00    -0.289 C  
HETATM   15  C   UNL     1      -9.088  11.666  64.847  1.00  0.00     0.160 C  
HETATM   16  C   UNL     1      -8.798   9.348  66.054  1.00  0.00    -0.185 C  
HETATM   17  C   UNL     1     -10.284  12.596  64.744  1.00  0.00    -0.307 C  
HETATM   18  C   UNL     1      -8.017   8.870  64.797  1.00  0.00    -0.129 C  
HETATM   19  C   UNL     1      -8.212   7.426  64.388  1.00  0.00    -0.004 C  
HETATM   20  C   UNL     1     -10.972  12.558  66.144  1.00  0.00    -0.284 C  
HETATM   21  C   UNL     1      -9.682   8.280  66.757  1.00  0.00    -0.307 C  
HETATM   22  O   UNL     1     -12.359  12.360  65.893  1.00  0.00    -0.638 OA 
HETATM   23  C   UNL     1      -8.406   6.599  65.603  1.00  0.00    -0.144 C  
HETATM   24  H   UNL     1     -12.745  13.112  65.459  1.00  0.00     0.000 HD 
HETATM   25  C   UNL     1      -7.822   5.398  65.745  1.00  0.00    -0.100 C  
HETATM   26  C   UNL     1      -9.574   6.966  66.411  1.00  0.00    -0.152 C  
HETATM   27  C   UNL     1     -10.415   5.745  66.741  1.00  0.00    -0.350 C  
HETATM   28  C   UNL     1      -8.834   4.478  65.135  1.00  0.00    -0.143 C  
HETATM   29  C   UNL     1     -10.237   4.562  65.726  1.00  0.00    -0.289 C  
HETATM   30  O   UNL     1      -8.520   3.730  64.216  1.00  0.00    -0.090 OA 
BRANCH  20  31
HETATM   31  C   UNL     1     -10.663  13.963  66.776  1.00  0.00    -0.281 C  
HETATM   32  C   UNL     1     -11.624  14.543  67.773  1.00  0.00    -0.390 C  
HETATM   33  O   UNL     1      -9.670  14.627  66.465  1.00  0.00    -0.255 OA 
ENDBRANCH  20  31
ENDBRANCH   7  10
ENDBRANCH   2   4
TORSDOF 3
ENDMDL
MODEL       21
REMARK 921   NORMALIZED FREE ENERGY PREDICTED BY IDOCK:   -5.60 KCAL/MOL
REMARK 922        TOTAL FREE ENERGY PREDICTED BY IDOCK:   -7.64 KCAL/MOL
REMARK 923 INTER-LIGAND FREE ENERGY PREDICTED BY IDOCK:   -6.67 KCAL/MOL
REMARK 924 INTRA-LIGAND FREE ENERGY PREDICTED BY IDOCK:   -0.97 KCAL/MOL
REMARK 927      BINDING AFFINITY PREDICTED BY RF-SCORE:    0.00 PKD
ROOT
HETATM    1  C   UNL     1     -12.635  14.838  70.511  1.00  0.00    -0.359 C  
HETATM    2  N   UNL     1     -11.961  14.315  69.331  1.00  0.00    -0.323 NA 
HETATM    3  C   UNL     1     -11.553  15.275  68.308  1.00  0.00    -0.341 C  
ENDROOT
BRANCH   2   4
HETATM    4  C   UNL     1     -11.811  12.951  69.112  1.00  0.00    -0.303 A  
HETATM    5  C   UNL     1     -11.800  12.368  67.835  1.00  0.00    -0.370 A  
HETATM    6  C   UNL     1     -11.567  10.984  67.632  1.00  0.00    -0.228 A  
HETATM    7  C   UNL     1     -11.267  10.132  68.706  1.00  0.00    -0.217 A  
HETATM    8  C   UNL     1     -11.428  10.686  69.982  1.00  0.00    -0.404 A  
HETATM    9  C   UNL     1     -11.668  12.053  70.173  1.00  0.00    -0.316 A  
BRANCH   7  10
HETATM   10  C   UNL     1     -10.678   8.702  68.533  1.00  0.00    -0.091 C  
HETATM   11  C   UNL     1      -9.771   8.550  67.227  1.00  0.00    -0.239 C  
HETATM   12  C   UNL     1      -8.339   9.183  67.336  1.00  0.00    -0.115 C  
HETATM   13  C   UNL     1      -8.439  10.725  67.431  1.00  0.00    -0.119 C  
HETATM   14  C   UNL     1      -7.726   8.523  68.597  1.00  0.00    -0.103 C  
HETATM   15  C   UNL     1      -6.249   8.860  68.479  1.00  0.00    -0.053 C  
HETATM   16  C   UNL     1      -8.453   8.841  69.911  1.00  0.00    -0.131 C  
HETATM   17  C   UNL     1      -5.978   8.406  67.056  1.00  0.00    -0.053 C  
HETATM   18  C   UNL     1      -7.588   8.354  71.108  1.00  0.00    -0.089 C  
HETATM   19  C   UNL     1      -8.235   7.363  72.052  1.00  0.00    -0.111 C  
HETATM   20  C   UNL     1      -7.234   8.828  66.230  1.00  0.00    -0.086 C  
HETATM   21  C   UNL     1      -9.894   8.262  69.827  1.00  0.00    -0.187 C  
HETATM   22  O   UNL     1      -7.605   7.683  65.470  1.00  0.00    -0.083 OA 
HETATM   23  C   UNL     1      -9.685   7.658  72.147  1.00  0.00    -0.220 C  
HETATM   24  H   UNL     1      -6.949   7.473  64.815  1.00  0.00     0.000 HD 
HETATM   25  C   UNL     1     -10.341   7.624  73.319  1.00  0.00    -0.405 C  
HETATM   26  C   UNL     1     -10.413   7.562  70.876  1.00  0.00    -0.218 C  
HETATM   27  C   UNL     1     -11.662   6.710  71.025  1.00  0.00    -0.415 C  
HETATM   28  C   UNL     1     -10.776   6.193  73.398  1.00  0.00    -0.259 C  
HETATM   29  C   UNL     1     -11.592   5.689  72.214  1.00  0.00    -0.244 C  
HETATM   30  O   UNL     1     -10.467   5.503  74.364  1.00  0.00    -0.272 OA 
BRANCH  20  31
HETATM   31  C   UNL     1      -6.738  10.018  65.332  1.00  0.00    -0.115 C  
HETATM   32  C   UNL     1      -7.417  10.274  64.018  1.00  0.00    -0.071 C  
HETATM   33  O   UNL     1      -5.788  10.739  65.652  1.00  0.00    -0.131 OA 
ENDBRANCH  20  31
ENDBRANCH   7  10
ENDBRANCH   2   4
TORSDOF 3
ENDMDL
MODEL       22
REMARK 921   NORMALIZED FREE ENERGY PREDICTED BY IDOCK:   -5.60 KCAL/MOL
REMARK 922        TOTAL FREE ENERGY PREDICTED BY IDOCK:   -7.64 KCAL/MOL
REMARK 923 INTER-LIGAND FREE ENERGY PREDICTED BY IDOCK:   -6.59 KCAL/MOL
REMARK 924 INTRA-LIGAND FREE ENERGY PREDICTED BY IDOCK:   -1.05 KCAL/MOL
REMARK 927      BINDING AFFINITY PREDICTED BY RF-SCORE:    0.00 PKD
ROOT
HETATM    1  C   UNL     1     -12.399  14.052  65.807  1.00  0.00    -0.480 C  
HETATM    2  N   UNL     1     -11.648  13.177  64.919  1.00  0.00    -0.312 NA 
HETATM    3  C   UNL     1     -12.033  13.156  63.511  1.00  0.00    -0.513 C  
ENDROOT
BRANCH   2   4
HETATM    4  C   UNL     1     -10.682  12.298  65.395  1.00  0.00    -0.284 A  
HETATM    5  C   UNL     1      -9.858  12.575  66.497  1.00  0.00    -0.251 A  
HETATM    6  C   UNL     1      -8.933  11.631  67.012  1.00  0.00    -0.182 A  
HETATM    7  C   UNL     1      -8.844  10.335  66.481  1.00  0.00    -0.150 A  
HETATM    8  C   UNL     1      -9.556  10.117  65.294  1.00  0.00    -0.338 A  
HETATM    9  C   UNL     1     -10.460  11.059  64.786  1.00  0.00    -0.384 A  
BRANCH   7  10
HETATM   10  C   UNL     1      -8.114   9.160  67.192  1.00  0.00    -0.109 C  
HETATM   11  C   UNL     1      -8.494   9.029  68.738  1.00  0.00    -0.131 C  
HETATM   12  C   UNL     1      -9.901   8.396  69.025  1.00  0.00    -0.184 C  
HETATM   13  C   UNL     1     -11.025   9.344  68.539  1.00  0.00    -0.076 C  
HETATM   14  C   UNL     1      -9.868   7.040  68.277  1.00  0.00    -0.150 C  
HETATM   15  C   UNL     1     -11.063   6.299  68.854  1.00  0.00    -0.434 C  
HETATM   16  C   UNL     1      -9.731   7.145  66.751  1.00  0.00    -0.252 C  
HETATM   17  C   UNL     1     -10.797   6.466  70.339  1.00  0.00    -0.343 C  
HETATM   18  C   UNL     1      -9.987   5.750  66.114  1.00  0.00    -0.066 C  
HETATM   19  C   UNL     1      -8.875   5.182  65.260  1.00  0.00    -0.152 C  
HETATM   20  C   UNL     1     -10.265   7.923  70.513  1.00  0.00    -0.198 C  
HETATM   21  C   UNL     1      -8.361   7.805  66.426  1.00  0.00    -0.131 C  
HETATM   22  O   UNL     1      -9.102   7.819  71.326  1.00  0.00    -0.135 OA 
HETATM   23  C   UNL     1      -8.180   6.292  64.565  1.00  0.00    -0.062 C  
HETATM   24  H   UNL     1      -9.318   7.539  72.208  1.00  0.00     0.000 HD 
HETATM   25  C   UNL     1      -7.810   6.202  63.276  1.00  0.00    -0.100 C  
HETATM   26  C   UNL     1      -7.560   7.278  65.457  1.00  0.00    -0.097 C  
HETATM   27  C   UNL     1      -6.118   7.544  65.058  1.00  0.00    -0.038 C  
HETATM   28  C   UNL     1      -6.440   5.604  63.380  1.00  0.00    -0.028 C  
HETATM   29  C   UNL     1      -5.456   6.368  64.258  1.00  0.00    -0.022 C  
HETATM   30  O   UNL     1      -6.171   4.563  62.792  1.00  0.00    -0.017 OA 
BRANCH  20  31
HETATM   31  C   UNL     1     -11.436   8.692  71.222  1.00  0.00    -0.283 C  
HETATM   32  C   UNL     1     -12.708   7.959  71.538  1.00  0.00    -0.342 C  
HETATM   33  O   UNL     1     -11.365   9.892  71.508  1.00  0.00    -0.343 OA 
ENDBRANCH  20  31
ENDBRANCH   7  10
ENDBRANCH   2   4
TORSDOF 3
ENDMDL
MODEL       23
REMARK 921   NORMALIZED FREE ENERGY PREDICTED BY IDOCK:   -5.59 KCAL/MOL
REMARK 922        TOTAL FREE ENERGY PREDICTED BY IDOCK:   -7.63 KCAL/MOL
REMARK 923 INTER-LIGAND FREE ENERGY PREDICTED BY IDOCK:   -6.50 KCAL/MOL
REMARK 924 INTRA-LIGAND FREE ENERGY PREDICTED BY IDOCK:   -1.13 KCAL/MOL
REMARK 927      BINDING AFFINITY PREDICTED BY RF-SCORE:    0.00 PKD
ROOT
HETATM    1  C   UNL     1      -8.550   3.261  66.128  1.00  0.00    -0.121 C  
HETATM    2  N   UNL     1      -8.990   4.470  65.446  1.00  0.00    -0.135 NA 
HETATM    3  C   UNL     1      -8.788   4.537  64.001  1.00  0.00    -0.144 C  
ENDROOT
BRANCH   2   4
HETATM    4  C   UNL     1      -9.471   5.575  66.139  1.00  0.00    -0.151 A  
HETATM    5  C   UNL     1     -10.717   5.601  66.784  1.00  0.00    -0.358 A  
HETATM    6  C   UNL     1     -11.153   6.712  67.551  1.00  0.00    -0.374 A  
HETATM    7  C   UNL     1     -10.322   7.823  67.760  1.00  0.00    -0.284 A  
HETATM    8  C   UNL     1      -9.149   7.855  66.994  1.00  0.00    -0.162 A  
HETATM    9  C   UNL     1      -8.731   6.757  66.231  1.00  0.00    -0.152 A  
BRANCH   7  10
HETATM   10  C   UNL     1     -10.588   8.907  68.843  1.00  0.00    -0.188 C  
HETATM   11  C   UNL     1     -11.098   8.298  70.229  1.00  0.00    -0.220 C  
HETATM   12  C   UNL     1      -9.986   7.621  71.106  1.00  0.00    -0.188 C  
HETATM   13  C   UNL     1      -9.461   6.340  70.412  1.00  0.00    -0.174 C  
HETATM   14  C   UNL     1      -8.909   8.722  71.271  1.00  0.00    -0.288 C  
HETATM   15  C   UNL     1      -8.039   8.187  72.397  1.00  0.00    -0.198 C  
HETATM   16  C   UNL     1      -8.235   9.169  69.966  1.00  0.00    -0.146 C  
HETATM   17  C   UNL     1      -9.101   7.864  73.432  1.00  0.00    -0.347 C  
HETATM   18  C   UNL     1      -7.004  10.058  70.301  1.00  0.00    -0.153 C  
HETATM   19  C   UNL     1      -6.996  11.452  69.713  1.00  0.00     0.033 C  
HETATM   20  C   UNL     1     -10.299   7.260  72.636  1.00  0.00    -0.225 C  
HETATM   21  C   UNL     1      -9.315   9.813  69.051  1.00  0.00    -0.161 C  
HETATM   22  O   UNL     1     -11.461   7.935  73.104  1.00  0.00    -0.545 OA 
HETATM   23  C   UNL     1      -7.657  11.424  68.386  1.00  0.00    -0.123 C  
HETATM   24  H   UNL     1     -11.646   7.721  74.011  1.00  0.00     0.000 HD 
HETATM   25  C   UNL     1      -7.166  12.098  67.333  1.00  0.00    -0.147 C  
HETATM   26  C   UNL     1      -9.058  10.989  68.411  1.00  0.00    -0.161 C  
HETATM   27  C   UNL     1      -9.944  11.957  67.646  1.00  0.00    -0.197 C  
HETATM   28  C   UNL     1      -7.830  13.434  67.474  1.00  0.00    -0.176 C  
HETATM   29  C   UNL     1      -9.352  13.405  67.538  1.00  0.00    -0.218 C  
HETATM   30  O   UNL     1      -7.158  14.457  67.538  1.00  0.00    -0.180 OA 
BRANCH  20  31
HETATM   31  C   UNL     1     -10.294   5.733  73.007  1.00  0.00    -0.204 C  
HETATM   32  C   UNL     1     -11.585   4.966  72.971  1.00  0.00    -0.284 C  
HETATM   33  O   UNL     1      -9.270   5.139  73.357  1.00  0.00    -0.130 OA 
ENDBRANCH  20  31
ENDBRANCH   7  10
ENDBRANCH   2   4
TORSDOF 3
ENDMDL
MODEL       24
REMARK 921   NORMALIZED FREE ENERGY PREDICTED BY IDOCK:   -5.56 KCAL/MOL
REMARK 922        TOTAL FREE ENERGY PREDICTED BY IDOCK:   -7.59 KCAL/MOL
REMARK 923 INTER-LIGAND FREE ENERGY PREDICTED BY IDOCK:   -6.66 KCAL/MOL
REMARK 924 INTRA-LIGAND FREE ENERGY PREDICTED BY IDOCK:   -0.93 KCAL/MOL
REMARK 927      BINDING AFFINITY PREDICTED BY RF-SCORE:    0.00 PKD
ROOT
HETATM    1  C   UNL     1     -14.239  14.074  71.805  1.00  0.00    -0.340 C  
HETATM    2  N   UNL     1     -12.995  14.379  71.112  1.00  0.00    -0.334 NA 
HETATM    3  C   UNL     1     -12.445  15.722  71.276  1.00  0.00    -0.448 C  
ENDROOT
BRANCH   2   4
HETATM    4  C   UNL     1     -12.405  13.482  70.229  1.00  0.00    -0.300 A  
HETATM    5  C   UNL     1     -11.993  13.829  68.933  1.00  0.00    -0.394 A  
HETATM    6  C   UNL     1     -11.322  12.918  68.078  1.00  0.00    -0.333 A  
HETATM    7  C   UNL     1     -10.973  11.632  68.516  1.00  0.00    -0.264 A  
HETATM    8  C   UNL     1     -11.516  11.243  69.748  1.00  0.00    -0.386 A  
HETATM    9  C   UNL     1     -12.187  12.148  70.582  1.00  0.00    -0.392 A  
BRANCH   7  10
HETATM   10  C   UNL     1      -9.960  10.714  67.774  1.00  0.00    -0.192 C  
HETATM   11  C   UNL     1      -8.746  11.519  67.120  1.00  0.00    -0.160 C  
HETATM   12  C   UNL     1      -7.647  12.002  68.131  1.00  0.00    -0.120 C  
HETATM   13  C   UNL     1      -8.225  13.084  69.077  1.00  0.00     0.378 C  
HETATM   14  C   UNL     1      -7.210  10.708  68.865  1.00  0.00    -0.090 C  
HETATM   15  C   UNL     1      -5.923  11.123  69.558  1.00  0.00    -0.072 C  
HETATM   16  C   UNL     1      -8.311  10.031  69.693  1.00  0.00    -0.188 C  
HETATM   17  C   UNL     1      -5.173  11.744  68.394  1.00  0.00    -0.042 C  
HETATM   18  C   UNL     1      -7.678   8.924  70.583  1.00  0.00    -0.112 C  
HETATM   19  C   UNL     1      -8.218   7.521  70.404  1.00  0.00    -0.123 C  
HETATM   20  C   UNL     1      -6.241  12.534  67.575  1.00  0.00    -0.155 C  
HETATM   21  C   UNL     1      -9.440   9.572  68.728  1.00  0.00    -0.147 C  
HETATM   22  O   UNL     1      -6.044  12.162  66.215  1.00  0.00    -0.413 OA 
HETATM   23  C   UNL     1      -9.663   7.595  70.080  1.00  0.00    -0.179 C  
HETATM   24  H   UNL     1      -5.211  12.478  65.885  1.00  0.00     0.000 HD 
HETATM   25  C   UNL     1     -10.557   6.755  70.628  1.00  0.00    -0.257 C  
HETATM   26  C   UNL     1      -9.976   8.324  68.847  1.00  0.00    -0.193 C  
HETATM   27  C   UNL     1     -10.908   7.518  67.957  1.00  0.00    -0.097 C  
HETATM   28  C   UNL     1     -10.548   5.609  69.663  1.00  0.00    -0.331 C  
HETATM   29  C   UNL     1     -10.843   5.971  68.212  1.00  0.00    -0.366 C  
HETATM   30  O   UNL     1     -10.306   4.471  70.052  1.00  0.00    -0.144 OA 
BRANCH  20  31
HETATM   31  C   UNL     1      -5.911  14.046  67.845  1.00  0.00    -0.138 C  
HETATM   32  C   UNL     1      -5.157  14.419  69.088  1.00  0.00    -0.079 C  
HETATM   33  O   UNL     1      -6.274  14.950  67.086  1.00  0.00    -0.249 OA 
ENDBRANCH  20  31
ENDBRANCH   7  10
ENDBRANCH   2   4
TORSDOF 3
ENDMDL
MODEL       25
REMARK 921   NORMALIZED FREE ENERGY PREDICTED BY IDOCK:   -5.46 KCAL/MOL
REMARK 922        TOTAL FREE ENERGY PREDICTED BY IDOCK:   -7.47 KCAL/MOL
REMARK 923 INTER-LIGAND FREE ENERGY PREDICTED BY IDOCK:   -6.46 KCAL/MOL
REMARK 924 INTRA-LIGAND FREE ENERGY PREDICTED BY IDOCK:   -1.01 KCAL/MOL
REMARK 927      BINDING AFFINITY PREDICTED BY RF-SCORE:    0.00 PKD
ROOT
HETATM    1  C   UNL     1     -11.306   6.125  70.349  1.00  0.00    -0.328 C  
HETATM    2  N   UNL     1     -11.413   7.562  70.557  1.00  0.00    -0.267 NA 
HETATM    3  C   UNL     1     -12.549   8.046  71.338  1.00  0.00    -0.289 C  
ENDROOT
BRANCH   2   4
HETATM    4  C   UNL     1     -10.549   8.462  69.945  1.00  0.00    -0.228 A  
HETATM    5  C   UNL     1      -9.170   8.239  69.803  1.00  0.00    -0.154 A  
HETATM    6  C   UNL     1      -8.322   9.136  69.105  1.00  0.00    -0.123 A  
HETATM    7  C   UNL     1      -8.837  10.269  68.457  1.00  0.00    -0.127 A  
HETATM    8  C   UNL     1     -10.179  10.564  68.729  1.00  0.00    -0.205 A  
HETATM    9  C   UNL     1     -11.008   9.677  69.428  1.00  0.00    -0.215 A  
BRANCH   7  10
HETATM   10  C   UNL     1      -8.041  11.099  67.409  1.00  0.00    -0.132 C  
HETATM   11  C   UNL     1      -7.234  10.192  66.372  1.00  0.00    -0.108 C  
HETATM   12  C   UNL     1      -8.109   9.523  65.254  1.00  0.00    -0.124 C  
HETATM   13  C   UNL     1      -9.056   8.466  65.874  1.00  0.00    -0.225 C  
HETATM   14  C   UNL     1      -8.853  10.710  64.592  1.00  0.00    -0.191 C  
HETATM   15  C   UNL     1      -9.397  10.103  63.309  1.00  0.00    -0.332 C  
HETATM   16  C   UNL     1      -9.817  11.466  65.518  1.00  0.00    -0.271 C  
HETATM   17  C   UNL     1      -8.137   9.464  62.754  1.00  0.00    -0.142 C  
HETATM   18  C   UNL     1     -10.689  12.436  64.671  1.00  0.00    -0.339 C  
HETATM   19  C   UNL     1     -10.628  13.901  65.045  1.00  0.00    -0.418 C  
HETATM   20  C   UNL     1      -7.392   8.858  63.984  1.00  0.00    -0.101 C  
HETATM   21  C   UNL     1      -8.990  12.113  66.664  1.00  0.00    -0.198 C  
HETATM   22  O   UNL     1      -6.038   9.280  63.868  1.00  0.00    -0.085 OA 
HETATM   23  C   UNL     1     -10.446  14.022  66.511  1.00  0.00    -0.281 C  
HETATM   24  H   UNL     1      -5.613   8.886  63.115  1.00  0.00     0.000 HD 
HETATM   25  C   UNL     1     -11.118  14.931  67.237  1.00  0.00    -0.336 C  
HETATM   26  C   UNL     1      -9.218  13.408  67.026  1.00  0.00    -0.242 C  
HETATM   27  C   UNL     1      -8.462  14.371  67.927  1.00  0.00    -0.165 C  
HETATM   28  C   UNL     1     -10.210  16.121  67.174  1.00  0.00    -0.281 C  
HETATM   29  C   UNL     1      -8.780  15.881  67.645  1.00  0.00    -0.174 C  
HETATM   30  O   UNL     1     -10.624  17.196  66.756  1.00  0.00    -0.286 OA 
BRANCH  20  31
HETATM   31  C   UNL     1      -7.559   7.304  63.823  1.00  0.00    -0.110 C  
HETATM   32  C   UNL     1      -8.298   6.766  62.632  1.00  0.00     0.073 C  
HETATM   33  O   UNL     1      -7.130   6.501  64.657  1.00  0.00    -0.055 OA 
ENDBRANCH  20  31
ENDBRANCH   7  10
ENDBRANCH   2   4
TORSDOF 3
ENDMDL
MODEL       26
REMARK 921   NORMALIZED FREE ENERGY PREDICTED BY IDOCK:   -5.39 KCAL/MOL
REMARK 922        TOTAL FREE ENERGY PREDICTED BY IDOCK:   -7.39 KCAL/MOL
REMARK 923 INTER-LIGAND FREE ENERGY PREDICTED BY IDOCK:   -6.24 KCAL/MOL
REMARK 924 INTRA-LIGAND FREE ENERGY PREDICTED BY IDOCK:   -1.15 KCAL/MOL
REMARK 927      BINDING AFFINITY PREDICTED BY RF-SCORE:    0.00 PKD
ROOT
HETATM    1  C   UNL     1     -12.597  13.799  65.535  1.00  0.00    -0.512 C  
HETATM    2  N   UNL     1     -11.857  13.676  66.782  1.00  0.00    -0.389 NA 
HETATM    3  C   UNL     1     -11.755  14.866  67.624  1.00  0.00    -0.307 C  
ENDROOT
BRANCH   2   4
HETATM    4  C   UNL     1     -11.165  12.519  67.118  1.00  0.00    -0.300 A  
HETATM    5  C   UNL     1     -11.010  11.428  66.248  1.00  0.00    -0.303 A  
HETATM    6  C   UNL     1     -10.233  10.291  66.584  1.00  0.00    -0.294 A  
HETATM    7  C   UNL     1      -9.519  10.228  67.790  1.00  0.00    -0.163 A  
HETATM    8  C   UNL     1      -9.798  11.245  68.713  1.00  0.00    -0.194 A  
HETATM    9  C   UNL     1     -10.575  12.361  68.375  1.00  0.00    -0.251 A  
BRANCH   7  10
HETATM   10  C   UNL     1      -8.399   9.186  68.076  1.00  0.00    -0.120 C  
HETATM   11  C   UNL     1      -8.499   8.542  69.535  1.00  0.00    -0.127 C  
HETATM   12  C   UNL     1      -9.621   7.459  69.707  1.00  0.00    -0.163 C  
HETATM   13  C   UNL     1     -11.021   8.113  69.593  1.00  0.00    -0.094 C  
HETATM   14  C   UNL     1      -9.328   6.426  68.590  1.00  0.00    -0.124 C  
HETATM   15  C   UNL     1     -10.177   5.232  68.994  1.00  0.00    -0.269 C  
HETATM   16  C   UNL     1      -9.449   6.967  67.159  1.00  0.00    -0.176 C  
HETATM   17  C   UNL     1      -9.753   5.073  70.443  1.00  0.00    -0.280 C  
HETATM   18  C   UNL     1      -9.405   5.781  66.154  1.00  0.00    -0.160 C  
HETATM   19  C   UNL     1      -8.316   5.825  65.104  1.00  0.00    -0.146 C  
HETATM   20  C   UNL     1      -9.620   6.522  71.007  1.00  0.00    -0.175 C  
HETATM   21  C   UNL     1      -8.375   8.074  66.960  1.00  0.00    -0.116 C  
HETATM   22  O   UNL     1      -8.367   6.566  71.681  1.00  0.00    -0.119 OA 
HETATM   23  C   UNL     1      -8.061   7.237  64.727  1.00  0.00    -0.097 C  
HETATM   24  H   UNL     1      -8.367   6.010  72.452  1.00  0.00     0.000 HD 
HETATM   25  C   UNL     1      -7.873   7.607  63.449  1.00  0.00    -0.125 C  
HETATM   26  C   UNL     1      -7.612   8.092  65.831  1.00  0.00    -0.086 C  
HETATM   27  C   UNL     1      -6.372   8.879  65.442  1.00  0.00    -0.063 C  
HETATM   28  C   UNL     1      -6.392   7.449  63.288  1.00  0.00    -0.054 C  
HETATM   29  C   UNL     1      -5.538   8.216  64.290  1.00  0.00    -0.048 C  
HETATM   30  O   UNL     1      -5.937   6.734  62.402  1.00  0.00    -0.037 OA 
BRANCH  20  31
HETATM   31  C   UNL     1     -10.840   6.682  71.984  1.00  0.00    -0.233 C  
HETATM   32  C   UNL     1     -10.825   7.788  72.999  1.00  0.00    -0.451 C  
HETATM   33  O   UNL     1     -11.807   5.913  71.970  1.00  0.00    -0.267 OA 
ENDBRANCH  20  31
ENDBRANCH   7  10
ENDBRANCH   2   4
TORSDOF 3
ENDMDL
MODEL       27
REMARK 921   NORMALIZED FREE ENERGY PREDICTED BY IDOCK:   -5.22 KCAL/MOL
REMARK 922        TOTAL FREE ENERGY PREDICTED BY IDOCK:   -7.19 KCAL/MOL
REMARK 923 INTER-LIGAND FREE ENERGY PREDICTED BY IDOCK:   -7.01 KCAL/MOL
REMARK 924 INTRA-LIGAND FREE ENERGY PREDICTED BY IDOCK:   -0.18 KCAL/MOL
REMARK 927      BINDING AFFINITY PREDICTED BY RF-SCORE:    0.00 PKD
ROOT
HETATM    1  C   UNL     1     -10.035   9.601  65.687  1.00  0.00    -0.251 C  
HETATM    2  N   UNL     1     -10.214  10.700  64.750  1.00  0.00    -0.341 NA 
HETATM    3  C   UNL     1      -9.845  10.464  63.357  1.00  0.00    -0.189 C  
ENDROOT
BRANCH   2   4
HETATM    4  C   UNL     1     -10.604  11.968  65.166  1.00  0.00    -0.288 A  
HETATM    5  C   UNL     1     -11.943  12.382  65.241  1.00  0.00    -0.461 A  
HETATM    6  C   UNL     1     -12.320  13.653  65.743  1.00  0.00    -0.524 A  
HETATM    7  C   UNL     1     -11.366  14.543  66.259  1.00  0.00    -0.352 A  
HETATM    8  C   UNL     1     -10.028  14.189  66.044  1.00  0.00    -0.340 A  
HETATM    9  C   UNL     1      -9.664  12.934  65.538  1.00  0.00    -0.076 A  
BRANCH   7  10
HETATM   10  C   UNL     1     -11.726  15.788  67.120  1.00  0.00     0.334 C  
HETATM   11  C   UNL     1     -12.656  15.438  68.371  1.00  0.00     0.815 C  
HETATM   12  C   UNL     1     -11.919  14.753  69.576  1.00  0.00    -0.351 C  
HETATM   13  C   UNL     1     -11.439  13.336  69.177  1.00  0.00    -0.357 C  
HETATM   14  C   UNL     1     -10.761  15.725  69.915  1.00  0.00    -0.332 C  
HETATM   15  C   UNL     1     -10.295  15.244  71.280  1.00  0.00     0.722 C  
HETATM   16  C   UNL     1      -9.719  15.906  68.802  1.00  0.00    -0.216 C  
HETATM   17  C   UNL     1     -11.621  15.197  72.019  1.00  0.00    -0.496 C  
HETATM   18  C   UNL     1      -8.490  16.673  69.366  1.00  0.00     0.141 C  
HETATM   19  C   UNL     1      -8.120  17.964  68.668  1.00  0.00    -0.283 C  
HETATM   20  C   UNL     1     -12.658  14.643  70.993  1.00  0.00    -0.329 C  
HETATM   21  C   UNL     1     -10.422  16.549  67.572  1.00  0.00    -0.310 C  
HETATM   22  O   UNL     1     -13.782  15.513  71.065  1.00  0.00    -0.721 OA 
HETATM   23  C   UNL     1      -8.422  17.839  67.222  1.00  0.00    -0.239 C  
HETATM   24  H   UNL     1     -14.220  15.447  71.905  1.00  0.00     0.000 HD 
HETATM   25  C   UNL     1      -7.584  18.300  66.279  1.00  0.00    -0.291 C  
HETATM   26  C   UNL     1      -9.834  17.587  66.914  1.00  0.00    -0.302 C  
HETATM   27  C   UNL     1     -10.339  18.546  65.848  1.00  0.00    -0.344 C  
HETATM   28  C   UNL     1      -8.047  19.714  66.105  1.00  0.00    -0.346 C  
HETATM   29  C   UNL     1      -9.523  19.882  65.762  1.00  0.00    -0.146 C  
HETATM   30  O   UNL     1      -7.264  20.646  66.248  1.00  0.00    -0.210 OA 
BRANCH  20  31
HETATM   31  C   UNL     1     -12.982  13.191  71.500  1.00  0.00    -0.321 C  
HETATM   32  C   UNL     1     -14.132  12.984  72.442  1.00  0.00    -0.305 C  
HETATM   33  O   UNL     1     -12.307  12.209  71.175  1.00  0.00    -0.306 OA 
ENDBRANCH  20  31
ENDBRANCH   7  10
ENDBRANCH   2   4
TORSDOF 3
ENDMDL
MODEL       28
REMARK 921   NORMALIZED FREE ENERGY PREDICTED BY IDOCK:   -5.17 KCAL/MOL
REMARK 922        TOTAL FREE ENERGY PREDICTED BY IDOCK:   -7.14 KCAL/MOL
REMARK 923 INTER-LIGAND FREE ENERGY PREDICTED BY IDOCK:   -6.13 KCAL/MOL
REMARK 924 INTRA-LIGAND FREE ENERGY PREDICTED BY IDOCK:   -1.00 KCAL/MOL
REMARK 927      BINDING AFFINITY PREDICTED BY RF-SCORE:    0.00 PKD
ROOT
HETATM    1  C   UNL     1      -6.765   3.766  64.125  1.00  0.00    -0.044 C  
HETATM    2  N   UNL     1      -7.680   3.255  65.136  1.00  0.00    -0.080 NA 
HETATM    3  C   UNL     1      -8.026   1.837  65.073  1.00  0.00    -0.073 C  
ENDROOT
BRANCH   2   4
HETATM    4  C   UNL     1      -8.304   4.089  66.055  1.00  0.00    -0.109 A  
HETATM    5  C   UNL     1      -7.761   5.310  66.487  1.00  0.00    -0.096 A  
HETATM    6  C   UNL     1      -8.453   6.181  67.366  1.00  0.00    -0.107 A  
HETATM    7  C   UNL     1      -9.756   5.894  67.799  1.00  0.00    -0.124 A  
HETATM    8  C   UNL     1     -10.229   4.613  67.489  1.00  0.00    -0.068 A  
HETATM    9  C   UNL     1      -9.534   3.754  66.627  1.00  0.00    -0.212 A  
BRANCH   7  10
HETATM   10  C   UNL     1     -10.689   6.939  68.476  1.00  0.00    -0.252 C  
HETATM   11  C   UNL     1     -11.394   6.388  69.799  1.00  0.00    -0.494 C  
HETATM   12  C   UNL     1     -10.469   6.319  71.065  1.00  0.00    -0.274 C  
HETATM   13  C   UNL     1      -9.367   5.249  70.866  1.00  0.00    -0.197 C  
HETATM   14  C   UNL     1      -9.914   7.758  71.210  1.00  0.00    -0.199 C  
HETATM   15  C   UNL     1      -9.331   7.763  72.613  1.00  0.00    -0.246 C  
HETATM   16  C   UNL     1      -9.038   8.235  70.044  1.00  0.00    -0.150 C  
HETATM   17  C   UNL     1     -10.506   7.212  73.400  1.00  0.00    -0.410 C  
HETATM   18  C   UNL     1      -8.333   9.564  70.440  1.00  0.00    -0.226 C  
HETATM   19  C   UNL     1      -8.584  10.756  69.542  1.00  0.00     0.114 C  
HETATM   20  C   UNL     1     -11.124   6.089  72.509  1.00  0.00    -0.279 C  
HETATM   21  C   UNL     1      -9.912   8.281  68.759  1.00  0.00    -0.193 C  
HETATM   22  O   UNL     1     -12.526   6.332  72.491  1.00  0.00    -0.542 OA 
HETATM   23  C   UNL     1      -8.738  10.288  68.144  1.00  0.00    -0.123 C  
HETATM   24  H   UNL     1     -12.914   6.196  73.347  1.00  0.00     0.000 HD 
HETATM   25  C   UNL     1      -8.177  10.940  67.111  1.00  0.00    -0.126 C  
HETATM   26  C   UNL     1      -9.854   9.361  67.929  1.00  0.00    -0.197 C  
HETATM   27  C   UNL     1     -10.708   9.798  66.751  1.00  0.00    -0.143 C  
HETATM   28  C   UNL     1      -9.242  11.927  66.743  1.00  0.00    -0.194 C  
HETATM   29  C   UNL     1     -10.610  11.331  66.433  1.00  0.00    -0.316 C  
HETATM   30  O   UNL     1      -8.993  13.127  66.714  1.00  0.00    -0.226 OA 
BRANCH  20  31
HETATM   31  C   UNL     1     -10.749   4.750  73.241  1.00  0.00    -0.248 C  
HETATM   32  C   UNL     1      -9.995   4.811  74.538  1.00  0.00    -0.239 C  
HETATM   33  O   UNL     1     -11.025   3.640  72.775  1.00  0.00    -0.058 OA 
ENDBRANCH  20  31
ENDBRANCH   7  10
ENDBRANCH   2   4
TORSDOF 3
ENDMDL
MODEL       29
REMARK 921   NORMALIZED FREE ENERGY PREDICTED BY IDOCK:   -5.17 KCAL/MOL
REMARK 922        TOTAL FREE ENERGY PREDICTED BY IDOCK:   -7.13 KCAL/MOL
REMARK 923 INTER-LIGAND FREE ENERGY PREDICTED BY IDOCK:   -5.99 KCAL/MOL
REMARK 924 INTRA-LIGAND FREE ENERGY PREDICTED BY IDOCK:   -1.14 KCAL/MOL
REMARK 927      BINDING AFFINITY PREDICTED BY RF-SCORE:    0.00 PKD
ROOT
HETATM    1  C   UNL     1     -10.342   6.886  73.897  1.00  0.00    -0.365 C  
HETATM    2  N   UNL     1     -10.691   5.718  73.100  1.00  0.00    -0.246 NA 
HETATM    3  C   UNL     1     -10.853   4.448  73.803  1.00  0.00    -0.287 C  
ENDROOT
BRANCH   2   4
HETATM    4  C   UNL     1     -10.752   5.764  71.712  1.00  0.00    -0.249 A  
HETATM    5  C   UNL     1     -11.734   6.474  71.003  1.00  0.00    -0.402 A  
HETATM    6  C   UNL     1     -11.729   6.571  69.588  1.00  0.00    -0.231 A  
HETATM    7  C   UNL     1     -10.695   6.011  68.824  1.00  0.00    -0.375 A  
HETATM    8  C   UNL     1      -9.807   5.181  69.521  1.00  0.00    -0.278 A  
HETATM    9  C   UNL     1      -9.825   5.084  70.919  1.00  0.00    -0.274 A  
BRANCH   7  10
HETATM   10  C   UNL     1     -10.444   6.357  67.328  1.00  0.00    -0.326 C  
HETATM   11  C   UNL     1     -10.658   7.905  66.997  1.00  0.00    -0.381 C  
HETATM   12  C   UNL     1      -9.496   8.851  67.465  1.00  0.00    -0.172 C  
HETATM   13  C   UNL     1      -9.432   8.900  69.011  1.00  0.00    -0.156 C  
HETATM   14  C   UNL     1      -8.227   8.246  66.812  1.00  0.00    -0.103 C  
HETATM   15  C   UNL     1      -7.198   9.354  66.967  1.00  0.00    -0.087 C  
HETATM   16  C   UNL     1      -7.867   6.831  67.286  1.00  0.00    -0.110 C  
HETATM   17  C   UNL     1      -7.976  10.530  66.404  1.00  0.00    -0.137 C  
HETATM   18  C   UNL     1      -6.446   6.462  66.771  1.00  0.00    -0.046 C  
HETATM   19  C   UNL     1      -6.339   5.217  65.918  1.00  0.00    -0.035 C  
HETATM   20  C   UNL     1      -9.438  10.358  66.921  1.00  0.00    -0.168 C  
HETATM   21  C   UNL     1      -9.016   5.868  66.874  1.00  0.00    -0.115 C  
HETATM   22  O   UNL     1     -10.277  10.535  65.785  1.00  0.00    -0.255 OA 
HETATM   23  C   UNL     1      -7.333   4.221  66.384  1.00  0.00    -0.080 C  
HETATM   24  H   UNL     1     -10.243  11.428  65.463  1.00  0.00     0.000 HD 
HETATM   25  C   UNL     1      -7.032   2.916  66.494  1.00  0.00    -0.053 C  
HETATM   26  C   UNL     1      -8.728   4.665  66.301  1.00  0.00    -0.113 C  
HETATM   27  C   UNL     1      -9.592   3.624  65.610  1.00  0.00    -0.142 C  
HETATM   28  C   UNL     1      -7.368   2.396  65.130  1.00  0.00    -0.063 C  
HETATM   29  C   UNL     1      -8.791   2.669  64.657  1.00  0.00    -0.115 C  
HETATM   30  O   UNL     1      -6.524   1.805  64.466  1.00  0.00    -0.018 OA 
BRANCH  20  31
HETATM   31  C   UNL     1      -9.618  11.493  67.992  1.00  0.00    -0.180 C  
HETATM   32  C   UNL     1     -11.004  11.920  68.380  1.00  0.00    -0.273 C  
HETATM   33  O   UNL     1      -8.659  12.073  68.511  1.00  0.00    -0.157 OA 
ENDBRANCH  20  31
ENDBRANCH   7  10
ENDBRANCH   2   4
TORSDOF 3
ENDMDL
MODEL       30
REMARK 921   NORMALIZED FREE ENERGY PREDICTED BY IDOCK:   -5.17 KCAL/MOL
REMARK 922        TOTAL FREE ENERGY PREDICTED BY IDOCK:   -7.13 KCAL/MOL
REMARK 923 INTER-LIGAND FREE ENERGY PREDICTED BY IDOCK:   -6.21 KCAL/MOL
REMARK 924 INTRA-LIGAND FREE ENERGY PREDICTED BY IDOCK:   -0.92 KCAL/MOL
REMARK 927      BINDING AFFINITY PREDICTED BY RF-SCORE:    0.00 PKD
ROOT
HETATM    1  C   UNL     1      -6.645  17.051  69.201  1.00  0.00    -0.230 C  
HETATM    2  N   UNL     1      -6.357  15.645  69.443  1.00  0.00    -0.140 NA 
HETATM    3  C   UNL     1      -5.214  15.330  70.297  1.00  0.00    -0.120 C  
ENDROOT
BRANCH   2   4
HETATM    4  C   UNL     1      -7.052  14.628  68.800  1.00  0.00    -0.113 A  
HETATM    5  C   UNL     1      -6.973  13.277  69.175  1.00  0.00    -0.031 A  
HETATM    6  C   UNL     1      -7.752  12.269  68.554  1.00  0.00    -0.118 A  
HETATM    7  C   UNL     1      -8.700  12.584  67.569  1.00  0.00    -0.182 A  
HETATM    8  C   UNL     1      -8.667  13.903  67.097  1.00  0.00    -0.233 A  
HETATM    9  C   UNL     1      -7.886  14.891  67.710  1.00  0.00    -0.164 A  
BRANCH   7  10
HETATM   10  C   UNL     1      -9.809  11.602  67.093  1.00  0.00    -0.205 C  
HETATM   11  C   UNL     1      -9.635  11.150  65.571  1.00  0.00    -0.263 C  
HETATM   12  C   UNL     1      -8.510  10.085  65.319  1.00  0.00    -0.161 C  
HETATM   13  C   UNL     1      -7.115  10.702  65.590  1.00  0.00    -0.076 C  
HETATM   14  C   UNL     1      -8.868   8.920  66.276  1.00  0.00    -0.187 C  
HETATM   15  C   UNL     1      -8.004   7.777  65.766  1.00  0.00    -0.114 C  
HETATM   16  C   UNL     1      -8.821   9.271  67.769  1.00  0.00    -0.121 C  
HETATM   17  C   UNL     1      -8.351   7.811  64.288  1.00  0.00     0.055 C  
HETATM   18  C   UNL     1      -8.925   7.966  68.608  1.00  0.00    -0.134 C  
HETATM   19  C   UNL     1     -10.068   7.887  69.597  1.00  0.00    -0.197 C  
HETATM   20  C   UNL     1      -8.446   9.322  63.910  1.00  0.00    -0.190 C  
HETATM   21  C   UNL     1      -9.899  10.355  68.053  1.00  0.00    -0.170 C  
HETATM   22  O   UNL     1      -9.661   9.468  63.182  1.00  0.00    -0.505 OA 
HETATM   23  C   UNL     1     -10.336   9.241  70.139  1.00  0.00    -0.258 C  
HETATM   24  H   UNL     1      -9.623   9.016  62.348  1.00  0.00     0.000 HD 
HETATM   25  C   UNL     1     -10.591   9.446  71.442  1.00  0.00    -0.381 C  
HETATM   26  C   UNL     1     -10.721  10.237  69.133  1.00  0.00    -0.259 C  
HETATM   27  C   UNL     1     -11.976  10.982  69.555  1.00  0.00    -0.413 C  
HETATM   28  C   UNL     1     -12.079   9.287  71.504  1.00  0.00    -0.361 C  
HETATM   29  C   UNL     1     -12.874  10.186  70.566  1.00  0.00    -0.248 C  
HETATM   30  O   UNL     1     -12.584   8.469  72.265  1.00  0.00    -0.359 OA 
BRANCH  20  31
HETATM   31  C   UNL     1      -7.174   9.593  63.028  1.00  0.00    -0.110 C  
HETATM   32  C   UNL     1      -6.166   8.496  62.843  1.00  0.00    -0.087 C  
HETATM   33  O   UNL     1      -6.953  10.687  62.500  1.00  0.00    -0.139 OA 
ENDBRANCH  20  31
ENDBRANCH   7  10
ENDBRANCH   2   4
TORSDOF 3
ENDMDL
MODEL       31
REMARK 921   NORMALIZED FREE ENERGY PREDICTED BY IDOCK:   -5.11 KCAL/MOL
REMARK 922        TOTAL FREE ENERGY PREDICTED BY IDOCK:   -7.07 KCAL/MOL
REMARK 923 INTER-LIGAND FREE ENERGY PREDICTED BY IDOCK:   -5.90 KCAL/MOL
REMARK 924 INTRA-LIGAND FREE ENERGY PREDICTED BY IDOCK:   -1.16 KCAL/MOL
REMARK 927      BINDING AFFINITY PREDICTED BY RF-SCORE:    0.00 PKD
ROOT
HETATM    1  C   UNL     1     -10.283   5.162  71.574  1.00  0.00    -0.207 C  
HETATM    2  N   UNL     1     -10.858   6.396  71.057  1.00  0.00    -0.250 NA 
HETATM    3  C   UNL     1     -12.169   6.791  71.566  1.00  0.00    -0.366 C  
ENDROOT
BRANCH   2   4
HETATM    4  C   UNL     1     -10.257   7.117  70.032  1.00  0.00    -0.196 A  
HETATM    5  C   UNL     1     -10.956   7.996  69.190  1.00  0.00     0.058 A  
HETATM    6  C   UNL     1     -10.307   8.780  68.203  1.00  0.00    -0.266 A  
HETATM    7  C   UNL     1      -8.911   8.766  68.063  1.00  0.00    -0.141 A  
HETATM    8  C   UNL     1      -8.239   7.781  68.799  1.00  0.00    -0.128 A  
HETATM    9  C   UNL     1      -8.890   7.003  69.765  1.00  0.00    -0.142 A  
BRANCH   7  10
HETATM   10  C   UNL     1      -8.115   9.828  67.251  1.00  0.00    -0.117 C  
HETATM   11  C   UNL     1      -6.996   9.187  66.308  1.00  0.00    -0.086 C  
HETATM   12  C   UNL     1      -7.537   8.516  64.997  1.00  0.00    -0.093 C  
HETATM   13  C   UNL     1      -8.368   7.256  65.343  1.00  0.00    -0.127 C  
HETATM   14  C   UNL     1      -8.363   9.633  64.311  1.00  0.00    -0.169 C  
HETATM   15  C   UNL     1      -8.567   9.095  62.904  1.00  0.00    -0.203 C  
HETATM   16  C   UNL     1      -9.588  10.112  65.103  1.00  0.00    -0.354 C  
HETATM   17  C   UNL     1      -7.138   8.737  62.538  1.00  0.00    -0.096 C  
HETATM   18  C   UNL     1     -10.467  11.017  64.193  1.00  0.00    -0.434 C  
HETATM   19  C   UNL     1     -10.735  12.421  64.692  1.00  0.00    -0.339 C  
HETATM   20  C   UNL     1      -6.511   8.125  63.829  1.00  0.00    -0.071 C  
HETATM   21  C   UNL     1      -9.093  10.752  66.431  1.00  0.00    -0.188 C  
HETATM   22  O   UNL     1      -5.255   8.772  63.999  1.00  0.00    -0.054 OA 
HETATM   23  C   UNL     1     -10.824  12.402  66.172  1.00  0.00    -0.308 C  
HETATM   24  H   UNL     1      -4.648   8.540  63.307  1.00  0.00     0.000 HD 
HETATM   25  C   UNL     1     -11.759  13.102  66.835  1.00  0.00    -0.441 C  
HETATM   26  C   UNL     1      -9.608  11.942  66.851  1.00  0.00    -0.208 C  
HETATM   27  C   UNL     1      -9.199  12.907  67.951  1.00  0.00    -0.208 C  
HETATM   28  C   UNL     1     -11.083  14.423  67.038  1.00  0.00    -0.313 C  
HETATM   29  C   UNL     1      -9.732  14.367  67.742  1.00  0.00    -0.221 C  
HETATM   30  O   UNL     1     -11.609  15.457  66.642  1.00  0.00    -0.132 OA 
BRANCH  20  31
HETATM   31  C   UNL     1      -6.366   6.593  63.513  1.00  0.00    -0.041 C  
HETATM   32  C   UNL     1      -5.348   5.784  64.263  1.00  0.00    -0.016 C  
HETATM   33  O   UNL     1      -7.041   6.027  62.646  1.00  0.00    -0.045 OA 
ENDBRANCH  20  31
ENDBRANCH   7  10
ENDBRANCH   2   4
TORSDOF 3
ENDMDL
MODEL       32
REMARK 921   NORMALIZED FREE ENERGY PREDICTED BY IDOCK:   -5.09 KCAL/MOL
REMARK 922        TOTAL FREE ENERGY PREDICTED BY IDOCK:   -7.04 KCAL/MOL
REMARK 923 INTER-LIGAND FREE ENERGY PREDICTED BY IDOCK:   -5.85 KCAL/MOL
REMARK 924 INTRA-LIGAND FREE ENERGY PREDICTED BY IDOCK:   -1.19 KCAL/MOL
REMARK 927      BINDING AFFINITY PREDICTED BY RF-SCORE:    0.00 PKD
ROOT
HETATM    1  C   UNL     1      -8.464   4.149  65.614  1.00  0.00    -0.110 C  
HETATM    2  N   UNL     1      -9.807   4.690  65.772  1.00  0.00    -0.198 NA 
HETATM    3  C   UNL     1     -10.840   4.201  64.863  1.00  0.00    -0.068 C  
ENDROOT
BRANCH   2   4
HETATM    4  C   UNL     1     -10.086   5.719  66.663  1.00  0.00    -0.193 A  
HETATM    5  C   UNL     1     -10.675   5.517  67.921  1.00  0.00    -0.174 A  
HETATM    6  C   UNL     1     -10.878   6.573  68.845  1.00  0.00    -0.354 A  
HETATM    7  C   UNL     1     -10.436   7.876  68.570  1.00  0.00    -0.202 A  
HETATM    8  C   UNL     1      -9.990   8.100  67.261  1.00  0.00    -0.283 A  
HETATM    9  C   UNL     1      -9.801   7.051  66.351  1.00  0.00    -0.103 A  
BRANCH   7  10
HETATM   10  C   UNL     1     -10.319   8.992  69.647  1.00  0.00    -0.217 C  
HETATM   11  C   UNL     1      -9.579   8.506  70.977  1.00  0.00    -0.241 C  
HETATM   12  C   UNL     1      -8.019   8.384  70.861  1.00  0.00    -0.112 C  
HETATM   13  C   UNL     1      -7.640   7.235  69.893  1.00  0.00    -0.094 C  
HETATM   14  C   UNL     1      -7.562   9.782  70.371  1.00  0.00    -0.165 C  
HETATM   15  C   UNL     1      -6.062   9.758  70.612  1.00  0.00    -0.088 C  
HETATM   16  C   UNL     1      -8.081  10.182  68.983  1.00  0.00    -0.125 C  
HETATM   17  C   UNL     1      -6.025   9.302  72.060  1.00  0.00     0.001 C  
HETATM   18  C   UNL     1      -7.336  11.461  68.505  1.00  0.00    -0.105 C  
HETATM   19  C   UNL     1      -8.198  12.658  68.166  1.00  0.00    -0.170 C  
HETATM   20  C   UNL     1      -7.139   8.218  72.191  1.00  0.00    -0.090 C  
HETATM   21  C   UNL     1      -9.632  10.277  69.047  1.00  0.00    -0.210 C  
HETATM   22  O   UNL     1      -7.884   8.560  73.355  1.00  0.00    -0.355 OA 
HETATM   23  C   UNL     1      -9.482  12.188  67.594  1.00  0.00    -0.187 C  
HETATM   24  H   UNL     1      -7.362   8.462  74.143  1.00  0.00     0.000 HD 
HETATM   25  C   UNL     1     -10.047  12.787  66.532  1.00  0.00    -0.264 C  
HETATM   26  C   UNL     1     -10.276  11.341  68.490  1.00  0.00    -0.214 C  
HETATM   27  C   UNL     1     -11.714  11.826  68.567  1.00  0.00    -0.390 C  
HETATM   28  C   UNL     1     -10.890  13.844  67.176  1.00  0.00    -0.284 C  
HETATM   29  C   UNL     1     -11.889  13.345  68.214  1.00  0.00    -0.393 C  
HETATM   30  O   UNL     1     -10.750  15.023  66.869  1.00  0.00    -0.295 OA 
BRANCH  20  31
HETATM   31  C   UNL     1      -6.359   6.863  72.346  1.00  0.00    -0.053 C  
HETATM   32  C   UNL     1      -7.046   5.693  72.990  1.00  0.00    -0.085 C  
HETATM   33  O   UNL     1      -5.187   6.727  71.984  1.00  0.00    -0.030 OA 
ENDBRANCH  20  31
ENDBRANCH   7  10
ENDBRANCH   2   4
TORSDOF 3
ENDMDL
MODEL       33
REMARK 921   NORMALIZED FREE ENERGY PREDICTED BY IDOCK:   -4.94 KCAL/MOL
REMARK 922        TOTAL FREE ENERGY PREDICTED BY IDOCK:   -6.86 KCAL/MOL
REMARK 923 INTER-LIGAND FREE ENERGY PREDICTED BY IDOCK:   -6.22 KCAL/MOL
REMARK 924 INTRA-LIGAND FREE ENERGY PREDICTED BY IDOCK:   -0.64 KCAL/MOL
REMARK 927      BINDING AFFINITY PREDICTED BY RF-SCORE:    0.00 PKD
ROOT
HETATM    1  C   UNL     1      -6.535  17.989  69.208  1.00  0.00    -0.246 C  
HETATM    2  N   UNL     1      -6.637  16.857  68.298  1.00  0.00    -0.144 NA 
HETATM    3  C   UNL     1      -5.836  16.902  67.078  1.00  0.00    -0.173 C  
ENDROOT
BRANCH   2   4
HETATM    4  C   UNL     1      -7.543  15.824  68.505  1.00  0.00    -0.138 A  
HETATM    5  C   UNL     1      -8.865  16.026  68.931  1.00  0.00    -0.233 A  
HETATM    6  C   UNL     1      -9.795  14.964  69.059  1.00  0.00    -0.220 A  
HETATM    7  C   UNL     1      -9.454  13.651  68.697  1.00  0.00    -0.077 A  
HETATM    8  C   UNL     1      -8.099  13.433  68.418  1.00  0.00    -0.138 A  
HETATM    9  C   UNL     1      -7.185  14.488  68.303  1.00  0.00    -0.119 A  
BRANCH   7  10
HETATM   10  C   UNL     1     -10.498  12.516  68.490  1.00  0.00    -0.246 C  
HETATM   11  C   UNL     1     -11.637  12.894  67.437  1.00  0.00    -0.414 C  
HETATM   12  C   UNL     1     -11.196  12.833  65.932  1.00  0.00    -0.334 C  
HETATM   13  C   UNL     1     -10.157  13.941  65.631  1.00  0.00    -0.332 C  
HETATM   14  C   UNL     1     -10.640  11.397  65.756  1.00  0.00    -0.315 C  
HETATM   15  C   UNL     1     -10.562  11.240  64.246  1.00  0.00    -0.422 C  
HETATM   16  C   UNL     1      -9.396  11.078  66.597  1.00  0.00    -0.196 C  
HETATM   17  C   UNL     1     -11.964  11.671  63.854  1.00  0.00    -0.320 C  
HETATM   18  C   UNL     1      -8.789   9.727  66.124  1.00  0.00    -0.162 C  
HETATM   19  C   UNL     1      -8.653   8.643  67.172  1.00  0.00    -0.123 C  
HETATM   20  C   UNL     1     -12.311  12.878  64.781  1.00  0.00    -0.459 C  
HETATM   21  C   UNL     1      -9.783  11.166  68.100  1.00  0.00    -0.186 C  
HETATM   22  O   UNL     1     -13.609  12.611  65.301  1.00  0.00     0.043 OA 
HETATM   23  C   UNL     1      -8.355   9.269  68.483  1.00  0.00    -0.119 C  
HETATM   24  H   UNL     1     -14.269  12.638  64.618  1.00  0.00     0.000 HD 
HETATM   25  C   UNL     1      -7.443   8.754  69.325  1.00  0.00    -0.078 C  
HETATM   26  C   UNL     1      -9.387  10.192  68.967  1.00  0.00    -0.192 C  
HETATM   27  C   UNL     1      -9.768   9.879  70.404  1.00  0.00    -0.151 C  
HETATM   28  C   UNL     1      -8.262   7.796  70.133  1.00  0.00    -0.123 C  
HETATM   29  C   UNL     1      -9.479   8.396  70.827  1.00  0.00    -0.199 C  
HETATM   30  O   UNL     1      -7.947   6.613  70.200  1.00  0.00    -0.108 OA 
BRANCH  20  31
HETATM   31  C   UNL     1     -12.283  14.129  63.831  1.00  0.00    -0.247 C  
HETATM   32  C   UNL     1     -12.243  15.504  64.434  1.00  0.00    -0.087 C  
HETATM   33  O   UNL     1     -12.321  14.030  62.601  1.00  0.00     0.039 OA 
ENDBRANCH  20  31
ENDBRANCH   7  10
ENDBRANCH   2   4
TORSDOF 3
ENDMDL
MODEL       34
REMARK 921   NORMALIZED FREE ENERGY PREDICTED BY IDOCK:   -4.92 KCAL/MOL
REMARK 922        TOTAL FREE ENERGY PREDICTED BY IDOCK:   -6.83 KCAL/MOL
REMARK 923 INTER-LIGAND FREE ENERGY PREDICTED BY IDOCK:   -5.76 KCAL/MOL
REMARK 924 INTRA-LIGAND FREE ENERGY PREDICTED BY IDOCK:   -1.07 KCAL/MOL
REMARK 927      BINDING AFFINITY PREDICTED BY RF-SCORE:    0.00 PKD
ROOT
HETATM    1  C   UNL     1     -12.135  13.473  68.111  1.00  0.00    -0.255 C  
HETATM    2  N   UNL     1     -11.682  12.452  67.178  1.00  0.00    -0.458 NA 
HETATM    3  C   UNL     1     -12.093  12.585  65.783  1.00  0.00    -0.378 C  
ENDROOT
BRANCH   2   4
HETATM    4  C   UNL     1     -10.987  11.323  67.599  1.00  0.00    -0.259 A  
HETATM    5  C   UNL     1     -10.975  10.112  66.890  1.00  0.00    -0.106 A  
HETATM    6  C   UNL     1     -10.196   9.000  67.299  1.00  0.00    -0.323 A  
HETATM    7  C   UNL     1      -9.338   9.079  68.406  1.00  0.00    -0.143 A  
HETATM    8  C   UNL     1      -9.469  10.232  69.192  1.00  0.00    -0.225 A  
HETATM    9  C   UNL     1     -10.249  11.322  68.786  1.00  0.00    -0.215 A  
BRANCH   7  10
HETATM   10  C   UNL     1      -8.223   8.038  68.709  1.00  0.00    -0.126 C  
HETATM   11  C   UNL     1      -8.203   7.565  70.235  1.00  0.00    -0.128 C  
HETATM   12  C   UNL     1      -9.332   6.547  70.629  1.00  0.00    -0.166 C  
HETATM   13  C   UNL     1     -10.719   7.232  70.564  1.00  0.00    -0.249 C  
HETATM   14  C   UNL     1      -9.167   5.386  69.616  1.00  0.00    -0.153 C  
HETATM   15  C   UNL     1     -10.004   4.274  70.227  1.00  0.00    -0.203 C  
HETATM   16  C   UNL     1      -9.406   5.768  68.148  1.00  0.00    -0.114 C  
HETATM   17  C   UNL     1      -9.453   4.264  71.642  1.00  0.00    -0.211 C  
HETATM   18  C   UNL     1      -9.482   4.476  67.286  1.00  0.00    -0.184 C  
HETATM   19  C   UNL     1      -8.493   4.365  66.145  1.00  0.00    -0.113 C  
HETATM   20  C   UNL     1      -9.234   5.761  72.022  1.00  0.00    -0.147 C  
HETATM   21  C   UNL     1      -8.327   6.808  67.730  1.00  0.00    -0.119 C  
HETATM   22  O   UNL     1      -7.924   5.837  72.574  1.00  0.00    -0.102 OA 
HETATM   23  C   UNL     1      -8.240   5.716  65.589  1.00  0.00    -0.126 C  
HETATM   24  H   UNL     1      -7.866   5.371  73.399  1.00  0.00     0.000 HD 
HETATM   25  C   UNL     1      -8.161   5.935  64.265  1.00  0.00    -0.119 C  
HETATM   26  C   UNL     1      -7.670   6.673  66.544  1.00  0.00    -0.102 C  
HETATM   27  C   UNL     1      -6.453   7.369  65.959  1.00  0.00    -0.045 C  
HETATM   28  C   UNL     1      -6.705   5.709  63.993  1.00  0.00    -0.045 C  
HETATM   29  C   UNL     1      -5.744   6.553  64.822  1.00  0.00    -0.030 C  
HETATM   30  O   UNL     1      -6.351   4.884  63.158  1.00  0.00    -0.025 OA 
BRANCH  20  31
HETATM   31  C   UNL     1     -10.355   6.072  73.078  1.00  0.00    -0.204 C  
HETATM   32  C   UNL     1     -11.475   5.089  73.267  1.00  0.00    -0.339 C  
HETATM   33  O   UNL     1     -10.371   7.112  73.744  1.00  0.00    -0.351 OA 
ENDBRANCH  20  31
ENDBRANCH   7  10
ENDBRANCH   2   4
TORSDOF 3
ENDMDL
MODEL       35
REMARK 921   NORMALIZED FREE ENERGY PREDICTED BY IDOCK:   -4.91 KCAL/MOL
REMARK 922        TOTAL FREE ENERGY PREDICTED BY IDOCK:   -6.82 KCAL/MOL
REMARK 923 INTER-LIGAND FREE ENERGY PREDICTED BY IDOCK:   -5.81 KCAL/MOL
REMARK 924 INTRA-LIGAND FREE ENERGY PREDICTED BY IDOCK:   -1.01 KCAL/MOL
REMARK 927      BINDING AFFINITY PREDICTED BY RF-SCORE:    0.00 PKD
ROOT
HETATM    1  C   UNL     1     -11.699  13.795  68.057  1.00  0.00    -0.355 C  
HETATM    2  N   UNL     1     -11.424  12.692  67.147  1.00  0.00    -0.325 NA 
HETATM    3  C   UNL     1     -12.075  12.720  65.840  1.00  0.00    -0.426 C  
ENDROOT
BRANCH   2   4
HETATM    4  C   UNL     1     -10.672  11.588  67.532  1.00  0.00    -0.223 A  
HETATM    5  C   UNL     1     -11.142  10.267  67.461  1.00  0.00    -0.302 A  
HETATM    6  C   UNL     1     -10.329   9.152  67.785  1.00  0.00    -0.302 A  
HETATM    7  C   UNL     1      -8.979   9.312  68.133  1.00  0.00    -0.128 A  
HETATM    8  C   UNL     1      -8.562  10.632  68.347  1.00  0.00    -0.134 A  
HETATM    9  C   UNL     1      -9.375  11.728  68.034  1.00  0.00    -0.184 A  
BRANCH   7  10
HETATM   10  C   UNL     1      -7.955   8.142  68.172  1.00  0.00    -0.127 C  
HETATM   11  C   UNL     1      -7.029   8.161  69.474  1.00  0.00    -0.050 C  
HETATM   12  C   UNL     1      -7.725   7.663  70.790  1.00  0.00    -0.085 C  
HETATM   13  C   UNL     1      -8.834   8.655  71.219  1.00  0.00    -0.263 C  
HETATM   14  C   UNL     1      -8.260   6.255  70.428  1.00  0.00    -0.121 C  
HETATM   15  C   UNL     1      -8.596   5.655  71.784  1.00  0.00    -0.135 C  
HETATM   16  C   UNL     1      -9.327   6.231  69.325  1.00  0.00    -0.139 C  
HETATM   17  C   UNL     1      -7.298   5.916  72.527  1.00  0.00    -0.095 C  
HETATM   18  C   UNL     1      -9.967   4.815  69.258  1.00  0.00    -0.254 C  
HETATM   19  C   UNL     1      -9.884   4.098  67.928  1.00  0.00    -0.098 C  
HETATM   20  C   UNL     1      -6.831   7.335  72.079  1.00  0.00    -0.055 C  
HETATM   21  C   UNL     1      -8.685   6.755  68.009  1.00  0.00    -0.118 C  
HETATM   22  O   UNL     1      -5.454   7.205  71.740  1.00  0.00    -0.035 OA 
HETATM   23  C   UNL     1      -9.967   5.094  66.833  1.00  0.00    -0.227 C  
HETATM   24  H   UNL     1      -4.925   7.011  72.505  1.00  0.00     0.000 HD 
HETATM   25  C   UNL     1     -10.701   4.876  65.729  1.00  0.00    -0.194 C  
HETATM   26  C   UNL     1      -8.894   6.095  66.835  1.00  0.00    -0.117 C  
HETATM   27  C   UNL     1      -8.258   6.216  65.461  1.00  0.00    -0.144 C  
HETATM   28  C   UNL     1      -9.724   4.183  64.829  1.00  0.00    -0.184 C  
HETATM   29  C   UNL     1      -8.423   4.935  64.572  1.00  0.00    -0.144 C  
HETATM   30  O   UNL     1      -9.987   3.082  64.358  1.00  0.00    -0.151 OA 
BRANCH  20  31
HETATM   31  C   UNL     1      -7.063   8.246  73.338  1.00  0.00    -0.115 C  
HETATM   32  C   UNL     1      -8.032   7.801  74.395  1.00  0.00    -0.264 C  
HETATM   33  O   UNL     1      -6.498   9.335  73.482  1.00  0.00    -0.316 OA 
ENDBRANCH  20  31
ENDBRANCH   7  10
ENDBRANCH   2   4
TORSDOF 3
ENDMDL
MODEL       36
REMARK 921   NORMALIZED FREE ENERGY PREDICTED BY IDOCK:   -4.82 KCAL/MOL
REMARK 922        TOTAL FREE ENERGY PREDICTED BY IDOCK:   -6.72 KCAL/MOL
REMARK 923 INTER-LIGAND FREE ENERGY PREDICTED BY IDOCK:   -5.56 KCAL/MOL
REMARK 924 INTRA-LIGAND FREE ENERGY PREDICTED BY IDOCK:   -1.16 KCAL/MOL
REMARK 927      BINDING AFFINITY PREDICTED BY RF-SCORE:    0.00 PKD
ROOT
HETATM    1  C   UNL     1      -7.539   4.454  62.831  1.00  0.00    -0.057 C  
HETATM    2  N   UNL     1      -8.807   4.215  63.505  1.00  0.00    -0.118 NA 
HETATM    3  C   UNL     1      -9.799   3.403  62.805  1.00  0.00    -0.105 C  
ENDROOT
BRANCH   2   4
HETATM    4  C   UNL     1      -9.128   4.827  64.712  1.00  0.00    -0.128 A  
HETATM    5  C   UNL     1      -8.418   5.916  65.241  1.00  0.00    -0.144 A  
HETATM    6  C   UNL     1      -8.811   6.573  66.434  1.00  0.00    -0.149 A  
HETATM    7  C   UNL     1      -9.981   6.205  67.116  1.00  0.00    -0.188 A  
HETATM    8  C   UNL     1     -10.597   5.029  66.670  1.00  0.00    -0.256 A  
HETATM    9  C   UNL     1     -10.195   4.380  65.495  1.00  0.00    -0.260 A  
BRANCH   7  10
HETATM   10  C   UNL     1     -10.647   7.078  68.218  1.00  0.00    -0.238 C  
HETATM   11  C   UNL     1     -10.935   6.274  69.567  1.00  0.00    -0.445 C  
HETATM   12  C   UNL     1      -9.674   6.011  70.465  1.00  0.00    -0.210 C  
HETATM   13  C   UNL     1      -8.704   5.034  69.757  1.00  0.00    -0.111 C  
HETATM   14  C   UNL     1      -9.073   7.420  70.698  1.00  0.00    -0.156 C  
HETATM   15  C   UNL     1      -8.096   7.194  71.840  1.00  0.00    -0.097 C  
HETATM   16  C   UNL     1      -8.576   8.129  69.430  1.00  0.00    -0.135 C  
HETATM   17  C   UNL     1      -8.993   6.470  72.828  1.00  0.00    -0.127 C  
HETATM   18  C   UNL     1      -7.758   9.390  69.833  1.00  0.00    -0.114 C  
HETATM   19  C   UNL     1      -8.242  10.714  69.283  1.00  0.00    -0.122 C  
HETATM   20  C   UNL     1      -9.871   5.504  71.973  1.00  0.00    -0.166 C  
HETATM   21  C   UNL     1      -9.794   8.374  68.495  1.00  0.00    -0.186 C  
HETATM   22  O   UNL     1     -11.210   5.696  72.417  1.00  0.00    -0.268 OA 
HETATM   23  C   UNL     1      -8.817  10.499  67.933  1.00  0.00    -0.133 C  
HETATM   24  H   UNL     1     -11.326   5.395  73.311  1.00  0.00     0.000 HD 
HETATM   25  C   UNL     1      -8.578  11.344  66.917  1.00  0.00    -0.154 C  
HETATM   26  C   UNL     1      -9.965   9.586  67.897  1.00  0.00    -0.209 C  
HETATM   27  C   UNL     1     -11.123  10.197  67.126  1.00  0.00    -0.122 C  
HETATM   28  C   UNL     1      -9.684  12.344  67.069  1.00  0.00    -0.211 C  
HETATM   29  C   UNL     1     -11.094  11.765  67.078  1.00  0.00    -0.358 C  
HETATM   30  O   UNL     1      -9.430  13.538  67.185  1.00  0.00    -0.227 OA 
BRANCH  20  31
HETATM   31  C   UNL     1      -9.322   4.069  72.303  1.00  0.00    -0.125 C  
HETATM   32  C   UNL     1     -10.219   2.880  72.111  1.00  0.00    -0.151 C  
HETATM   33  O   UNL     1      -8.185   3.880  72.745  1.00  0.00    -0.091 OA 
ENDBRANCH  20  31
ENDBRANCH   7  10
ENDBRANCH   2   4
TORSDOF 3
ENDMDL
MODEL       37
REMARK 921   NORMALIZED FREE ENERGY PREDICTED BY IDOCK:   -4.79 KCAL/MOL
REMARK 922        TOTAL FREE ENERGY PREDICTED BY IDOCK:   -6.69 KCAL/MOL
REMARK 923 INTER-LIGAND FREE ENERGY PREDICTED BY IDOCK:   -5.57 KCAL/MOL
REMARK 924 INTRA-LIGAND FREE ENERGY PREDICTED BY IDOCK:   -1.11 KCAL/MOL
REMARK 927      BINDING AFFINITY PREDICTED BY RF-SCORE:    0.00 PKD
ROOT
HETATM    1  C   UNL     1      -7.887   4.170  73.173  1.00  0.00    -0.085 C  
HETATM    2  N   UNL     1      -8.685   5.386  73.116  1.00  0.00    -0.121 NA 
HETATM    3  C   UNL     1      -9.242   5.884  74.371  1.00  0.00    -0.138 C  
ENDROOT
BRANCH   2   4
HETATM    4  C   UNL     1      -9.015   5.996  71.911  1.00  0.00    -0.138 A  
HETATM    5  C   UNL     1      -8.203   5.942  70.768  1.00  0.00    -0.124 A  
HETATM    6  C   UNL     1      -8.598   6.504  69.527  1.00  0.00    -0.134 A  
HETATM    7  C   UNL     1      -9.862   7.090  69.363  1.00  0.00    -0.160 A  
HETATM    8  C   UNL     1     -10.601   7.274  70.539  1.00  0.00    -0.237 A  
HETATM    9  C   UNL     1     -10.199   6.723  71.763  1.00  0.00    -0.206 A  
BRANCH   7  10
HETATM   10  C   UNL     1     -10.487   7.418  67.977  1.00  0.00    -0.253 C  
HETATM   11  C   UNL     1     -11.028   8.917  67.870  1.00  0.00     0.031 C  
HETATM   12  C   UNL     1      -9.918  10.011  67.686  1.00  0.00    -0.214 C  
HETATM   13  C   UNL     1      -9.049  10.116  68.964  1.00  0.00    -0.176 C  
HETATM   14  C   UNL     1      -9.128   9.546  66.437  1.00  0.00    -0.195 C  
HETATM   15  C   UNL     1      -8.315  10.774  66.066  1.00  0.00    -0.163 C  
HETATM   16  C   UNL     1      -8.405   8.201  66.593  1.00  0.00    -0.111 C  
HETATM   17  C   UNL     1      -9.407  11.829  66.047  1.00  0.00    -0.231 C  
HETATM   18  C   UNL     1      -7.442   7.992  65.389  1.00  0.00    -0.079 C  
HETATM   19  C   UNL     1      -7.656   6.743  64.561  1.00  0.00    -0.103 C  
HETATM   20  C   UNL     1     -10.338  11.496  67.253  1.00  0.00    -0.206 C  
HETATM   21  C   UNL     1      -9.472   7.092  66.816  1.00  0.00    -0.205 C  
HETATM   22  O   UNL     1     -11.667  11.535  66.744  1.00  0.00    -0.510 OA 
HETATM   23  C   UNL     1      -8.123   5.648  65.445  1.00  0.00    -0.126 C  
HETATM   24  H   UNL     1     -11.916  12.415  66.487  1.00  0.00     0.000 HD 
HETATM   25  C   UNL     1      -7.656   4.393  65.328  1.00  0.00    -0.085 C  
HETATM   26  C   UNL     1      -9.391   5.916  66.132  1.00  0.00    -0.150 C  
HETATM   27  C   UNL     1     -10.359   4.757  65.965  1.00  0.00    -0.328 C  
HETATM   28  C   UNL     1      -8.601   3.795  64.331  1.00  0.00    -0.102 C  
HETATM   29  C   UNL     1     -10.078   3.877  64.696  1.00  0.00    -0.219 C  
HETATM   30  O   UNL     1      -8.175   3.290  63.298  1.00  0.00    -0.083 OA 
BRANCH  20  31
HETATM   31  C   UNL     1     -10.056  12.634  68.300  1.00  0.00    -0.233 C  
HETATM   32  C   UNL     1     -11.173  13.106  69.186  1.00  0.00    -0.303 C  
HETATM   33  O   UNL     1      -8.954  13.180  68.405  1.00  0.00    -0.187 OA 
ENDBRANCH  20  31
ENDBRANCH   7  10
ENDBRANCH   2   4
TORSDOF 3
ENDMDL
MODEL       38
REMARK 921   NORMALIZED FREE ENERGY PREDICTED BY IDOCK:   -4.73 KCAL/MOL
REMARK 922        TOTAL FREE ENERGY PREDICTED BY IDOCK:   -6.61 KCAL/MOL
REMARK 923 INTER-LIGAND FREE ENERGY PREDICTED BY IDOCK:   -7.89 KCAL/MOL
REMARK 924 INTRA-LIGAND FREE ENERGY PREDICTED BY IDOCK:    1.28 KCAL/MOL
REMARK 927      BINDING AFFINITY PREDICTED BY RF-SCORE:    0.00 PKD
ROOT
HETATM    1  C   UNL     1     -12.194  14.796  73.881  1.00  0.00    -0.276 C  
HETATM    2  N   UNL     1     -12.998  14.610  72.683  1.00  0.00    -0.410 NA 
HETATM    3  C   UNL     1     -14.140  15.501  72.494  1.00  0.00    -0.506 C  
ENDROOT
BRANCH   2   4
HETATM    4  C   UNL     1     -12.779  13.555  71.804  1.00  0.00    -0.244 A  
HETATM    5  C   UNL     1     -12.090  13.690  70.588  1.00  0.00    -0.398 A  
HETATM    6  C   UNL     1     -11.810  12.585  69.746  1.00  0.00    -0.380 A  
HETATM    7  C   UNL     1     -12.153  11.277  70.123  1.00  0.00    -0.448 A  
HETATM    8  C   UNL     1     -12.968  11.168  71.257  1.00  0.00    -0.457 A  
HETATM    9  C   UNL     1     -13.248  12.268  72.079  1.00  0.00    -0.508 A  
BRANCH   7  10
HETATM   10  C   UNL     1     -11.590  10.004  69.428  1.00  0.00    -0.084 C  
HETATM   11  C   UNL     1     -11.375  10.190  67.856  1.00  0.00    -0.108 C  
HETATM   12  C   UNL     1     -10.112  11.031  67.454  1.00  0.00    -0.216 C  
HETATM   13  C   UNL     1     -10.287  12.506  67.891  1.00  0.00    -0.219 C  
HETATM   14  C   UNL     1      -8.935  10.312  68.161  1.00  0.00    -0.130 C  
HETATM   15  C   UNL     1      -7.711  10.903  67.482  1.00  0.00    -0.109 C  
HETATM   16  C   UNL     1      -9.002  10.316  69.695  1.00  0.00    -0.140 C  
HETATM   17  C   UNL     1      -8.086  10.705  66.024  1.00  0.00    -0.159 C  
HETATM   18  C   UNL     1      -7.646   9.816  70.271  1.00  0.00    -0.184 C  
HETATM   19  C   UNL     1      -7.702   8.609  71.182  1.00  0.00    -0.131 C  
HETATM   20  C   UNL     1      -9.611  11.023  65.931  1.00  0.00    -0.218 C  
HETATM   21  C   UNL     1     -10.266   9.523  70.134  1.00  0.00    -0.291 C  
HETATM   22  O   UNL     1     -10.191   9.951  65.197  1.00  0.00    -0.309 OA 
HETATM   23  C   UNL     1      -8.966   8.642  71.956  1.00  0.00    -0.286 C  
HETATM   24  H   UNL     1      -9.894   9.947  64.294  1.00  0.00     0.000 HD 
HETATM   25  C   UNL     1      -9.005   8.336  73.264  1.00  0.00    -0.283 C  
HETATM   26  C   UNL     1     -10.184   8.606  71.139  1.00  0.00    -0.294 C  
HETATM   27  C   UNL     1     -11.148   7.546  71.644  1.00  0.00    -0.270 C  
HETATM   28  C   UNL     1      -9.232   6.855  73.236  1.00  0.00    -0.138 C  
HETATM   29  C   UNL     1     -10.455   6.394  72.452  1.00  0.00    -0.222 C  
HETATM   30  O   UNL     1      -8.458   6.098  73.810  1.00  0.00    -0.123 OA 
BRANCH  20  31
HETATM   31  C   UNL     1      -9.685  12.393  65.166  1.00  0.00    -0.050 C  
HETATM   32  C   UNL     1     -10.307  12.436  63.800  1.00  0.00    -0.454 C  
HETATM   33  O   UNL     1      -9.225  13.440  65.633  1.00  0.00     0.157 OA 
ENDBRANCH  20  31
ENDBRANCH   7  10
ENDBRANCH   2   4
TORSDOF 3
ENDMDL
MODEL       39
REMARK 921   NORMALIZED FREE ENERGY PREDICTED BY IDOCK:   -4.44 KCAL/MOL
REMARK 922        TOTAL FREE ENERGY PREDICTED BY IDOCK:   -6.28 KCAL/MOL
REMARK 923 INTER-LIGAND FREE ENERGY PREDICTED BY IDOCK:   -5.30 KCAL/MOL
REMARK 924 INTRA-LIGAND FREE ENERGY PREDICTED BY IDOCK:   -0.98 KCAL/MOL
REMARK 927      BINDING AFFINITY PREDICTED BY RF-SCORE:    0.00 PKD
ROOT
HETATM    1  C   UNL     1     -11.143   5.449  72.936  1.00  0.00    -0.305 C  
HETATM    2  N   UNL     1     -10.335   6.654  72.808  1.00  0.00    -0.194 NA 
HETATM    3  C   UNL     1      -9.698   7.167  74.018  1.00  0.00    -0.273 C  
ENDROOT
BRANCH   2   4
HETATM    4  C   UNL     1     -10.261   7.368  71.619  1.00  0.00    -0.188 A  
HETATM    5  C   UNL     1      -9.113   7.411  70.811  1.00  0.00    -0.151 A  
HETATM    6  C   UNL     1      -9.086   8.083  69.563  1.00  0.00    -0.152 A  
HETATM    7  C   UNL     1     -10.238   8.688  69.037  1.00  0.00    -0.218 A  
HETATM    8  C   UNL     1     -11.331   8.771  69.909  1.00  0.00     0.030 A  
HETATM    9  C   UNL     1     -11.345   8.113  71.146  1.00  0.00    -0.299 A  
BRANCH   7  10
HETATM   10  C   UNL     1     -10.374   9.140  67.554  1.00  0.00    -0.324 C  
HETATM   11  C   UNL     1     -11.181  10.508  67.386  1.00  0.00    -0.249 C  
HETATM   12  C   UNL     1     -10.378  11.803  67.762  1.00  0.00    -0.211 C  
HETATM   13  C   UNL     1     -10.087  11.833  69.282  1.00  0.00     0.216 C  
HETATM   14  C   UNL     1      -9.101  11.725  66.888  1.00  0.00    -0.192 C  
HETATM   15  C   UNL     1      -8.528  13.129  66.988  1.00  0.00    -0.139 C  
HETATM   16  C   UNL     1      -8.183  10.531  67.188  1.00  0.00    -0.123 C  
HETATM   17  C   UNL     1      -9.757  13.950  66.640  1.00  0.00    -0.295 C  
HETATM   18  C   UNL     1      -6.829  10.724  66.450  1.00  0.00    -0.135 C  
HETATM   19  C   UNL     1      -6.419   9.628  65.489  1.00  0.00    -0.078 C  
HETATM   20  C   UNL     1     -10.955  13.238  67.342  1.00  0.00    -0.271 C  
HETATM   21  C   UNL     1      -8.959   9.223  66.865  1.00  0.00    -0.149 C  
HETATM   22  O   UNL     1     -11.974  13.123  66.354  1.00  0.00    -0.384 OA 
HETATM   23  C   UNL     1      -6.899   8.324  66.007  1.00  0.00    -0.064 C  
HETATM   24  H   UNL     1     -12.316  13.973  66.106  1.00  0.00     0.000 HD 
HETATM   25  C   UNL     1      -6.135   7.220  65.965  1.00  0.00    -0.037 C  
HETATM   26  C   UNL     1      -8.355   8.225  66.159  1.00  0.00    -0.125 C  
HETATM   27  C   UNL     1      -8.886   6.957  65.513  1.00  0.00     0.020 C  
HETATM   28  C   UNL     1      -6.478   6.648  64.624  1.00  0.00    -0.042 C  
HETATM   29  C   UNL     1      -7.960   6.389  64.381  1.00  0.00    -0.108 C  
HETATM   30  O   UNL     1      -5.597   6.426  63.800  1.00  0.00    -0.021 OA 
BRANCH  20  31
HETATM   31  C   UNL     1     -11.356  14.200  68.518  1.00  0.00    -0.283 C  
HETATM   32  C   UNL     1     -10.429  15.319  68.896  1.00  0.00    -0.241 C  
HETATM   33  O   UNL     1     -12.396  14.056  69.168  1.00  0.00    -0.313 OA 
ENDBRANCH  20  31
ENDBRANCH   7  10
ENDBRANCH   2   4
TORSDOF 3
ENDMDL
MODEL       40
REMARK 921   NORMALIZED FREE ENERGY PREDICTED BY IDOCK:   -4.40 KCAL/MOL
REMARK 922        TOTAL FREE ENERGY PREDICTED BY IDOCK:   -6.23 KCAL/MOL
REMARK 923 INTER-LIGAND FREE ENERGY PREDICTED BY IDOCK:   -5.27 KCAL/MOL
REMARK 924 INTRA-LIGAND FREE ENERGY PREDICTED BY IDOCK:   -0.96 KCAL/MOL
REMARK 927      BINDING AFFINITY PREDICTED BY RF-SCORE:    0.00 PKD
ROOT
HETATM    1  C   UNL     1     -13.134  11.207  71.637  1.00  0.00    -0.424 C  
HETATM    2  N   UNL     1     -12.063  11.311  70.655  1.00  0.00    -0.377 NA 
HETATM    3  C   UNL     1     -11.963  12.557  69.900  1.00  0.00    -0.301 C  
ENDROOT
BRANCH   2   4
HETATM    4  C   UNL     1     -11.236  10.237  70.349  1.00  0.00    -0.332 A  
HETATM    5  C   UNL     1     -11.074   9.729  69.050  1.00  0.00    -0.143 A  
HETATM    6  C   UNL     1     -10.165   8.684  68.750  1.00  0.00    -0.224 A  
HETATM    7  C   UNL     1      -9.325   8.144  69.736  1.00  0.00    -0.159 A  
HETATM    8  C   UNL     1      -9.597   8.547  71.050  1.00  0.00    -0.241 A  
HETATM    9  C   UNL     1     -10.505   9.575  71.339  1.00  0.00    -0.258 A  
BRANCH   7  10
HETATM   10  C   UNL     1      -8.090   7.251  69.422  1.00  0.00    -0.130 C  
HETATM   11  C   UNL     1      -7.908   6.047  70.455  1.00  0.00    -0.102 C  
HETATM   12  C   UNL     1      -8.895   4.843  70.252  1.00  0.00    -0.134 C  
HETATM   13  C   UNL     1     -10.345   5.277  70.579  1.00  0.00    -0.336 C  
HETATM   14  C   UNL     1      -8.691   4.429  68.773  1.00  0.00    -0.120 C  
HETATM   15  C   UNL     1      -9.363   3.068  68.700  1.00  0.00    -0.237 C  
HETATM   16  C   UNL     1      -9.077   5.499  67.742  1.00  0.00    -0.107 C  
HETATM   17  C   UNL     1      -8.708   2.377  69.883  1.00  0.00    -0.121 C  
HETATM   18  C   UNL     1      -9.087   4.866  66.322  1.00  0.00    -0.127 C  
HETATM   19  C   UNL     1      -8.182   5.503  65.290  1.00  0.00    -0.136 C  
HETATM   20  C   UNL     1      -8.613   3.456  71.005  1.00  0.00    -0.072 C  
HETATM   21  C   UNL     1      -8.144   6.728  67.937  1.00  0.00    -0.114 C  
HETATM   22  O   UNL     1      -7.280   3.392  71.499  1.00  0.00    -0.035 OA 
HETATM   23  C   UNL     1      -8.108   6.962  65.543  1.00  0.00    -0.132 C  
HETATM   24  H   UNL     1      -7.113   2.570  71.945  1.00  0.00     0.000 HD 
HETATM   25  C   UNL     1      -8.152   7.859  64.543  1.00  0.00    -0.114 C  
HETATM   26  C   UNL     1      -7.568   7.328  66.857  1.00  0.00    -0.105 C  
HETATM   27  C   UNL     1      -6.475   8.375  66.725  1.00  0.00    -0.056 C  
HETATM   28  C   UNL     1      -6.706   7.997  64.178  1.00  0.00    -0.065 C  
HETATM   29  C   UNL     1      -5.775   8.385  65.321  1.00  0.00    -0.044 C  
HETATM   30  O   UNL     1      -6.334   7.795  63.028  1.00  0.00    -0.066 OA 
BRANCH  20  31
HETATM   31  C   UNL     1      -9.678   3.015  72.073  1.00  0.00    -0.160 C  
HETATM   32  C   UNL     1      -9.815   3.808  73.341  1.00  0.00    -0.161 C  
HETATM   33  O   UNL     1     -10.392   2.018  71.926  1.00  0.00    -0.137 OA 
ENDBRANCH  20  31
ENDBRANCH   7  10
ENDBRANCH   2   4
TORSDOF 3
ENDMDL
MODEL       41
REMARK 921   NORMALIZED FREE ENERGY PREDICTED BY IDOCK:   -4.26 KCAL/MOL
REMARK 922        TOTAL FREE ENERGY PREDICTED BY IDOCK:   -6.07 KCAL/MOL
REMARK 923 INTER-LIGAND FREE ENERGY PREDICTED BY IDOCK:   -4.89 KCAL/MOL
REMARK 924 INTRA-LIGAND FREE ENERGY PREDICTED BY IDOCK:   -1.18 KCAL/MOL
REMARK 927      BINDING AFFINITY PREDICTED BY RF-SCORE:    0.00 PKD
ROOT
HETATM    1  C   UNL     1      -9.886  13.200  66.486  1.00  0.00    -0.265 C  
HETATM    2  N   UNL     1      -8.586  12.954  67.093  1.00  0.00    -0.202 NA 
HETATM    3  C   UNL     1      -7.746  14.114  67.378  1.00  0.00    -0.169 C  
ENDROOT
BRANCH   2   4
HETATM    4  C   UNL     1      -8.096  11.668  67.289  1.00  0.00    -0.160 A  
HETATM    5  C   UNL     1      -7.215  11.324  68.327  1.00  0.00    -0.080 A  
HETATM    6  C   UNL     1      -6.790   9.991  68.554  1.00  0.00    -0.054 A  
HETATM    7  C   UNL     1      -7.288   8.928  67.785  1.00  0.00    -0.085 A  
HETATM    8  C   UNL     1      -8.043   9.293  66.664  1.00  0.00    -0.108 A  
HETATM    9  C   UNL     1      -8.450  10.615  66.441  1.00  0.00    -0.152 A  
BRANCH   7  10
HETATM   10  C   UNL     1      -7.136   7.431  68.183  1.00  0.00    -0.085 C  
HETATM   11  C   UNL     1      -7.456   7.155  69.723  1.00  0.00    -0.097 C  
HETATM   12  C   UNL     1      -8.981   7.152  70.094  1.00  0.00    -0.145 C  
HETATM   13  C   UNL     1      -9.576   8.573  69.934  1.00  0.00    -0.171 C  
HETATM   14  C   UNL     1      -9.604   6.108  69.133  1.00  0.00    -0.154 C  
HETATM   15  C   UNL     1     -10.974   5.856  69.740  1.00  0.00    -0.452 C  
HETATM   16  C   UNL     1      -9.510   6.462  67.643  1.00  0.00    -0.120 C  
HETATM   17  C   UNL     1     -10.588   5.573  71.181  1.00  0.00    -0.303 C  
HETATM   18  C   UNL     1     -10.403   5.487  66.824  1.00  0.00    -0.321 C  
HETATM   19  C   UNL     1      -9.713   4.686  65.741  1.00  0.00    -0.206 C  
HETATM   20  C   UNL     1      -9.445   6.581  71.518  1.00  0.00    -0.157 C  
HETATM   21  C   UNL     1      -8.008   6.514  67.244  1.00  0.00    -0.113 C  
HETATM   22  O   UNL     1      -8.416   5.813  72.133  1.00  0.00    -0.121 OA 
HETATM   23  C   UNL     1      -8.626   5.503  65.150  1.00  0.00    -0.141 C  
HETATM   24  H   UNL     1      -8.692   5.475  72.977  1.00  0.00     0.000 HD 
HETATM   25  C   UNL     1      -8.402   5.536  63.826  1.00  0.00    -0.075 C  
HETATM   26  C   UNL     1      -7.583   5.909  66.098  1.00  0.00    -0.090 C  
HETATM   27  C   UNL     1      -6.199   5.600  65.553  1.00  0.00    -0.034 C  
HETATM   28  C   UNL     1      -7.449   4.395  63.637  1.00  0.00    -0.055 C  
HETATM   29  C   UNL     1      -6.183   4.452  64.484  1.00  0.00    -0.030 C  
HETATM   30  O   UNL     1      -7.710   3.491  62.852  1.00  0.00    -0.060 OA 
BRANCH  20  31
HETATM   31  C   UNL     1     -10.103   7.614  72.502  1.00  0.00    -0.229 C  
HETATM   32  C   UNL     1      -9.220   8.445  73.388  1.00  0.00    -0.111 C  
HETATM   33  O   UNL     1     -11.326   7.751  72.600  1.00  0.00    -0.348 OA 
ENDBRANCH  20  31
ENDBRANCH   7  10
ENDBRANCH   2   4
TORSDOF 3
ENDMDL
MODEL       42
REMARK 921   NORMALIZED FREE ENERGY PREDICTED BY IDOCK:   -4.26 KCAL/MOL
REMARK 922        TOTAL FREE ENERGY PREDICTED BY IDOCK:   -6.06 KCAL/MOL
REMARK 923 INTER-LIGAND FREE ENERGY PREDICTED BY IDOCK:   -4.93 KCAL/MOL
REMARK 924 INTRA-LIGAND FREE ENERGY PREDICTED BY IDOCK:   -1.13 KCAL/MOL
REMARK 927      BINDING AFFINITY PREDICTED BY RF-SCORE:    0.00 PKD
ROOT
HETATM    1  C   UNL     1     -13.026  11.095  71.262  1.00  0.00    -0.357 C  
HETATM    2  N   UNL     1     -12.383   9.812  71.505  1.00  0.00    -0.378 NA 
HETATM    3  C   UNL     1     -13.037   8.899  72.439  1.00  0.00    -0.418 C  
ENDROOT
BRANCH   2   4
HETATM    4  C   UNL     1     -11.138   9.499  70.975  1.00  0.00    -0.363 A  
HETATM    5  C   UNL     1     -10.076   8.990  71.739  1.00  0.00    -0.373 A  
HETATM    6  C   UNL     1      -8.839   8.604  71.162  1.00  0.00    -0.249 A  
HETATM    7  C   UNL     1      -8.639   8.649  69.774  1.00  0.00    -0.131 A  
HETATM    8  C   UNL     1      -9.641   9.295  69.038  1.00  0.00    -0.159 A  
HETATM    9  C   UNL     1     -10.855   9.682  69.618  1.00  0.00    -0.266 A  
BRANCH   7  10
HETATM   10  C   UNL     1      -7.459   7.939  69.050  1.00  0.00    -0.097 C  
HETATM   11  C   UNL     1      -7.112   6.508  69.669  1.00  0.00    -0.072 C  
HETATM   12  C   UNL     1      -8.109   5.359  69.283  1.00  0.00    -0.093 C  
HETATM   13  C   UNL     1      -9.496   5.613  69.922  1.00  0.00    -0.197 C  
HETATM   14  C   UNL     1      -8.128   5.376  67.734  1.00  0.00    -0.100 C  
HETATM   15  C   UNL     1      -8.793   4.056  67.382  1.00  0.00    -0.132 C  
HETATM   16  C   UNL     1      -8.675   6.668  67.108  1.00  0.00    -0.111 C  
HETATM   17  C   UNL     1      -7.961   3.100  68.219  1.00  0.00    -0.062 C  
HETATM   18  C   UNL     1      -8.896   6.448  65.585  1.00  0.00    -0.071 C  
HETATM   19  C   UNL     1      -8.162   7.388  64.652  1.00  0.00    -0.043 C  
HETATM   20  C   UNL     1      -7.705   3.834  69.572  1.00  0.00    -0.052 C  
HETATM   21  C   UNL     1      -7.733   7.841  67.501  1.00  0.00    -0.117 C  
HETATM   22  O   UNL     1      -6.312   3.704  69.831  1.00  0.00    -0.027 OA 
HETATM   23  C   UNL     1      -8.063   8.724  65.288  1.00  0.00    -0.129 C  
HETATM   24  H   UNL     1      -6.073   2.800  70.002  1.00  0.00     0.000 HD 
HETATM   25  C   UNL     1      -8.265   9.856  64.595  1.00  0.00    -0.153 C  
HETATM   26  C   UNL     1      -7.333   8.742  66.560  1.00  0.00    -0.081 C  
HETATM   27  C   UNL     1      -6.280   9.838  66.570  1.00  0.00    -0.068 C  
HETATM   28  C   UNL     1      -6.892  10.162  64.079  1.00  0.00    -0.102 C  
HETATM   29  C   UNL     1      -5.802  10.267  65.138  1.00  0.00    -0.129 C  
HETATM   30  O   UNL     1      -6.698  10.301  62.876  1.00  0.00    -0.136 OA 
BRANCH  20  31
HETATM   31  C   UNL     1      -8.591   3.064  70.616  1.00  0.00    -0.067 C  
HETATM   32  C   UNL     1      -8.311   3.235  72.081  1.00  0.00    -0.077 C  
HETATM   33  O   UNL     1      -9.498   2.296  70.279  1.00  0.00    -0.121 OA 
ENDBRANCH  20  31
ENDBRANCH   7  10
ENDBRANCH   2   4
TORSDOF 3
ENDMDL
MODEL       43
REMARK 921   NORMALIZED FREE ENERGY PREDICTED BY IDOCK:   -4.24 KCAL/MOL
REMARK 922        TOTAL FREE ENERGY PREDICTED BY IDOCK:   -6.03 KCAL/MOL
REMARK 923 INTER-LIGAND FREE ENERGY PREDICTED BY IDOCK:   -4.89 KCAL/MOL
REMARK 924 INTRA-LIGAND FREE ENERGY PREDICTED BY IDOCK:   -1.14 KCAL/MOL
REMARK 927      BINDING AFFINITY PREDICTED BY RF-SCORE:    0.00 PKD
ROOT
HETATM    1  C   UNL     1      -5.161  13.278  72.994  1.00  0.00     0.014 C  
HETATM    2  N   UNL     1      -5.455  13.266  71.568  1.00  0.00    -0.333 NA 
HETATM    3  C   UNL     1      -5.665  14.555  70.914  1.00  0.00    -0.176 C  
ENDROOT
BRANCH   2   4
HETATM    4  C   UNL     1      -5.654  12.083  70.866  1.00  0.00    -0.080 A  
HETATM    5  C   UNL     1      -5.161  10.839  71.289  1.00  0.00    -0.078 A  
HETATM    6  C   UNL     1      -5.444   9.634  70.598  1.00  0.00    -0.049 A  
HETATM    7  C   UNL     1      -6.295   9.617  69.482  1.00  0.00    -0.044 A  
HETATM    8  C   UNL     1      -6.658  10.873  68.979  1.00  0.00    -0.061 A  
HETATM    9  C   UNL     1      -6.367  12.060  69.664  1.00  0.00    -0.120 A  
BRANCH   7  10
HETATM   10  C   UNL     1      -6.911   8.318  68.887  1.00  0.00    -0.066 C  
HETATM   11  C   UNL     1      -7.418   7.295  70.005  1.00  0.00    -0.085 C  
HETATM   12  C   UNL     1      -8.773   7.684  70.695  1.00  0.00    -0.140 C  
HETATM   13  C   UNL     1      -8.594   8.965  71.547  1.00  0.00    -0.205 C  
HETATM   14  C   UNL     1      -9.764   7.858  69.517  1.00  0.00    -0.173 C  
HETATM   15  C   UNL     1     -11.119   7.871  70.205  1.00  0.00    -0.232 C  
HETATM   16  C   UNL     1      -9.419   8.994  68.543  1.00  0.00    -0.148 C  
HETATM   17  C   UNL     1     -11.006   6.617  71.054  1.00  0.00    -0.305 C  
HETATM   18  C   UNL     1     -10.621   9.233  67.586  1.00  0.00    -0.324 C  
HETATM   19  C   UNL     1     -10.341   9.107  66.104  1.00  0.00    -0.059 C  
HETATM   20  C   UNL     1      -9.541   6.599  71.591  1.00  0.00    -0.162 C  
HETATM   21  C   UNL     1      -8.060   8.663  67.865  1.00  0.00    -0.108 C  
HETATM   22  O   UNL     1      -9.053   5.284  71.351  1.00  0.00    -0.141 OA 
HETATM   23  C   UNL     1      -8.961   9.573  65.829  1.00  0.00    -0.219 C  
HETATM   24  H   UNL     1      -9.509   4.642  71.883  1.00  0.00     0.000 HD 
HETATM   25  C   UNL     1      -8.669  10.338  64.764  1.00  0.00    -0.201 C  
HETATM   26  C   UNL     1      -7.912   8.814  66.518  1.00  0.00    -0.103 C  
HETATM   27  C   UNL     1      -6.821   8.388  65.551  1.00  0.00    -0.070 C  
HETATM   28  C   UNL     1      -8.379   9.316  63.708  1.00  0.00    -0.180 C  
HETATM   29  C   UNL     1      -7.298   8.300  64.059  1.00  0.00    -0.103 C  
HETATM   30  O   UNL     1      -8.997   9.323  62.650  1.00  0.00    -0.235 OA 
BRANCH  20  31
HETATM   31  C   UNL     1      -9.675   6.928  73.121  1.00  0.00    -0.174 C  
HETATM   32  C   UNL     1      -8.489   6.725  74.020  1.00  0.00    -0.155 C  
HETATM   33  O   UNL     1     -10.731   7.322  73.626  1.00  0.00    -0.378 OA 
ENDBRANCH  20  31
ENDBRANCH   7  10
ENDBRANCH   2   4
TORSDOF 3
ENDMDL
MODEL       44
REMARK 921   NORMALIZED FREE ENERGY PREDICTED BY IDOCK:   -4.19 KCAL/MOL
REMARK 922        TOTAL FREE ENERGY PREDICTED BY IDOCK:   -5.98 KCAL/MOL
REMARK 923 INTER-LIGAND FREE ENERGY PREDICTED BY IDOCK:   -5.60 KCAL/MOL
REMARK 924 INTRA-LIGAND FREE ENERGY PREDICTED BY IDOCK:   -0.38 KCAL/MOL
REMARK 927      BINDING AFFINITY PREDICTED BY RF-SCORE:    0.00 PKD
ROOT
HETATM    1  C   UNL     1      -5.254  15.808  71.113  1.00  0.00    -0.091 C  
HETATM    2  N   UNL     1      -5.632  15.920  69.712  1.00  0.00    -0.126 NA 
HETATM    3  C   UNL     1      -5.766  17.264  69.157  1.00  0.00    -0.183 C  
ENDROOT
BRANCH   2   4
HETATM    4  C   UNL     1      -5.974  14.809  68.949  1.00  0.00    -0.085 A  
HETATM    5  C   UNL     1      -5.189  13.648  68.875  1.00  0.00    -0.071 A  
HETATM    6  C   UNL     1      -5.597  12.498  68.154  1.00  0.00    -0.068 A  
HETATM    7  C   UNL     1      -6.851  12.440  67.527  1.00  0.00    -0.143 A  
HETATM    8  C   UNL     1      -7.560  13.647  67.477  1.00  0.00    -0.180 A  
HETATM    9  C   UNL     1      -7.144  14.782  68.185  1.00  0.00    -0.126 A  
BRANCH   7  10
HETATM   10  C   UNL     1      -7.498  11.121  67.015  1.00  0.00    -0.132 C  
HETATM   11  C   UNL     1      -6.956   9.822  67.769  1.00  0.00    -0.086 C  
HETATM   12  C   UNL     1      -7.531   9.604  69.214  1.00  0.00    -0.085 C  
HETATM   13  C   UNL     1      -7.024  10.715  70.166  1.00  0.00    -0.073 C  
HETATM   14  C   UNL     1      -9.068   9.611  69.016  1.00  0.00    -0.148 C  
HETATM   15  C   UNL     1      -9.586   9.047  70.329  1.00  0.00    -0.230 C  
HETATM   16  C   UNL     1      -9.648  10.936  68.502  1.00  0.00    -0.187 C  
HETATM   17  C   UNL     1      -8.741   7.790  70.438  1.00  0.00    -0.139 C  
HETATM   18  C   UNL     1     -11.198  10.897  68.614  1.00  0.00    -0.326 C  
HETATM   19  C   UNL     1     -11.974  11.113  67.332  1.00  0.00     0.413 C  
HETATM   20  C   UNL     1      -7.317   8.193  69.943  1.00  0.00    -0.065 C  
HETATM   21  C   UNL     1      -9.070  11.208  67.084  1.00  0.00    -0.151 C  
HETATM   22  O   UNL     1      -6.923   7.183  69.021  1.00  0.00    -0.069 OA 
HETATM   23  C   UNL     1     -11.232  12.063  66.469  1.00  0.00    -0.387 C  
HETATM   24  H   UNL     1      -6.797   6.347  69.454  1.00  0.00     0.000 HD 
HETATM   25  C   UNL     1     -11.856  13.042  65.792  1.00  0.00    -0.453 C  
HETATM   26  C   UNL     1      -9.893  11.613  66.076  1.00  0.00    -0.258 C  
HETATM   27  C   UNL     1      -9.690  11.749  64.576  1.00  0.00    -0.165 C  
HETATM   28  C   UNL     1     -12.200  12.365  64.501  1.00  0.00    -0.431 C  
HETATM   29  C   UNL     1     -11.026  11.741  63.754  1.00  0.00    -0.500 C  
HETATM   30  O   UNL     1     -13.361  12.327  64.109  1.00  0.00    -0.731 OA 
BRANCH  20  31
HETATM   31  C   UNL     1      -6.433   8.207  71.242  1.00  0.00    -0.040 C  
HETATM   32  C   UNL     1      -5.233   7.308  71.320  1.00  0.00    -0.027 C  
HETATM   33  O   UNL     1      -6.703   8.909  72.221  1.00  0.00    -0.253 OA 
ENDBRANCH  20  31
ENDBRANCH   7  10
ENDBRANCH   2   4
TORSDOF 3
ENDMDL
MODEL       45
REMARK 921   NORMALIZED FREE ENERGY PREDICTED BY IDOCK:   -4.14 KCAL/MOL
REMARK 922        TOTAL FREE ENERGY PREDICTED BY IDOCK:   -5.92 KCAL/MOL
REMARK 923 INTER-LIGAND FREE ENERGY PREDICTED BY IDOCK:   -5.27 KCAL/MOL
REMARK 924 INTRA-LIGAND FREE ENERGY PREDICTED BY IDOCK:   -0.65 KCAL/MOL
REMARK 927      BINDING AFFINITY PREDICTED BY RF-SCORE:    0.00 PKD
ROOT
HETATM    1  C   UNL     1      -6.253   7.339  68.154  1.00  0.00    -0.036 C  
HETATM    2  N   UNL     1      -6.368   8.438  67.205  1.00  0.00    -0.056 NA 
HETATM    3  C   UNL     1      -5.141   8.906  66.566  1.00  0.00    -0.034 C  
ENDROOT
BRANCH   2   4
HETATM    4  C   UNL     1      -7.568   9.107  66.994  1.00  0.00    -0.091 A  
HETATM    5  C   UNL     1      -8.722   8.488  66.489  1.00  0.00    -0.149 A  
HETATM    6  C   UNL     1      -9.957   9.172  66.356  1.00  0.00    -0.358 A  
HETATM    7  C   UNL     1     -10.104  10.498  66.791  1.00  0.00    -0.270 A  
HETATM    8  C   UNL     1      -8.919  11.153  67.151  1.00  0.00    -0.145 A  
HETATM    9  C   UNL     1      -7.701  10.471  67.270  1.00  0.00    -0.106 A  
BRANCH   7  10
HETATM   10  C   UNL     1     -11.482  11.193  66.988  1.00  0.00    -0.109 C  
HETATM   11  C   UNL     1     -12.387  10.487  68.099  1.00  0.00     1.675 C  
HETATM   12  C   UNL     1     -11.968  10.782  69.583  1.00  0.00    -0.385 C  
HETATM   13  C   UNL     1     -10.593  10.139  69.890  1.00  0.00    -0.331 C  
HETATM   14  C   UNL     1     -11.963  12.329  69.677  1.00  0.00    -0.347 C  
HETATM   15  C   UNL     1     -11.917  12.583  71.174  1.00  0.00     0.389 C  
HETATM   16  C   UNL     1     -10.934  13.028  68.777  1.00  0.00    -0.295 C  
HETATM   17  C   UNL     1     -13.061  11.699  71.637  1.00  0.00    -0.456 C  
HETATM   18  C   UNL     1     -10.846  14.531  69.168  1.00  0.00    -0.278 C  
HETATM   19  C   UNL     1     -11.131  15.534  68.071  1.00  0.00    -0.322 C  
HETATM   20  C   UNL     1     -12.968  10.401  70.776  1.00  0.00    -0.341 C  
HETATM   21  C   UNL     1     -11.294  12.728  67.294  1.00  0.00    -0.364 C  
HETATM   22  O   UNL     1     -14.285  10.156  70.294  1.00  0.00     0.463 OA 
HETATM   23  C   UNL     1     -10.654  14.988  66.778  1.00  0.00    -0.301 C  
HETATM   24  H   UNL     1     -14.878   9.930  71.002  1.00  0.00     0.000 HD 
HETATM   25  C   UNL     1     -10.005  15.751  65.882  1.00  0.00    -0.380 C  
HETATM   26  C   UNL     1     -11.293  13.732  66.372  1.00  0.00    -0.327 C  
HETATM   27  C   UNL     1     -11.790  13.810  64.939  1.00  0.00    -0.394 C  
HETATM   28  C   UNL     1     -11.131  16.307  65.065  1.00  0.00    -0.254 C  
HETATM   29  C   UNL     1     -12.064  15.274  64.444  1.00  0.00    -0.263 C  
HETATM   30  O   UNL     1     -11.265  17.519  64.937  1.00  0.00    -0.747 OA 
BRANCH  20  31
HETATM   31  C   UNL     1     -12.472   9.295  71.775  1.00  0.00    -0.381 C  
HETATM   32  C   UNL     1     -13.289   8.047  71.950  1.00  0.00    -0.336 C  
HETATM   33  O   UNL     1     -11.445   9.423  72.450  1.00  0.00     0.053 OA 
ENDBRANCH  20  31
ENDBRANCH   7  10
ENDBRANCH   2   4
TORSDOF 3
ENDMDL
MODEL       46
REMARK 921   NORMALIZED FREE ENERGY PREDICTED BY IDOCK:   -4.12 KCAL/MOL
REMARK 922        TOTAL FREE ENERGY PREDICTED BY IDOCK:   -5.90 KCAL/MOL
REMARK 923 INTER-LIGAND FREE ENERGY PREDICTED BY IDOCK:   -6.32 KCAL/MOL
REMARK 924 INTRA-LIGAND FREE ENERGY PREDICTED BY IDOCK:    0.41 KCAL/MOL
REMARK 927      BINDING AFFINITY PREDICTED BY RF-SCORE:    0.00 PKD
ROOT
HETATM    1  C   UNL     1     -13.739  11.326  72.246  1.00  0.00     0.307 C  
HETATM    2  N   UNL     1     -13.449  12.669  71.766  1.00  0.00    -0.316 NA 
HETATM    3  C   UNL     1     -14.260  13.762  72.296  1.00  0.00    -0.467 C  
ENDROOT
BRANCH   2   4
HETATM    4  C   UNL     1     -12.526  12.908  70.755  1.00  0.00    -0.286 A  
HETATM    5  C   UNL     1     -11.686  11.917  70.222  1.00  0.00    -0.293 A  
HETATM    6  C   UNL     1     -10.808  12.166  69.138  1.00  0.00    -0.165 A  
HETATM    7  C   UNL     1     -10.783  13.412  68.493  1.00  0.00    -0.278 A  
HETATM    8  C   UNL     1     -11.508  14.433  69.120  1.00  0.00    -0.328 A  
HETATM    9  C   UNL     1     -12.366  14.180  70.199  1.00  0.00    -0.413 A  
BRANCH   7  10
HETATM   10  C   UNL     1     -10.110  13.654  67.111  1.00  0.00    -0.245 C  
HETATM   11  C   UNL     1     -10.285  15.151  66.582  1.00  0.00    -0.270 C  
HETATM   12  C   UNL     1      -9.363  16.214  67.276  1.00  0.00    -0.220 C  
HETATM   13  C   UNL     1      -9.770  16.391  68.760  1.00  0.00    -0.250 C  
HETATM   14  C   UNL     1      -7.930  15.653  67.091  1.00  0.00    -0.254 C  
HETATM   15  C   UNL     1      -7.047  16.842  67.434  1.00  0.00    -0.185 C  
HETATM   16  C   UNL     1      -7.665  14.311  67.787  1.00  0.00    -0.172 C  
HETATM   17  C   UNL     1      -7.672  17.909  66.553  1.00  0.00    -0.292 C  
HETATM   18  C   UNL     1      -6.140  14.007  67.755  1.00  0.00    -0.134 C  
HETATM   19  C   UNL     1      -5.723  12.709  67.098  1.00  0.00     0.053 C  
HETATM   20  C   UNL     1      -9.213  17.672  66.628  1.00  0.00    -0.271 C  
HETATM   21  C   UNL     1      -8.591  13.236  67.151  1.00  0.00    -0.197 C  
HETATM   22  O   UNL     1      -9.678  17.696  65.283  1.00  0.00     0.036 OA 
HETATM   23  C   UNL     1      -6.764  11.683  67.345  1.00  0.00    -0.108 C  
HETATM   24  H   UNL     1      -9.589  18.561  64.900  1.00  0.00     0.000 HD 
HETATM   25  C   UNL     1      -6.451  10.417  67.667  1.00  0.00    -0.058 C  
HETATM   26  C   UNL     1      -8.089  12.016  66.809  1.00  0.00    -0.081 C  
HETATM   27  C   UNL     1      -8.656  10.862  66.000  1.00  0.00    -0.179 C  
HETATM   28  C   UNL     1      -6.336   9.766  66.322  1.00  0.00    -0.070 C  
HETATM   29  C   UNL     1      -7.562   9.895  65.425  1.00  0.00    -0.131 C  
HETATM   30  O   UNL     1      -5.306   9.187  65.999  1.00  0.00    -0.039 OA 
BRANCH  20  31
HETATM   31  C   UNL     1      -9.759  18.873  67.481  1.00  0.00    -0.313 C  
HETATM   32  C   UNL     1      -8.889  20.079  67.688  1.00  0.00    -0.407 C  
HETATM   33  O   UNL     1     -10.871  18.855  68.017  1.00  0.00    -0.291 OA 
ENDBRANCH  20  31
ENDBRANCH   7  10
ENDBRANCH   2   4
TORSDOF 3
ENDMDL
MODEL       47
REMARK 921   NORMALIZED FREE ENERGY PREDICTED BY IDOCK:   -4.12 KCAL/MOL
REMARK 922        TOTAL FREE ENERGY PREDICTED BY IDOCK:   -5.90 KCAL/MOL
REMARK 923 INTER-LIGAND FREE ENERGY PREDICTED BY IDOCK:   -4.82 KCAL/MOL
REMARK 924 INTRA-LIGAND FREE ENERGY PREDICTED BY IDOCK:   -1.08 KCAL/MOL
REMARK 927      BINDING AFFINITY PREDICTED BY RF-SCORE:    0.00 PKD
ROOT
HETATM    1  C   UNL     1      -6.302   4.040  63.472  1.00  0.00    -0.026 C  
HETATM    2  N   UNL     1      -7.457   4.537  64.206  1.00  0.00    -0.069 NA 
HETATM    3  C   UNL     1      -8.734   4.583  63.499  1.00  0.00    -0.132 C  
ENDROOT
BRANCH   2   4
HETATM    4  C   UNL     1      -7.345   5.066  65.486  1.00  0.00    -0.073 A  
HETATM    5  C   UNL     1      -6.327   5.951  65.873  1.00  0.00    -0.042 A  
HETATM    6  C   UNL     1      -6.278   6.539  67.162  1.00  0.00    -0.036 A  
HETATM    7  C   UNL     1      -7.295   6.314  68.103  1.00  0.00    -0.089 A  
HETATM    8  C   UNL     1      -8.221   5.318  67.767  1.00  0.00    -0.099 A  
HETATM    9  C   UNL     1      -8.256   4.735  66.494  1.00  0.00    -0.107 A  
BRANCH   7  10
HETATM   10  C   UNL     1      -7.486   7.170  69.388  1.00  0.00    -0.096 C  
HETATM   11  C   UNL     1      -7.552   8.739  69.092  1.00  0.00    -0.088 C  
HETATM   12  C   UNL     1      -8.911   9.244  68.491  1.00  0.00    -0.129 C  
HETATM   13  C   UNL     1      -9.109   8.680  67.062  1.00  0.00    -0.165 C  
HETATM   14  C   UNL     1      -9.980   8.757  69.502  1.00  0.00    -0.195 C  
HETATM   15  C   UNL     1     -11.215   9.549  69.108  1.00  0.00    -0.004 C  
HETATM   16  C   UNL     1     -10.093   7.232  69.639  1.00  0.00    -0.195 C  
HETATM   17  C   UNL     1     -10.639  10.954  69.078  1.00  0.00    -0.248 C  
HETATM   18  C   UNL     1     -11.367   6.883  70.460  1.00  0.00    -0.374 C  
HETATM   19  C   UNL     1     -11.159   6.064  71.716  1.00  0.00    -0.332 C  
HETATM   20  C   UNL     1      -9.218  10.816  68.447  1.00  0.00    -0.164 C  
HETATM   21  C   UNL     1      -8.748   6.687  70.198  1.00  0.00    -0.141 C  
HETATM   22  O   UNL     1      -8.340  11.544  69.299  1.00  0.00    -0.369 OA 
HETATM   23  C   UNL     1     -10.031   5.126  71.504  1.00  0.00    -0.248 C  
HETATM   24  H   UNL     1      -8.523  12.476  69.273  1.00  0.00     0.000 HD 
HETATM   25  C   UNL     1     -10.078   3.852  71.926  1.00  0.00    -0.204 C  
HETATM   26  C   UNL     1      -8.747   5.772  71.208  1.00  0.00    -0.132 C  
HETATM   27  C   UNL     1      -7.643   5.222  72.095  1.00  0.00    -0.099 C  
HETATM   28  C   UNL     1      -9.537   3.958  73.319  1.00  0.00    -0.112 C  
HETATM   29  C   UNL     1      -8.161   4.602  73.439  1.00  0.00    -0.099 C  
HETATM   30  O   UNL     1     -10.191   3.551  74.272  1.00  0.00    -0.145 OA 
BRANCH  20  31
HETATM   31  C   UNL     1      -9.352  11.461  67.021  1.00  0.00    -0.174 C  
HETATM   32  C   UNL     1     -10.714  11.839  66.513  1.00  0.00    -0.304 C  
HETATM   33  O   UNL     1      -8.380  11.645  66.282  1.00  0.00    -0.135 OA 
ENDBRANCH  20  31
ENDBRANCH   7  10
ENDBRANCH   2   4
TORSDOF 3
ENDMDL
MODEL       48
REMARK 921   NORMALIZED FREE ENERGY PREDICTED BY IDOCK:   -4.11 KCAL/MOL
REMARK 922        TOTAL FREE ENERGY PREDICTED BY IDOCK:   -5.89 KCAL/MOL
REMARK 923 INTER-LIGAND FREE ENERGY PREDICTED BY IDOCK:   -4.92 KCAL/MOL
REMARK 924 INTRA-LIGAND FREE ENERGY PREDICTED BY IDOCK:   -0.97 KCAL/MOL
REMARK 927      BINDING AFFINITY PREDICTED BY RF-SCORE:    0.00 PKD
ROOT
HETATM    1  C   UNL     1      -7.163  13.516  69.396  1.00  0.00     0.182 C  
HETATM    2  N   UNL     1      -7.947  13.083  68.249  1.00  0.00    -0.146 NA 
HETATM    3  C   UNL     1      -8.394  14.112  67.313  1.00  0.00    -0.196 C  
ENDROOT
BRANCH   2   4
HETATM    4  C   UNL     1      -8.366  11.767  68.097  1.00  0.00    -0.156 A  
HETATM    5  C   UNL     1      -7.905  10.709  68.896  1.00  0.00    -0.129 A  
HETATM    6  C   UNL     1      -8.407   9.389  68.774  1.00  0.00    -0.117 A  
HETATM    7  C   UNL     1      -9.448   9.085  67.884  1.00  0.00    -0.159 A  
HETATM    8  C   UNL     1      -9.796  10.105  66.989  1.00  0.00    -0.238 A  
HETATM    9  C   UNL     1      -9.288  11.405  67.111  1.00  0.00    -0.180 A  
BRANCH   7  10
HETATM   10  C   UNL     1     -10.266   7.762  67.933  1.00  0.00    -0.259 C  
HETATM   11  C   UNL     1     -10.255   6.966  66.549  1.00  0.00    -0.127 C  
HETATM   12  C   UNL     1      -8.925   6.192  66.239  1.00  0.00    -0.162 C  
HETATM   13  C   UNL     1      -7.766   7.191  65.997  1.00  0.00    -0.099 C  
HETATM   14  C   UNL     1      -8.714   5.286  67.478  1.00  0.00    -0.106 C  
HETATM   15  C   UNL     1      -7.653   4.304  67.010  1.00  0.00    -0.081 C  
HETATM   16  C   UNL     1      -8.493   6.038  68.799  1.00  0.00    -0.113 C  
HETATM   17  C   UNL     1      -8.269   3.839  65.703  1.00  0.00    -0.105 C  
HETATM   18  C   UNL     1      -8.025   5.033  69.890  1.00  0.00    -0.074 C  
HETATM   19  C   UNL     1      -8.875   4.946  71.139  1.00  0.00    -0.151 C  
HETATM   20  C   UNL     1      -8.899   5.111  65.055  1.00  0.00    -0.134 C  
HETATM   21  C   UNL     1      -9.779   6.850  69.122  1.00  0.00    -0.155 C  
HETATM   22  O   UNL     1     -10.215   4.739  64.660  1.00  0.00    -0.384 OA 
HETATM   23  C   UNL     1      -9.441   6.284  71.436  1.00  0.00    -0.167 C  
HETATM   24  H   UNL     1     -10.199   4.098  63.958  1.00  0.00     0.000 HD 
HETATM   25  C   UNL     1      -9.492   6.771  72.687  1.00  0.00    -0.152 C  
HETATM   26  C   UNL     1     -10.301   6.831  70.381  1.00  0.00    -0.223 C  
HETATM   27  C   UNL     1     -11.620   7.323  70.953  1.00  0.00    -0.331 C  
HETATM   28  C   UNL     1     -10.816   6.265  73.171  1.00  0.00    -0.254 C  
HETATM   29  C   UNL     1     -12.016   6.639  72.308  1.00  0.00    -0.259 C  
HETATM   30  O   UNL     1     -10.888   5.590  74.192  1.00  0.00    -0.205 OA 
BRANCH  20  31
HETATM   31  C   UNL     1      -7.968   5.438  63.833  1.00  0.00    -0.111 C  
HETATM   32  C   UNL     1      -6.536   4.985  63.862  1.00  0.00    -0.038 C  
HETATM   33  O   UNL     1      -8.358   6.082  62.854  1.00  0.00    -0.095 OA 
ENDBRANCH  20  31
ENDBRANCH   7  10
ENDBRANCH   2   4
TORSDOF 3
ENDMDL
MODEL       49
REMARK 921   NORMALIZED FREE ENERGY PREDICTED BY IDOCK:   -4.08 KCAL/MOL
REMARK 922        TOTAL FREE ENERGY PREDICTED BY IDOCK:   -5.85 KCAL/MOL
REMARK 923 INTER-LIGAND FREE ENERGY PREDICTED BY IDOCK:   -5.22 KCAL/MOL
REMARK 924 INTRA-LIGAND FREE ENERGY PREDICTED BY IDOCK:   -0.63 KCAL/MOL
REMARK 927      BINDING AFFINITY PREDICTED BY RF-SCORE:    0.00 PKD
ROOT
HETATM    1  C   UNL     1     -13.860   9.170  72.539  1.00  0.00    -0.417 C  
HETATM    2  N   UNL     1     -12.813   9.986  71.941  1.00  0.00    -0.423 NA 
HETATM    3  C   UNL     1     -13.019  11.432  71.920  1.00  0.00    -0.361 C  
ENDROOT
BRANCH   2   4
HETATM    4  C   UNL     1     -11.714   9.424  71.303  1.00  0.00    -0.360 A  
HETATM    5  C   UNL     1     -11.503   9.493  69.917  1.00  0.00    -0.100 A  
HETATM    6  C   UNL     1     -10.335   8.981  69.299  1.00  0.00    -0.227 A  
HETATM    7  C   UNL     1      -9.290   8.434  70.058  1.00  0.00    -0.159 A  
HETATM    8  C   UNL     1      -9.569   8.232  71.416  1.00  0.00    -0.231 A  
HETATM    9  C   UNL     1     -10.731   8.733  72.017  1.00  0.00    -0.417 A  
BRANCH   7  10
HETATM   10  C   UNL     1      -7.864   8.167  69.496  1.00  0.00    -0.104 C  
HETATM   11  C   UNL     1      -7.625   6.641  69.089  1.00  0.00    -0.100 C  
HETATM   12  C   UNL     1      -8.295   6.202  67.740  1.00  0.00    -0.116 C  
HETATM   13  C   UNL     1      -9.838   6.218  67.875  1.00  0.00    -0.129 C  
HETATM   14  C   UNL     1      -7.755   7.214  66.699  1.00  0.00    -0.097 C  
HETATM   15  C   UNL     1      -8.112   6.568  65.371  1.00  0.00    -0.129 C  
HETATM   16  C   UNL     1      -8.163   8.674  66.943  1.00  0.00    -0.105 C  
HETATM   17  C   UNL     1      -7.549   5.174  65.585  1.00  0.00    -0.086 C  
HETATM   18  C   UNL     1      -7.794   9.527  65.696  1.00  0.00    -0.101 C  
HETATM   19  C   UNL     1      -6.870  10.702  65.929  1.00  0.00    -0.115 C  
HETATM   20  C   UNL     1      -7.875   4.809  67.067  1.00  0.00    -0.098 C  
HETATM   21  C   UNL     1      -7.548   9.136  68.294  1.00  0.00    -0.083 C  
HETATM   22  O   UNL     1      -6.664   4.306  67.621  1.00  0.00    -0.045 OA 
HETATM   23  C   UNL     1      -7.140  11.274  67.270  1.00  0.00    -0.114 C  
HETATM   24  H   UNL     1      -6.415   3.481  67.222  1.00  0.00     0.000 HD 
HETATM   25  C   UNL     1      -7.189  12.600  67.480  1.00  0.00    -0.155 C  
HETATM   26  C   UNL     1      -6.925  10.345  68.385  1.00  0.00    -0.069 C  
HETATM   27  C   UNL     1      -6.062  10.977  69.463  1.00  0.00    -0.072 C  
HETATM   28  C   UNL     1      -5.760  12.925  67.790  1.00  0.00    -0.135 C  
HETATM   29  C   UNL     1      -5.143  12.136  68.939  1.00  0.00    -0.054 C  
HETATM   30  O   UNL     1      -5.158  13.769  67.135  1.00  0.00    -0.190 OA 
BRANCH  20  31
HETATM   31  C   UNL     1      -8.998   3.715  66.969  1.00  0.00    -0.144 C  
HETATM   32  C   UNL     1      -9.589   3.390  65.628  1.00  0.00    -0.080 C  
HETATM   33  O   UNL     1      -9.439   3.126  67.962  1.00  0.00    -0.200 OA 
ENDBRANCH  20  31
ENDBRANCH   7  10
ENDBRANCH   2   4
TORSDOF 3
ENDMDL
MODEL       50
REMARK 921   NORMALIZED FREE ENERGY PREDICTED BY IDOCK:   -4.07 KCAL/MOL
REMARK 922        TOTAL FREE ENERGY PREDICTED BY IDOCK:   -5.84 KCAL/MOL
REMARK 923 INTER-LIGAND FREE ENERGY PREDICTED BY IDOCK:   -4.81 KCAL/MOL
REMARK 924 INTRA-LIGAND FREE ENERGY PREDICTED BY IDOCK:   -1.03 KCAL/MOL
REMARK 927      BINDING AFFINITY PREDICTED BY RF-SCORE:    0.00 PKD
ROOT
HETATM    1  C   UNL     1     -10.089  11.475  62.342  1.00  0.00     0.813 C  
HETATM    2  N   UNL     1      -9.233  10.547  63.068  1.00  0.00    -0.265 NA 
HETATM    3  C   UNL     1      -8.710   9.400  62.331  1.00  0.00    -0.231 C  
ENDROOT
BRANCH   2   4
HETATM    4  C   UNL     1      -9.011  10.663  64.435  1.00  0.00    -0.195 A  
HETATM    5  C   UNL     1      -7.765  10.990  64.993  1.00  0.00     0.396 A  
HETATM    6  C   UNL     1      -7.582  11.180  66.386  1.00  0.00    -0.109 A  
HETATM    7  C   UNL     1      -8.663  11.115  67.278  1.00  0.00    -0.139 A  
HETATM    8  C   UNL     1      -9.866  10.643  66.738  1.00  0.00    -0.240 A  
HETATM    9  C   UNL     1     -10.036  10.448  65.361  1.00  0.00    -0.354 A  
BRANCH   7  10
HETATM   10  C   UNL     1      -8.604  11.635  68.743  1.00  0.00    -0.023 C  
HETATM   11  C   UNL     1      -8.367  13.212  68.840  1.00  0.00     0.243 C  
HETATM   12  C   UNL     1      -9.625  14.094  68.523  1.00  0.00    -0.214 C  
HETATM   13  C   UNL     1     -10.013  13.960  67.030  1.00  0.00    -0.258 C  
HETATM   14  C   UNL     1     -10.713  13.568  69.495  1.00  0.00     0.152 C  
HETATM   15  C   UNL     1     -11.780  14.648  69.433  1.00  0.00    -0.355 C  
HETATM   16  C   UNL     1     -11.127  12.106  69.273  1.00  0.00    -0.229 C  
HETATM   17  C   UNL     1     -10.934  15.884  69.681  1.00  0.00    -0.319 C  
HETATM   18  C   UNL     1     -12.397  11.798  70.115  1.00  0.00    -0.272 C  
HETATM   19  C   UNL     1     -12.291  10.662  71.109  1.00  0.00    -0.505 C  
HETATM   20  C   UNL     1      -9.608  15.654  68.890  1.00  0.00    -0.224 C  
HETATM   21  C   UNL     1      -9.892  11.200  69.541  1.00  0.00     0.231 C  
HETATM   22  O   UNL     1      -8.554  15.966  69.795  1.00  0.00    -0.079 OA 
HETATM   23  C   UNL     1     -11.390   9.620  70.561  1.00  0.00    -0.360 C  
HETATM   24  H   UNL     1      -8.545  16.890  70.012  1.00  0.00     0.000 HD 
HETATM   25  C   UNL     1     -11.673   8.310  70.668  1.00  0.00    -0.153 C  
HETATM   26  C   UNL     1     -10.021  10.073  70.296  1.00  0.00    -0.184 C  
HETATM   27  C   UNL     1      -9.004   9.123  70.905  1.00  0.00    -0.298 C  
HETATM   28  C   UNL     1     -11.044   7.956  71.981  1.00  0.00    -0.278 C  
HETATM   29  C   UNL     1      -9.561   8.285  72.108  1.00  0.00    -0.338 C  
HETATM   30  O   UNL     1     -11.714   7.446  72.873  1.00  0.00    -0.208 OA 
BRANCH  20  31
HETATM   31  C   UNL     1      -9.687  16.655  67.682  1.00  0.00    -0.250 C  
HETATM   32  C   UNL     1      -8.436  16.979  66.917  1.00  0.00    -0.244 C  
HETATM   33  O   UNL     1     -10.737  17.213  67.349  1.00  0.00    -0.323 OA 
ENDBRANCH  20  31
ENDBRANCH   7  10
ENDBRANCH   2   4
TORSDOF 3
ENDMDL
MODEL       51
REMARK 921   NORMALIZED FREE ENERGY PREDICTED BY IDOCK:   -4.04 KCAL/MOL
REMARK 922        TOTAL FREE ENERGY PREDICTED BY IDOCK:   -5.80 KCAL/MOL
REMARK 923 INTER-LIGAND FREE ENERGY PREDICTED BY IDOCK:   -5.10 KCAL/MOL
REMARK 924 INTRA-LIGAND FREE ENERGY PREDICTED BY IDOCK:   -0.70 KCAL/MOL
REMARK 927      BINDING AFFINITY PREDICTED BY RF-SCORE:    0.00 PKD
ROOT
HETATM    1  C   UNL     1      -9.888  13.213  64.986  1.00  0.00    -0.040 C  
HETATM    2  N   UNL     1      -9.487  11.817  64.895  1.00  0.00    -0.107 NA 
HETATM    3  C   UNL     1      -9.691  11.141  63.616  1.00  0.00    -0.317 C  
ENDROOT
BRANCH   2   4
HETATM    4  C   UNL     1      -9.039  11.104  66.001  1.00  0.00    -0.203 A  
HETATM    5  C   UNL     1      -8.813  11.686  67.258  1.00  0.00    -0.164 A  
HETATM    6  C   UNL     1      -8.432  10.924  68.392  1.00  0.00    -0.141 A  
HETATM    7  C   UNL     1      -8.327   9.527  68.327  1.00  0.00    -0.118 A  
HETATM    8  C   UNL     1      -8.406   8.972  67.043  1.00  0.00    -0.116 A  
HETATM    9  C   UNL     1      -8.773   9.734  65.927  1.00  0.00    -0.156 A  
BRANCH   7  10
HETATM   10  C   UNL     1      -8.248   8.609  69.581  1.00  0.00    -0.114 C  
HETATM   11  C   UNL     1      -9.306   8.999  70.712  1.00  0.00    -0.305 C  
HETATM   12  C   UNL     1     -10.784   8.558  70.419  1.00  0.00    -0.246 C  
HETATM   13  C   UNL     1     -11.352   9.350  69.216  1.00  0.00     0.118 C  
HETATM   14  C   UNL     1     -10.682   7.033  70.163  1.00  0.00    -0.265 C  
HETATM   15  C   UNL     1     -12.128   6.572  70.243  1.00  0.00    -0.113 C  
HETATM   16  C   UNL     1      -9.847   6.637  68.936  1.00  0.00    -0.143 C  
HETATM   17  C   UNL     1     -12.539   7.195  71.565  1.00  0.00    -0.427 C  
HETATM   18  C   UNL     1     -10.055   5.124  68.640  1.00  0.00    -0.220 C  
HETATM   19  C   UNL     1      -8.812   4.261  68.625  1.00  0.00    -0.136 C  
HETATM   20  C   UNL     1     -11.869   8.604  71.597  1.00  0.00    -0.323 C  
HETATM   21  C   UNL     1      -8.380   7.093  69.173  1.00  0.00    -0.129 C  
HETATM   22  O   UNL     1     -11.250   8.713  72.874  1.00  0.00    -0.034 OA 
HETATM   23  C   UNL     1      -7.674   5.056  68.105  1.00  0.00    -0.083 C  
HETATM   24  H   UNL     1     -11.894   8.741  73.572  1.00  0.00     0.000 HD 
HETATM   25  C   UNL     1      -6.784   4.540  67.240  1.00  0.00    -0.051 C  
HETATM   26  C   UNL     1      -7.347   6.247  68.898  1.00  0.00    -0.086 C  
HETATM   27  C   UNL     1      -5.862   6.304  69.210  1.00  0.00    -0.020 C  
HETATM   28  C   UNL     1      -5.760   3.945  68.157  1.00  0.00    -0.022 C  
HETATM   29  C   UNL     1      -5.154   4.904  69.175  1.00  0.00     0.000 C  
HETATM   30  O   UNL     1      -5.462   2.759  68.069  1.00  0.00    -0.016 OA 
BRANCH  20  31
HETATM   31  C   UNL     1     -13.058   9.614  71.411  1.00  0.00    -0.385 C  
HETATM   32  C   UNL     1     -12.755  11.050  71.092  1.00  0.00    -0.521 C  
HETATM   33  O   UNL     1     -14.240   9.280  71.544  1.00  0.00    -0.217 OA 
ENDBRANCH  20  31
ENDBRANCH   7  10
ENDBRANCH   2   4
TORSDOF 3
ENDMDL
MODEL       52
REMARK 921   NORMALIZED FREE ENERGY PREDICTED BY IDOCK:   -4.03 KCAL/MOL
REMARK 922        TOTAL FREE ENERGY PREDICTED BY IDOCK:   -5.79 KCAL/MOL
REMARK 923 INTER-LIGAND FREE ENERGY PREDICTED BY IDOCK:   -7.05 KCAL/MOL
REMARK 924 INTRA-LIGAND FREE ENERGY PREDICTED BY IDOCK:    1.26 KCAL/MOL
REMARK 927      BINDING AFFINITY PREDICTED BY RF-SCORE:    0.00 PKD
ROOT
HETATM    1  C   UNL     1     -14.116  12.910  72.458  1.00  0.00    -0.000 C  
HETATM    2  N   UNL     1     -13.555  14.134  71.904  1.00  0.00    -0.382 NA 
HETATM    3  C   UNL     1     -14.305  15.371  72.109  1.00  0.00    -0.544 C  
ENDROOT
BRANCH   2   4
HETATM    4  C   UNL     1     -12.418  14.129  71.105  1.00  0.00    -0.371 A  
HETATM    5  C   UNL     1     -12.037  13.039  70.307  1.00  0.00    -0.388 A  
HETATM    6  C   UNL     1     -10.916  13.085  69.440  1.00  0.00    -0.048 A  
HETATM    7  C   UNL     1     -10.163  14.259  69.287  1.00  0.00    -0.031 A  
HETATM    8  C   UNL     1     -10.454  15.288  70.192  1.00  0.00    -0.252 A  
HETATM    9  C   UNL     1     -11.559  15.230  71.052  1.00  0.00    -0.399 A  
BRANCH   7  10
HETATM   10  C   UNL     1      -9.149  14.488  68.129  1.00  0.00    -0.191 C  
HETATM   11  C   UNL     1      -8.657  13.130  67.448  1.00  0.00    -0.204 C  
HETATM   12  C   UNL     1      -9.693  12.461  66.478  1.00  0.00    -0.245 C  
HETATM   13  C   UNL     1     -10.920  11.948  67.272  1.00  0.00    -0.319 C  
HETATM   14  C   UNL     1     -10.037  13.577  65.459  1.00  0.00    -0.283 C  
HETATM   15  C   UNL     1     -10.738  12.821  64.343  1.00  0.00    -0.398 C  
HETATM   16  C   UNL     1     -10.724  14.812  66.060  1.00  0.00    -0.314 C  
HETATM   17  C   UNL     1      -9.734  11.710  64.092  1.00  0.00    -0.207 C  
HETATM   18  C   UNL     1     -11.255  15.715  64.911  1.00  0.00    -0.376 C  
HETATM   19  C   UNL     1     -10.749  17.141  64.882  1.00  0.00     0.255 C  
HETATM   20  C   UNL     1      -9.213  11.285  65.500  1.00  0.00    -0.202 C  
HETATM   21  C   UNL     1      -9.740  15.483  67.059  1.00  0.00    -0.230 C  
HETATM   22  O   UNL     1      -7.794  11.240  65.395  1.00  0.00    -0.352 OA 
HETATM   23  C   UNL     1     -10.541  17.611  66.273  1.00  0.00    -0.215 C  
HETATM   24  H   UNL     1      -7.510  10.543  64.816  1.00  0.00     0.000 HD 
HETATM   25  C   UNL     1     -10.902  18.843  66.667  1.00  0.00    -0.264 C  
HETATM   26  C   UNL     1      -9.561  16.834  67.040  1.00  0.00    -0.244 C  
HETATM   27  C   UNL     1      -8.548  17.746  67.712  1.00  0.00    -0.237 C  
HETATM   28  C   UNL     1      -9.673  19.645  66.367  1.00  0.00    -0.409 C  
HETATM   29  C   UNL     1      -8.387  19.139  67.010  1.00  0.00    -0.294 C  
HETATM   30  O   UNL     1      -9.737  20.632  65.642  1.00  0.00     0.027 OA 
BRANCH  20  31
HETATM   31  C   UNL     1      -9.848   9.869  65.748  1.00  0.00    -0.287 C  
HETATM   32  C   UNL     1      -8.975   8.650  65.661  1.00  0.00    -0.231 C  
HETATM   33  O   UNL     1     -11.050   9.713  65.985  1.00  0.00     0.585 OA 
ENDBRANCH  20  31
ENDBRANCH   7  10
ENDBRANCH   2   4
TORSDOF 3
ENDMDL
MODEL       53
REMARK 921   NORMALIZED FREE ENERGY PREDICTED BY IDOCK:   -4.01 KCAL/MOL
REMARK 922        TOTAL FREE ENERGY PREDICTED BY IDOCK:   -5.77 KCAL/MOL
REMARK 923 INTER-LIGAND FREE ENERGY PREDICTED BY IDOCK:   -5.24 KCAL/MOL
REMARK 924 INTRA-LIGAND FREE ENERGY PREDICTED BY IDOCK:   -0.52 KCAL/MOL
REMARK 927      BINDING AFFINITY PREDICTED BY RF-SCORE:    0.00 PKD
ROOT
HETATM    1  C   UNL     1     -11.397   4.387  73.800  1.00  0.00    -0.118 C  
HETATM    2  N   UNL     1     -10.245   4.637  72.946  1.00  0.00    -0.172 NA 
HETATM    3  C   UNL     1      -8.985   3.994  73.311  1.00  0.00    -0.103 C  
ENDROOT
BRANCH   2   4
HETATM    4  C   UNL     1     -10.291   5.542  71.892  1.00  0.00    -0.216 A  
HETATM    5  C   UNL     1      -9.183   6.292  71.466  1.00  0.00    -0.149 A  
HETATM    6  C   UNL     1      -9.234   7.151  70.339  1.00  0.00    -0.156 A  
HETATM    7  C   UNL     1     -10.387   7.243  69.545  1.00  0.00    -0.230 A  
HETATM    8  C   UNL     1     -11.528   6.612  70.059  1.00  0.00    -0.434 A  
HETATM    9  C   UNL     1     -11.471   5.773  71.180  1.00  0.00    -0.039 A  
BRANCH   7  10
HETATM   10  C   UNL     1     -10.411   7.888  68.130  1.00  0.00    -0.249 C  
HETATM   11  C   UNL     1     -11.283   9.224  68.063  1.00  0.00     0.237 C  
HETATM   12  C   UNL     1     -10.601  10.493  68.687  1.00  0.00    -0.226 C  
HETATM   13  C   UNL     1     -10.458  10.327  70.220  1.00  0.00    -0.207 C  
HETATM   14  C   UNL     1      -9.245  10.599  67.946  1.00  0.00    -0.150 C  
HETATM   15  C   UNL     1      -8.774  12.003  68.289  1.00  0.00    -0.178 C  
HETATM   16  C   UNL     1      -8.287   9.422  68.177  1.00  0.00    -0.119 C  
HETATM   17  C   UNL     1     -10.013  12.803  67.929  1.00  0.00    -0.229 C  
HETATM   18  C   UNL     1      -6.883   9.782  67.613  1.00  0.00    -0.085 C  
HETATM   19  C   UNL     1      -6.317   8.851  66.563  1.00  0.00    -0.062 C  
HETATM   20  C   UNL     1     -11.225  11.942  68.404  1.00  0.00    -0.258 C  
HETATM   21  C   UNL     1      -8.945   8.134  67.605  1.00  0.00    -0.135 C  
HETATM   22  O   UNL     1     -12.137  11.914  67.312  1.00  0.00    -0.582 OA 
HETATM   23  C   UNL     1      -6.761   7.466  66.851  1.00  0.00    -0.065 C  
HETATM   24  H   UNL     1     -12.506  12.773  67.144  1.00  0.00     0.000 HD 
HETATM   25  C   UNL     1      -5.929   6.417  66.741  1.00  0.00    -0.025 C  
HETATM   26  C   UNL     1      -8.215   7.275  66.839  1.00  0.00    -0.117 C  
HETATM   27  C   UNL     1      -8.603   6.083  65.980  1.00  0.00    -0.147 C  
HETATM   28  C   UNL     1      -6.107   6.019  65.308  1.00  0.00    -0.029 C  
HETATM   29  C   UNL     1      -7.540   5.723  64.883  1.00  0.00    -0.088 C  
HETATM   30  O   UNL     1      -5.140   5.956  64.557  1.00  0.00    -0.012 OA 
BRANCH  20  31
HETATM   31  C   UNL     1     -11.794  12.712  69.650  1.00  0.00    -0.311 C  
HETATM   32  C   UNL     1     -11.512  14.179  69.796  1.00  0.00    -0.309 C  
HETATM   33  O   UNL     1     -12.445  12.149  70.537  1.00  0.00    -0.282 OA 
ENDBRANCH  20  31
ENDBRANCH   7  10
ENDBRANCH   2   4
TORSDOF 3
ENDMDL
MODEL       54
REMARK 921   NORMALIZED FREE ENERGY PREDICTED BY IDOCK:   -3.93 KCAL/MOL
REMARK 922        TOTAL FREE ENERGY PREDICTED BY IDOCK:   -5.67 KCAL/MOL
REMARK 923 INTER-LIGAND FREE ENERGY PREDICTED BY IDOCK:   -4.88 KCAL/MOL
REMARK 924 INTRA-LIGAND FREE ENERGY PREDICTED BY IDOCK:   -0.79 KCAL/MOL
REMARK 927      BINDING AFFINITY PREDICTED BY RF-SCORE:    0.00 PKD
ROOT
HETATM    1  C   UNL     1     -10.728  20.174  65.335  1.00  0.00     0.017 C  
HETATM    2  N   UNL     1      -9.584  19.561  65.994  1.00  0.00    -0.414 NA 
HETATM    3  C   UNL     1      -8.262  20.097  65.680  1.00  0.00     0.120 C  
ENDROOT
BRANCH   2   4
HETATM    4  C   UNL     1      -9.711  18.434  66.797  1.00  0.00    -0.326 A  
HETATM    5  C   UNL     1      -9.987  17.153  66.296  1.00  0.00    -0.316 A  
HETATM    6  C   UNL     1     -10.035  16.005  67.127  1.00  0.00    -0.249 A  
HETATM    7  C   UNL     1      -9.739  16.085  68.497  1.00  0.00    -0.214 A  
HETATM    8  C   UNL     1      -9.614  17.381  69.014  1.00  0.00    -0.162 A  
HETATM    9  C   UNL     1      -9.578  18.510  68.187  1.00  0.00    -0.353 A  
BRANCH   7  10
HETATM   10  C   UNL     1      -9.444  14.845  69.389  1.00  0.00    -0.068 C  
HETATM   11  C   UNL     1     -10.053  14.971  70.860  1.00  0.00     0.843 C  
HETATM   12  C   UNL     1     -11.602  14.739  70.960  1.00  0.00    -0.313 C  
HETATM   13  C   UNL     1     -12.364  15.880  70.241  1.00  0.00    -0.224 C  
HETATM   14  C   UNL     1     -11.820  13.347  70.314  1.00  0.00    -0.316 C  
HETATM   15  C   UNL     1     -13.234  12.988  70.740  1.00  0.00     0.223 C  
HETATM   16  C   UNL     1     -11.452  13.258  68.827  1.00  0.00    -0.346 C  
HETATM   17  C   UNL     1     -13.140  13.235  72.236  1.00  0.00    -0.474 C  
HETATM   18  C   UNL     1     -11.972  11.912  68.247  1.00  0.00    -0.235 C  
HETATM   19  C   UNL     1     -10.939  11.002  67.619  1.00  0.00    -0.332 C  
HETATM   20  C   UNL     1     -12.276  14.525  72.398  1.00  0.00    -0.160 C  
HETATM   21  C   UNL     1      -9.926  13.522  68.682  1.00  0.00    -0.149 C  
HETATM   22  O   UNL     1     -11.303  14.221  73.391  1.00  0.00     0.879 OA 
HETATM   23  C   UNL     1      -9.891  11.829  66.973  1.00  0.00    -0.213 C  
HETATM   24  H   UNL     1     -11.703  14.094  74.243  1.00  0.00     0.000 HD 
HETATM   25  C   UNL     1      -9.384  11.518  65.769  1.00  0.00    -0.238 C  
HETATM   26  C   UNL     1      -9.165  12.717  67.887  1.00  0.00    -0.205 C  
HETATM   27  C   UNL     1      -7.663  12.576  67.707  1.00  0.00    -0.142 C  
HETATM   28  C   UNL     1      -8.245  10.614  66.127  1.00  0.00    -0.156 C  
HETATM   29  C   UNL     1      -7.226  11.198  67.099  1.00  0.00    -0.120 C  
HETATM   30  O   UNL     1      -8.177   9.485  65.656  1.00  0.00    -0.115 OA 
BRANCH  20  31
HETATM   31  C   UNL     1     -13.294  15.629  72.862  1.00  0.00    -0.555 C  
HETATM   32  C   UNL     1     -12.949  16.491  74.042  1.00  0.00    -0.074 C  
HETATM   33  O   UNL     1     -14.385  15.799  72.311  1.00  0.00    -0.494 OA 
ENDBRANCH  20  31
ENDBRANCH   7  10
ENDBRANCH   2   4
TORSDOF 3
ENDMDL
MODEL       55
REMARK 921   NORMALIZED FREE ENERGY PREDICTED BY IDOCK:   -3.87 KCAL/MOL
REMARK 922        TOTAL FREE ENERGY PREDICTED BY IDOCK:   -5.60 KCAL/MOL
REMARK 923 INTER-LIGAND FREE ENERGY PREDICTED BY IDOCK:   -4.41 KCAL/MOL
REMARK 924 INTRA-LIGAND FREE ENERGY PREDICTED BY IDOCK:   -1.19 KCAL/MOL
REMARK 927      BINDING AFFINITY PREDICTED BY RF-SCORE:    0.00 PKD
ROOT
HETATM    1  C   UNL     1      -5.358   1.497  64.168  1.00  0.00    -0.004 C  
HETATM    2  N   UNL     1      -6.432   2.470  64.308  1.00  0.00    -0.026 NA 
HETATM    3  C   UNL     1      -7.423   2.536  63.237  1.00  0.00    -0.057 C  
ENDROOT
BRANCH   2   4
HETATM    4  C   UNL     1      -6.463   3.389  65.350  1.00  0.00    -0.032 A  
HETATM    5  C   UNL     1      -5.510   4.406  65.515  1.00  0.00    -0.013 A  
HETATM    6  C   UNL     1      -5.606   5.381  66.540  1.00  0.00    -0.017 A  
HETATM    7  C   UNL     1      -6.708   5.416  67.409  1.00  0.00    -0.059 A  
HETATM    8  C   UNL     1      -7.572   4.317  67.336  1.00  0.00    -0.077 A  
HETATM    9  C   UNL     1      -7.464   3.353  66.325  1.00  0.00    -0.077 A  
BRANCH   7  10
HETATM   10  C   UNL     1      -7.048   6.631  68.320  1.00  0.00    -0.083 C  
HETATM   11  C   UNL     1      -7.009   8.027  67.546  1.00  0.00    -0.075 C  
HETATM   12  C   UNL     1      -8.246   8.308  66.622  1.00  0.00    -0.106 C  
HETATM   13  C   UNL     1      -8.259   7.324  65.426  1.00  0.00    -0.137 C  
HETATM   14  C   UNL     1      -9.468   8.154  67.563  1.00  0.00    -0.184 C  
HETATM   15  C   UNL     1     -10.601   8.774  66.763  1.00  0.00    -0.220 C  
HETATM   16  C   UNL     1      -9.660   6.748  68.148  1.00  0.00    -0.122 C  
HETATM   17  C   UNL     1      -9.972  10.103  66.384  1.00  0.00    -0.295 C  
HETATM   18  C   UNL     1     -11.051   6.663  68.837  1.00  0.00    -0.312 C  
HETATM   19  C   UNL     1     -11.059   6.281  70.302  1.00  0.00    -0.430 C  
HETATM   20  C   UNL     1      -8.482   9.786  66.046  1.00  0.00    -0.124 C  
HETATM   21  C   UNL     1      -8.432   6.415  69.042  1.00  0.00    -0.124 C  
HETATM   22  O   UNL     1      -7.707  10.750  66.751  1.00  0.00    -0.123 OA 
HETATM   23  C   UNL     1      -9.949   5.332  70.562  1.00  0.00    -0.299 C  
HETATM   24  H   UNL     1      -7.847  11.625  66.410  1.00  0.00     0.000 HD 
HETATM   25  C   UNL     1     -10.108   4.253  71.347  1.00  0.00    -0.187 C  
HETATM   26  C   UNL     1      -8.612   5.863  70.275  1.00  0.00    -0.134 C  
HETATM   27  C   UNL     1      -7.669   5.626  71.443  1.00  0.00    -0.109 C  
HETATM   28  C   UNL     1      -9.768   4.794  72.702  1.00  0.00    -0.141 C  
HETATM   29  C   UNL     1      -8.400   5.455  72.821  1.00  0.00    -0.113 C  
HETATM   30  O   UNL     1     -10.569   4.701  73.626  1.00  0.00    -0.196 OA 
BRANCH  20  31
HETATM   31  C   UNL     1      -8.383   9.951  64.487  1.00  0.00    -0.166 C  
HETATM   32  C   UNL     1      -7.041  10.194  63.860  1.00  0.00    -0.104 C  
HETATM   33  O   UNL     1      -9.375   9.916  63.752  1.00  0.00    -0.268 OA 
ENDBRANCH  20  31
ENDBRANCH   7  10
ENDBRANCH   2   4
TORSDOF 3
ENDMDL
MODEL       56
REMARK 921   NORMALIZED FREE ENERGY PREDICTED BY IDOCK:   -3.78 KCAL/MOL
REMARK 922        TOTAL FREE ENERGY PREDICTED BY IDOCK:   -5.50 KCAL/MOL
REMARK 923 INTER-LIGAND FREE ENERGY PREDICTED BY IDOCK:   -4.44 KCAL/MOL
REMARK 924 INTRA-LIGAND FREE ENERGY PREDICTED BY IDOCK:   -1.06 KCAL/MOL
REMARK 927      BINDING AFFINITY PREDICTED BY RF-SCORE:    0.00 PKD
ROOT
HETATM    1  C   UNL     1     -11.725   5.456  72.744  1.00  0.00    -0.164 C  
HETATM    2  N   UNL     1     -11.778   6.384  71.624  1.00  0.00    -0.312 NA 
HETATM    3  C   UNL     1     -12.933   7.274  71.542  1.00  0.00    -0.389 C  
ENDROOT
BRANCH   2   4
HETATM    4  C   UNL     1     -10.839   6.357  70.599  1.00  0.00    -0.276 A  
HETATM    5  C   UNL     1     -10.730   7.359  69.622  1.00  0.00    -0.245 A  
HETATM    6  C   UNL     1      -9.714   7.349  68.633  1.00  0.00    -0.152 A  
HETATM    7  C   UNL     1      -8.717   6.362  68.623  1.00  0.00    -0.122 A  
HETATM    8  C   UNL     1      -8.919   5.289  69.501  1.00  0.00    -0.128 A  
HETATM    9  C   UNL     1      -9.932   5.302  70.469  1.00  0.00    -0.299 A  
BRANCH   7  10
HETATM   10  C   UNL     1      -7.403   6.471  67.797  1.00  0.00    -0.096 C  
HETATM   11  C   UNL     1      -7.122   5.185  66.893  1.00  0.00    -0.073 C  
HETATM   12  C   UNL     1      -7.993   5.085  65.591  1.00  0.00    -0.107 C  
HETATM   13  C   UNL     1      -9.480   4.852  65.956  1.00  0.00    -0.169 C  
HETATM   14  C   UNL     1      -7.739   6.427  64.859  1.00  0.00    -0.104 C  
HETATM   15  C   UNL     1      -8.283   6.167  63.464  1.00  0.00    -0.004 C  
HETATM   16  C   UNL     1      -8.211   7.677  65.615  1.00  0.00    -0.136 C  
HETATM   17  C   UNL     1      -7.579   4.863  63.134  1.00  0.00    -0.063 C  
HETATM   18  C   UNL     1      -8.151   8.906  64.665  1.00  0.00    -0.151 C  
HETATM   19  C   UNL     1      -7.298  10.071  65.120  1.00  0.00    -0.139 C  
HETATM   20  C   UNL     1      -7.593   4.029  64.453  1.00  0.00    -0.076 C  
HETATM   21  C   UNL     1      -7.396   7.790  66.934  1.00  0.00    -0.090 C  
HETATM   22  O   UNL     1      -6.264   3.551  64.628  1.00  0.00    -0.022 OA 
HETATM   23  C   UNL     1      -7.360  10.171  66.598  1.00  0.00    -0.106 C  
HETATM   24  H   UNL     1      -6.027   2.926  63.954  1.00  0.00     0.000 HD 
HETATM   25  C   UNL     1      -7.476  11.354  67.224  1.00  0.00    -0.134 C  
HETATM   26  C   UNL     1      -6.867   8.988  67.311  1.00  0.00    -0.077 C  
HETATM   27  C   UNL     1      -5.872   9.378  68.392  1.00  0.00    -0.041 C  
HETATM   28  C   UNL     1      -6.045  11.760  67.403  1.00  0.00    -0.108 C  
HETATM   29  C   UNL     1      -5.164  10.753  68.133  1.00  0.00    -0.036 C  
HETATM   30  O   UNL     1      -5.646  12.835  66.968  1.00  0.00    -0.341 OA 
BRANCH  20  31
HETATM   31  C   UNL     1      -8.623   2.873  64.182  1.00  0.00    -0.090 C  
HETATM   32  C   UNL     1      -9.482   2.932  62.952  1.00  0.00    -0.093 C  
HETATM   33  O   UNL     1      -8.776   1.926  64.959  1.00  0.00    -0.100 OA 
ENDBRANCH  20  31
ENDBRANCH   7  10
ENDBRANCH   2   4
TORSDOF 3
ENDMDL
MODEL       57
REMARK 921   NORMALIZED FREE ENERGY PREDICTED BY IDOCK:   -3.77 KCAL/MOL
REMARK 922        TOTAL FREE ENERGY PREDICTED BY IDOCK:   -5.48 KCAL/MOL
REMARK 923 INTER-LIGAND FREE ENERGY PREDICTED BY IDOCK:   -5.17 KCAL/MOL
REMARK 924 INTRA-LIGAND FREE ENERGY PREDICTED BY IDOCK:   -0.32 KCAL/MOL
REMARK 927      BINDING AFFINITY PREDICTED BY RF-SCORE:    0.00 PKD
ROOT
HETATM    1  C   UNL     1      -9.403  19.690  67.902  1.00  0.00    -0.337 C  
HETATM    2  N   UNL     1      -8.206  18.931  68.235  1.00  0.00    -0.316 NA 
HETATM    3  C   UNL     1      -7.032  19.684  68.669  1.00  0.00    -0.326 C  
ENDROOT
BRANCH   2   4
HETATM    4  C   UNL     1      -8.125  17.558  68.038  1.00  0.00    -0.237 A  
HETATM    5  C   UNL     1      -9.228  16.694  68.135  1.00  0.00    -0.220 A  
HETATM    6  C   UNL     1      -9.136  15.308  67.852  1.00  0.00    -0.175 A  
HETATM    7  C   UNL     1      -7.940  14.737  67.392  1.00  0.00    -0.220 A  
HETATM    8  C   UNL     1      -6.813  15.568  67.442  1.00  0.00    -0.224 A  
HETATM    9  C   UNL     1      -6.912  16.935  67.732  1.00  0.00    -0.156 A  
BRANCH   7  10
HETATM   10  C   UNL     1      -7.851  13.322  66.750  1.00  0.00     0.387 C  
HETATM   11  C   UNL     1      -6.754  12.389  67.439  1.00  0.00    -0.152 C  
HETATM   12  C   UNL     1      -7.170  11.789  68.829  1.00  0.00    -0.113 C  
HETATM   13  C   UNL     1      -7.286  12.914  69.887  1.00  0.00     0.867 C  
HETATM   14  C   UNL     1      -8.511  11.066  68.545  1.00  0.00    -0.153 C  
HETATM   15  C   UNL     1      -8.706  10.204  69.781  1.00  0.00    -0.148 C  
HETATM   16  C   UNL     1      -9.657  11.982  68.094  1.00  0.00    -0.200 C  
HETATM   17  C   UNL     1      -7.356   9.513  69.848  1.00  0.00    -0.103 C  
HETATM   18  C   UNL     1     -10.992  11.183  68.114  1.00  0.00    -0.292 C  
HETATM   19  C   UNL     1     -11.755  11.110  66.809  1.00  0.00     0.398 C  
HETATM   20  C   UNL     1      -6.304  10.600  69.466  1.00  0.00    -0.070 C  
HETATM   21  C   UNL     1      -9.265  12.627  66.735  1.00  0.00    -0.225 C  
HETATM   22  O   UNL     1      -5.452   9.997  68.498  1.00  0.00    -0.039 OA 
HETATM   23  C   UNL     1     -11.560  12.375  66.060  1.00  0.00    -0.455 C  
HETATM   24  H   UNL     1      -4.940   9.293  68.876  1.00  0.00     0.000 HD 
HETATM   25  C   UNL     1     -12.573  12.984  65.420  1.00  0.00    -0.481 C  
HETATM   26  C   UNL     1     -10.166  12.671  65.713  1.00  0.00    -0.288 C  
HETATM   27  C   UNL     1     -10.033  13.024  64.241  1.00  0.00    -0.085 C  
HETATM   28  C   UNL     1     -12.522  12.346  64.066  1.00  0.00    -0.459 C  
HETATM   29  C   UNL     1     -11.182  12.442  63.345  1.00  0.00    -0.492 C  
HETATM   30  O   UNL     1     -13.510  11.784  63.607  1.00  0.00    -0.425 OA 
BRANCH  20  31
HETATM   31  C   UNL     1      -5.560  10.924  70.811  1.00  0.00    -0.113 C  
HETATM   32  C   UNL     1      -5.188   9.797  71.732  1.00  0.00    -0.076 C  
HETATM   33  O   UNL     1      -5.290  12.077  71.160  1.00  0.00    -0.235 OA 
ENDBRANCH  20  31
ENDBRANCH   7  10
ENDBRANCH   2   4
TORSDOF 3
ENDMDL
MODEL       58
REMARK 921   NORMALIZED FREE ENERGY PREDICTED BY IDOCK:   -3.75 KCAL/MOL
REMARK 922        TOTAL FREE ENERGY PREDICTED BY IDOCK:   -5.46 KCAL/MOL
REMARK 923 INTER-LIGAND FREE ENERGY PREDICTED BY IDOCK:   -5.93 KCAL/MOL
REMARK 924 INTRA-LIGAND FREE ENERGY PREDICTED BY IDOCK:    0.46 KCAL/MOL
REMARK 927      BINDING AFFINITY PREDICTED BY RF-SCORE:    0.00 PKD
ROOT
HETATM    1  C   UNL     1      -6.236  16.269  69.903  1.00  0.00    -0.161 C  
HETATM    2  N   UNL     1      -6.168  14.828  70.096  1.00  0.00    -0.158 NA 
HETATM    3  C   UNL     1      -5.147  14.319  71.008  1.00  0.00    -0.124 C  
ENDROOT
BRANCH   2   4
HETATM    4  C   UNL     1      -6.952  13.947  69.360  1.00  0.00    -0.022 A  
HETATM    5  C   UNL     1      -6.592  12.614  69.107  1.00  0.00    -0.099 A  
HETATM    6  C   UNL     1      -7.444  11.713  68.421  1.00  0.00    -0.107 A  
HETATM    7  C   UNL     1      -8.732  12.094  68.016  1.00  0.00    -0.180 A  
HETATM    8  C   UNL     1      -9.025  13.459  68.136  1.00  0.00    -0.188 A  
HETATM    9  C   UNL     1      -8.172  14.345  68.807  1.00  0.00    -0.126 A  
BRANCH   7  10
HETATM   10  C   UNL     1      -9.830  11.086  67.570  1.00  0.00    -0.190 C  
HETATM   11  C   UNL     1     -11.061  11.784  66.830  1.00  0.00    -0.361 C  
HETATM   12  C   UNL     1     -10.784  12.218  65.347  1.00  0.00    -0.320 C  
HETATM   13  C   UNL     1      -9.745  13.365  65.308  1.00  0.00     0.002 C  
HETATM   14  C   UNL     1     -10.299  10.919  64.655  1.00  0.00    -0.407 C  
HETATM   15  C   UNL     1     -10.387  11.262  63.177  1.00  0.00    -0.338 C  
HETATM   16  C   UNL     1      -8.985  10.345  65.203  1.00  0.00    -0.217 C  
HETATM   17  C   UNL     1     -11.808  11.794  63.105  1.00  0.00    -0.194 C  
HETATM   18  C   UNL     1      -8.478   9.223  64.254  1.00  0.00    -0.202 C  
HETATM   19  C   UNL     1      -8.269   7.857  64.872  1.00  0.00    -0.128 C  
HETATM   20  C   UNL     1     -12.013  12.633  64.405  1.00  0.00    -0.400 C  
HETATM   21  C   UNL     1      -9.208   9.938  66.687  1.00  0.00    -0.185 C  
HETATM   22  O   UNL     1     -13.257  12.209  64.951  1.00  0.00    -0.438 OA 
HETATM   23  C   UNL     1      -7.813   8.023  66.273  1.00  0.00    -0.099 C  
HETATM   24  H   UNL     1     -13.984  12.455  64.393  1.00  0.00     0.000 HD 
HETATM   25  C   UNL     1      -6.835   7.264  66.795  1.00  0.00    -0.065 C  
HETATM   26  C   UNL     1      -8.755   8.736  67.142  1.00  0.00    -0.127 C  
HETATM   27  C   UNL     1      -8.993   7.971  68.433  1.00  0.00    -0.133 C  
HETATM   28  C   UNL     1      -7.596   6.092  67.335  1.00  0.00    -0.090 C  
HETATM   29  C   UNL     1      -8.712   6.432  68.317  1.00  0.00    -0.116 C  
HETATM   30  O   UNL     1      -7.317   4.953  66.980  1.00  0.00    -0.079 OA 
BRANCH  20  31
HETATM   31  C   UNL     1     -12.042  14.125  63.915  1.00  0.00    -0.264 C  
HETATM   32  C   UNL     1     -11.475  15.197  64.800  1.00  0.00    -0.383 C  
HETATM   33  O   UNL     1     -12.542  14.460  62.836  1.00  0.00    -0.026 OA 
ENDBRANCH  20  31
ENDBRANCH   7  10
ENDBRANCH   2   4
TORSDOF 3
ENDMDL
MODEL       59
REMARK 921   NORMALIZED FREE ENERGY PREDICTED BY IDOCK:   -3.74 KCAL/MOL
REMARK 922        TOTAL FREE ENERGY PREDICTED BY IDOCK:   -5.46 KCAL/MOL
REMARK 923 INTER-LIGAND FREE ENERGY PREDICTED BY IDOCK:   -6.34 KCAL/MOL
REMARK 924 INTRA-LIGAND FREE ENERGY PREDICTED BY IDOCK:    0.88 KCAL/MOL
REMARK 927      BINDING AFFINITY PREDICTED BY RF-SCORE:    0.00 PKD
ROOT
HETATM    1  C   UNL     1     -13.894  13.908  72.118  1.00  0.00    -0.541 C  
HETATM    2  N   UNL     1     -12.646  13.841  71.372  1.00  0.00    -0.358 NA 
HETATM    3  C   UNL     1     -11.793  15.026  71.381  1.00  0.00    -0.358 C  
ENDROOT
BRANCH   2   4
HETATM    4  C   UNL     1     -12.318  12.747  70.579  1.00  0.00    -0.275 A  
HETATM    5  C   UNL     1     -11.965  12.850  69.224  1.00  0.00    -0.313 A  
HETATM    6  C   UNL     1     -11.559  11.730  68.457  1.00  0.00    -0.380 A  
HETATM    7  C   UNL     1     -11.424  10.460  69.038  1.00  0.00    -0.258 A  
HETATM    8  C   UNL     1     -11.920  10.335  70.342  1.00  0.00    -0.391 A  
HETATM    9  C   UNL     1     -12.329  11.447  71.090  1.00  0.00    -0.404 A  
BRANCH   7  10
HETATM   10  C   UNL     1     -10.675   9.277  68.360  1.00  0.00    -0.192 C  
HETATM   11  C   UNL     1     -10.692   9.355  66.765  1.00  0.00    -0.129 C  
HETATM   12  C   UNL     1      -9.706  10.404  66.141  1.00  0.00    -0.262 C  
HETATM   13  C   UNL     1     -10.156  11.843  66.497  1.00  0.00    -0.229 C  
HETATM   14  C   UNL     1      -8.323  10.025  66.729  1.00  0.00    -0.125 C  
HETATM   15  C   UNL     1      -7.352  10.797  65.853  1.00  0.00    -0.094 C  
HETATM   16  C   UNL     1      -8.210  10.160  68.255  1.00  0.00    -0.110 C  
HETATM   17  C   UNL     1      -7.840  10.385  64.475  1.00  0.00    -0.066 C  
HETATM   18  C   UNL     1      -6.719  10.020  68.674  1.00  0.00    -0.053 C  
HETATM   19  C   UNL     1      -6.396   8.921  69.663  1.00  0.00    -0.042 C  
HETATM   20  C   UNL     1      -9.397  10.360  64.568  1.00  0.00    -0.264 C  
HETATM   21  C   UNL     1      -9.203   9.160  68.911  1.00  0.00    -0.139 C  
HETATM   22  O   UNL     1      -9.803   9.123  63.992  1.00  0.00     0.116 OA 
HETATM   23  C   UNL     1      -7.535   8.756  70.597  1.00  0.00    -0.079 C  
HETATM   24  H   UNL     1      -9.620   9.097  63.060  1.00  0.00     0.000 HD 
HETATM   25  C   UNL     1      -7.352   8.573  71.915  1.00  0.00    -0.119 C  
HETATM   26  C   UNL     1      -8.801   8.382  69.956  1.00  0.00    -0.137 C  
HETATM   27  C   UNL     1      -9.437   7.192  70.655  1.00  0.00    -0.161 C  
HETATM   28  C   UNL     1      -7.242   7.083  72.017  1.00  0.00    -0.081 C  
HETATM   29  C   UNL     1      -8.413   6.298  71.438  1.00  0.00    -0.127 C  
HETATM   30  O   UNL     1      -6.256   6.567  72.531  1.00  0.00    -0.048 OA 
BRANCH  20  31
HETATM   31  C   UNL     1      -9.867  11.603  63.730  1.00  0.00    -0.315 C  
HETATM   32  C   UNL     1     -11.329  11.942  63.680  1.00  0.00    -0.536 C  
HETATM   33  O   UNL     1      -9.081  12.302  63.083  1.00  0.00     0.136 OA 
ENDBRANCH  20  31
ENDBRANCH   7  10
ENDBRANCH   2   4
TORSDOF 3
ENDMDL
MODEL       60
REMARK 921   NORMALIZED FREE ENERGY PREDICTED BY IDOCK:   -3.70 KCAL/MOL
REMARK 922        TOTAL FREE ENERGY PREDICTED BY IDOCK:   -5.40 KCAL/MOL
REMARK 923 INTER-LIGAND FREE ENERGY PREDICTED BY IDOCK:   -4.50 KCAL/MOL
REMARK 924 INTRA-LIGAND FREE ENERGY PREDICTED BY IDOCK:   -0.90 KCAL/MOL
REMARK 927      BINDING AFFINITY PREDICTED BY RF-SCORE:    0.00 PKD
ROOT
HETATM    1  C   UNL     1      -5.275  11.335  66.010  1.00  0.00    -0.089 C  
HETATM    2  N   UNL     1      -5.501  11.231  67.444  1.00  0.00    -0.046 NA 
HETATM    3  C   UNL     1      -5.145   9.972  68.092  1.00  0.00    -0.036 C  
ENDROOT
BRANCH   2   4
HETATM    4  C   UNL     1      -6.142  12.233  68.163  1.00  0.00    -0.058 A  
HETATM    5  C   UNL     1      -5.479  13.094  69.052  1.00  0.00    -0.069 A  
HETATM    6  C   UNL     1      -6.139  14.159  69.715  1.00  0.00    -0.132 A  
HETATM    7  C   UNL     1      -7.488  14.450  69.460  1.00  0.00     0.033 A  
HETATM    8  C   UNL     1      -8.178  13.502  68.694  1.00  0.00    -0.040 A  
HETATM    9  C   UNL     1      -7.519  12.446  68.050  1.00  0.00    -0.114 A  
BRANCH   7  10
HETATM   10  C   UNL     1      -8.178  15.780  69.881  1.00  0.00     0.334 C  
HETATM   11  C   UNL     1      -7.530  17.067  69.192  1.00  0.00    -0.162 C  
HETATM   12  C   UNL     1      -7.918  17.282  67.687  1.00  0.00    -0.195 C  
HETATM   13  C   UNL     1      -7.311  16.159  66.810  1.00  0.00    -0.220 C  
HETATM   14  C   UNL     1      -9.468  17.293  67.691  1.00  0.00    -0.246 C  
HETATM   15  C   UNL     1      -9.813  17.854  66.322  1.00  0.00    -0.307 C  
HETATM   16  C   UNL     1     -10.124  15.978  68.137  1.00  0.00    -0.234 C  
HETATM   17  C   UNL     1      -8.945  19.101  66.311  1.00  0.00    -0.320 C  
HETATM   18  C   UNL     1     -11.648  16.035  67.834  1.00  0.00    -0.054 C  
HETATM   19  C   UNL     1     -12.579  15.836  69.010  1.00  0.00     0.524 C  
HETATM   20  C   UNL     1      -7.599  18.685  66.981  1.00  0.00    -0.226 C  
HETATM   21  C   UNL     1      -9.730  15.711  69.617  1.00  0.00    -0.276 C  
HETATM   22  O   UNL     1      -7.310  19.697  67.940  1.00  0.00    -0.264 OA 
HETATM   23  C   UNL     1     -11.962  14.884  69.963  1.00  0.00    -0.377 C  
HETATM   24  H   UNL     1      -7.121  20.529  67.521  1.00  0.00     0.000 HD 
HETATM   25  C   UNL     1     -12.677  13.917  70.564  1.00  0.00    -0.318 C  
HETATM   26  C   UNL     1     -10.676  15.321  70.518  1.00  0.00    -0.247 C  
HETATM   27  C   UNL     1     -10.663  15.194  72.032  1.00  0.00     0.726 C  
HETATM   28  C   UNL     1     -13.170  14.607  71.798  1.00  0.00    -0.350 C  
HETATM   29  C   UNL     1     -12.090  15.222  72.681  1.00  0.00    -0.522 C  
HETATM   30  O   UNL     1     -14.370  14.661  72.042  1.00  0.00    -0.485 OA 
BRANCH  20  31
HETATM   31  C   UNL     1      -6.561  18.652  65.802  1.00  0.00    -0.269 C  
HETATM   32  C   UNL     1      -5.130  18.306  66.096  1.00  0.00    -0.193 C  
HETATM   33  O   UNL     1      -6.869  18.929  64.639  1.00  0.00    -0.270 OA 
ENDBRANCH  20  31
ENDBRANCH   7  10
ENDBRANCH   2   4
TORSDOF 3
ENDMDL
MODEL       61
REMARK 921   NORMALIZED FREE ENERGY PREDICTED BY IDOCK:   -3.67 KCAL/MOL
REMARK 922        TOTAL FREE ENERGY PREDICTED BY IDOCK:   -5.37 KCAL/MOL
REMARK 923 INTER-LIGAND FREE ENERGY PREDICTED BY IDOCK:   -4.22 KCAL/MOL
REMARK 924 INTRA-LIGAND FREE ENERGY PREDICTED BY IDOCK:   -1.15 KCAL/MOL
REMARK 927      BINDING AFFINITY PREDICTED BY RF-SCORE:    0.00 PKD
ROOT
HETATM    1  C   UNL     1     -12.114   5.289  72.805  1.00  0.00     0.109 C  
HETATM    2  N   UNL     1     -10.735   5.597  73.157  1.00  0.00    -0.248 NA 
HETATM    3  C   UNL     1     -10.278   5.206  74.488  1.00  0.00    -0.274 C  
ENDROOT
BRANCH   2   4
HETATM    4  C   UNL     1      -9.909   6.340  72.321  1.00  0.00    -0.161 A  
HETATM    5  C   UNL     1      -8.508   6.264  72.350  1.00  0.00    -0.114 A  
HETATM    6  C   UNL     1      -7.689   6.972  71.435  1.00  0.00    -0.094 A  
HETATM    7  C   UNL     1      -8.247   7.739  70.401  1.00  0.00    -0.121 A  
HETATM    8  C   UNL     1      -9.633   7.931  70.471  1.00  0.00    -0.170 A  
HETATM    9  C   UNL     1     -10.434   7.235  71.385  1.00  0.00    -0.219 A  
BRANCH   7  10
HETATM   10  C   UNL     1      -7.437   8.259  69.179  1.00  0.00    -0.086 C  
HETATM   11  C   UNL     1      -6.546   7.127  68.489  1.00  0.00    -0.048 C  
HETATM   12  C   UNL     1      -7.340   6.110  67.596  1.00  0.00    -0.080 C  
HETATM   13  C   UNL     1      -8.272   5.238  68.473  1.00  0.00    -0.090 C  
HETATM   14  C   UNL     1      -8.100   7.005  66.584  1.00  0.00    -0.110 C  
HETATM   15  C   UNL     1      -8.558   6.016  65.525  1.00  0.00    -0.145 C  
HETATM   16  C   UNL     1      -9.135   7.951  67.208  1.00  0.00    -0.152 C  
HETATM   17  C   UNL     1      -7.249   5.307  65.229  1.00  0.00    -0.067 C  
HETATM   18  C   UNL     1     -10.005   8.577  66.080  1.00  0.00    -0.160 C  
HETATM   19  C   UNL     1     -10.021  10.088  65.999  1.00  0.00    -0.334 C  
HETATM   20  C   UNL     1      -6.539   5.135  66.608  1.00  0.00    -0.049 C  
HETATM   21  C   UNL     1      -8.389   8.954  68.133  1.00  0.00    -0.125 C  
HETATM   22  O   UNL     1      -5.198   5.573  66.415  1.00  0.00    -0.005 OA 
HETATM   23  C   UNL     1      -9.912  10.650  67.367  1.00  0.00    -0.213 C  
HETATM   24  H   UNL     1      -4.724   4.995  65.830  1.00  0.00     0.000 HD 
HETATM   25  C   UNL     1     -10.653  11.698  67.764  1.00  0.00    -0.227 C  
HETATM   26  C   UNL     1      -8.686  10.283  68.082  1.00  0.00    -0.123 C  
HETATM   27  C   UNL     1      -8.013  11.509  68.676  1.00  0.00    -0.135 C  
HETATM   28  C   UNL     1      -9.792  12.861  67.376  1.00  0.00    -0.207 C  
HETATM   29  C   UNL     1      -8.377  12.848  67.944  1.00  0.00    -0.170 C  
HETATM   30  O   UNL     1     -10.229  13.740  66.641  1.00  0.00    -0.266 OA 
BRANCH  20  31
HETATM   31  C   UNL     1      -6.635   3.597  66.916  1.00  0.00    -0.042 C  
HETATM   32  C   UNL     1      -5.818   3.022  68.037  1.00  0.00    -0.023 C  
HETATM   33  O   UNL     1      -7.340   2.830  66.252  1.00  0.00    -0.065 OA 
ENDBRANCH  20  31
ENDBRANCH   7  10
ENDBRANCH   2   4
TORSDOF 3
ENDMDL
MODEL       62
REMARK 921   NORMALIZED FREE ENERGY PREDICTED BY IDOCK:   -3.59 KCAL/MOL
REMARK 922        TOTAL FREE ENERGY PREDICTED BY IDOCK:   -5.28 KCAL/MOL
REMARK 923 INTER-LIGAND FREE ENERGY PREDICTED BY IDOCK:   -4.72 KCAL/MOL
REMARK 924 INTRA-LIGAND FREE ENERGY PREDICTED BY IDOCK:   -0.55 KCAL/MOL
REMARK 927      BINDING AFFINITY PREDICTED BY RF-SCORE:    0.00 PKD
ROOT
HETATM    1  C   UNL     1     -10.700  14.016  66.967  1.00  0.00    -0.284 C  
HETATM    2  N   UNL     1     -10.636  12.858  66.087  1.00  0.00    -0.268 NA 
HETATM    3  C   UNL     1     -11.050  13.045  64.699  1.00  0.00    -0.332 C  
ENDROOT
BRANCH   2   4
HETATM    4  C   UNL     1     -10.313  11.591  66.558  1.00  0.00    -0.232 A  
HETATM    5  C   UNL     1      -9.752  11.354  67.823  1.00  0.00    -0.184 A  
HETATM    6  C   UNL     1      -9.504  10.047  68.313  1.00  0.00    -0.147 A  
HETATM    7  C   UNL     1      -9.876   8.911  67.576  1.00  0.00    -0.237 A  
HETATM    8  C   UNL     1     -10.294   9.153  66.261  1.00  0.00    -0.166 A  
HETATM    9  C   UNL     1     -10.526  10.448  65.782  1.00  0.00    -0.187 A  
BRANCH   7  10
HETATM   10  C   UNL     1      -9.947   7.479  68.179  1.00  0.00    -0.198 C  
HETATM   11  C   UNL     1      -9.973   6.331  67.067  1.00  0.00    -0.201 C  
HETATM   12  C   UNL     1      -8.590   6.033  66.388  1.00  0.00    -0.129 C  
HETATM   13  C   UNL     1      -8.140   7.243  65.532  1.00  0.00    -0.132 C  
HETATM   14  C   UNL     1      -7.642   5.727  67.574  1.00  0.00    -0.093 C  
HETATM   15  C   UNL     1      -6.436   5.097  66.897  1.00  0.00    -0.041 C  
HETATM   16  C   UNL     1      -7.418   6.897  68.543  1.00  0.00    -0.096 C  
HETATM   17  C   UNL     1      -7.119   4.039  66.050  1.00  0.00    -0.067 C  
HETATM   18  C   UNL     1      -6.251   6.548  69.509  1.00  0.00    -0.034 C  
HETATM   19  C   UNL     1      -6.567   6.577  70.989  1.00  0.00    -0.053 C  
HETATM   20  C   UNL     1      -8.417   4.709  65.500  1.00  0.00    -0.123 C  
HETATM   21  C   UNL     1      -8.778   7.249  69.210  1.00  0.00    -0.137 C  
HETATM   22  O   UNL     1      -9.468   3.780  65.738  1.00  0.00    -0.160 OA 
HETATM   23  C   UNL     1      -7.568   7.638  71.252  1.00  0.00    -0.080 C  
HETATM   24  H   UNL     1      -9.365   2.996  65.212  1.00  0.00     0.000 HD 
HETATM   25  C   UNL     1      -7.472   8.457  72.313  1.00  0.00    -0.140 C  
HETATM   26  C   UNL     1      -8.846   7.459  70.555  1.00  0.00    -0.148 C  
HETATM   27  C   UNL     1     -10.015   7.601  71.514  1.00  0.00    -0.200 C  
HETATM   28  C   UNL     1      -8.216   7.697  73.368  1.00  0.00    -0.151 C  
HETATM   29  C   UNL     1      -9.645   7.307  73.010  1.00  0.00    -0.219 C  
HETATM   30  O   UNL     1      -7.674   7.419  74.432  1.00  0.00    -0.124 OA 
BRANCH  20  31
HETATM   31  C   UNL     1      -8.134   4.928  63.970  1.00  0.00    -0.116 C  
HETATM   32  C   UNL     1      -6.753   4.678  63.438  1.00  0.00    -0.038 C  
HETATM   33  O   UNL     1      -9.001   5.328  63.186  1.00  0.00    -0.007 OA 
ENDBRANCH  20  31
ENDBRANCH   7  10
ENDBRANCH   2   4
TORSDOF 3
ENDMDL
MODEL       63
REMARK 921   NORMALIZED FREE ENERGY PREDICTED BY IDOCK:   -3.56 KCAL/MOL
REMARK 922        TOTAL FREE ENERGY PREDICTED BY IDOCK:   -5.23 KCAL/MOL
REMARK 923 INTER-LIGAND FREE ENERGY PREDICTED BY IDOCK:   -4.11 KCAL/MOL
REMARK 924 INTRA-LIGAND FREE ENERGY PREDICTED BY IDOCK:   -1.13 KCAL/MOL
REMARK 927      BINDING AFFINITY PREDICTED BY RF-SCORE:    0.00 PKD
ROOT
HETATM    1  C   UNL     1      -7.168   4.932  74.109  1.00  0.00    -0.082 C  
HETATM    2  N   UNL     1      -7.361   3.823  73.186  1.00  0.00    -0.062 NA 
HETATM    3  C   UNL     1      -6.699   2.561  73.504  1.00  0.00    -0.023 C  
ENDROOT
BRANCH   2   4
HETATM    4  C   UNL     1      -8.044   3.973  71.984  1.00  0.00    -0.084 A  
HETATM    5  C   UNL     1      -9.373   4.416  71.898  1.00  0.00    -0.190 A  
HETATM    6  C   UNL     1     -10.022   4.637  70.657  1.00  0.00    -0.293 A  
HETATM    7  C   UNL     1      -9.339   4.485  69.441  1.00  0.00    -0.217 A  
HETATM    8  C   UNL     1      -8.068   3.902  69.529  1.00  0.00    -0.062 A  
HETATM    9  C   UNL     1      -7.438   3.678  70.760  1.00  0.00    -0.040 A  
BRANCH   7  10
HETATM   10  C   UNL     1      -9.869   5.025  68.081  1.00  0.00    -0.203 C  
HETATM   11  C   UNL     1     -10.498   6.489  68.189  1.00  0.00    -0.264 C  
HETATM   12  C   UNL     1      -9.452   7.654  68.302  1.00  0.00    -0.148 C  
HETATM   13  C   UNL     1      -8.699   7.571  69.653  1.00  0.00    -0.137 C  
HETATM   14  C   UNL     1      -8.533   7.461  67.069  1.00  0.00    -0.118 C  
HETATM   15  C   UNL     1      -7.776   8.777  66.995  1.00  0.00    -0.095 C  
HETATM   16  C   UNL     1      -7.737   6.149  67.054  1.00  0.00    -0.100 C  
HETATM   17  C   UNL     1      -8.931   9.761  67.059  1.00  0.00    -0.152 C  
HETATM   18  C   UNL     1      -6.668   6.209  65.926  1.00  0.00    -0.048 C  
HETATM   19  C   UNL     1      -6.729   5.120  64.877  1.00  0.00    -0.048 C  
HETATM   20  C   UNL     1      -9.934   9.169  68.098  1.00  0.00    -0.176 C  
HETATM   21  C   UNL     1      -8.743   4.965  66.981  1.00  0.00    -0.103 C  
HETATM   22  O   UNL     1     -11.216   9.231  67.482  1.00  0.00    -0.410 OA 
HETATM   23  C   UNL     1      -7.193   3.862  65.509  1.00  0.00    -0.071 C  
HETATM   24  H   UNL     1     -11.501  10.129  67.362  1.00  0.00     0.000 HD 
HETATM   25  C   UNL     1      -6.635   2.675  65.218  1.00  0.00    -0.035 C  
HETATM   26  C   UNL     1      -8.528   3.937  66.112  1.00  0.00    -0.110 C  
HETATM   27  C   UNL     1      -9.399   2.779  65.656  1.00  0.00    -0.047 C  
HETATM   28  C   UNL     1      -7.453   2.217  64.049  1.00  0.00    -0.059 C  
HETATM   29  C   UNL     1      -8.958   2.157  64.285  1.00  0.00    -0.108 C  
HETATM   30  O   UNL     1      -6.912   1.929  62.988  1.00  0.00    -0.025 OA 
BRANCH  20  31
HETATM   31  C   UNL     1      -9.815  10.113  69.348  1.00  0.00    -0.229 C  
HETATM   32  C   UNL     1     -10.827   9.997  70.452  1.00  0.00    -0.380 C  
HETATM   33  O   UNL     1      -8.933  10.972  69.450  1.00  0.00     0.012 OA 
ENDBRANCH  20  31
ENDBRANCH   7  10
ENDBRANCH   2   4
TORSDOF 3
ENDMDL
MODEL       64
REMARK 921   NORMALIZED FREE ENERGY PREDICTED BY IDOCK:   -3.54 KCAL/MOL
REMARK 922        TOTAL FREE ENERGY PREDICTED BY IDOCK:   -5.22 KCAL/MOL
REMARK 923 INTER-LIGAND FREE ENERGY PREDICTED BY IDOCK:   -4.86 KCAL/MOL
REMARK 924 INTRA-LIGAND FREE ENERGY PREDICTED BY IDOCK:   -0.36 KCAL/MOL
REMARK 927      BINDING AFFINITY PREDICTED BY RF-SCORE:    0.00 PKD
ROOT
HETATM    1  C   UNL     1     -13.069   8.022  72.645  1.00  0.00     0.193 C  
HETATM    2  N   UNL     1     -11.840   7.304  72.339  1.00  0.00    -0.246 NA 
HETATM    3  C   UNL     1     -11.131   6.679  73.452  1.00  0.00    -0.043 C  
ENDROOT
BRANCH   2   4
HETATM    4  C   UNL     1     -11.283   7.306  71.065  1.00  0.00    -0.266 A  
HETATM    5  C   UNL     1     -11.124   6.148  70.287  1.00  0.00    -0.436 A  
HETATM    6  C   UNL     1     -10.626   6.185  68.961  1.00  0.00    -0.341 A  
HETATM    7  C   UNL     1     -10.326   7.402  68.330  1.00  0.00    -0.231 A  
HETATM    8  C   UNL     1     -10.343   8.533  69.157  1.00  0.00    -0.227 A  
HETATM    9  C   UNL     1     -10.827   8.485  70.470  1.00  0.00    -0.252 A  
BRANCH   7  10
HETATM   10  C   UNL     1     -10.103   7.547  66.797  1.00  0.00    -0.313 C  
HETATM   11  C   UNL     1      -9.564   8.990  66.374  1.00  0.00    -0.309 C  
HETATM   12  C   UNL     1      -8.044   9.244  66.672  1.00  0.00    -0.108 C  
HETATM   13  C   UNL     1      -7.796   9.287  68.200  1.00  0.00    -0.095 C  
HETATM   14  C   UNL     1      -7.316   8.076  65.959  1.00  0.00    -0.073 C  
HETATM   15  C   UNL     1      -5.866   8.530  65.947  1.00  0.00    -0.047 C  
HETATM   16  C   UNL     1      -7.648   6.679  66.503  1.00  0.00    -0.090 C  
HETATM   17  C   UNL     1      -6.022   9.925  65.368  1.00  0.00    -0.078 C  
HETATM   18  C   UNL     1      -6.659   5.643  65.898  1.00  0.00    -0.041 C  
HETATM   19  C   UNL     1      -7.271   4.491  65.131  1.00  0.00    -0.068 C  
HETATM   20  C   UNL     1      -7.313  10.511  66.017  1.00  0.00    -0.137 C  
HETATM   21  C   UNL     1      -9.160   6.404  66.261  1.00  0.00    -0.167 C  
HETATM   22  O   UNL     1      -8.076  11.058  64.947  1.00  0.00    -0.366 OA 
HETATM   23  C   UNL     1      -8.568   4.129  65.750  1.00  0.00    -0.114 C  
HETATM   24  H   UNL     1      -7.642  11.809  64.559  1.00  0.00     0.000 HD 
HETATM   25  C   UNL     1      -8.937   2.850  65.929  1.00  0.00    -0.145 C  
HETATM   26  C   UNL     1      -9.565   5.205  65.754  1.00  0.00    -0.138 C  
HETATM   27  C   UNL     1     -10.899   4.716  65.215  1.00  0.00    -0.059 C  
HETATM   28  C   UNL     1      -9.632   2.537  64.639  1.00  0.00    -0.081 C  
HETATM   29  C   UNL     1     -10.780   3.470  64.270  1.00  0.00    -0.123 C  
HETATM   30  O   UNL     1      -9.267   1.591  63.950  1.00  0.00    -0.092 OA 
BRANCH  20  31
HETATM   31  C   UNL     1      -6.794  11.608  67.015  1.00  0.00    -0.144 C  
HETATM   32  C   UNL     1      -7.705  12.738  67.399  1.00  0.00    -0.165 C  
HETATM   33  O   UNL     1      -5.649  11.596  67.477  1.00  0.00    -0.052 OA 
ENDBRANCH  20  31
ENDBRANCH   7  10
ENDBRANCH   2   4
TORSDOF 3
ENDMDL
MODEL       65
REMARK 921   NORMALIZED FREE ENERGY PREDICTED BY IDOCK:   -3.53 KCAL/MOL
REMARK 922        TOTAL FREE ENERGY PREDICTED BY IDOCK:   -5.20 KCAL/MOL
REMARK 923 INTER-LIGAND FREE ENERGY PREDICTED BY IDOCK:   -5.81 KCAL/MOL
REMARK 924 INTRA-LIGAND FREE ENERGY PREDICTED BY IDOCK:    0.61 KCAL/MOL
REMARK 927      BINDING AFFINITY PREDICTED BY RF-SCORE:    0.00 PKD
ROOT
HETATM    1  C   UNL     1      -9.806   7.970  67.721  1.00  0.00    -0.165 C  
HETATM    2  N   UNL     1      -9.274   8.941  66.775  1.00  0.00    -0.151 NA 
HETATM    3  C   UNL     1      -8.150   8.522  65.942  1.00  0.00    -0.116 C  
ENDROOT
BRANCH   2   4
HETATM    4  C   UNL     1      -9.725  10.255  66.736  1.00  0.00    -0.185 A  
HETATM    5  C   UNL     1     -11.082  10.607  66.672  1.00  0.00    -0.053 A  
HETATM    6  C   UNL     1     -11.521  11.955  66.713  1.00  0.00    -0.384 A  
HETATM    7  C   UNL     1     -10.613  13.011  66.888  1.00  0.00    -0.260 A  
HETATM    8  C   UNL     1      -9.259  12.666  66.800  1.00  0.00    -0.225 A  
HETATM    9  C   UNL     1      -8.834  11.332  66.750  1.00  0.00    -0.170 A  
BRANCH   7  10
HETATM   10  C   UNL     1     -11.038  14.457  67.275  1.00  0.00    -0.318 C  
HETATM   11  C   UNL     1     -12.262  14.499  68.300  1.00  0.00    -0.126 C  
HETATM   12  C   UNL     1     -11.895  14.153  69.787  1.00  0.00    -0.381 C  
HETATM   13  C   UNL     1     -11.479  12.666  69.906  1.00  0.00    -0.153 C  
HETATM   14  C   UNL     1     -10.756  15.144  70.138  1.00  0.00    -0.245 C  
HETATM   15  C   UNL     1     -10.670  15.047  71.652  1.00  0.00     0.538 C  
HETATM   16  C   UNL     1      -9.473  14.975  69.313  1.00  0.00    -0.171 C  
HETATM   17  C   UNL     1     -12.128  15.250  72.023  1.00  0.00    -0.459 C  
HETATM   18  C   UNL     1      -8.338  15.829  69.945  1.00  0.00     0.335 C  
HETATM   19  C   UNL     1      -7.690  16.862  69.049  1.00  0.00    -0.199 C  
HETATM   20  C   UNL     1     -12.950  14.465  70.953  1.00  0.00    -0.348 C  
HETATM   21  C   UNL     1      -9.805  15.272  67.823  1.00  0.00    -0.220 C  
HETATM   22  O   UNL     1     -13.968  15.357  70.511  1.00  0.00    -0.741 OA 
HETATM   23  C   UNL     1      -7.661  16.350  67.658  1.00  0.00    -0.161 C  
HETATM   24  H   UNL     1     -14.593  15.541  71.202  1.00  0.00     0.000 HD 
HETATM   25  C   UNL     1      -6.585  16.503  66.868  1.00  0.00    -0.212 C  
HETATM   26  C   UNL     1      -8.981  16.067  67.083  1.00  0.00    -0.220 C  
HETATM   27  C   UNL     1      -9.128  16.706  65.713  1.00  0.00    -0.002 C  
HETATM   28  C   UNL     1      -6.853  17.826  66.219  1.00  0.00    -0.272 C  
HETATM   29  C   UNL     1      -8.185  17.939  65.486  1.00  0.00     0.815 C  
HETATM   30  O   UNL     1      -6.036  18.736  66.303  1.00  0.00    -0.155 OA 
BRANCH  20  31
HETATM   31  C   UNL     1     -13.524  13.223  71.724  1.00  0.00    -0.354 C  
HETATM   32  C   UNL     1     -13.007  11.853  71.393  1.00  0.00    -0.385 C  
HETATM   33  O   UNL     1     -14.411  13.323  72.578  1.00  0.00    -0.662 OA 
ENDBRANCH  20  31
ENDBRANCH   7  10
ENDBRANCH   2   4
TORSDOF 3
ENDMDL
MODEL       66
REMARK 921   NORMALIZED FREE ENERGY PREDICTED BY IDOCK:   -3.25 KCAL/MOL
REMARK 922        TOTAL FREE ENERGY PREDICTED BY IDOCK:   -4.87 KCAL/MOL
REMARK 923 INTER-LIGAND FREE ENERGY PREDICTED BY IDOCK:   -3.68 KCAL/MOL
REMARK 924 INTRA-LIGAND FREE ENERGY PREDICTED BY IDOCK:   -1.19 KCAL/MOL
REMARK 927      BINDING AFFINITY PREDICTED BY RF-SCORE:    0.00 PKD
ROOT
HETATM    1  C   UNL     1      -7.045   5.178  74.185  1.00  0.00    -0.082 C  
HETATM    2  N   UNL     1      -6.466   4.575  72.993  1.00  0.00    -0.040 NA 
HETATM    3  C   UNL     1      -5.825   3.272  73.142  1.00  0.00    -0.004 C  
ENDROOT
BRANCH   2   4
HETATM    4  C   UNL     1      -6.409   5.250  71.779  1.00  0.00    -0.038 A  
HETATM    5  C   UNL     1      -5.433   5.003  70.800  1.00  0.00    -0.004 A  
HETATM    6  C   UNL     1      -5.441   5.648  69.538  1.00  0.00    -0.004 A  
HETATM    7  C   UNL     1      -6.475   6.525  69.175  1.00  0.00    -0.040 A  
HETATM    8  C   UNL     1      -7.356   6.880  70.205  1.00  0.00    -0.081 A  
HETATM    9  C   UNL     1      -7.335   6.245  71.453  1.00  0.00    -0.085 A  
BRANCH   7  10
HETATM   10  C   UNL     1      -6.731   6.999  67.716  1.00  0.00    -0.071 C  
HETATM   11  C   UNL     1      -6.715   5.804  66.656  1.00  0.00    -0.058 C  
HETATM   12  C   UNL     1      -8.003   4.907  66.646  1.00  0.00    -0.103 C  
HETATM   13  C   UNL     1      -8.112   4.108  67.968  1.00  0.00    -0.089 C  
HETATM   14  C   UNL     1      -9.164   5.911  66.432  1.00  0.00    -0.160 C  
HETATM   15  C   UNL     1     -10.333   5.013  66.066  1.00  0.00    -0.276 C  
HETATM   16  C   UNL     1      -9.346   6.939  67.558  1.00  0.00    -0.130 C  
HETATM   17  C   UNL     1      -9.704   4.181  64.962  1.00  0.00    -0.196 C  
HETATM   18  C   UNL     1     -10.692   7.691  67.354  1.00  0.00    -0.318 C  
HETATM   19  C   UNL     1     -10.613   9.198  67.231  1.00  0.00    -0.303 C  
HETATM   20  C   UNL     1      -8.245   3.888  65.433  1.00  0.00    -0.101 C  
HETATM   21  C   UNL     1      -8.070   7.825  67.625  1.00  0.00    -0.124 C  
HETATM   22  O   UNL     1      -7.408   4.190  64.322  1.00  0.00    -0.067 OA 
HETATM   23  C   UNL     1      -9.508   9.698  68.085  1.00  0.00    -0.144 C  
HETATM   24  H   UNL     1      -7.552   3.586  63.603  1.00  0.00     0.000 HD 
HETATM   25  C   UNL     1      -9.637  10.803  68.837  1.00  0.00    -0.204 C  
HETATM   26  C   UNL     1      -8.182   9.179  67.733  1.00  0.00    -0.109 C  
HETATM   27  C   UNL     1      -7.171  10.307  67.608  1.00  0.00    -0.087 C  
HETATM   28  C   UNL     1      -9.201  11.882  67.893  1.00  0.00    -0.187 C  
HETATM   29  C   UNL     1      -7.815  11.701  67.286  1.00  0.00    -0.157 C  
HETATM   30  O   UNL     1      -9.942  12.826  67.644  1.00  0.00    -0.209 OA 
BRANCH  20  31
HETATM   31  C   UNL     1      -8.244   2.359  65.796  1.00  0.00    -0.088 C  
HETATM   32  C   UNL     1      -6.945   1.606  65.786  1.00  0.00    -0.042 C  
HETATM   33  O   UNL     1      -9.278   1.740  66.063  1.00  0.00    -0.078 OA 
ENDBRANCH  20  31
ENDBRANCH   7  10
ENDBRANCH   2   4
TORSDOF 3
ENDMDL
MODEL       67
REMARK 921   NORMALIZED FREE ENERGY PREDICTED BY IDOCK:   -3.23 KCAL/MOL
REMARK 922        TOTAL FREE ENERGY PREDICTED BY IDOCK:   -4.86 KCAL/MOL
REMARK 923 INTER-LIGAND FREE ENERGY PREDICTED BY IDOCK:   -3.87 KCAL/MOL
REMARK 924 INTRA-LIGAND FREE ENERGY PREDICTED BY IDOCK:   -0.98 KCAL/MOL
REMARK 927      BINDING AFFINITY PREDICTED BY RF-SCORE:    0.00 PKD
ROOT
HETATM    1  C   UNL     1     -10.897  13.142  66.237  1.00  0.00    -0.279 C  
HETATM    2  N   UNL     1     -10.649  12.127  65.224  1.00  0.00    -0.271 NA 
HETATM    3  C   UNL     1     -11.558  12.082  64.081  1.00  0.00    -0.379 C  
ENDROOT
BRANCH   2   4
HETATM    4  C   UNL     1      -9.669  11.154  65.380  1.00  0.00    -0.231 A  
HETATM    5  C   UNL     1      -8.422  11.399  65.975  1.00  0.00    -0.058 A  
HETATM    6  C   UNL     1      -7.469  10.372  66.194  1.00  0.00    -0.131 A  
HETATM    7  C   UNL     1      -7.756   9.034  65.883  1.00  0.00    -0.094 A  
HETATM    8  C   UNL     1      -8.933   8.821  65.155  1.00  0.00    -0.152 A  
HETATM    9  C   UNL     1      -9.865   9.843  64.935  1.00  0.00    -0.282 A  
BRANCH   7  10
HETATM   10  C   UNL     1      -6.913   7.830  66.395  1.00  0.00    -0.063 C  
HETATM   11  C   UNL     1      -6.235   8.098  67.816  1.00  0.00    -0.052 C  
HETATM   12  C   UNL     1      -7.208   8.006  69.044  1.00  0.00    -0.078 C  
HETATM   13  C   UNL     1      -8.237   9.163  69.002  1.00  0.00    -0.115 C  
HETATM   14  C   UNL     1      -7.849   6.601  68.917  1.00  0.00    -0.111 C  
HETATM   15  C   UNL     1      -8.491   6.391  70.279  1.00  0.00    -0.135 C  
HETATM   16  C   UNL     1      -8.702   6.391  67.658  1.00  0.00    -0.114 C  
HETATM   17  C   UNL     1      -7.320   6.721  71.187  1.00  0.00    -0.079 C  
HETATM   18  C   UNL     1      -9.498   5.061  67.792  1.00  0.00    -0.159 C  
HETATM   19  C   UNL     1      -9.278   4.029  66.707  1.00  0.00    -0.178 C  
HETATM   20  C   UNL     1      -6.602   7.939  70.527  1.00  0.00    -0.037 C  
HETATM   21  C   UNL     1      -7.778   6.513  66.413  1.00  0.00    -0.099 C  
HETATM   22  O   UNL     1      -5.216   7.614  70.510  1.00  0.00    -0.023 OA 
HETATM   23  C   UNL     1      -9.038   4.722  65.419  1.00  0.00    -0.154 C  
HETATM   24  H   UNL     1      -4.858   7.575  71.389  1.00  0.00     0.000 HD 
HETATM   25  C   UNL     1      -9.591   4.296  64.271  1.00  0.00    -0.126 C  
HETATM   26  C   UNL     1      -7.862   5.599  65.406  1.00  0.00    -0.102 C  
HETATM   27  C   UNL     1      -6.986   5.318  64.197  1.00  0.00    -0.048 C  
HETATM   28  C   UNL     1      -8.570   3.321  63.769  1.00  0.00    -0.089 C  
HETATM   29  C   UNL     1      -7.158   3.873  63.612  1.00  0.00    -0.050 C  
HETATM   30  O   UNL     1      -8.887   2.163  63.522  1.00  0.00    -0.088 OA 
BRANCH  20  31
HETATM   31  C   UNL     1      -6.930   9.153  71.469  1.00  0.00     0.029 C  
HETATM   32  C   UNL     1      -6.158  10.431  71.312  1.00  0.00     0.218 C  
HETATM   33  O   UNL     1      -7.784   9.090  72.360  1.00  0.00    -0.346 OA 
ENDBRANCH  20  31
ENDBRANCH   7  10
ENDBRANCH   2   4
TORSDOF 3
ENDMDL
MODEL       68
REMARK 921   NORMALIZED FREE ENERGY PREDICTED BY IDOCK:   -3.19 KCAL/MOL
REMARK 922        TOTAL FREE ENERGY PREDICTED BY IDOCK:   -4.80 KCAL/MOL
REMARK 923 INTER-LIGAND FREE ENERGY PREDICTED BY IDOCK:   -4.72 KCAL/MOL
REMARK 924 INTRA-LIGAND FREE ENERGY PREDICTED BY IDOCK:   -0.09 KCAL/MOL
REMARK 927      BINDING AFFINITY PREDICTED BY RF-SCORE:    0.00 PKD
ROOT
HETATM    1  C   UNL     1     -11.761  11.588  62.728  1.00  0.00     0.811 C  
HETATM    2  N   UNL     1     -10.540  11.410  63.501  1.00  0.00    -0.396 NA 
HETATM    3  C   UNL     1      -9.299  11.202  62.761  1.00  0.00    -0.351 C  
ENDROOT
BRANCH   2   4
HETATM    4  C   UNL     1     -10.553  11.317  64.888  1.00  0.00    -0.300 A  
HETATM    5  C   UNL     1     -10.371  10.112  65.585  1.00  0.00    -0.210 A  
HETATM    6  C   UNL     1     -10.310  10.054  67.001  1.00  0.00    -0.305 A  
HETATM    7  C   UNL     1     -10.362  11.220  67.780  1.00  0.00    -0.208 A  
HETATM    8  C   UNL     1     -10.693  12.394  67.091  1.00  0.00    -0.264 A  
HETATM    9  C   UNL     1     -10.762  12.440  65.693  1.00  0.00    -0.299 A  
BRANCH   7  10
HETATM   10  C   UNL     1      -9.969  11.270  69.284  1.00  0.00     0.022 C  
HETATM   11  C   UNL     1     -10.212  12.702  69.949  1.00  0.00     1.698 C  
HETATM   12  C   UNL     1     -11.710  13.036  70.277  1.00  0.00    -0.192 C  
HETATM   13  C   UNL     1     -12.524  13.192  68.968  1.00  0.00     0.275 C  
HETATM   14  C   UNL     1     -12.180  11.853  71.160  1.00  0.00    -0.170 C  
HETATM   15  C   UNL     1     -13.482  12.363  71.755  1.00  0.00    -0.261 C  
HETATM   16  C   UNL     1     -12.171  10.483  70.466  1.00  0.00    -0.435 C  
HETATM   17  C   UNL     1     -13.028  13.708  72.293  1.00  0.00    -0.419 C  
HETATM   18  C   UNL     1     -12.915   9.450  71.359  1.00  0.00    -0.421 C  
HETATM   19  C   UNL     1     -12.129   8.225  71.774  1.00  0.00    -0.364 C  
HETATM   20  C   UNL     1     -12.051  14.285  71.222  1.00  0.00    -0.316 C  
HETATM   21  C   UNL     1     -10.704  10.133  70.091  1.00  0.00    -0.355 C  
HETATM   22  O   UNL     1     -10.903  14.727  71.937  1.00  0.00    -0.220 OA 
HETATM   23  C   UNL     1     -11.196   7.854  70.684  1.00  0.00    -0.269 C  
HETATM   24  H   UNL     1     -11.106  15.468  72.497  1.00  0.00     0.000 HD 
HETATM   25  C   UNL     1     -11.005   6.576  70.317  1.00  0.00    -0.365 C  
HETATM   26  C   UNL     1     -10.211   8.887  70.344  1.00  0.00    -0.236 C  
HETATM   27  C   UNL     1      -8.807   8.310  70.300  1.00  0.00    -0.141 C  
HETATM   28  C   UNL     1      -9.889   6.149  71.220  1.00  0.00    -0.176 C  
HETATM   29  C   UNL     1      -8.631   7.008  71.159  1.00  0.00    -0.133 C  
HETATM   30  O   UNL     1     -10.020   5.175  71.952  1.00  0.00    -0.171 OA 
BRANCH  20  31
HETATM   31  C   UNL     1     -12.844  15.467  70.556  1.00  0.00    -0.376 C  
HETATM   32  C   UNL     1     -12.157  16.325  69.533  1.00  0.00     0.220 C  
HETATM   33  O   UNL     1     -14.009  15.739  70.861  1.00  0.00    -0.389 OA 
ENDBRANCH  20  31
ENDBRANCH   7  10
ENDBRANCH   2   4
TORSDOF 3
ENDMDL
MODEL       69
REMARK 921   NORMALIZED FREE ENERGY PREDICTED BY IDOCK:   -3.11 KCAL/MOL
REMARK 922        TOTAL FREE ENERGY PREDICTED BY IDOCK:   -4.71 KCAL/MOL
REMARK 923 INTER-LIGAND FREE ENERGY PREDICTED BY IDOCK:   -3.72 KCAL/MOL
REMARK 924 INTRA-LIGAND FREE ENERGY PREDICTED BY IDOCK:   -0.99 KCAL/MOL
REMARK 927      BINDING AFFINITY PREDICTED BY RF-SCORE:    0.00 PKD
ROOT
HETATM    1  C   UNL     1      -9.164   6.452  71.490  1.00  0.00    -0.144 C  
HETATM    2  N   UNL     1     -10.266   7.243  72.017  1.00  0.00    -0.189 NA 
HETATM    3  C   UNL     1     -11.030   6.678  73.126  1.00  0.00    -0.231 C  
ENDROOT
BRANCH   2   4
HETATM    4  C   UNL     1     -10.668   8.435  71.425  1.00  0.00    -0.237 A  
HETATM    5  C   UNL     1      -9.902   9.123  70.470  1.00  0.00    -0.285 A  
HETATM    6  C   UNL     1     -10.367  10.295  69.822  1.00  0.00    -0.287 A  
HETATM    7  C   UNL     1     -11.658  10.792  70.057  1.00  0.00    -0.417 A  
HETATM    8  C   UNL     1     -12.355  10.193  71.114  1.00  0.00    -0.488 A  
HETATM    9  C   UNL     1     -11.883   9.040  71.756  1.00  0.00    -0.442 A  
BRANCH   7  10
HETATM   10  C   UNL     1     -12.351  11.852  69.153  1.00  0.00     0.030 C  
HETATM   11  C   UNL     1     -13.160  12.951  69.982  1.00  0.00     0.901 C  
HETATM   12  C   UNL     1     -12.274  14.046  70.674  1.00  0.00    -0.442 C  
HETATM   13  C   UNL     1     -11.422  13.413  71.803  1.00  0.00     2.530 C  
HETATM   14  C   UNL     1     -11.428  14.638  69.518  1.00  0.00    -0.334 C  
HETATM   15  C   UNL     1     -10.860  15.911  70.124  1.00  0.00    -0.359 C  
HETATM   16  C   UNL     1     -10.467  13.646  68.847  1.00  0.00    -0.167 C  
HETATM   17  C   UNL     1     -12.128  16.543  70.670  1.00  0.00     0.711 C  
HETATM   18  C   UNL     1      -9.498  14.424  67.910  1.00  0.00    -0.214 C  
HETATM   19  C   UNL     1      -9.489  14.011  66.454  1.00  0.00    -0.278 C  
HETATM   20  C   UNL     1     -12.966  15.367  71.261  1.00  0.00    -0.473 C  
HETATM   21  C   UNL     1     -11.308  12.522  68.180  1.00  0.00    -0.343 C  
HETATM   22  O   UNL     1     -14.286  15.534  70.754  1.00  0.00    -0.863 OA 
HETATM   23  C   UNL     1      -9.734  12.552  66.361  1.00  0.00    -0.253 C  
HETATM   24  H   UNL     1     -14.696  16.317  71.102  1.00  0.00     0.000 HD 
HETATM   25  C   UNL     1      -9.046  11.769  65.513  1.00  0.00     0.013 C  
HETATM   26  C   UNL     1     -11.021  12.113  66.911  1.00  0.00    -0.317 C  
HETATM   27  C   UNL     1     -11.760  11.222  65.928  1.00  0.00     0.536 C  
HETATM   28  C   UNL     1      -9.877  11.841  64.269  1.00  0.00    -0.206 C  
HETATM   29  C   UNL     1     -11.339  11.444  64.433  1.00  0.00    -0.214 C  
HETATM   30  O   UNL     1      -9.379  12.208  63.210  1.00  0.00    -0.186 OA 
BRANCH  20  31
HETATM   31  C   UNL     1     -12.885  15.564  72.818  1.00  0.00    -0.435 C  
HETATM   32  C   UNL     1     -12.087  16.710  73.370  1.00  0.00    -0.375 C  
HETATM   33  O   UNL     1     -13.430  14.793  73.614  1.00  0.00    -0.258 OA 
ENDBRANCH  20  31
ENDBRANCH   7  10
ENDBRANCH   2   4
TORSDOF 3
ENDMDL
MODEL       70
REMARK 921   NORMALIZED FREE ENERGY PREDICTED BY IDOCK:   -3.03 KCAL/MOL
REMARK 922        TOTAL FREE ENERGY PREDICTED BY IDOCK:   -4.62 KCAL/MOL
REMARK 923 INTER-LIGAND FREE ENERGY PREDICTED BY IDOCK:   -3.77 KCAL/MOL
REMARK 924 INTRA-LIGAND FREE ENERGY PREDICTED BY IDOCK:   -0.85 KCAL/MOL
REMARK 927      BINDING AFFINITY PREDICTED BY RF-SCORE:    0.00 PKD
ROOT
HETATM    1  C   UNL     1      -7.112  20.689  67.176  1.00  0.00    -0.331 C  
HETATM    2  N   UNL     1      -8.358  19.958  67.351  1.00  0.00    -0.311 NA 
HETATM    3  C   UNL     1      -9.595  20.734  67.373  1.00  0.00    -0.344 C  
ENDROOT
BRANCH   2   4
HETATM    4  C   UNL     1      -8.382  18.593  67.612  1.00  0.00    -0.267 A  
HETATM    5  C   UNL     1      -7.661  17.990  68.654  1.00  0.00    -0.297 A  
HETATM    6  C   UNL     1      -7.763  16.606  68.949  1.00  0.00    -0.239 A  
HETATM    7  C   UNL     1      -8.651  15.776  68.248  1.00  0.00    -0.170 A  
HETATM    8  C   UNL     1      -9.251  16.348  67.119  1.00  0.00    -0.225 A  
HETATM    9  C   UNL     1      -9.137  17.714  66.829  1.00  0.00    -0.273 A  
BRANCH   7  10
HETATM   10  C   UNL     1      -9.061  14.354  68.726  1.00  0.00    -0.133 C  
HETATM   11  C   UNL     1      -9.699  14.343  70.190  1.00  0.00     1.091 C  
HETATM   12  C   UNL     1     -11.181  14.853  70.272  1.00  0.00    -0.270 C  
HETATM   13  C   UNL     1     -11.247  16.366  69.948  1.00  0.00    -0.253 C  
HETATM   14  C   UNL     1     -11.945  13.968  69.255  1.00  0.00    -0.396 C  
HETATM   15  C   UNL     1     -13.402  14.219  69.607  1.00  0.00     1.484 C  
HETATM   16  C   UNL     1     -11.500  14.129  67.795  1.00  0.00    -0.352 C  
HETATM   17  C   UNL     1     -13.368  13.971  71.105  1.00  0.00    -0.290 C  
HETATM   18  C   UNL     1     -12.516  13.407  66.865  1.00  0.00    -0.114 C  
HETATM   19  C   UNL     1     -11.958  12.330  65.961  1.00  0.00    -0.342 C  
HETATM   20  C   UNL     1     -12.030  14.598  71.607  1.00  0.00    -0.309 C  
HETATM   21  C   UNL     1     -10.019  13.668  67.679  1.00  0.00    -0.239 C  
HETATM   22  O   UNL     1     -11.421  13.610  72.432  1.00  0.00     1.428 OA 
HETATM   23  C   UNL     1     -10.583  12.704  65.549  1.00  0.00    -0.301 C  
HETATM   24  H   UNL     1     -11.925  13.459  73.223  1.00  0.00     0.000 HD 
HETATM   25  C   UNL     1     -10.149  12.535  64.289  1.00  0.00    -0.298 C  
HETATM   26  C   UNL     1      -9.634  12.853  66.657  1.00  0.00    -0.257 C  
HETATM   27  C   UNL     1      -8.357  12.075  66.390  1.00  0.00     0.053 C  
HETATM   28  C   UNL     1      -9.602  11.141  64.325  1.00  0.00    -0.252 C  
HETATM   29  C   UNL     1      -8.541  10.881  65.389  1.00  0.00    -0.123 C  
HETATM   30  O   UNL     1     -10.012  10.293  63.542  1.00  0.00    -0.215 OA 
BRANCH  20  31
HETATM   31  C   UNL     1     -12.467  15.875  72.411  1.00  0.00    -0.474 C  
HETATM   32  C   UNL     1     -13.918  16.071  72.742  1.00  0.00    -0.326 C  
HETATM   33  O   UNL     1     -11.664  16.746  72.760  1.00  0.00    -0.427 OA 
ENDBRANCH  20  31
ENDBRANCH   7  10
ENDBRANCH   2   4
TORSDOF 3
ENDMDL
MODEL       71
REMARK 921   NORMALIZED FREE ENERGY PREDICTED BY IDOCK:   -2.98 KCAL/MOL
REMARK 922        TOTAL FREE ENERGY PREDICTED BY IDOCK:   -4.56 KCAL/MOL
REMARK 923 INTER-LIGAND FREE ENERGY PREDICTED BY IDOCK:   -3.48 KCAL/MOL
REMARK 924 INTRA-LIGAND FREE ENERGY PREDICTED BY IDOCK:   -1.08 KCAL/MOL
REMARK 927      BINDING AFFINITY PREDICTED BY RF-SCORE:    0.00 PKD
ROOT
HETATM    1  C   UNL     1      -6.833  13.350  68.838  1.00  0.00    -0.111 C  
HETATM    2  N   UNL     1      -6.122  12.497  69.780  1.00  0.00    -0.131 NA 
HETATM    3  C   UNL     1      -5.388  13.153  70.859  1.00  0.00    -0.171 C  
ENDROOT
BRANCH   2   4
HETATM    4  C   UNL     1      -6.033  11.121  69.606  1.00  0.00    -0.082 A  
HETATM    5  C   UNL     1      -5.386  10.266  70.512  1.00  0.00    -0.058 A  
HETATM    6  C   UNL     1      -5.376   8.857  70.354  1.00  0.00    -0.020 A  
HETATM    7  C   UNL     1      -6.077   8.237  69.309  1.00  0.00    -0.038 A  
HETATM    8  C   UNL     1      -6.591   9.098  68.330  1.00  0.00    -0.059 A  
HETATM    9  C   UNL     1      -6.587  10.490  68.490  1.00  0.00    -0.055 A  
BRANCH   7  10
HETATM   10  C   UNL     1      -6.389   6.714  69.265  1.00  0.00    -0.035 C  
HETATM   11  C   UNL     1      -7.066   6.172  70.607  1.00  0.00    -0.068 C  
HETATM   12  C   UNL     1      -8.584   6.531  70.776  1.00  0.00    -0.135 C  
HETATM   13  C   UNL     1      -8.757   8.057  70.970  1.00  0.00    -0.146 C  
HETATM   14  C   UNL     1      -9.249   5.992  69.484  1.00  0.00    -0.145 C  
HETATM   15  C   UNL     1     -10.730   6.017  69.823  1.00  0.00    -0.399 C  
HETATM   16  C   UNL     1      -8.776   6.660  68.186  1.00  0.00    -0.117 C  
HETATM   17  C   UNL     1     -10.719   5.284  71.152  1.00  0.00    -0.189 C  
HETATM   18  C   UNL     1      -9.707   6.229  67.017  1.00  0.00    -0.173 C  
HETATM   19  C   UNL     1      -9.042   5.555  65.836  1.00  0.00    -0.163 C  
HETATM   20  C   UNL     1      -9.449   5.789  71.904  1.00  0.00    -0.151 C  
HETATM   21  C   UNL     1      -7.262   6.360  68.001  1.00  0.00    -0.087 C  
HETATM   22  O   UNL     1      -8.789   4.623  72.385  1.00  0.00    -0.117 OA 
HETATM   23  C   UNL     1      -7.690   6.131  65.645  1.00  0.00    -0.092 C  
HETATM   24  H   UNL     1      -9.302   4.184  73.053  1.00  0.00     0.000 HD 
HETATM   25  C   UNL     1      -7.209   6.423  64.425  1.00  0.00    -0.065 C  
HETATM   26  C   UNL     1      -6.786   5.960  66.788  1.00  0.00    -0.059 C  
HETATM   27  C   UNL     1      -5.446   5.399  66.345  1.00  0.00    -0.013 C  
HETATM   28  C   UNL     1      -6.557   5.135  64.025  1.00  0.00    -0.038 C  
HETATM   29  C   UNL     1      -5.510   4.601  64.996  1.00  0.00    -0.013 C  
HETATM   30  O   UNL     1      -6.878   4.574  62.983  1.00  0.00    -0.036 OA 
BRANCH  20  31
HETATM   31  C   UNL     1     -10.005   6.693  73.063  1.00  0.00    -0.174 C  
HETATM   32  C   UNL     1     -11.451   7.098  73.045  1.00  0.00    -0.121 C  
HETATM   33  O   UNL     1      -9.291   7.111  73.979  1.00  0.00    -0.217 OA 
ENDBRANCH  20  31
ENDBRANCH   7  10
ENDBRANCH   2   4
TORSDOF 3
ENDMDL
MODEL       72
REMARK 921   NORMALIZED FREE ENERGY PREDICTED BY IDOCK:   -2.87 KCAL/MOL
REMARK 922        TOTAL FREE ENERGY PREDICTED BY IDOCK:   -4.43 KCAL/MOL
REMARK 923 INTER-LIGAND FREE ENERGY PREDICTED BY IDOCK:   -3.36 KCAL/MOL
REMARK 924 INTRA-LIGAND FREE ENERGY PREDICTED BY IDOCK:   -1.07 KCAL/MOL
REMARK 927      BINDING AFFINITY PREDICTED BY RF-SCORE:    0.00 PKD
ROOT
HETATM    1  C   UNL     1      -8.176  15.968  69.537  1.00  0.00    -0.018 C  
HETATM    2  N   UNL     1      -7.299  14.816  69.685  1.00  0.00    -0.151 NA 
HETATM    3  C   UNL     1      -5.950  15.059  70.189  1.00  0.00    -0.147 C  
ENDROOT
BRANCH   2   4
HETATM    4  C   UNL     1      -7.669  13.547  69.255  1.00  0.00     0.345 A  
HETATM    5  C   UNL     1      -7.123  12.363  69.774  1.00  0.00     0.500 A  
HETATM    6  C   UNL     1      -7.573  11.079  69.376  1.00  0.00    -0.058 A  
HETATM    7  C   UNL     1      -8.644  10.928  68.482  1.00  0.00    -0.152 A  
HETATM    8  C   UNL     1      -9.081  12.103  67.857  1.00  0.00    -0.185 A  
HETATM    9  C   UNL     1      -8.624  13.368  68.250  1.00  0.00    -0.169 A  
BRANCH   7  10
HETATM   10  C   UNL     1      -9.402   9.587  68.262  1.00  0.00    -0.139 C  
HETATM   11  C   UNL     1      -9.275   9.032  66.770  1.00  0.00    -0.198 C  
HETATM   12  C   UNL     1      -7.895   8.369  66.423  1.00  0.00    -0.098 C  
HETATM   13  C   UNL     1      -6.772   9.436  66.423  1.00  0.00    -0.075 C  
HETATM   14  C   UNL     1      -7.713   7.279  67.509  1.00  0.00    -0.111 C  
HETATM   15  C   UNL     1      -6.583   6.427  66.956  1.00  0.00    -0.058 C  
HETATM   16  C   UNL     1      -7.603   7.808  68.946  1.00  0.00    -0.101 C  
HETATM   17  C   UNL     1      -7.101   6.163  65.553  1.00  0.00    -0.069 C  
HETATM   18  C   UNL     1      -7.152   6.655  69.886  1.00  0.00    -0.068 C  
HETATM   19  C   UNL     1      -8.067   6.331  71.047  1.00  0.00    -0.121 C  
HETATM   20  C   UNL     1      -7.751   7.501  65.083  1.00  0.00    -0.111 C  
HETATM   21  C   UNL     1      -8.942   8.508  69.315  1.00  0.00    -0.146 C  
HETATM   22  O   UNL     1      -9.023   7.152  64.549  1.00  0.00    -0.054 OA 
HETATM   23  C   UNL     1      -8.710   7.580  71.522  1.00  0.00    -0.124 C  
HETATM   24  H   UNL     1      -8.938   6.637  63.755  1.00  0.00     0.000 HD 
HETATM   25  C   UNL     1      -8.855   7.850  72.830  1.00  0.00    -0.247 C  
HETATM   26  C   UNL     1      -9.534   8.262  70.518  1.00  0.00    -0.178 C  
HETATM   27  C   UNL     1     -10.904   8.604  71.077  1.00  0.00    -0.302 C  
HETATM   28  C   UNL     1     -10.180   7.223  73.139  1.00  0.00    -0.298 C  
HETATM   29  C   UNL     1     -11.345   7.691  72.274  1.00  0.00    -0.355 C  
HETATM   30  O   UNL     1     -10.278   6.386  74.029  1.00  0.00    -0.272 OA 
BRANCH  20  31
HETATM   31  C   UNL     1      -6.768   8.060  63.993  1.00  0.00    -0.066 C  
HETATM   32  C   UNL     1      -7.264   9.088  63.018  1.00  0.00    -0.091 C  
HETATM   33  O   UNL     1      -5.603   7.665  63.885  1.00  0.00    -0.040 OA 
ENDBRANCH  20  31
ENDBRANCH   7  10
ENDBRANCH   2   4
TORSDOF 3
ENDMDL
MODEL       73
REMARK 921   NORMALIZED FREE ENERGY PREDICTED BY IDOCK:   -2.86 KCAL/MOL
REMARK 922        TOTAL FREE ENERGY PREDICTED BY IDOCK:   -4.41 KCAL/MOL
REMARK 923 INTER-LIGAND FREE ENERGY PREDICTED BY IDOCK:   -3.35 KCAL/MOL
REMARK 924 INTRA-LIGAND FREE ENERGY PREDICTED BY IDOCK:   -1.07 KCAL/MOL
REMARK 927      BINDING AFFINITY PREDICTED BY RF-SCORE:    0.00 PKD
ROOT
HETATM    1  C   UNL     1      -5.427  13.114  72.731  1.00  0.00     0.404 C  
HETATM    2  N   UNL     1      -5.604  13.447  71.325  1.00  0.00    -0.268 NA 
HETATM    3  C   UNL     1      -5.306  14.817  70.916  1.00  0.00    -0.141 C  
ENDROOT
BRANCH   2   4
HETATM    4  C   UNL     1      -6.149  12.547  70.417  1.00  0.00    -0.014 A  
HETATM    5  C   UNL     1      -5.875  11.170  70.431  1.00  0.00    -0.145 A  
HETATM    6  C   UNL     1      -6.504  10.260  69.544  1.00  0.00    -0.060 A  
HETATM    7  C   UNL     1      -7.492  10.687  68.643  1.00  0.00    -0.098 A  
HETATM    8  C   UNL     1      -7.650  12.074  68.530  1.00  0.00    -0.126 A  
HETATM    9  C   UNL     1      -7.016  12.967  69.405  1.00  0.00     0.104 A  
BRANCH   7  10
HETATM   10  C   UNL     1      -8.450   9.719  67.891  1.00  0.00    -0.125 C  
HETATM   11  C   UNL     1      -8.833   8.425  68.747  1.00  0.00    -0.140 C  
HETATM   12  C   UNL     1      -9.889   8.670  69.882  1.00  0.00    -0.185 C  
HETATM   13  C   UNL     1      -9.288   9.571  70.989  1.00  0.00    -0.071 C  
HETATM   14  C   UNL     1     -11.095   9.310  69.150  1.00  0.00    -0.002 C  
HETATM   15  C   UNL     1     -12.215   9.203  70.171  1.00  0.00     0.435 C  
HETATM   16  C   UNL     1     -10.811  10.675  68.505  1.00  0.00    -0.275 C  
HETATM   17  C   UNL     1     -12.114   7.732  70.534  1.00  0.00     0.069 C  
HETATM   18  C   UNL     1     -12.152  11.320  68.055  1.00  0.00     0.053 C  
HETATM   19  C   UNL     1     -12.272  11.676  66.588  1.00  0.00     1.027 C  
HETATM   20  C   UNL     1     -10.587   7.415  70.594  1.00  0.00    -0.223 C  
HETATM   21  C   UNL     1      -9.738  10.480  67.397  1.00  0.00    -0.190 C  
HETATM   22  O   UNL     1     -10.407   6.221  69.840  1.00  0.00    -0.174 OA 
HETATM   23  C   UNL     1     -10.943  12.091  66.079  1.00  0.00    -0.346 C  
HETATM   24  H   UNL     1     -10.821   5.477  70.262  1.00  0.00     0.000 HD 
HETATM   25  C   UNL     1     -10.796  13.143  65.256  1.00  0.00    -0.314 C  
HETATM   26  C   UNL     1      -9.903  11.062  66.175  1.00  0.00    -0.268 C  
HETATM   27  C   UNL     1      -9.174  10.896  64.852  1.00  0.00    -0.230 C  
HETATM   28  C   UNL     1     -10.955  12.514  63.905  1.00  0.00    -0.424 C  
HETATM   29  C   UNL     1     -10.012  11.354  63.607  1.00  0.00    -0.402 C  
HETATM   30  O   UNL     1     -11.804  12.927  63.124  1.00  0.00    -0.506 OA 
BRANCH  20  31
HETATM   31  C   UNL     1     -10.281   7.220  72.122  1.00  0.00    -0.190 C  
HETATM   32  C   UNL     1      -9.034   6.490  72.532  1.00  0.00    -0.136 C  
HETATM   33  O   UNL     1     -11.043   7.621  73.008  1.00  0.00    -0.387 OA 
ENDBRANCH  20  31
ENDBRANCH   7  10
ENDBRANCH   2   4
TORSDOF 3
ENDMDL
MODEL       74
REMARK 921   NORMALIZED FREE ENERGY PREDICTED BY IDOCK:   -2.82 KCAL/MOL
REMARK 922        TOTAL FREE ENERGY PREDICTED BY IDOCK:   -4.37 KCAL/MOL
REMARK 923 INTER-LIGAND FREE ENERGY PREDICTED BY IDOCK:   -4.24 KCAL/MOL
REMARK 924 INTRA-LIGAND FREE ENERGY PREDICTED BY IDOCK:   -0.13 KCAL/MOL
REMARK 927      BINDING AFFINITY PREDICTED BY RF-SCORE:    0.00 PKD
ROOT
HETATM    1  C   UNL     1     -11.861  13.235  68.975  1.00  0.00    -0.321 C  
HETATM    2  N   UNL     1     -11.063  12.608  67.930  1.00  0.00    -0.234 NA 
HETATM    3  C   UNL     1     -10.511  13.477  66.894  1.00  0.00    -0.271 C  
ENDROOT
BRANCH   2   4
HETATM    4  C   UNL     1     -10.924  11.229  67.837  1.00  0.00    -0.248 A  
HETATM    5  C   UNL     1     -10.930  10.530  66.619  1.00  0.00    -0.102 A  
HETATM    6  C   UNL     1     -10.707   9.132  66.543  1.00  0.00     0.040 A  
HETATM    7  C   UNL     1     -10.400   8.381  67.687  1.00  0.00    -0.317 A  
HETATM    8  C   UNL     1     -10.543   9.051  68.909  1.00  0.00    -0.203 A  
HETATM    9  C   UNL     1     -10.774  10.432  68.975  1.00  0.00    -0.260 A  
BRANCH   7  10
HETATM   10  C   UNL     1      -9.821   6.937  67.641  1.00  0.00    -0.164 C  
HETATM   11  C   UNL     1      -9.030   6.621  66.290  1.00  0.00    -0.168 C  
HETATM   12  C   UNL     1      -7.597   7.254  66.195  1.00  0.00    -0.088 C  
HETATM   13  C   UNL     1      -7.696   8.797  66.108  1.00  0.00    -0.101 C  
HETATM   14  C   UNL     1      -6.874   6.751  67.469  1.00  0.00    -0.077 C  
HETATM   15  C   UNL     1      -5.414   7.063  67.183  1.00  0.00    -0.017 C  
HETATM   16  C   UNL     1      -7.486   7.232  68.793  1.00  0.00    -0.102 C  
HETATM   17  C   UNL     1      -5.266   6.435  65.808  1.00  0.00    -0.014 C  
HETATM   18  C   UNL     1      -6.517   6.891  69.961  1.00  0.00    -0.040 C  
HETATM   19  C   UNL     1      -7.075   6.028  71.072  1.00  0.00    -0.069 C  
HETATM   20  C   UNL     1      -6.590   6.759  65.050  1.00  0.00    -0.043 C  
HETATM   21  C   UNL     1      -8.925   6.655  68.907  1.00  0.00    -0.130 C  
HETATM   22  O   UNL     1      -7.020   5.532  64.471  1.00  0.00    -0.047 OA 
HETATM   23  C   UNL     1      -8.512   6.340  71.255  1.00  0.00    -0.124 C  
HETATM   24  H   UNL     1      -6.423   5.239  63.793  1.00  0.00     0.000 HD 
HETATM   25  C   UNL     1      -9.064   6.455  72.475  1.00  0.00    -0.136 C  
HETATM   26  C   UNL     1      -9.347   6.093  70.075  1.00  0.00    -0.166 C  
HETATM   27  C   UNL     1     -10.574   5.273  70.435  1.00  0.00    -0.278 C  
HETATM   28  C   UNL     1      -9.482   5.046  72.768  1.00  0.00    -0.139 C  
HETATM   29  C   UNL     1     -10.396   4.405  71.730  1.00  0.00    -0.141 C  
HETATM   30  O   UNL     1      -9.087   4.479  73.780  1.00  0.00    -0.106 OA 
BRANCH  20  31
HETATM   31  C   UNL     1      -6.181   7.827  63.972  1.00  0.00    -0.057 C  
HETATM   32  C   UNL     1      -5.475   9.077  64.413  1.00  0.00    -0.055 C  
HETATM   33  O   UNL     1      -6.443   7.694  62.773  1.00  0.00    -0.065 OA 
ENDBRANCH  20  31
ENDBRANCH   7  10
ENDBRANCH   2   4
TORSDOF 3
ENDMDL
MODEL       75
REMARK 921   NORMALIZED FREE ENERGY PREDICTED BY IDOCK:   -2.56 KCAL/MOL
REMARK 922        TOTAL FREE ENERGY PREDICTED BY IDOCK:   -4.07 KCAL/MOL
REMARK 923 INTER-LIGAND FREE ENERGY PREDICTED BY IDOCK:   -3.01 KCAL/MOL
REMARK 924 INTRA-LIGAND FREE ENERGY PREDICTED BY IDOCK:   -1.06 KCAL/MOL
REMARK 927      BINDING AFFINITY PREDICTED BY RF-SCORE:    0.00 PKD
ROOT
HETATM    1  C   UNL     1     -10.319  11.188  68.629  1.00  0.00    -0.203 C  
HETATM    2  N   UNL     1     -10.378  10.073  67.695  1.00  0.00    -0.207 NA 
HETATM    3  C   UNL     1     -11.133  10.269  66.460  1.00  0.00     0.225 C  
ENDROOT
BRANCH   2   4
HETATM    4  C   UNL     1      -9.847   8.825  68.001  1.00  0.00    -0.169 A  
HETATM    5  C   UNL     1     -10.222   7.641  67.347  1.00  0.00    -0.320 A  
HETATM    6  C   UNL     1      -9.609   6.393  67.622  1.00  0.00    -0.126 A  
HETATM    7  C   UNL     1      -8.540   6.291  68.525  1.00  0.00    -0.114 A  
HETATM    8  C   UNL     1      -8.273   7.440  69.280  1.00  0.00    -0.131 A  
HETATM    9  C   UNL     1      -8.890   8.667  69.008  1.00  0.00    -0.138 A  
BRANCH   7  10
HETATM   10  C   UNL     1      -7.612   5.045  68.625  1.00  0.00    -0.078 C  
HETATM   11  C   UNL     1      -7.353   4.576  70.130  1.00  0.00    -0.050 C  
HETATM   12  C   UNL     1      -8.545   3.806  70.800  1.00  0.00    -0.110 C  
HETATM   13  C   UNL     1      -9.750   4.757  71.007  1.00  0.00    -0.257 C  
HETATM   14  C   UNL     1      -8.839   2.637  69.827  1.00  0.00    -0.142 C  
HETATM   15  C   UNL     1      -9.724   1.717  70.651  1.00  0.00    -0.099 C  
HETATM   16  C   UNL     1      -9.314   3.062  68.430  1.00  0.00    -0.248 C  
HETATM   17  C   UNL     1      -8.889   1.593  71.913  1.00  0.00    -0.092 C  
HETATM   18  C   UNL     1      -9.830   1.813  67.661  1.00  0.00     0.419 C  
HETATM   19  C   UNL     1      -9.158   1.506  66.340  1.00  0.00    -0.047 C  
HETATM   20  C   UNL     1      -8.301   3.015  72.173  1.00  0.00    -0.069 C  
HETATM   21  C   UNL     1      -8.170   3.863  67.745  1.00  0.00    -0.094 C  
HETATM   22  O   UNL     1      -6.913   2.824  72.425  1.00  0.00    -0.026 OA 
HETATM   23  C   UNL     1      -8.772   2.779  65.684  1.00  0.00    -0.128 C  
HETATM   24  H   UNL     1      -6.769   2.355  73.239  1.00  0.00     0.000 HD 
HETATM   25  C   UNL     1      -8.943   2.979  64.367  1.00  0.00    -0.113 C  
HETATM   26  C   UNL     1      -7.829   3.600  66.452  1.00  0.00    -0.089 C  
HETATM   27  C   UNL     1      -6.657   4.036  65.589  1.00  0.00    -0.044 C  
HETATM   28  C   UNL     1      -7.657   2.464  63.797  1.00  0.00    -0.066 C  
HETATM   29  C   UNL     1      -6.390   3.096  64.362  1.00  0.00    -0.023 C  
HETATM   30  O   UNL     1      -7.664   1.586  62.941  1.00  0.00    -0.047 OA 
BRANCH  20  31
HETATM   31  C   UNL     1      -9.080   3.544  73.430  1.00  0.00    -0.100 C  
HETATM   32  C   UNL     1     -10.341   2.850  73.855  1.00  0.00    -0.220 C  
HETATM   33  O   UNL     1      -8.710   4.532  74.073  1.00  0.00    -0.104 OA 
ENDBRANCH  20  31
ENDBRANCH   7  10
ENDBRANCH   2   4
TORSDOF 3
ENDMDL
MODEL       76
REMARK 921   NORMALIZED FREE ENERGY PREDICTED BY IDOCK:   -2.47 KCAL/MOL
REMARK 922        TOTAL FREE ENERGY PREDICTED BY IDOCK:   -3.95 KCAL/MOL
REMARK 923 INTER-LIGAND FREE ENERGY PREDICTED BY IDOCK:   -4.68 KCAL/MOL
REMARK 924 INTRA-LIGAND FREE ENERGY PREDICTED BY IDOCK:    0.73 KCAL/MOL
REMARK 927      BINDING AFFINITY PREDICTED BY RF-SCORE:    0.00 PKD
ROOT
HETATM    1  C   UNL     1      -7.284   9.478  62.441  1.00  0.00    -0.101 C  
HETATM    2  N   UNL     1      -8.254   8.674  63.171  1.00  0.00    -0.181 NA 
HETATM    3  C   UNL     1      -8.708   7.436  62.543  1.00  0.00     0.349 C  
ENDROOT
BRANCH   2   4
HETATM    4  C   UNL     1      -8.827   9.109  64.360  1.00  0.00    -0.116 A  
HETATM    5  C   UNL     1      -8.970   8.295  65.494  1.00  0.00    -0.114 A  
HETATM    6  C   UNL     1      -9.486   8.783  66.721  1.00  0.00    -0.249 A  
HETATM    7  C   UNL     1      -9.821  10.137  66.882  1.00  0.00    -0.244 A  
HETATM    8  C   UNL     1      -9.819  10.905  65.711  1.00  0.00    -0.286 A  
HETATM    9  C   UNL     1      -9.316  10.410  64.500  1.00  0.00    -0.313 A  
BRANCH   7  10
HETATM   10  C   UNL     1     -10.067  10.805  68.265  1.00  0.00    -0.187 C  
HETATM   11  C   UNL     1     -10.633   9.790  69.361  1.00  0.00    -0.248 C  
HETATM   12  C   UNL     1      -9.570   8.807  69.967  1.00  0.00    -0.177 C  
HETATM   13  C   UNL     1      -9.082   7.811  68.887  1.00  0.00    -0.141 C  
HETATM   14  C   UNL     1      -8.452   9.738  70.502  1.00  0.00    -0.002 C  
HETATM   15  C   UNL     1      -7.631   8.816  71.388  1.00  0.00    -0.131 C  
HETATM   16  C   UNL     1      -7.732  10.565  69.428  1.00  0.00    -0.157 C  
HETATM   17  C   UNL     1      -8.729   8.213  72.247  1.00  0.00    -0.243 C  
HETATM   18  C   UNL     1      -6.473  11.232  70.053  1.00  0.00    -0.114 C  
HETATM   19  C   UNL     1      -6.395  12.741  69.968  1.00  0.00     0.013 C  
HETATM   20  C   UNL     1      -9.932   7.968  71.284  1.00  0.00    -0.174 C  
HETATM   21  C   UNL     1      -8.763  11.528  68.775  1.00  0.00    -0.048 C  
HETATM   22  O   UNL     1     -11.076   8.499  71.944  1.00  0.00    -0.279 OA 
HETATM   23  C   UNL     1      -7.027  13.191  68.704  1.00  0.00    -0.102 C  
HETATM   24  H   UNL     1     -11.290   8.002  72.724  1.00  0.00     0.000 HD 
HETATM   25  C   UNL     1      -6.484  14.156  67.944  1.00  0.00    -0.174 C  
HETATM   26  C   UNL     1      -8.444  12.837  68.571  1.00  0.00    -0.044 C  
HETATM   27  C   UNL     1      -9.273  14.046  68.170  1.00  0.00    -0.196 C  
HETATM   28  C   UNL     1      -7.096  15.396  68.520  1.00  0.00    -0.114 C  
HETATM   29  C   UNL     1      -8.619  15.418  68.560  1.00  0.00    -0.172 C  
HETATM   30  O   UNL     1      -6.385  16.306  68.931  1.00  0.00    -0.128 OA 
BRANCH  20  31
HETATM   31  C   UNL     1      -9.998   6.406  71.120  1.00  0.00    -0.180 C  
HETATM   32  C   UNL     1     -11.130   5.799  70.342  1.00  0.00    -0.287 C  
HETATM   33  O   UNL     1      -9.167   5.650  71.631  1.00  0.00    -0.142 OA 
ENDBRANCH  20  31
ENDBRANCH   7  10
ENDBRANCH   2   4
TORSDOF 3
ENDMDL
MODEL       77
REMARK 921   NORMALIZED FREE ENERGY PREDICTED BY IDOCK:   -2.42 KCAL/MOL
REMARK 922        TOTAL FREE ENERGY PREDICTED BY IDOCK:   -3.89 KCAL/MOL
REMARK 923 INTER-LIGAND FREE ENERGY PREDICTED BY IDOCK:   -3.42 KCAL/MOL
REMARK 924 INTRA-LIGAND FREE ENERGY PREDICTED BY IDOCK:   -0.48 KCAL/MOL
REMARK 927      BINDING AFFINITY PREDICTED BY RF-SCORE:    0.00 PKD
ROOT
HETATM    1  C   UNL     1      -9.652  20.464  65.387  1.00  0.00     0.514 C  
HETATM    2  N   UNL     1      -8.553  19.624  65.840  1.00  0.00    -0.408 NA 
HETATM    3  C   UNL     1      -7.221  19.920  65.318  1.00  0.00    -0.127 C  
ENDROOT
BRANCH   2   4
HETATM    4  C   UNL     1      -8.760  18.508  66.641  1.00  0.00    -0.287 A  
HETATM    5  C   UNL     1      -8.626  17.188  66.181  1.00  0.00    -0.222 A  
HETATM    6  C   UNL     1      -8.765  16.066  67.037  1.00  0.00    -0.236 A  
HETATM    7  C   UNL     1      -8.980  16.224  68.414  1.00  0.00    -0.203 A  
HETATM    8  C   UNL     1      -9.261  17.529  68.838  1.00  0.00    -0.153 A  
HETATM    9  C   UNL     1      -9.131  18.631  67.983  1.00  0.00    -0.327 A  
BRANCH   7  10
HETATM   10  C   UNL     1      -8.809  15.076  69.450  1.00  0.00    -0.115 C  
HETATM   11  C   UNL     1      -9.871  15.142  70.641  1.00  0.00     0.716 C  
HETATM   12  C   UNL     1     -11.318  14.660  70.269  1.00  0.00    -0.253 C  
HETATM   13  C   UNL     1     -11.967  15.638  69.259  1.00  0.00    -0.338 C  
HETATM   14  C   UNL     1     -11.109  13.233  69.701  1.00  0.00    -0.001 C  
HETATM   15  C   UNL     1     -12.515  12.657  69.690  1.00  0.00     0.120 C  
HETATM   16  C   UNL     1     -10.272  13.164  68.416  1.00  0.00    -0.247 C  
HETATM   17  C   UNL     1     -12.946  12.960  71.114  1.00  0.00    -0.259 C  
HETATM   18  C   UNL     1     -10.374  11.734  67.813  1.00  0.00    -0.211 C  
HETATM   19  C   UNL     1      -9.071  10.989  67.614  1.00  0.00    -0.145 C  
HETATM   20  C   UNL     1     -12.380  14.378  71.435  1.00  0.00    -0.360 C  
HETATM   21  C   UNL     1      -8.838  13.671  68.736  1.00  0.00     0.076 C  
HETATM   22  O   UNL     1     -11.745  14.268  72.705  1.00  0.00     0.184 OA 
HETATM   23  C   UNL     1      -8.005  11.959  67.266  1.00  0.00    -0.171 C  
HETATM   24  H   UNL     1     -12.376  14.102  73.396  1.00  0.00     0.000 HD 
HETATM   25  C   UNL     1      -7.097  11.702  66.309  1.00  0.00     0.238 C  
HETATM   26  C   UNL     1      -7.751  12.981  68.287  1.00  0.00    -0.141 C  
HETATM   27  C   UNL     1      -6.268  13.085  68.599  1.00  0.00    -0.079 C  
HETATM   28  C   UNL     1      -6.014  11.009  67.078  1.00  0.00    -0.077 C  
HETATM   29  C   UNL     1      -5.460  11.781  68.270  1.00  0.00    -0.042 C  
HETATM   30  O   UNL     1      -5.632   9.893  66.744  1.00  0.00    -0.045 OA 
BRANCH  20  31
HETATM   31  C   UNL     1     -13.644  15.312  71.467  1.00  0.00    -0.504 C  
HETATM   32  C   UNL     1     -14.034  15.971  72.759  1.00  0.00    -0.326 C  
HETATM   33  O   UNL     1     -14.351  15.506  70.474  1.00  0.00     0.013 OA 
ENDBRANCH  20  31
ENDBRANCH   7  10
ENDBRANCH   2   4
TORSDOF 3
ENDMDL
MODEL       78
REMARK 921   NORMALIZED FREE ENERGY PREDICTED BY IDOCK:   -2.30 KCAL/MOL
REMARK 922        TOTAL FREE ENERGY PREDICTED BY IDOCK:   -3.76 KCAL/MOL
REMARK 923 INTER-LIGAND FREE ENERGY PREDICTED BY IDOCK:   -3.44 KCAL/MOL
REMARK 924 INTRA-LIGAND FREE ENERGY PREDICTED BY IDOCK:   -0.32 KCAL/MOL
REMARK 927      BINDING AFFINITY PREDICTED BY RF-SCORE:    0.00 PKD
ROOT
HETATM    1  C   UNL     1      -5.834   3.931  73.968  1.00  0.00    -0.004 C  
HETATM    2  N   UNL     1      -5.895   3.574  72.558  1.00  0.00    -0.008 NA 
HETATM    3  C   UNL     1      -5.246   2.330  72.152  1.00  0.00     0.000 C  
ENDROOT
BRANCH   2   4
HETATM    4  C   UNL     1      -6.437   4.427  71.604  1.00  0.00    -0.019 A  
HETATM    5  C   UNL     1      -6.523   4.108  70.240  1.00  0.00    -0.032 A  
HETATM    6  C   UNL     1      -7.151   4.961  69.297  1.00  0.00    -0.055 A  
HETATM    7  C   UNL     1      -7.784   6.147  69.699  1.00  0.00    -0.098 A  
HETATM    8  C   UNL     1      -7.566   6.531  71.028  1.00  0.00    -0.089 A  
HETATM    9  C   UNL     1      -6.935   5.686  71.950  1.00  0.00    -0.076 A  
BRANCH   7  10
HETATM   10  C   UNL     1      -8.767   6.948  68.796  1.00  0.00    -0.129 C  
HETATM   11  C   UNL     1      -8.828   8.502  69.159  1.00  0.00    -0.142 C  
HETATM   12  C   UNL     1      -7.602   9.348  68.664  1.00  0.00    -0.080 C  
HETATM   13  C   UNL     1      -6.319   8.932  69.426  1.00  0.00    -0.044 C  
HETATM   14  C   UNL     1      -7.537   9.069  67.142  1.00  0.00    -0.091 C  
HETATM   15  C   UNL     1      -6.601  10.152  66.632  1.00  0.00    -0.075 C  
HETATM   16  C   UNL     1      -7.251   7.608  66.764  1.00  0.00    -0.088 C  
HETATM   17  C   UNL     1      -7.243  11.381  67.252  1.00  0.00    -0.119 C  
HETATM   18  C   UNL     1      -6.940   7.522  65.242  1.00  0.00    -0.059 C  
HETATM   19  C   UNL     1      -7.822   6.606  64.423  1.00  0.00    -0.114 C  
HETATM   20  C   UNL     1      -7.689  10.949  68.683  1.00  0.00    -0.122 C  
HETATM   21  C   UNL     1      -8.428   6.730  67.273  1.00  0.00    -0.120 C  
HETATM   22  O   UNL     1      -9.033  11.397  68.826  1.00  0.00    -0.281 OA 
HETATM   23  C   UNL     1      -8.217   5.442  65.252  1.00  0.00    -0.133 C  
HETATM   24  H   UNL     1      -9.084  12.345  68.837  1.00  0.00     0.000 HD 
HETATM   25  C   UNL     1      -8.233   4.192  64.759  1.00  0.00    -0.102 C  
HETATM   26  C   UNL     1      -8.977   5.783  66.460  1.00  0.00    -0.128 C  
HETATM   27  C   UNL     1     -10.233   4.936  66.572  1.00  0.00    -0.305 C  
HETATM   28  C   UNL     1      -9.622   4.086  64.208  1.00  0.00    -0.166 C  
HETATM   29  C   UNL     1     -10.744   4.379  65.197  1.00  0.00    -0.144 C  
HETATM   30  O   UNL     1      -9.802   3.789  63.032  1.00  0.00    -0.136 OA 
BRANCH  20  31
HETATM   31  C   UNL     1      -6.696  11.690  69.650  1.00  0.00    -0.059 C  
HETATM   32  C   UNL     1      -6.078  12.985  69.211  1.00  0.00    -0.098 C  
HETATM   33  O   UNL     1      -6.379  11.233  70.753  1.00  0.00    -0.320 OA 
ENDBRANCH  20  31
ENDBRANCH   7  10
ENDBRANCH   2   4
TORSDOF 3
ENDMDL
MODEL       79
REMARK 921   NORMALIZED FREE ENERGY PREDICTED BY IDOCK:   -2.29 KCAL/MOL
REMARK 922        TOTAL FREE ENERGY PREDICTED BY IDOCK:   -3.75 KCAL/MOL
REMARK 923 INTER-LIGAND FREE ENERGY PREDICTED BY IDOCK:   -4.36 KCAL/MOL
REMARK 924 INTRA-LIGAND FREE ENERGY PREDICTED BY IDOCK:    0.61 KCAL/MOL
REMARK 927      BINDING AFFINITY PREDICTED BY RF-SCORE:    0.00 PKD
ROOT
HETATM    1  C   UNL     1      -6.198   9.971  62.675  1.00  0.00    -0.120 C  
HETATM    2  N   UNL     1      -6.428   8.930  63.666  1.00  0.00    -0.088 NA 
HETATM    3  C   UNL     1      -6.586   7.562  63.179  1.00  0.00    -0.058 C  
ENDROOT
BRANCH   2   4
HETATM    4  C   UNL     1      -6.615   9.221  65.012  1.00  0.00    -0.077 A  
HETATM    5  C   UNL     1      -5.986  10.291  65.668  1.00  0.00    -0.103 A  
HETATM    6  C   UNL     1      -6.253  10.616  67.022  1.00  0.00    -0.069 A  
HETATM    7  C   UNL     1      -7.219   9.916  67.762  1.00  0.00    -0.088 A  
HETATM    8  C   UNL     1      -7.729   8.762  67.153  1.00  0.00    -0.096 A  
HETATM    9  C   UNL     1      -7.452   8.444  65.817  1.00  0.00    -0.077 A  
BRANCH   7  10
HETATM   10  C   UNL     1      -7.798  10.419  69.115  1.00  0.00    -0.134 C  
HETATM   11  C   UNL     1      -8.570  11.812  68.989  1.00  0.00     0.228 C  
HETATM   12  C   UNL     1     -10.000  11.723  68.350  1.00  0.00    -0.202 C  
HETATM   13  C   UNL     1      -9.898  11.323  66.858  1.00  0.00    -0.220 C  
HETATM   14  C   UNL     1     -10.743  10.679  69.222  1.00  0.00    -0.275 C  
HETATM   15  C   UNL     1     -12.198  10.873  68.828  1.00  0.00     0.036 C  
HETATM   16  C   UNL     1     -10.150   9.264  69.182  1.00  0.00    -0.204 C  
HETATM   17  C   UNL     1     -12.327  12.377  68.994  1.00  0.00     0.164 C  
HETATM   18  C   UNL     1     -11.135   8.274  69.865  1.00  0.00    -0.100 C  
HETATM   19  C   UNL     1     -10.595   7.481  71.035  1.00  0.00    -0.230 C  
HETATM   20  C   UNL     1     -10.991  12.979  68.457  1.00  0.00    -0.263 C  
HETATM   21  C   UNL     1      -8.712   9.317  69.773  1.00  0.00    -0.168 C  
HETATM   22  O   UNL     1     -10.554  13.906  69.445  1.00  0.00    -0.431 OA 
HETATM   23  C   UNL     1      -9.159   7.189  70.804  1.00  0.00    -0.153 C  
HETATM   24  H   UNL     1     -11.142  14.650  69.508  1.00  0.00     0.000 HD 
HETATM   25  C   UNL     1      -8.626   5.987  71.079  1.00  0.00    -0.131 C  
HETATM   26  C   UNL     1      -8.308   8.377  70.675  1.00  0.00    -0.129 C  
HETATM   27  C   UNL     1      -7.088   8.274  71.573  1.00  0.00    -0.078 C  
HETATM   28  C   UNL     1      -8.213   6.144  72.510  1.00  0.00    -0.108 C  
HETATM   29  C   UNL     1      -7.285   7.318  72.801  1.00  0.00    -0.073 C  
HETATM   30  O   UNL     1      -8.623   5.364  73.364  1.00  0.00    -0.116 OA 
BRANCH  20  31
HETATM   31  C   UNL     1     -11.384  13.674  67.104  1.00  0.00    -0.319 C  
HETATM   32  C   UNL     1     -11.122  12.958  65.810  1.00  0.00    -0.312 C  
HETATM   33  O   UNL     1     -11.876  14.806  67.057  1.00  0.00    -0.362 OA 
ENDBRANCH  20  31
ENDBRANCH   7  10
ENDBRANCH   2   4
TORSDOF 3
ENDMDL
MODEL       80
REMARK 921   NORMALIZED FREE ENERGY PREDICTED BY IDOCK:   -2.27 KCAL/MOL
REMARK 922        TOTAL FREE ENERGY PREDICTED BY IDOCK:   -3.72 KCAL/MOL
REMARK 923 INTER-LIGAND FREE ENERGY PREDICTED BY IDOCK:   -4.34 KCAL/MOL
REMARK 924 INTRA-LIGAND FREE ENERGY PREDICTED BY IDOCK:    0.62 KCAL/MOL
REMARK 927      BINDING AFFINITY PREDICTED BY RF-SCORE:    0.00 PKD
ROOT
HETATM    1  C   UNL     1      -9.969  18.461  67.607  1.00  0.00    -0.338 C  
HETATM    2  N   UNL     1      -8.735  17.986  66.999  1.00  0.00    -0.241 NA 
HETATM    3  C   UNL     1      -7.972  18.936  66.194  1.00  0.00    -0.235 C  
ENDROOT
BRANCH   2   4
HETATM    4  C   UNL     1      -8.343  16.654  67.069  1.00  0.00    -0.187 A  
HETATM    5  C   UNL     1      -7.246  16.207  67.822  1.00  0.00    -0.157 A  
HETATM    6  C   UNL     1      -6.913  14.834  67.941  1.00  0.00    -0.173 A  
HETATM    7  C   UNL     1      -7.713  13.839  67.361  1.00  0.00    -0.158 A  
HETATM    8  C   UNL     1      -8.713  14.295  66.492  1.00  0.00    -0.011 A  
HETATM    9  C   UNL     1      -9.028  15.655  66.372  1.00  0.00    -0.362 A  
BRANCH   7  10
HETATM   10  C   UNL     1      -7.609  12.329  67.723  1.00  0.00    -0.131 C  
HETATM   11  C   UNL     1      -8.443  11.938  69.028  1.00  0.00     0.255 C  
HETATM   12  C   UNL     1      -9.995  11.833  68.819  1.00  0.00    -0.128 C  
HETATM   13  C   UNL     1     -10.590  13.230  68.513  1.00  0.00    -0.270 C  
HETATM   14  C   UNL     1     -10.154  10.824  67.654  1.00  0.00    -0.205 C  
HETATM   15  C   UNL     1     -11.630  10.465  67.709  1.00  0.00     0.160 C  
HETATM   16  C   UNL     1      -9.555  11.279  66.316  1.00  0.00    -0.235 C  
HETATM   17  C   UNL     1     -11.770  10.109  69.179  1.00  0.00    -0.027 C  
HETATM   18  C   UNL     1     -10.021  10.315  65.189  1.00  0.00    -0.395 C  
HETATM   19  C   UNL     1      -8.933   9.622  64.397  1.00  0.00    -0.276 C  
HETATM   20  C   UNL     1     -10.899  11.148  69.951  1.00  0.00    -0.006 C  
HETATM   21  C   UNL     1      -8.017  11.431  66.494  1.00  0.00    -0.128 C  
HETATM   22  O   UNL     1     -10.110  10.395  70.865  1.00  0.00    -0.001 OA 
HETATM   23  C   UNL     1      -7.766  10.530  64.278  1.00  0.00     0.045 C  
HETATM   24  H   UNL     1     -10.646   9.990  71.536  1.00  0.00     0.000 HD 
HETATM   25  C   UNL     1      -7.083  10.659  63.128  1.00  0.00     0.096 C  
HETATM   26  C   UNL     1      -7.167  10.925  65.557  1.00  0.00     0.116 C  
HETATM   27  C   UNL     1      -5.661  10.722  65.539  1.00  0.00    -0.126 C  
HETATM   28  C   UNL     1      -6.048   9.583  63.251  1.00  0.00    -0.094 C  
HETATM   29  C   UNL     1      -5.180   9.648  64.502  1.00  0.00    -0.060 C  
HETATM   30  O   UNL     1      -5.945   8.720  62.387  1.00  0.00    -0.090 OA 
BRANCH  20  31
HETATM   31  C   UNL     1     -11.939  12.081  70.671  1.00  0.00    -0.160 C  
HETATM   32  C   UNL     1     -12.955  11.469  71.592  1.00  0.00    -0.499 C  
HETATM   33  O   UNL     1     -11.974  13.302  70.488  1.00  0.00    -0.325 OA 
ENDBRANCH  20  31
ENDBRANCH   7  10
ENDBRANCH   2   4
TORSDOF 3
ENDMDL
MODEL       81
REMARK 921   NORMALIZED FREE ENERGY PREDICTED BY IDOCK:   -2.25 KCAL/MOL
REMARK 922        TOTAL FREE ENERGY PREDICTED BY IDOCK:   -3.70 KCAL/MOL
REMARK 923 INTER-LIGAND FREE ENERGY PREDICTED BY IDOCK:   -3.65 KCAL/MOL
REMARK 924 INTRA-LIGAND FREE ENERGY PREDICTED BY IDOCK:   -0.04 KCAL/MOL
REMARK 927      BINDING AFFINITY PREDICTED BY RF-SCORE:    0.00 PKD
ROOT
HETATM    1  C   UNL     1     -12.607  15.324  69.991  1.00  0.00    -0.242 C  
HETATM    2  N   UNL     1     -11.622  15.417  68.923  1.00  0.00    -0.336 NA 
HETATM    3  C   UNL     1     -11.778  16.502  67.958  1.00  0.00     0.326 C  
ENDROOT
BRANCH   2   4
HETATM    4  C   UNL     1     -10.639  14.451  68.740  1.00  0.00    -0.254 A  
HETATM    5  C   UNL     1      -9.465  14.386  69.506  1.00  0.00     0.368 A  
HETATM    6  C   UNL     1      -8.514  13.346  69.354  1.00  0.00     0.959 A  
HETATM    7  C   UNL     1      -8.735  12.282  68.466  1.00  0.00    -0.071 A  
HETATM    8  C   UNL     1      -9.828  12.431  67.603  1.00  0.00    -0.198 A  
HETATM    9  C   UNL     1     -10.758  13.468  67.754  1.00  0.00    -0.262 A  
BRANCH   7  10
HETATM   10  C   UNL     1      -7.920  10.957  68.489  1.00  0.00    -0.134 C  
HETATM   11  C   UNL     1      -8.186  10.078  69.795  1.00  0.00    -0.191 C  
HETATM   12  C   UNL     1      -9.549   9.300  69.806  1.00  0.00    -0.203 C  
HETATM   13  C   UNL     1     -10.734  10.293  69.889  1.00  0.00    -0.344 C  
HETATM   14  C   UNL     1      -9.525   8.473  68.495  1.00  0.00    -0.146 C  
HETATM   15  C   UNL     1     -10.652   7.474  68.698  1.00  0.00    -0.171 C  
HETATM   16  C   UNL     1      -9.498   9.305  67.206  1.00  0.00    -0.181 C  
HETATM   17  C   UNL     1     -10.288   6.925  70.066  1.00  0.00    -0.219 C  
HETATM   18  C   UNL     1      -9.754   8.373  65.987  1.00  0.00    -0.146 C  
HETATM   19  C   UNL     1      -8.686   8.354  64.914  1.00  0.00    -0.053 C  
HETATM   20  C   UNL     1      -9.792   8.149  70.895  1.00  0.00    -0.176 C  
HETATM   21  C   UNL     1      -8.176  10.123  67.176  1.00  0.00    -0.121 C  
HETATM   22  O   UNL     1      -8.572   7.741  71.504  1.00  0.00    -0.112 OA 
HETATM   23  C   UNL     1      -8.077   9.702  64.810  1.00  0.00    -0.139 C  
HETATM   24  H   UNL     1      -8.717   7.059  72.150  1.00  0.00     0.000 HD 
HETATM   25  C   UNL     1      -7.796  10.263  63.622  1.00  0.00    -0.125 C  
HETATM   26  C   UNL     1      -7.429  10.176  66.037  1.00  0.00    -0.118 C  
HETATM   27  C   UNL     1      -6.027  10.689  65.751  1.00  0.00    -0.137 C  
HETATM   28  C   UNL     1      -6.404   9.775  63.362  1.00  0.00    -0.114 C  
HETATM   29  C   UNL     1      -5.386  10.084  64.453  1.00  0.00    -0.092 C  
HETATM   30  O   UNL     1      -6.143   9.162  62.333  1.00  0.00    -0.094 OA 
BRANCH  20  31
HETATM   31  C   UNL     1     -10.935   8.411  71.941  1.00  0.00    -0.305 C  
HETATM   32  C   UNL     1     -10.807   7.836  73.323  1.00  0.00    -0.312 C  
HETATM   33  O   UNL     1     -11.955   9.049  71.665  1.00  0.00    -0.309 OA 
ENDBRANCH  20  31
ENDBRANCH   7  10
ENDBRANCH   2   4
TORSDOF 3
ENDMDL
MODEL       82
REMARK 921   NORMALIZED FREE ENERGY PREDICTED BY IDOCK:   -2.05 KCAL/MOL
REMARK 922        TOTAL FREE ENERGY PREDICTED BY IDOCK:   -3.47 KCAL/MOL
REMARK 923 INTER-LIGAND FREE ENERGY PREDICTED BY IDOCK:   -4.07 KCAL/MOL
REMARK 924 INTRA-LIGAND FREE ENERGY PREDICTED BY IDOCK:    0.60 KCAL/MOL
REMARK 927      BINDING AFFINITY PREDICTED BY RF-SCORE:    0.00 PKD
ROOT
HETATM    1  C   UNL     1      -6.002  15.035  68.776  1.00  0.00    -0.084 C  
HETATM    2  N   UNL     1      -6.182  13.720  69.374  1.00  0.00    -0.102 NA 
HETATM    3  C   UNL     1      -5.374  13.399  70.548  1.00  0.00    -0.136 C  
ENDROOT
BRANCH   2   4
HETATM    4  C   UNL     1      -6.994  12.751  68.796  1.00  0.00    -0.096 A  
HETATM    5  C   UNL     1      -6.574  11.434  68.550  1.00  0.00    -0.062 A  
HETATM    6  C   UNL     1      -7.445  10.443  68.031  1.00  0.00    -0.090 A  
HETATM    7  C   UNL     1      -8.801  10.715  67.799  1.00  0.00    -0.133 A  
HETATM    8  C   UNL     1      -9.176  12.061  67.903  1.00  0.00    -0.190 A  
HETATM    9  C   UNL     1      -8.306  13.036  68.407  1.00  0.00    -0.118 A  
BRANCH   7  10
HETATM   10  C   UNL     1      -9.873   9.613  67.559  1.00  0.00    -0.213 C  
HETATM   11  C   UNL     1      -9.479   8.599  66.388  1.00  0.00    -0.295 C  
HETATM   12  C   UNL     1      -8.393   7.533  66.771  1.00  0.00    -0.126 C  
HETATM   13  C   UNL     1      -7.028   8.221  67.018  1.00  0.00    -0.071 C  
HETATM   14  C   UNL     1      -8.971   6.835  68.028  1.00  0.00    -0.117 C  
HETATM   15  C   UNL     1      -8.105   5.593  68.162  1.00  0.00    -0.097 C  
HETATM   16  C   UNL     1      -9.149   7.747  69.250  1.00  0.00    -0.145 C  
HETATM   17  C   UNL     1      -8.202   5.039  66.752  1.00  0.00    -0.107 C  
HETATM   18  C   UNL     1      -9.466   6.877  70.499  1.00  0.00    -0.169 C  
HETATM   19  C   UNL     1     -10.758   7.182  71.226  1.00  0.00    -0.245 C  
HETATM   20  C   UNL     1      -8.145   6.278  65.805  1.00  0.00    -0.126 C  
HETATM   21  C   UNL     1     -10.192   8.844  68.897  1.00  0.00    -0.220 C  
HETATM   22  O   UNL     1      -9.213   6.113  64.879  1.00  0.00    -0.258 OA 
HETATM   23  C   UNL     1     -11.030   8.637  71.142  1.00  0.00    -0.320 C  
HETATM   24  H   UNL     1      -9.066   5.369  64.307  1.00  0.00     0.000 HD 
HETATM   25  C   UNL     1     -11.482   9.337  72.197  1.00  0.00    -0.126 C  
HETATM   26  C   UNL     1     -11.186   9.152  69.777  1.00  0.00    -0.073 C  
HETATM   27  C   UNL     1     -12.447   9.990  69.651  1.00  0.00     0.385 C  
HETATM   28  C   UNL     1     -12.967   9.199  72.056  1.00  0.00    -0.424 C  
HETATM   29  C   UNL     1     -13.544   9.648  70.719  1.00  0.00     0.033 C  
HETATM   30  O   UNL     1     -13.638   8.742  72.975  1.00  0.00    -0.246 OA 
BRANCH  20  31
HETATM   31  C   UNL     1      -6.732   6.192  65.123  1.00  0.00    -0.044 C  
HETATM   32  C   UNL     1      -5.751   5.160  65.599  1.00  0.00    -0.018 C  
HETATM   33  O   UNL     1      -6.381   6.962  64.223  1.00  0.00    -0.035 OA 
ENDBRANCH  20  31
ENDBRANCH   7  10
ENDBRANCH   2   4
TORSDOF 3
ENDMDL
MODEL       83
REMARK 921   NORMALIZED FREE ENERGY PREDICTED BY IDOCK:   -1.16 KCAL/MOL
REMARK 922        TOTAL FREE ENERGY PREDICTED BY IDOCK:   -2.42 KCAL/MOL
REMARK 923 INTER-LIGAND FREE ENERGY PREDICTED BY IDOCK:   -1.50 KCAL/MOL
REMARK 924 INTRA-LIGAND FREE ENERGY PREDICTED BY IDOCK:   -0.91 KCAL/MOL
REMARK 927      BINDING AFFINITY PREDICTED BY RF-SCORE:    0.00 PKD
ROOT
HETATM    1  C   UNL     1     -14.048  15.784  72.337  1.00  0.00    -0.403 C  
HETATM    2  N   UNL     1     -12.596  15.793  72.447  1.00  0.00    -0.419 NA 
HETATM    3  C   UNL     1     -12.012  16.493  73.588  1.00  0.00    -0.273 C  
ENDROOT
BRANCH   2   4
HETATM    4  C   UNL     1     -11.778  15.268  71.453  1.00  0.00    -0.389 A  
HETATM    5  C   UNL     1     -12.230  14.375  70.469  1.00  0.00    -0.411 A  
HETATM    6  C   UNL     1     -11.397  13.915  69.419  1.00  0.00    -0.311 A  
HETATM    7  C   UNL     1     -10.083  14.387  69.272  1.00  0.00    -0.038 A  
HETATM    8  C   UNL     1      -9.594  15.155  70.336  1.00  0.00     0.579 A  
HETATM    9  C   UNL     1     -10.422  15.598  71.375  1.00  0.00     0.716 A  
BRANCH   7  10
HETATM   10  C   UNL     1      -9.237  14.194  67.981  1.00  0.00    -0.195 C  
HETATM   11  C   UNL     1      -7.736  13.735  68.277  1.00  0.00    -0.138 C  
HETATM   12  C   UNL     1      -7.570  12.226  68.673  1.00  0.00    -0.089 C  
HETATM   13  C   UNL     1      -8.222  11.957  70.052  1.00  0.00     2.520 C  
HETATM   14  C   UNL     1      -8.238  11.450  67.510  1.00  0.00    -0.130 C  
HETATM   15  C   UNL     1      -7.755  10.025  67.723  1.00  0.00    -0.090 C  
HETATM   16  C   UNL     1      -9.743  11.703  67.345  1.00  0.00    -0.186 C  
HETATM   17  C   UNL     1      -6.260  10.260  67.851  1.00  0.00    -0.059 C  
HETATM   18  C   UNL     1     -10.331  10.671  66.341  1.00  0.00    -0.291 C  
HETATM   19  C   UNL     1     -11.030  11.235  65.123  1.00  0.00    -0.216 C  
HETATM   20  C   UNL     1      -6.107  11.570  68.685  1.00  0.00    -0.047 C  
HETATM   21  C   UNL     1      -9.953  13.202  66.988  1.00  0.00    -0.244 C  
HETATM   22  O   UNL     1      -5.169  12.375  67.979  1.00  0.00    -0.059 OA 
HETATM   23  C   UNL     1     -11.703  12.503  65.492  1.00  0.00    -0.457 C  
HETATM   24  H   UNL     1      -4.302  11.986  67.986  1.00  0.00     0.000 HD 
HETATM   25  C   UNL     1     -12.938  12.804  65.057  1.00  0.00    -0.122 C  
HETATM   26  C   UNL     1     -10.803  13.553  65.981  1.00  0.00    -0.282 C  
HETATM   27  C   UNL     1     -11.057  14.868  65.264  1.00  0.00    -0.382 C  
HETATM   28  C   UNL     1     -12.656  13.501  63.761  1.00  0.00    -0.074 C  
HETATM   29  C   UNL     1     -11.719  14.700  63.852  1.00  0.00     0.129 C  
HETATM   30  O   UNL     1     -13.158  13.098  62.717  1.00  0.00     0.223 OA 
BRANCH  20  31
HETATM   31  C   UNL     1      -5.568  11.092  70.081  1.00  0.00    -0.088 C  
HETATM   32  C   UNL     1      -5.154   9.659  70.254  1.00  0.00    -0.028 C  
HETATM   33  O   UNL     1      -5.497  11.844  71.058  1.00  0.00    -0.249 OA 
ENDBRANCH  20  31
ENDBRANCH   7  10
ENDBRANCH   2   4
TORSDOF 3
ENDMDL
MODEL       84
REMARK 921   NORMALIZED FREE ENERGY PREDICTED BY IDOCK:   -0.84 KCAL/MOL
REMARK 922        TOTAL FREE ENERGY PREDICTED BY IDOCK:   -2.04 KCAL/MOL
REMARK 923 INTER-LIGAND FREE ENERGY PREDICTED BY IDOCK:   -3.14 KCAL/MOL
REMARK 924 INTRA-LIGAND FREE ENERGY PREDICTED BY IDOCK:    1.10 KCAL/MOL
REMARK 927      BINDING AFFINITY PREDICTED BY RF-SCORE:    0.00 PKD
ROOT
HETATM    1  C   UNL     1     -10.488   4.048  70.091  1.00  0.00     1.017 C  
HETATM    2  N   UNL     1      -9.554   4.861  69.325  1.00  0.00    -0.155 NA 
HETATM    3  C   UNL     1      -8.149   4.462  69.337  1.00  0.00    -0.060 C  
ENDROOT
BRANCH   2   4
HETATM    4  C   UNL     1      -9.943   6.041  68.702  1.00  0.00    -0.149 A  
HETATM    5  C   UNL     1     -10.138   7.251  69.387  1.00  0.00    -0.183 A  
HETATM    6  C   UNL     1     -10.458   8.460  68.719  1.00  0.00    -0.202 A  
HETATM    7  C   UNL     1     -10.530   8.521  67.319  1.00  0.00    -0.366 A  
HETATM    8  C   UNL     1     -10.483   7.288  66.656  1.00  0.00    -0.204 A  
HETATM    9  C   UNL     1     -10.177   6.096  67.325  1.00  0.00    -0.236 A  
BRANCH   7  10
HETATM   10  C   UNL     1     -10.540   9.852  66.514  1.00  0.00    -0.156 C  
HETATM   11  C   UNL     1     -11.446  10.984  67.184  1.00  0.00    -0.099 C  
HETATM   12  C   UNL     1     -10.813  11.687  68.436  1.00  0.00    -0.257 C  
HETATM   13  C   UNL     1     -10.698  10.686  69.612  1.00  0.00    -0.290 C  
HETATM   14  C   UNL     1      -9.444  12.207  67.929  1.00  0.00    -0.195 C  
HETATM   15  C   UNL     1      -9.018  13.176  69.019  1.00  0.00     0.473 C  
HETATM   16  C   UNL     1      -8.460  11.114  67.488  1.00  0.00    -0.126 C  
HETATM   17  C   UNL     1     -10.271  14.027  69.132  1.00  0.00    -0.025 C  
HETATM   18  C   UNL     1      -7.055  11.744  67.271  1.00  0.00    -0.140 C  
HETATM   19  C   UNL     1      -6.441  11.573  65.898  1.00  0.00     0.506 C  
HETATM   20  C   UNL     1     -11.469  13.037  68.999  1.00  0.00    -0.303 C  
HETATM   21  C   UNL     1      -9.071  10.367  66.268  1.00  0.00    -0.180 C  
HETATM   22  O   UNL     1     -12.356  13.621  68.051  1.00  0.00    -0.373 OA 
HETATM   23  C   UNL     1      -6.854  10.262  65.341  1.00  0.00    -0.140 C  
HETATM   24  H   UNL     1     -12.745  14.421  68.386  1.00  0.00     0.000 HD 
HETATM   25  C   UNL     1      -5.991   9.467  64.686  1.00  0.00    -0.072 C  
HETATM   26  C   UNL     1      -8.302  10.097  65.176  1.00  0.00    -0.163 C  
HETATM   27  C   UNL     1      -8.638   9.595  63.782  1.00  0.00    -0.217 C  
HETATM   28  C   UNL     1      -6.128   9.946  63.273  1.00  0.00    -0.121 C  
HETATM   29  C   UNL     1      -7.543   9.927  62.708  1.00  0.00    -0.127 C  
HETATM   30  O   UNL     1      -5.144  10.328  62.650  1.00  0.00    -0.090 OA 
BRANCH  20  31
HETATM   31  C   UNL     1     -12.086  12.963  70.442  1.00  0.00    -0.306 C  
HETATM   32  C   UNL     1     -11.793  14.064  71.421  1.00  0.00     0.051 C  
HETATM   33  O   UNL     1     -12.783  12.015  70.818  1.00  0.00    -0.249 OA 
ENDBRANCH  20  31
ENDBRANCH   7  10
ENDBRANCH   2   4
TORSDOF 3
ENDMDL
MODEL       85
REMARK 921   NORMALIZED FREE ENERGY PREDICTED BY IDOCK:   -0.63 KCAL/MOL
REMARK 922        TOTAL FREE ENERGY PREDICTED BY IDOCK:   -1.80 KCAL/MOL
REMARK 923 INTER-LIGAND FREE ENERGY PREDICTED BY IDOCK:   -2.00 KCAL/MOL
REMARK 924 INTRA-LIGAND FREE ENERGY PREDICTED BY IDOCK:    0.20 KCAL/MOL
REMARK 927      BINDING AFFINITY PREDICTED BY RF-SCORE:    0.00 PKD
ROOT
HETATM    1  C   UNL     1      -6.745   9.880  66.834  1.00  0.00    -0.078 C  
HETATM    2  N   UNL     1      -6.700  11.333  66.908  1.00  0.00    -0.124 NA 
HETATM    3  C   UNL     1      -5.397  11.974  66.753  1.00  0.00     0.013 C  
ENDROOT
BRANCH   2   4
HETATM    4  C   UNL     1      -7.819  12.090  67.234  1.00  0.00    -0.170 A  
HETATM    5  C   UNL     1      -7.922  12.856  68.406  1.00  0.00    -0.137 A  
HETATM    6  C   UNL     1      -9.042  13.682  68.679  1.00  0.00    -0.035 A  
HETATM    7  C   UNL     1     -10.083  13.827  67.749  1.00  0.00    -0.245 A  
HETATM    8  C   UNL     1     -10.046  12.951  66.658  1.00  0.00    -0.247 A  
HETATM    9  C   UNL     1      -8.940  12.130  66.401  1.00  0.00    -0.138 A  
BRANCH   7  10
HETATM   10  C   UNL     1     -11.156  14.951  67.825  1.00  0.00    -0.313 C  
HETATM   11  C   UNL     1     -12.332  14.627  68.856  1.00  0.00    -0.069 C  
HETATM   12  C   UNL     1     -11.959  14.810  70.369  1.00  0.00    -0.368 C  
HETATM   13  C   UNL     1     -10.912  13.752  70.796  1.00  0.00     1.363 C  
HETATM   14  C   UNL     1     -11.438  16.267  70.459  1.00  0.00    -0.282 C  
HETATM   15  C   UNL     1     -11.429  16.538  71.955  1.00  0.00    -0.095 C  
HETATM   16  C   UNL     1     -10.165  16.551  69.650  1.00  0.00    -0.156 C  
HETATM   17  C   UNL     1     -12.839  16.106  72.319  1.00  0.00    -0.303 C  
HETATM   18  C   UNL     1      -9.606  17.947  70.044  1.00  0.00     1.415 C  
HETATM   19  C   UNL     1      -9.445  18.952  68.924  1.00  0.00    -0.356 C  
HETATM   20  C   UNL     1     -13.121  14.826  71.473  1.00  0.00    -0.354 C  
HETATM   21  C   UNL     1     -10.485  16.342  68.142  1.00  0.00    -0.289 C  
HETATM   22  O   UNL     1     -14.400  15.024  70.880  1.00  0.00    -0.662 OA 
HETATM   23  C   UNL     1      -9.079  18.237  67.678  1.00  0.00    -0.267 C  
HETATM   24  H   UNL     1     -15.089  15.033  71.534  1.00  0.00     0.000 HD 
HETATM   25  C   UNL     1      -8.141  18.708  66.839  1.00  0.00    -0.256 C  
HETATM   26  C   UNL     1     -10.070  17.257  67.222  1.00  0.00    -0.300 C  
HETATM   27  C   UNL     1     -10.395  17.454  65.750  1.00  0.00    -0.226 C  
HETATM   28  C   UNL     1      -8.943  19.585  65.927  1.00  0.00    -0.044 C  
HETATM   29  C   UNL     1     -10.117  18.907  65.230  1.00  0.00     1.043 C  
HETATM   30  O   UNL     1      -8.648  20.767  65.784  1.00  0.00     0.422 OA 
BRANCH  20  31
HETATM   31  C   UNL     1     -13.110  13.649  72.514  1.00  0.00    -0.388 C  
HETATM   32  C   UNL     1     -13.106  12.232  72.017  1.00  0.00    -0.461 C  
HETATM   33  O   UNL     1     -13.134  13.843  73.734  1.00  0.00     0.110 OA 
ENDBRANCH  20  31
ENDBRANCH   7  10
ENDBRANCH   2   4
TORSDOF 3
ENDMDL
MODEL       86
REMARK 921   NORMALIZED FREE ENERGY PREDICTED BY IDOCK:   -0.54 KCAL/MOL
REMARK 922        TOTAL FREE ENERGY PREDICTED BY IDOCK:   -1.70 KCAL/MOL
REMARK 923 INTER-LIGAND FREE ENERGY PREDICTED BY IDOCK:   -1.37 KCAL/MOL
REMARK 924 INTRA-LIGAND FREE ENERGY PREDICTED BY IDOCK:   -0.33 KCAL/MOL
REMARK 927      BINDING AFFINITY PREDICTED BY RF-SCORE:    0.00 PKD
ROOT
HETATM    1  C   UNL     1     -12.560  16.695  73.347  1.00  0.00    -0.077 C  
HETATM    2  N   UNL     1     -12.970  15.633  72.440  1.00  0.00    -0.415 NA 
HETATM    3  C   UNL     1     -14.334  15.128  72.570  1.00  0.00    -0.218 C  
ENDROOT
BRANCH   2   4
HETATM    4  C   UNL     1     -12.078  15.026  71.563  1.00  0.00    -0.343 A  
HETATM    5  C   UNL     1     -12.331  13.802  70.925  1.00  0.00    -0.456 A  
HETATM    6  C   UNL     1     -11.441  13.242  69.974  1.00  0.00    -0.105 A  
HETATM    7  C   UNL     1     -10.283  13.924  69.571  1.00  0.00     0.368 A  
HETATM    8  C   UNL     1      -9.962  15.065  70.317  1.00  0.00     0.216 A  
HETATM    9  C   UNL     1     -10.843  15.607  71.262  1.00  0.00    -0.042 A  
BRANCH   7  10
HETATM   10  C   UNL     1      -9.451  13.543  68.312  1.00  0.00    -0.212 C  
HETATM   11  C   UNL     1      -8.310  12.467  68.617  1.00  0.00     0.021 C  
HETATM   12  C   UNL     1      -8.817  10.993  68.793  1.00  0.00    -0.149 C  
HETATM   13  C   UNL     1      -9.671  10.868  70.079  1.00  0.00     0.781 C  
HETATM   14  C   UNL     1      -9.610  10.705  67.493  1.00  0.00    -0.180 C  
HETATM   15  C   UNL     1      -9.776   9.195  67.517  1.00  0.00    -0.204 C  
HETATM   16  C   UNL     1     -10.854  11.581  67.287  1.00  0.00    -0.301 C  
HETATM   17  C   UNL     1      -8.340   8.766  67.759  1.00  0.00    -0.118 C  
HETATM   18  C   UNL     1     -11.695  11.011  66.110  1.00  0.00     0.891 C  
HETATM   19  C   UNL     1     -11.965  11.949  64.953  1.00  0.00    -0.186 C  
HETATM   20  C   UNL     1      -7.759   9.788  68.785  1.00  0.00    -0.081 C  
HETATM   21  C   UNL     1     -10.395  13.060  67.146  1.00  0.00    -0.243 C  
HETATM   22  O   UNL     1      -6.503  10.201  68.259  1.00  0.00    -0.053 OA 
HETATM   23  C   UNL     1     -12.100  13.332  65.471  1.00  0.00    -0.480 C  
HETATM   24  H   UNL     1      -5.876   9.487  68.255  1.00  0.00     0.000 HD 
HETATM   25  C   UNL     1     -13.049  14.169  65.019  1.00  0.00     0.044 C  
HETATM   26  C   UNL     1     -10.910  13.846  66.158  1.00  0.00    -0.290 C  
HETATM   27  C   UNL     1     -10.526  15.219  65.633  1.00  0.00    -0.377 C  
HETATM   28  C   UNL     1     -12.366  14.826  63.859  1.00  0.00     0.069 C  
HETATM   29  C   UNL     1     -11.038  15.504  64.177  1.00  0.00     0.250 C  
HETATM   30  O   UNL     1     -12.869  14.791  62.741  1.00  0.00     1.016 OA 
BRANCH  20  31
HETATM   31  C   UNL     1      -7.620   8.974  70.122  1.00  0.00    -0.082 C  
HETATM   32  C   UNL     1      -8.022   7.527  70.143  1.00  0.00    -0.111 C  
HETATM   33  O   UNL     1      -7.218   9.485  71.172  1.00  0.00    -0.304 OA 
ENDBRANCH  20  31
ENDBRANCH   7  10
ENDBRANCH   2   4
TORSDOF 3
ENDMDL
MODEL       87
REMARK 921   NORMALIZED FREE ENERGY PREDICTED BY IDOCK:   -0.47 KCAL/MOL
REMARK 922        TOTAL FREE ENERGY PREDICTED BY IDOCK:   -1.61 KCAL/MOL
REMARK 923 INTER-LIGAND FREE ENERGY PREDICTED BY IDOCK:   -2.13 KCAL/MOL
REMARK 924 INTRA-LIGAND FREE ENERGY PREDICTED BY IDOCK:    0.52 KCAL/MOL
REMARK 927      BINDING AFFINITY PREDICTED BY RF-SCORE:    0.00 PKD
ROOT
HETATM    1  C   UNL     1      -9.236   7.227  70.707  1.00  0.00    -0.156 C  
HETATM    2  N   UNL     1      -8.929   7.091  69.290  1.00  0.00    -0.138 NA 
HETATM    3  C   UNL     1      -8.733   5.740  68.771  1.00  0.00    -0.108 C  
ENDROOT
BRANCH   2   4
HETATM    4  C   UNL     1      -8.708   8.195  68.474  1.00  0.00    -0.134 A  
HETATM    5  C   UNL     1      -9.630   8.648  67.517  1.00  0.00    -0.196 A  
HETATM    6  C   UNL     1      -9.416   9.822  66.751  1.00  0.00    -0.209 A  
HETATM    7  C   UNL     1      -8.292  10.635  66.963  1.00  0.00    -0.126 A  
HETATM    8  C   UNL     1      -7.310  10.101  67.807  1.00  0.00    -0.088 A  
HETATM    9  C   UNL     1      -7.525   8.934  68.552  1.00  0.00    -0.085 A  
BRANCH   7  10
HETATM   10  C   UNL     1      -8.161  12.085  66.415  1.00  0.00     0.150 C  
HETATM   11  C   UNL     1      -9.156  12.390  65.203  1.00  0.00     0.585 C  
HETATM   12  C   UNL     1     -10.652  12.626  65.616  1.00  0.00    -0.299 C  
HETATM   13  C   UNL     1     -11.271  11.317  66.165  1.00  0.00    -0.133 C  
HETATM   14  C   UNL     1     -10.582  13.765  66.664  1.00  0.00    -0.274 C  
HETATM   15  C   UNL     1     -12.027  14.221  66.775  1.00  0.00    -0.462 C  
HETATM   16  C   UNL     1      -9.816  13.417  67.948  1.00  0.00    -0.237 C  
HETATM   17  C   UNL     1     -12.364  14.423  65.309  1.00  0.00    -0.372 C  
HETATM   18  C   UNL     1     -10.057  14.529  69.008  1.00  0.00    -0.187 C  
HETATM   19  C   UNL     1      -8.827  15.225  69.551  1.00  0.00    -0.181 C  
HETATM   20  C   UNL     1     -11.675  13.247  64.549  1.00  0.00    -0.378 C  
HETATM   21  C   UNL     1      -8.333  13.137  67.575  1.00  0.00    -0.185 C  
HETATM   22  O   UNL     1     -10.990  13.837  63.451  1.00  0.00     0.006 OA 
HETATM   23  C   UNL     1      -7.707  14.255  69.611  1.00  0.00     0.303 C  
HETATM   24  H   UNL     1     -11.597  14.205  62.819  1.00  0.00     0.000 HD 
HETATM   25  C   UNL     1      -6.869  14.203  70.660  1.00  0.00     0.475 C  
HETATM   26  C   UNL     1      -7.326  13.681  68.316  1.00  0.00    -0.119 C  
HETATM   27  C   UNL     1      -5.826  13.777  68.097  1.00  0.00    -0.123 C  
HETATM   28  C   UNL     1      -5.807  15.183  70.266  1.00  0.00    -0.147 C  
HETATM   29  C   UNL     1      -5.138  14.920  68.922  1.00  0.00    -0.092 C  
HETATM   30  O   UNL     1      -5.529  16.126  70.999  1.00  0.00    -0.079 OA 
BRANCH  20  31
HETATM   31  C   UNL     1     -12.859  12.318  64.098  1.00  0.00    -0.267 C  
HETATM   32  C   UNL     1     -12.641  11.348  62.973  1.00  0.00     0.538 C  
HETATM   33  O   UNL     1     -13.980  12.372  64.615  1.00  0.00     0.591 OA 
ENDBRANCH  20  31
ENDBRANCH   7  10
ENDBRANCH   2   4
TORSDOF 3
ENDMDL
MODEL       88
REMARK 921   NORMALIZED FREE ENERGY PREDICTED BY IDOCK:   -0.28 KCAL/MOL
REMARK 922        TOTAL FREE ENERGY PREDICTED BY IDOCK:   -1.39 KCAL/MOL
REMARK 923 INTER-LIGAND FREE ENERGY PREDICTED BY IDOCK:   -2.62 KCAL/MOL
REMARK 924 INTRA-LIGAND FREE ENERGY PREDICTED BY IDOCK:    1.23 KCAL/MOL
REMARK 927      BINDING AFFINITY PREDICTED BY RF-SCORE:    0.00 PKD
ROOT
HETATM    1  C   UNL     1     -14.248   8.332  73.046  1.00  0.00     0.530 C  
HETATM    2  N   UNL     1     -13.494   9.379  72.370  1.00  0.00    -0.462 NA 
HETATM    3  C   UNL     1     -14.056  10.726  72.381  1.00  0.00     0.866 C  
ENDROOT
BRANCH   2   4
HETATM    4  C   UNL     1     -12.347   9.103  71.635  1.00  0.00    -0.360 A  
HETATM    5  C   UNL     1     -11.664  10.066  70.875  1.00  0.00    -0.462 A  
HETATM    6  C   UNL     1     -10.452   9.780  70.197  1.00  0.00    -0.338 A  
HETATM    7  C   UNL     1      -9.834   8.525  70.310  1.00  0.00    -0.194 A  
HETATM    8  C   UNL     1     -10.591   7.531  70.942  1.00  0.00    -0.227 A  
HETATM    9  C   UNL     1     -11.794   7.820  71.601  1.00  0.00    -0.321 A  
BRANCH   7  10
HETATM   10  C   UNL     1      -8.363   8.248  69.883  1.00  0.00    -0.125 C  
HETATM   11  C   UNL     1      -7.548   7.394  70.959  1.00  0.00    -0.086 C  
HETATM   12  C   UNL     1      -7.885   5.861  70.984  1.00  0.00    -0.110 C  
HETATM   13  C   UNL     1      -9.333   5.638  71.487  1.00  0.00    -0.166 C  
HETATM   14  C   UNL     1      -7.658   5.398  69.523  1.00  0.00    -0.070 C  
HETATM   15  C   UNL     1      -7.632   3.883  69.642  1.00  0.00    -0.052 C  
HETATM   16  C   UNL     1      -8.591   6.041  68.488  1.00  0.00    -0.111 C  
HETATM   17  C   UNL     1      -6.621   3.715  70.763  1.00  0.00    -0.032 C  
HETATM   18  C   UNL     1      -8.446   5.295  67.131  1.00  0.00    -0.106 C  
HETATM   19  C   UNL     1      -8.041   6.133  65.938  1.00  0.00    -0.121 C  
HETATM   20  C   UNL     1      -6.925   4.856  71.783  1.00  0.00    -0.056 C  
HETATM   21  C   UNL     1      -8.314   7.571  68.461  1.00  0.00    -0.126 C  
HETATM   22  O   UNL     1      -5.671   5.458  72.081  1.00  0.00    -0.016 OA 
HETATM   23  C   UNL     1      -8.623   7.490  66.077  1.00  0.00    -0.164 C  
HETATM   24  H   UNL     1      -5.102   4.862  72.554  1.00  0.00     0.000 HD 
HETATM   25  C   UNL     1      -9.171   8.137  65.034  1.00  0.00     0.507 C  
HETATM   26  C   UNL     1      -8.187   8.223  67.270  1.00  0.00    -0.120 C  
HETATM   27  C   UNL     1      -7.716   9.622  66.910  1.00  0.00    -0.098 C  
HETATM   28  C   UNL     1      -7.994   8.860  64.455  1.00  0.00    -0.135 C  
HETATM   29  C   UNL     1      -7.240   9.765  65.422  1.00  0.00    -0.114 C  
HETATM   30  O   UNL     1      -7.684   8.701  63.280  1.00  0.00    -0.120 OA 
BRANCH  20  31
HETATM   31  C   UNL     1      -7.558   4.124  73.021  1.00  0.00    -0.080 C  
HETATM   32  C   UNL     1      -8.054   2.716  72.864  1.00  0.00    -0.066 C  
HETATM   33  O   UNL     1      -7.691   4.673  74.120  1.00  0.00    -0.087 OA 
ENDBRANCH  20  31
ENDBRANCH   7  10
ENDBRANCH   2   4
TORSDOF 3
ENDMDL
MODEL       89
REMARK 921   NORMALIZED FREE ENERGY PREDICTED BY IDOCK:    0.04 KCAL/MOL
REMARK 922        TOTAL FREE ENERGY PREDICTED BY IDOCK:   -1.01 KCAL/MOL
REMARK 923 INTER-LIGAND FREE ENERGY PREDICTED BY IDOCK:   -0.08 KCAL/MOL
REMARK 924 INTRA-LIGAND FREE ENERGY PREDICTED BY IDOCK:   -0.93 KCAL/MOL
REMARK 927      BINDING AFFINITY PREDICTED BY RF-SCORE:    0.00 PKD
ROOT
HETATM    1  C   UNL     1      -5.315   9.199  68.191  1.00  0.00    -0.034 C  
HETATM    2  N   UNL     1      -6.169  10.108  68.942  1.00  0.00    -0.043 NA 
HETATM    3  C   UNL     1      -6.519   9.727  70.308  1.00  0.00    -0.093 C  
ENDROOT
BRANCH   2   4
HETATM    4  C   UNL     1      -6.738  11.235  68.362  1.00  0.00    -0.061 A  
HETATM    5  C   UNL     1      -7.634  11.182  67.283  1.00  0.00    -0.126 A  
HETATM    6  C   UNL     1      -8.262  12.340  66.758  1.00  0.00    -0.058 A  
HETATM    7  C   UNL     1      -8.067  13.601  67.341  1.00  0.00    -0.184 A  
HETATM    8  C   UNL     1      -7.062  13.670  68.315  1.00  0.00    -0.110 A  
HETATM    9  C   UNL     1      -6.439  12.521  68.820  1.00  0.00    -0.084 A  
BRANCH   7  10
HETATM   10  C   UNL     1      -8.964  14.837  67.043  1.00  0.00    -0.258 C  
HETATM   11  C   UNL     1     -10.476  14.645  67.521  1.00  0.00    -0.247 C  
HETATM   12  C   UNL     1     -10.707  14.787  69.067  1.00  0.00    -0.251 C  
HETATM   13  C   UNL     1     -10.024  13.619  69.821  1.00  0.00     1.172 C  
HETATM   14  C   UNL     1     -10.117  16.177  69.414  1.00  0.00    -0.256 C  
HETATM   15  C   UNL     1     -10.665  16.446  70.806  1.00  0.00     0.304 C  
HETATM   16  C   UNL     1      -8.607  16.318  69.175  1.00  0.00    -0.212 C  
HETATM   17  C   UNL     1     -12.141  16.173  70.576  1.00  0.00    -0.065 C  
HETATM   18  C   UNL     1      -8.107  17.644  69.816  1.00  0.00     1.218 C  
HETATM   19  C   UNL     1      -7.420  18.624  68.890  1.00  0.00    -0.298 C  
HETATM   20  C   UNL     1     -12.200  14.931  69.632  1.00  0.00    -0.261 C  
HETATM   21  C   UNL     1      -8.333  16.145  67.655  1.00  0.00    -0.163 C  
HETATM   22  O   UNL     1     -13.118  15.269  68.598  1.00  0.00     0.616 OA 
HETATM   23  C   UNL     1      -6.671  17.873  67.854  1.00  0.00    -0.193 C  
HETATM   24  H   UNL     1     -14.003  15.355  68.934  1.00  0.00     0.000 HD 
HETATM   25  C   UNL     1      -5.437  18.237  67.466  1.00  0.00    -0.140 C  
HETATM   26  C   UNL     1      -7.500  17.009  67.007  1.00  0.00    -0.227 C  
HETATM   27  C   UNL     1      -7.202  17.239  65.535  1.00  0.00     0.835 C  
HETATM   28  C   UNL     1      -5.725  19.197  66.353  1.00  0.00    -0.157 C  
HETATM   29  C   UNL     1      -6.596  18.653  65.227  1.00  0.00    -0.222 C  
HETATM   30  O   UNL     1      -5.279  20.339  66.387  1.00  0.00    -0.160 OA 
BRANCH  20  31
HETATM   31  C   UNL     1     -12.717  13.762  70.545  1.00  0.00    -0.222 C  
HETATM   32  C   UNL     1     -12.797  13.972  72.029  1.00  0.00    -0.415 C  
HETATM   33  O   UNL     1     -13.035  12.657  70.092  1.00  0.00     0.310 OA 
ENDBRANCH  20  31
ENDBRANCH   7  10
ENDBRANCH   2   4
TORSDOF 3
ENDMDL
MODEL       90
REMARK 921   NORMALIZED FREE ENERGY PREDICTED BY IDOCK:    0.10 KCAL/MOL
REMARK 922        TOTAL FREE ENERGY PREDICTED BY IDOCK:   -0.94 KCAL/MOL
REMARK 923 INTER-LIGAND FREE ENERGY PREDICTED BY IDOCK:    0.03 KCAL/MOL
REMARK 924 INTRA-LIGAND FREE ENERGY PREDICTED BY IDOCK:   -0.96 KCAL/MOL
REMARK 927      BINDING AFFINITY PREDICTED BY RF-SCORE:    0.00 PKD
ROOT
HETATM    1  C   UNL     1      -9.934   6.355  70.953  1.00  0.00    -0.185 C  
HETATM    2  N   UNL     1     -11.000   7.325  71.161  1.00  0.00    -0.243 NA 
HETATM    3  C   UNL     1     -12.222   6.853  71.806  1.00  0.00    -0.356 C  
ENDROOT
BRANCH   2   4
HETATM    4  C   UNL     1     -10.924   8.622  70.665  1.00  0.00    -0.240 A  
HETATM    5  C   UNL     1     -11.874   9.616  70.947  1.00  0.00    -0.403 A  
HETATM    6  C   UNL     1     -11.734  10.952  70.494  1.00  0.00    -0.441 A  
HETATM    7  C   UNL     1     -10.593  11.366  69.791  1.00  0.00     0.198 A  
HETATM    8  C   UNL     1      -9.727  10.343  69.385  1.00  0.00    -0.222 A  
HETATM    9  C   UNL     1      -9.878   9.023  69.829  1.00  0.00    -0.188 A  
BRANCH   7  10
HETATM   10  C   UNL     1     -10.216  12.858  69.561  1.00  0.00     0.777 C  
HETATM   11  C   UNL     1      -9.616  13.137  68.107  1.00  0.00    -0.227 C  
HETATM   12  C   UNL     1     -10.673  13.171  66.947  1.00  0.00    -0.270 C  
HETATM   13  C   UNL     1     -11.283  11.763  66.735  1.00  0.00    -0.388 C  
HETATM   14  C   UNL     1     -11.707  14.230  67.406  1.00  0.00    -0.422 C  
HETATM   15  C   UNL     1     -12.500  14.508  66.139  1.00  0.00    -0.160 C  
HETATM   16  C   UNL     1     -12.468  13.877  68.691  1.00  0.00     0.209 C  
HETATM   17  C   UNL     1     -11.369  14.779  65.163  1.00  0.00    -0.379 C  
HETATM   18  C   UNL     1     -13.648  14.874  68.880  1.00  0.00     3.971 C  
HETATM   19  C   UNL     1     -13.666  15.662  70.172  1.00  0.00     1.145 C  
HETATM   20  C   UNL     1     -10.252  13.747  65.512  1.00  0.00    -0.316 C  
HETATM   21  C   UNL     1     -11.447  13.796  69.861  1.00  0.00    -0.230 C  
HETATM   22  O   UNL     1      -9.040  14.492  65.584  1.00  0.00    -0.434 OA 
HETATM   23  C   UNL     1     -13.110  14.825  71.261  1.00  0.00    -0.433 C  
HETATM   24  H   UNL     1      -8.791  14.833  64.733  1.00  0.00     0.000 HD 
HETATM   25  C   UNL     1     -13.665  14.791  72.484  1.00  0.00    -0.572 C  
HETATM   26  C   UNL     1     -11.723  14.395  71.054  1.00  0.00    -0.256 C  
HETATM   27  C   UNL     1     -10.875  14.676  72.282  1.00  0.00     1.644 C  
HETATM   28  C   UNL     1     -12.959  15.912  73.184  1.00  0.00    -0.549 C  
HETATM   29  C   UNL     1     -11.437  15.827  73.189  1.00  0.00    -0.002 C  
HETATM   30  O   UNL     1     -13.598  16.824  73.698  1.00  0.00    -0.162 OA 
BRANCH  20  31
HETATM   31  C   UNL     1     -10.267  12.726  64.319  1.00  0.00    -0.327 C  
HETATM   32  C   UNL     1     -11.500  12.610  63.469  1.00  0.00    -0.557 C  
HETATM   33  O   UNL     1      -9.310  11.987  64.065  1.00  0.00     0.042 OA 
ENDBRANCH  20  31
ENDBRANCH   7  10
ENDBRANCH   2   4
TORSDOF 3
ENDMDL
MODEL       91
REMARK 921   NORMALIZED FREE ENERGY PREDICTED BY IDOCK:    0.36 KCAL/MOL
REMARK 922        TOTAL FREE ENERGY PREDICTED BY IDOCK:   -0.63 KCAL/MOL
REMARK 923 INTER-LIGAND FREE ENERGY PREDICTED BY IDOCK:   -1.20 KCAL/MOL
REMARK 924 INTRA-LIGAND FREE ENERGY PREDICTED BY IDOCK:    0.57 KCAL/MOL
REMARK 927      BINDING AFFINITY PREDICTED BY RF-SCORE:    0.00 PKD
ROOT
HETATM    1  C   UNL     1      -9.453   2.176  72.882  1.00  0.00    -0.082 C  
HETATM    2  N   UNL     1      -9.734   3.598  72.749  1.00  0.00    -0.133 NA 
HETATM    3  C   UNL     1     -10.765   4.164  73.614  1.00  0.00    -0.238 C  
ENDROOT
BRANCH   2   4
HETATM    4  C   UNL     1      -9.142   4.377  71.761  1.00  0.00    -0.127 A  
HETATM    5  C   UNL     1      -9.652   4.496  70.459  1.00  0.00    -0.274 A  
HETATM    6  C   UNL     1      -9.076   5.358  69.492  1.00  0.00    -0.140 A  
HETATM    7  C   UNL     1      -7.995   6.194  69.814  1.00  0.00    -0.110 A  
HETATM    8  C   UNL     1      -7.400   5.961  71.060  1.00  0.00    -0.082 A  
HETATM    9  C   UNL     1      -7.971   5.099  72.006  1.00  0.00    -0.112 A  
BRANCH   7  10
HETATM   10  C   UNL     1      -7.535   7.387  68.928  1.00  0.00    -0.101 C  
HETATM   11  C   UNL     1      -6.502   6.960  67.787  1.00  0.00    -0.050 C  
HETATM   12  C   UNL     1      -7.140   6.225  66.555  1.00  0.00    -0.068 C  
HETATM   13  C   UNL     1      -7.681   4.837  66.979  1.00  0.00    -0.091 C  
HETATM   14  C   UNL     1      -8.243   7.195  66.063  1.00  0.00    -0.129 C  
HETATM   15  C   UNL     1      -8.592   6.651  64.687  1.00  0.00     0.225 C  
HETATM   16  C   UNL     1      -9.377   7.448  67.066  1.00  0.00    -0.183 C  
HETATM   17  C   UNL     1      -7.206   6.546  64.076  1.00  0.00    -0.067 C  
HETATM   18  C   UNL     1     -10.535   8.204  66.354  1.00  0.00     0.175 C  
HETATM   19  C   UNL     1     -10.942   9.534  66.949  1.00  0.00     0.064 C  
HETATM   20  C   UNL     1      -6.277   6.030  65.219  1.00  0.00    -0.037 C  
HETATM   21  C   UNL     1      -8.777   8.143  68.321  1.00  0.00    -0.133 C  
HETATM   22  O   UNL     1      -5.134   6.879  65.207  1.00  0.00    -0.022 OA 
HETATM   23  C   UNL     1     -10.774   9.479  68.421  1.00  0.00    -0.230 C  
HETATM   24  H   UNL     1      -4.623   6.764  64.415  1.00  0.00     0.000 HD 
HETATM   25  C   UNL     1     -11.686  10.001  69.259  1.00  0.00     0.028 C  
HETATM   26  C   UNL     1      -9.402   9.223  68.871  1.00  0.00    -0.150 C  
HETATM   27  C   UNL     1      -8.977  10.227  69.929  1.00  0.00     0.008 C  
HETATM   28  C   UNL     1     -11.213  11.414  69.404  1.00  0.00    -0.268 C  
HETATM   29  C   UNL     1      -9.772  11.578  69.873  1.00  0.00     1.477 C  
HETATM   30  O   UNL     1     -11.962  12.350  69.145  1.00  0.00    -0.290 OA 
BRANCH  20  31
HETATM   31  C   UNL     1      -5.937   4.550  64.818  1.00  0.00    -0.025 C  
HETATM   32  C   UNL     1      -5.472   4.259  63.420  1.00  0.00    -0.013 C  
HETATM   33  O   UNL     1      -6.065   3.604  65.601  1.00  0.00    -0.026 OA 
ENDBRANCH  20  31
ENDBRANCH   7  10
ENDBRANCH   2   4
TORSDOF 3
ENDMDL
MODEL       92
REMARK 921   NORMALIZED FREE ENERGY PREDICTED BY IDOCK:    0.87 KCAL/MOL
REMARK 922        TOTAL FREE ENERGY PREDICTED BY IDOCK:   -0.03 KCAL/MOL
REMARK 923 INTER-LIGAND FREE ENERGY PREDICTED BY IDOCK:   -0.88 KCAL/MOL
REMARK 924 INTRA-LIGAND FREE ENERGY PREDICTED BY IDOCK:    0.85 KCAL/MOL
REMARK 927      BINDING AFFINITY PREDICTED BY RF-SCORE:    0.00 PKD
ROOT
HETATM    1  C   UNL     1      -7.300  15.345  70.290  1.00  0.00     0.397 C  
HETATM    2  N   UNL     1      -6.369  14.284  70.647  1.00  0.00    -0.139 NA 
HETATM    3  C   UNL     1      -5.401  14.565  71.703  1.00  0.00    -0.147 C  
ENDROOT
BRANCH   2   4
HETATM    4  C   UNL     1      -6.308  13.088  69.940  1.00  0.00    -0.034 A  
HETATM    5  C   UNL     1      -5.367  12.832  68.931  1.00  0.00    -0.067 A  
HETATM    6  C   UNL     1      -5.274  11.576  68.278  1.00  0.00    -0.042 A  
HETATM    7  C   UNL     1      -6.083  10.496  68.661  1.00  0.00    -0.043 A  
HETATM    8  C   UNL     1      -7.116  10.800  69.558  1.00  0.00    -0.132 A  
HETATM    9  C   UNL     1      -7.206  12.047  70.190  1.00  0.00     1.319 A  
BRANCH   7  10
HETATM   10  C   UNL     1      -5.814   9.024  68.236  1.00  0.00    -0.038 C  
HETATM   11  C   UNL     1      -5.485   8.064  69.470  1.00  0.00    -0.026 C  
HETATM   12  C   UNL     1      -6.726   7.642  70.332  1.00  0.00    -0.042 C  
HETATM   13  C   UNL     1      -7.305   8.870  71.077  1.00  0.00    -0.114 C  
HETATM   14  C   UNL     1      -7.708   7.021  69.306  1.00  0.00    -0.109 C  
HETATM   15  C   UNL     1      -8.718   6.304  70.187  1.00  0.00    -0.138 C  
HETATM   16  C   UNL     1      -8.222   7.990  68.232  1.00  0.00    -0.123 C  
HETATM   17  C   UNL     1      -7.785   5.501  71.076  1.00  0.00    -0.103 C  
HETATM   18  C   UNL     1      -9.390   7.323  67.453  1.00  0.00    -0.148 C  
HETATM   19  C   UNL     1      -9.218   7.195  65.955  1.00  0.00    -0.069 C  
HETATM   20  C   UNL     1      -6.583   6.446  71.389  1.00  0.00    -0.054 C  
HETATM   21  C   UNL     1      -7.011   8.463  67.378  1.00  0.00    -0.071 C  
HETATM   22  O   UNL     1      -5.409   5.677  71.151  1.00  0.00    -0.009 OA 
HETATM   23  C   UNL     1      -8.449   8.358  65.453  1.00  0.00    -0.193 C  
HETATM   24  H   UNL     1      -5.324   4.968  71.778  1.00  0.00     0.000 HD 
HETATM   25  C   UNL     1      -8.783   8.993  64.316  1.00  0.00    -0.140 C  
HETATM   26  C   UNL     1      -7.102   8.490  66.019  1.00  0.00    -0.076 C  
HETATM   27  C   UNL     1      -6.067   8.686  64.924  1.00  0.00    -0.060 C  
HETATM   28  C   UNL     1      -8.013   8.224  63.286  1.00  0.00    -0.156 C  
HETATM   29  C   UNL     1      -6.511   8.128  63.527  1.00  0.00    -0.072 C  
HETATM   30  O   UNL     1      -8.590   7.714  62.333  1.00  0.00    -0.047 OA 
BRANCH  20  31
HETATM   31  C   UNL     1      -6.761   6.828  72.903  1.00  0.00    -0.067 C  
HETATM   32  C   UNL     1      -5.565   7.281  73.689  1.00  0.00    -0.049 C  
HETATM   33  O   UNL     1      -7.847   6.744  73.485  1.00  0.00    -0.092 OA 
ENDBRANCH  20  31
ENDBRANCH   7  10
ENDBRANCH   2   4
TORSDOF 3
ENDMDL
MODEL       93
REMARK 921   NORMALIZED FREE ENERGY PREDICTED BY IDOCK:    1.48 KCAL/MOL
REMARK 922        TOTAL FREE ENERGY PREDICTED BY IDOCK:    0.69 KCAL/MOL
REMARK 923 INTER-LIGAND FREE ENERGY PREDICTED BY IDOCK:    0.04 KCAL/MOL
REMARK 924 INTRA-LIGAND FREE ENERGY PREDICTED BY IDOCK:    0.64 KCAL/MOL
REMARK 927      BINDING AFFINITY PREDICTED BY RF-SCORE:    0.00 PKD
ROOT
HETATM    1  C   UNL     1     -14.379  13.255  72.293  1.00  0.00    -0.100 C  
HETATM    2  N   UNL     1     -12.967  13.140  71.957  1.00  0.00    -0.324 NA 
HETATM    3  C   UNL     1     -12.061  14.144  72.508  1.00  0.00     0.288 C  
ENDROOT
BRANCH   2   4
HETATM    4  C   UNL     1     -12.499  12.194  71.053  1.00  0.00    -0.269 A  
HETATM    5  C   UNL     1     -13.292  11.156  70.537  1.00  0.00     0.468 A  
HETATM    6  C   UNL     1     -12.815  10.250  69.557  1.00  0.00     0.766 A  
HETATM    7  C   UNL     1     -11.535  10.389  68.999  1.00  0.00    -0.258 A  
HETATM    8  C   UNL     1     -10.701  11.326  69.622  1.00  0.00    -0.085 A  
HETATM    9  C   UNL     1     -11.178  12.211  70.598  1.00  0.00     1.298 A  
BRANCH   7  10
HETATM   10  C   UNL     1     -11.075   9.658  67.704  1.00  0.00    -0.061 C  
HETATM   11  C   UNL     1     -11.753  10.241  66.381  1.00  0.00     2.056 C  
HETATM   12  C   UNL     1     -11.165  11.608  65.880  1.00  0.00    -0.296 C  
HETATM   13  C   UNL     1     -11.498  12.736  66.887  1.00  0.00    -0.396 C  
HETATM   14  C   UNL     1      -9.646  11.338  65.733  1.00  0.00    -0.256 C  
HETATM   15  C   UNL     1      -9.162  12.526  64.919  1.00  0.00     0.613 C  
HETATM   16  C   UNL     1      -8.920  10.994  67.042  1.00  0.00    -0.151 C  
HETATM   17  C   UNL     1     -10.155  12.493  63.770  1.00  0.00    -0.268 C  
HETATM   18  C   UNL     1      -7.384  11.022  66.800  1.00  0.00    -0.139 C  
HETATM   19  C   UNL     1      -6.627   9.749  67.113  1.00  0.00    -0.070 C  
HETATM   20  C   UNL     1     -11.531  12.133  64.411  1.00  0.00    -0.350 C  
HETATM   21  C   UNL     1      -9.503   9.661  67.591  1.00  0.00    -0.155 C  
HETATM   22  O   UNL     1     -12.077  11.094  63.606  1.00  0.00    -0.239 OA 
HETATM   23  C   UNL     1      -7.270   9.072  68.265  1.00  0.00    -0.078 C  
HETATM   24  H   UNL     1     -12.294  11.406  62.735  1.00  0.00     0.000 HD 
HETATM   25  C   UNL     1      -6.550   8.515  69.253  1.00  0.00    -0.046 C  
HETATM   26  C   UNL     1      -8.668   8.684  68.043  1.00  0.00    -0.141 C  
HETATM   27  C   UNL     1      -8.898   7.232  68.427  1.00  0.00    -0.128 C  
HETATM   28  C   UNL     1      -6.335   7.123  68.742  1.00  0.00    -0.031 C  
HETATM   29  C   UNL     1      -7.600   6.352  68.384  1.00  0.00    -0.100 C  
HETATM   30  O   UNL     1      -5.200   6.673  68.626  1.00  0.00    -0.013 OA 
BRANCH  20  31
HETATM   31  C   UNL     1     -12.365  13.462  64.334  1.00  0.00    -0.341 C  
HETATM   32  C   UNL     1     -13.036  13.979  65.574  1.00  0.00    -0.353 C  
HETATM   33  O   UNL     1     -12.518  14.090  63.281  1.00  0.00    -0.795 OA 
ENDBRANCH  20  31
ENDBRANCH   7  10
ENDBRANCH   2   4
TORSDOF 3
ENDMDL
MODEL       94
REMARK 921   NORMALIZED FREE ENERGY PREDICTED BY IDOCK:    2.08 KCAL/MOL
REMARK 922        TOTAL FREE ENERGY PREDICTED BY IDOCK:    1.39 KCAL/MOL
REMARK 923 INTER-LIGAND FREE ENERGY PREDICTED BY IDOCK:   -0.30 KCAL/MOL
REMARK 924 INTRA-LIGAND FREE ENERGY PREDICTED BY IDOCK:    1.69 KCAL/MOL
REMARK 927      BINDING AFFINITY PREDICTED BY RF-SCORE:    0.00 PKD
ROOT
HETATM    1  C   UNL     1     -13.511   8.043  72.903  1.00  0.00     0.629 C  
HETATM    2  N   UNL     1     -12.088   7.967  72.607  1.00  0.00    -0.250 NA 
HETATM    3  C   UNL     1     -11.165   7.963  73.739  1.00  0.00     1.608 C  
ENDROOT
BRANCH   2   4
HETATM    4  C   UNL     1     -11.601   8.016  71.306  1.00  0.00    -0.276 A  
HETATM    5  C   UNL     1     -11.257   6.876  70.563  1.00  0.00    -0.353 A  
HETATM    6  C   UNL     1     -10.838   6.947  69.211  1.00  0.00    -0.270 A  
HETATM    7  C   UNL     1     -10.810   8.169  68.521  1.00  0.00     0.040 A  
HETATM    8  C   UNL     1     -11.008   9.312  69.305  1.00  0.00    -0.105 A  
HETATM    9  C   UNL     1     -11.413   9.233  70.644  1.00  0.00    -0.327 A  
BRANCH   7  10
HETATM   10  C   UNL     1     -10.691   8.282  66.973  1.00  0.00    -0.225 C  
HETATM   11  C   UNL     1     -11.097   9.723  66.417  1.00  0.00     0.517 C  
HETATM   12  C   UNL     1     -10.023  10.846  66.634  1.00  0.00    -0.250 C  
HETATM   13  C   UNL     1      -9.872  11.161  68.143  1.00  0.00    -0.188 C  
HETATM   14  C   UNL     1      -8.736  10.272  65.989  1.00  0.00    -0.162 C  
HETATM   15  C   UNL     1      -7.831  11.488  65.884  1.00  0.00     0.310 C  
HETATM   16  C   UNL     1      -8.191   9.001  66.655  1.00  0.00    -0.118 C  
HETATM   17  C   UNL     1      -8.768  12.469  65.202  1.00  0.00     1.404 C  
HETATM   18  C   UNL     1      -6.772   8.696  66.096  1.00  0.00    -0.069 C  
HETATM   19  C   UNL     1      -6.577   7.342  65.448  1.00  0.00    -0.044 C  
HETATM   20  C   UNL     1     -10.168  12.239  65.852  1.00  0.00    -0.249 C  
HETATM   21  C   UNL     1      -9.247   7.871  66.494  1.00  0.00    -0.238 C  
HETATM   22  O   UNL     1     -11.089  12.137  64.772  1.00  0.00    -0.299 OA 
HETATM   23  C   UNL     1      -7.422   6.343  66.144  1.00  0.00    -0.082 C  
HETATM   24  H   UNL     1     -11.175  12.962  64.310  1.00  0.00     0.000 HD 
HETATM   25  C   UNL     1      -6.970   5.113  66.438  1.00  0.00    -0.067 C  
HETATM   26  C   UNL     1      -8.861   6.624  66.100  1.00  0.00    -0.160 C  
HETATM   27  C   UNL     1      -9.643   5.400  65.655  1.00  0.00    -0.021 C  
HETATM   28  C   UNL     1      -7.328   4.340  65.205  1.00  0.00    -0.072 C  
HETATM   29  C   UNL     1      -8.799   4.384  64.808  1.00  0.00    -0.145 C  
HETATM   30  O   UNL     1      -6.465   3.734  64.580  1.00  0.00    -0.035 OA 
BRANCH  20  31
HETATM   31  C   UNL     1     -10.409  13.513  66.739  1.00  0.00    -0.264 C  
HETATM   32  C   UNL     1     -10.694  14.827  66.069  1.00  0.00    -0.314 C  
HETATM   33  O   UNL     1     -10.346  13.486  67.972  1.00  0.00    -0.229 OA 
ENDBRANCH  20  31
ENDBRANCH   7  10
ENDBRANCH   2   4
TORSDOF 3
ENDMDL
MODEL       95
REMARK 921   NORMALIZED FREE ENERGY PREDICTED BY IDOCK:    2.73 KCAL/MOL
REMARK 922        TOTAL FREE ENERGY PREDICTED BY IDOCK:    2.15 KCAL/MOL
REMARK 923 INTER-LIGAND FREE ENERGY PREDICTED BY IDOCK:    0.11 KCAL/MOL
REMARK 924 INTRA-LIGAND FREE ENERGY PREDICTED BY IDOCK:    2.05 KCAL/MOL
REMARK 927      BINDING AFFINITY PREDICTED BY RF-SCORE:    0.00 PKD
ROOT
HETATM    1  C   UNL     1      -7.137  17.345  69.645  1.00  0.00     0.226 C  
HETATM    2  N   UNL     1      -6.537  16.173  70.268  1.00  0.00     0.182 NA 
HETATM    3  C   UNL     1      -5.683  16.394  71.432  1.00  0.00     0.659 C  
ENDROOT
BRANCH   2   4
HETATM    4  C   UNL     1      -6.662  14.902  69.721  1.00  0.00    -0.179 A  
HETATM    5  C   UNL     1      -5.583  14.019  69.558  1.00  0.00    -0.088 A  
HETATM    6  C   UNL     1      -5.748  12.698  69.070  1.00  0.00    -0.072 A  
HETATM    7  C   UNL     1      -7.021  12.180  68.787  1.00  0.00    -0.101 A  
HETATM    8  C   UNL     1      -8.070  13.108  68.807  1.00  0.00     0.073 A  
HETATM    9  C   UNL     1      -7.896  14.415  69.282  1.00  0.00     0.030 A  
BRANCH   7  10
HETATM   10  C   UNL     1      -7.308  10.666  68.577  1.00  0.00    -0.090 C  
HETATM   11  C   UNL     1      -8.358  10.075  69.626  1.00  0.00    -0.188 C  
HETATM   12  C   UNL     1      -9.856  10.451  69.349  1.00  0.00    -0.235 C  
HETATM   13  C   UNL     1     -10.076  11.970  69.556  1.00  0.00     0.723 C  
HETATM   14  C   UNL     1     -10.103   9.983  67.892  1.00  0.00    -0.203 C  
HETATM   15  C   UNL     1     -11.618  10.017  67.771  1.00  0.00     0.589 C  
HETATM   16  C   UNL     1      -9.261  10.702  66.830  1.00  0.00    -0.174 C  
HETATM   17  C   UNL     1     -12.009   9.224  69.005  1.00  0.00     1.327 C  
HETATM   18  C   UNL     1      -9.798  10.341  65.416  1.00  0.00    -0.362 C  
HETATM   19  C   UNL     1      -8.811   9.710  64.458  1.00  0.00    -0.257 C  
HETATM   20  C   UNL     1     -11.022   9.673  70.128  1.00  0.00    -0.275 C  
HETATM   21  C   UNL     1      -7.762  10.385  67.094  1.00  0.00    -0.100 C  
HETATM   22  O   UNL     1     -10.540   8.475  70.727  1.00  0.00    -0.197 OA 
HETATM   23  C   UNL     1      -7.462  10.272  64.710  1.00  0.00    -0.103 C  
HETATM   24  H   UNL     1     -11.230   8.014  71.188  1.00  0.00     0.000 HD 
HETATM   25  C   UNL     1      -6.636  10.611  63.706  1.00  0.00     0.178 C  
HETATM   26  C   UNL     1      -6.944  10.034  66.061  1.00  0.00    -0.110 C  
HETATM   27  C   UNL     1      -5.534   9.471  66.013  1.00  0.00    -0.040 C  
HETATM   28  C   UNL     1      -5.897   9.332  63.457  1.00  0.00    -0.087 C  
HETATM   29  C   UNL     1      -5.191   8.737  64.670  1.00  0.00    -0.039 C  
HETATM   30  O   UNL     1      -5.891   8.825  62.341  1.00  0.00    -0.087 OA 
BRANCH  20  31
HETATM   31  C   UNL     1     -11.898  10.532  71.108  1.00  0.00    -0.295 C  
HETATM   32  C   UNL     1     -12.780   9.834  72.103  1.00  0.00    -0.410 C  
HETATM   33  O   UNL     1     -11.915  11.766  71.076  1.00  0.00    -0.190 OA 
ENDBRANCH  20  31
ENDBRANCH   7  10
ENDBRANCH   2   4
TORSDOF 3
ENDMDL
MODEL       96
REMARK 921   NORMALIZED FREE ENERGY PREDICTED BY IDOCK:    3.24 KCAL/MOL
REMARK 922        TOTAL FREE ENERGY PREDICTED BY IDOCK:    2.76 KCAL/MOL
REMARK 923 INTER-LIGAND FREE ENERGY PREDICTED BY IDOCK:    2.49 KCAL/MOL
REMARK 924 INTRA-LIGAND FREE ENERGY PREDICTED BY IDOCK:    0.26 KCAL/MOL
REMARK 927      BINDING AFFINITY PREDICTED BY RF-SCORE:    0.00 PKD
ROOT
HETATM    1  C   UNL     1      -9.862  17.491  70.149  1.00  0.00     1.364 C  
HETATM    2  N   UNL     1     -10.747  16.635  69.372  1.00  0.00    -0.336 NA 
HETATM    3  C   UNL     1     -11.842  17.279  68.651  1.00  0.00     1.544 C  
ENDROOT
BRANCH   2   4
HETATM    4  C   UNL     1     -10.646  15.249  69.400  1.00  0.00    -0.256 A  
HETATM    5  C   UNL     1     -11.726  14.399  69.686  1.00  0.00    -0.362 A  
HETATM    6  C   UNL     1     -11.617  12.986  69.631  1.00  0.00    -0.322 A  
HETATM    7  C   UNL     1     -10.429  12.364  69.220  1.00  0.00     0.176 A  
HETATM    8  C   UNL     1      -9.318  13.207  69.084  1.00  0.00     0.608 A  
HETATM    9  C   UNL     1      -9.433  14.602  69.149  1.00  0.00    -0.070 A  
BRANCH   7  10
HETATM   10  C   UNL     1     -10.336  10.864  68.816  1.00  0.00    -0.215 C  
HETATM   11  C   UNL     1     -10.805  10.588  67.315  1.00  0.00    -0.338 C  
HETATM   12  C   UNL     1      -9.770  11.002  66.210  1.00  0.00    -0.244 C  
HETATM   13  C   UNL     1      -9.608  12.542  66.175  1.00  0.00    -0.230 C  
HETATM   14  C   UNL     1      -8.472  10.252  66.603  1.00  0.00    -0.124 C  
HETATM   15  C   UNL     1      -7.615  10.368  65.354  1.00  0.00    -0.131 C  
HETATM   16  C   UNL     1      -7.870  10.665  67.954  1.00  0.00    -0.105 C  
HETATM   17  C   UNL     1      -8.598   9.887  64.302  1.00  0.00    -0.199 C  
HETATM   18  C   UNL     1      -6.449  10.049  68.093  1.00  0.00    -0.055 C  
HETATM   19  C   UNL     1      -6.213   9.159  69.294  1.00  0.00    -0.041 C  
HETATM   20  C   UNL     1      -9.978  10.494  64.704  1.00  0.00    -0.347 C  
HETATM   21  C   UNL     1      -8.886  10.305  69.075  1.00  0.00    -0.170 C  
HETATM   22  O   UNL     1     -10.911   9.421  64.639  1.00  0.00     1.672 OA 
HETATM   23  C   UNL     1      -7.010   9.664  70.438  1.00  0.00    -0.128 C  
HETATM   24  H   UNL     1     -11.034   9.120  63.746  1.00  0.00     0.000 HD 
HETATM   25  C   UNL     1      -6.509   9.720  71.683  1.00  0.00     0.330 C  
HETATM   26  C   UNL     1      -8.459   9.683  70.211  1.00  0.00    -0.221 C  
HETATM   27  C   UNL     1      -9.201   9.024  71.361  1.00  0.00    -0.293 C  
HETATM   28  C   UNL     1      -6.855   8.368  72.227  1.00  0.00    -0.089 C  
HETATM   29  C   UNL     1      -8.333   7.997  72.168  1.00  0.00    -0.188 C  
HETATM   30  O   UNL     1      -5.980   7.635  72.672  1.00  0.00    -0.040 OA 
BRANCH  20  31
HETATM   31  C   UNL     1     -10.254  11.604  63.626  1.00  0.00    -0.412 C  
HETATM   32  C   UNL     1      -9.238  12.690  63.418  1.00  0.00     1.878 C  
HETATM   33  O   UNL     1     -11.292  11.636  62.957  1.00  0.00    -0.165 OA 
ENDBRANCH  20  31
ENDBRANCH   7  10
ENDBRANCH   2   4
TORSDOF 3
ENDMDL
MODEL       97
REMARK 921   NORMALIZED FREE ENERGY PREDICTED BY IDOCK:    4.85 KCAL/MOL
REMARK 922        TOTAL FREE ENERGY PREDICTED BY IDOCK:    4.64 KCAL/MOL
REMARK 923 INTER-LIGAND FREE ENERGY PREDICTED BY IDOCK:    4.08 KCAL/MOL
REMARK 924 INTRA-LIGAND FREE ENERGY PREDICTED BY IDOCK:    0.56 KCAL/MOL
REMARK 927      BINDING AFFINITY PREDICTED BY RF-SCORE:    0.00 PKD
ROOT
HETATM    1  C   UNL     1      -5.217   9.316  67.738  1.00  0.00    -0.034 C  
HETATM    2  N   UNL     1      -6.390   9.859  68.407  1.00  0.00    -0.050 NA 
HETATM    3  C   UNL     1      -6.985   9.060  69.475  1.00  0.00    -0.051 C  
ENDROOT
BRANCH   2   4
HETATM    4  C   UNL     1      -7.006  11.030  67.981  1.00  0.00    -0.068 A  
HETATM    5  C   UNL     1      -7.434  11.245  66.661  1.00  0.00    -0.133 A  
HETATM    6  C   UNL     1      -8.130  12.416  66.268  1.00  0.00     0.506 A  
HETATM    7  C   UNL     1      -8.489  13.398  67.204  1.00  0.00    -0.179 A  
HETATM    8  C   UNL     1      -7.932  13.250  68.481  1.00  0.00    -0.097 A  
HETATM    9  C   UNL     1      -7.236  12.094  68.858  1.00  0.00    -0.079 A  
BRANCH   7  10
HETATM   10  C   UNL     1      -9.526  14.522  66.919  1.00  0.00    -0.263 C  
HETATM   11  C   UNL     1     -10.195  14.408  65.473  1.00  0.00    -0.386 C  
HETATM   12  C   UNL     1     -11.289  13.292  65.334  1.00  0.00    -0.317 C  
HETATM   13  C   UNL     1     -10.645  11.889  65.457  1.00  0.00    -0.313 C  
HETATM   14  C   UNL     1     -12.302  13.609  66.463  1.00  0.00    -0.412 C  
HETATM   15  C   UNL     1     -13.510  12.765  66.090  1.00  0.00     3.439 C  
HETATM   16  C   UNL     1     -11.738  13.504  67.887  1.00  0.00    -0.392 C  
HETATM   17  C   UNL     1     -13.689  13.170  64.638  1.00  0.00     2.028 C  
HETATM   18  C   UNL     1     -12.908  13.573  68.910  1.00  0.00     1.203 C  
HETATM   19  C   UNL     1     -12.837  14.676  69.944  1.00  0.00    -0.007 C  
HETATM   20  C   UNL     1     -12.248  13.283  64.049  1.00  0.00    -0.410 C  
HETATM   21  C   UNL     1     -10.620  14.572  68.052  1.00  0.00    -0.237 C  
HETATM   22  O   UNL     1     -12.205  14.526  63.357  1.00  0.00    -0.988 OA 
HETATM   23  C   UNL     1     -11.418  14.924  70.294  1.00  0.00    -0.315 C  
HETATM   24  H   UNL     1     -12.773  14.520  62.596  1.00  0.00     0.000 HD 
HETATM   25  C   UNL     1     -11.025  15.127  71.563  1.00  0.00    -0.084 C  
HETATM   26  C   UNL     1     -10.578  15.351  69.170  1.00  0.00    -0.248 C  
HETATM   27  C   UNL     1      -9.774  16.589  69.529  1.00  0.00    -0.041 C  
HETATM   28  C   UNL     1     -11.169  16.611  71.706  1.00  0.00     0.473 C  
HETATM   29  C   UNL     1     -10.411  17.445  70.679  1.00  0.00     1.490 C  
HETATM   30  O   UNL     1     -11.865  17.085  72.597  1.00  0.00    -0.156 OA 
BRANCH  20  31
HETATM   31  C   UNL     1     -12.113  12.047  63.088  1.00  0.00    -0.240 C  
HETATM   32  C   UNL     1     -10.745  11.544  62.730  1.00  0.00     0.246 C  
HETATM   33  O   UNL     1     -13.093  11.486  62.587  1.00  0.00     0.195 OA 
ENDBRANCH  20  31
ENDBRANCH   7  10
ENDBRANCH   2   4
TORSDOF 3
ENDMDL
MODEL       98
REMARK 921   NORMALIZED FREE ENERGY PREDICTED BY IDOCK:    5.70 KCAL/MOL
REMARK 922        TOTAL FREE ENERGY PREDICTED BY IDOCK:    5.64 KCAL/MOL
REMARK 923 INTER-LIGAND FREE ENERGY PREDICTED BY IDOCK:    3.49 KCAL/MOL
REMARK 924 INTRA-LIGAND FREE ENERGY PREDICTED BY IDOCK:    2.15 KCAL/MOL
REMARK 927      BINDING AFFINITY PREDICTED BY RF-SCORE:    0.00 PKD
ROOT
HETATM    1  C   UNL     1     -11.871   9.020  67.690  1.00  0.00     3.178 C  
HETATM    2  N   UNL     1     -11.006   9.932  66.956  1.00  0.00    -0.118 NA 
HETATM    3  C   UNL     1     -10.271   9.391  65.816  1.00  0.00     0.046 C  
ENDROOT
BRANCH   2   4
HETATM    4  C   UNL     1     -10.780  11.237  67.380  1.00  0.00    -0.242 A  
HETATM    5  C   UNL     1     -11.796  12.086  67.848  1.00  0.00    -0.320 A  
HETATM    6  C   UNL     1     -11.530  13.385  68.349  1.00  0.00    -0.351 A  
HETATM    7  C   UNL     1     -10.217  13.866  68.466  1.00  0.00    -0.240 A  
HETATM    8  C   UNL     1      -9.228  13.079  67.862  1.00  0.00    -0.208 A  
HETATM    9  C   UNL     1      -9.501  11.800  67.360  1.00  0.00    -0.174 A  
BRANCH   7  10
HETATM   10  C   UNL     1      -9.829  15.119  69.302  1.00  0.00    -0.231 C  
HETATM   11  C   UNL     1      -8.881  14.777  70.542  1.00  0.00     1.681 C  
HETATM   12  C   UNL     1      -7.382  14.495  70.173  1.00  0.00     0.319 C  
HETATM   13  C   UNL     1      -7.266  13.181  69.360  1.00  0.00     0.247 C  
HETATM   14  C   UNL     1      -6.941  15.752  69.382  1.00  0.00    -0.202 C  
HETATM   15  C   UNL     1      -5.426  15.628  69.353  1.00  0.00    -0.108 C  
HETATM   16  C   UNL     1      -7.688  15.981  68.061  1.00  0.00    -0.140 C  
HETATM   17  C   UNL     1      -5.143  15.398  70.827  1.00  0.00    -0.145 C  
HETATM   18  C   UNL     1      -6.970  17.097  67.250  1.00  0.00    -0.196 C  
HETATM   19  C   UNL     1      -7.804  18.303  66.874  1.00  0.00    -0.247 C  
HETATM   20  C   UNL     1      -6.277  14.454  71.334  1.00  0.00     0.178 C  
HETATM   21  C   UNL     1      -9.190  16.227  68.382  1.00  0.00    -0.203 C  
HETATM   22  O   UNL     1      -6.764  15.038  72.537  1.00  0.00     1.549 OA 
HETATM   23  C   UNL     1      -9.200  17.870  66.626  1.00  0.00    -0.288 C  
HETATM   24  H   UNL     1      -6.109  15.014  73.225  1.00  0.00     0.000 HD 
HETATM   25  C   UNL     1      -9.919  18.349  65.596  1.00  0.00     0.285 C  
HETATM   26  C   UNL     1      -9.861  17.248  67.778  1.00  0.00    -0.281 C  
HETATM   27  C   UNL     1     -11.225  17.870  68.027  1.00  0.00     0.334 C  
HETATM   28  C   UNL     1     -10.556  19.566  66.193  1.00  0.00    -0.487 C  
HETATM   29  C   UNL     1     -11.368  19.326  67.461  1.00  0.00     0.264 C  
HETATM   30  O   UNL     1     -10.404  20.665  65.673  1.00  0.00     0.023 OA 
BRANCH  20  31
HETATM   31  C   UNL     1      -5.568  13.073  71.574  1.00  0.00     0.049 C  
HETATM   32  C   UNL     1      -5.280  12.184  70.398  1.00  0.00    -0.116 C  
HETATM   33  O   UNL     1      -5.260  12.671  72.700  1.00  0.00    -0.370 OA 
ENDBRANCH  20  31
ENDBRANCH   7  10
ENDBRANCH   2   4
TORSDOF 3
ENDMDL
MODEL       99
REMARK 921   NORMALIZED FREE ENERGY PREDICTED BY IDOCK:    6.32 KCAL/MOL
REMARK 922        TOTAL FREE ENERGY PREDICTED BY IDOCK:    6.37 KCAL/MOL
REMARK 923 INTER-LIGAND FREE ENERGY PREDICTED BY IDOCK:    5.09 KCAL/MOL
REMARK 924 INTRA-LIGAND FREE ENERGY PREDICTED BY IDOCK:    1.28 KCAL/MOL
REMARK 927      BINDING AFFINITY PREDICTED BY RF-SCORE:    0.00 PKD
ROOT
HETATM    1  C   UNL     1      -7.651  10.115  63.511  1.00  0.00    -0.138 C  
HETATM    2  N   UNL     1      -8.940  10.284  64.167  1.00  0.00    -0.216 NA 
HETATM    3  C   UNL     1     -10.095   9.631  63.559  1.00  0.00     1.633 C  
ENDROOT
BRANCH   2   4
HETATM    4  C   UNL     1      -9.106  11.128  65.260  1.00  0.00    -0.167 A  
HETATM    5  C   UNL     1      -9.233  10.670  66.580  1.00  0.00    -0.184 A  
HETATM    6  C   UNL     1      -9.322  11.552  67.686  1.00  0.00    -0.171 A  
HETATM    7  C   UNL     1      -9.220  12.942  67.519  1.00  0.00    -0.192 A  
HETATM    8  C   UNL     1      -9.245  13.395  66.194  1.00  0.00     0.008 A  
HETATM    9  C   UNL     1      -9.166  12.516  65.106  1.00  0.00     0.486 A  
BRANCH   7  10
HETATM   10  C   UNL     1      -8.973  13.936  68.690  1.00  0.00    -0.079 C  
HETATM   11  C   UNL     1      -7.813  14.990  68.385  1.00  0.00    -0.125 C  
HETATM   12  C   UNL     1      -8.213  16.155  67.412  1.00  0.00    -0.185 C  
HETATM   13  C   UNL     1      -8.472  15.602  65.989  1.00  0.00     0.184 C  
HETATM   14  C   UNL     1      -9.468  16.785  68.069  1.00  0.00    -0.233 C  
HETATM   15  C   UNL     1      -9.618  18.104  67.331  1.00  0.00    -0.275 C  
HETATM   16  C   UNL     1     -10.683  15.852  68.170  1.00  0.00    -0.302 C  
HETATM   17  C   UNL     1      -8.210  18.656  67.467  1.00  0.00    -0.266 C  
HETATM   18  C   UNL     1     -11.933  16.679  68.585  1.00  0.00     0.648 C  
HETATM   19  C   UNL     1     -12.643  16.244  69.848  1.00  0.00     0.962 C  
HETATM   20  C   UNL     1      -7.257  17.434  67.278  1.00  0.00    -0.167 C  
HETATM   21  C   UNL     1     -10.312  14.660  69.098  1.00  0.00    -0.222 C  
HETATM   22  O   UNL     1      -6.320  17.500  68.348  1.00  0.00    -0.169 OA 
HETATM   23  C   UNL     1     -12.548  14.770  69.976  1.00  0.00    -0.268 C  
HETATM   24  H   UNL     1      -5.753  18.259  68.267  1.00  0.00     0.000 HD 
HETATM   25  C   UNL     1     -13.594  14.023  70.368  1.00  0.00     0.676 C  
HETATM   26  C   UNL     1     -11.179  14.251  70.066  1.00  0.00    -0.154 C  
HETATM   27  C   UNL     1     -11.034  13.294  71.237  1.00  0.00     3.611 C  
HETATM   28  C   UNL     1     -13.438  14.016  71.858  1.00  0.00    -0.421 C  
HETATM   29  C   UNL     1     -12.091  13.521  72.374  1.00  0.00     0.948 C  
HETATM   30  O   UNL     1     -14.351  14.399  72.580  1.00  0.00    -0.480 OA 
BRANCH  20  31
HETATM   31  C   UNL     1      -6.591  17.662  65.873  1.00  0.00    -0.204 C  
HETATM   32  C   UNL     1      -5.134  17.347  65.694  1.00  0.00     0.174 C  
HETATM   33  O   UNL     1      -7.214  18.121  64.910  1.00  0.00     0.380 OA 
ENDBRANCH  20  31
ENDBRANCH   7  10
ENDBRANCH   2   4
TORSDOF 3
ENDMDL
MODEL      100
REMARK 921   NORMALIZED FREE ENERGY PREDICTED BY IDOCK:    6.68 KCAL/MOL
REMARK 922        TOTAL FREE ENERGY PREDICTED BY IDOCK:    6.80 KCAL/MOL
REMARK 923 INTER-LIGAND FREE ENERGY PREDICTED BY IDOCK:    6.36 KCAL/MOL
REMARK 924 INTRA-LIGAND FREE ENERGY PREDICTED BY IDOCK:    0.44 KCAL/MOL
REMARK 927      BINDING AFFINITY PREDICTED BY RF-SCORE:    0.00 PKD
ROOT
HETATM    1  C   UNL     1      -5.457  17.270  67.585  1.00  0.00    -0.120 C  
HETATM    2  N   UNL     1      -5.946  16.443  68.679  1.00  0.00    -0.119 NA 
HETATM    3  C   UNL     1      -5.313  16.612  69.984  1.00  0.00    -0.187 C  
ENDROOT
BRANCH   2   4
HETATM    4  C   UNL     1      -6.890  15.442  68.482  1.00  0.00    -0.113 A  
HETATM    5  C   UNL     1      -6.827  14.514  67.430  1.00  0.00    -0.067 A  
HETATM    6  C   UNL     1      -7.758  13.453  67.295  1.00  0.00    -0.092 A  
HETATM    7  C   UNL     1      -8.759  13.237  68.254  1.00  0.00    -0.168 A  
HETATM    8  C   UNL     1      -8.908  14.248  69.212  1.00  0.00     0.277 A  
HETATM    9  C   UNL     1      -7.989  15.299  69.332  1.00  0.00    -0.223 A  
BRANCH   7  10
HETATM   10  C   UNL     1      -9.588  11.924  68.355  1.00  0.00    -0.196 C  
HETATM   11  C   UNL     1     -10.471  11.638  67.055  1.00  0.00    -0.258 C  
HETATM   12  C   UNL     1      -9.673  11.101  65.815  1.00  0.00    -0.266 C  
HETATM   13  C   UNL     1      -8.721  12.196  65.273  1.00  0.00     0.810 C  
HETATM   14  C   UNL     1      -8.934   9.849  66.351  1.00  0.00    -0.169 C  
HETATM   15  C   UNL     1      -8.474   9.150  65.083  1.00  0.00    -0.182 C  
HETATM   16  C   UNL     1      -7.905  10.128  67.455  1.00  0.00    -0.102 C  
HETATM   17  C   UNL     1      -9.778   9.110  64.305  1.00  0.00     1.039 C  
HETATM   18  C   UNL     1      -7.055   8.850  67.701  1.00  0.00    -0.076 C  
HETATM   19  C   UNL     1      -7.058   8.295  69.109  1.00  0.00    -0.064 C  
HETATM   20  C   UNL     1     -10.472  10.482  64.571  1.00  0.00    -0.081 C  
HETATM   21  C   UNL     1      -8.654  10.700  68.692  1.00  0.00    -0.144 C  
HETATM   22  O   UNL     1     -11.819  10.178  64.914  1.00  0.00     2.736 OA 
HETATM   23  C   UNL     1      -7.160   9.417  70.073  1.00  0.00    -0.083 C  
HETATM   24  H   UNL     1     -12.292   9.811  64.177  1.00  0.00     0.000 HD 
HETATM   25  C   UNL     1      -6.429   9.454  71.200  1.00  0.00    -0.067 C  
HETATM   26  C   UNL     1      -8.375  10.228  69.940  1.00  0.00    -0.025 C  
HETATM   27  C   UNL     1      -9.058  10.414  71.285  1.00  0.00     3.482 C  
HETATM   28  C   UNL     1      -7.309   8.730  72.173  1.00  0.00     0.051 C  
HETATM   29  C   UNL     1      -8.717   9.292  72.327  1.00  0.00     0.976 C  
HETATM   30  O   UNL     1      -6.890   7.750  72.778  1.00  0.00    -0.066 OA 
BRANCH  20  31
HETATM   31  C   UNL     1     -10.353  11.258  63.210  1.00  0.00    -0.347 C  
HETATM   32  C   UNL     1     -11.519  12.071  62.726  1.00  0.00     0.512 C  
HETATM   33  O   UNL     1      -9.342  11.205  62.502  1.00  0.00    -0.313 OA 
ENDBRANCH  20  31
ENDBRANCH   7  10
ENDBRANCH   2   4
TORSDOF 3
ENDMDL
MODEL      101
REMARK 921   NORMALIZED FREE ENERGY PREDICTED BY IDOCK:    7.54 KCAL/MOL
REMARK 922        TOTAL FREE ENERGY PREDICTED BY IDOCK:    7.80 KCAL/MOL
REMARK 923 INTER-LIGAND FREE ENERGY PREDICTED BY IDOCK:    6.04 KCAL/MOL
REMARK 924 INTRA-LIGAND FREE ENERGY PREDICTED BY IDOCK:    1.77 KCAL/MOL
REMARK 927      BINDING AFFINITY PREDICTED BY RF-SCORE:    0.00 PKD
ROOT
HETATM    1  C   UNL     1     -12.070   4.966  73.966  1.00  0.00     2.611 C  
HETATM    2  N   UNL     1     -11.812   4.433  72.636  1.00  0.00     0.431 NA 
HETATM    3  C   UNL     1     -11.899   2.985  72.463  1.00  0.00     1.637 C  
ENDROOT
BRANCH   2   4
HETATM    4  C   UNL     1     -11.381   5.240  71.590  1.00  0.00     0.228 A  
HETATM    5  C   UNL     1     -10.227   6.037  71.651  1.00  0.00    -0.245 A  
HETATM    6  C   UNL     1      -9.763   6.790  70.543  1.00  0.00    -0.184 A  
HETATM    7  C   UNL     1     -10.406   6.723  69.297  1.00  0.00    -0.221 A  
HETATM    8  C   UNL     1     -11.634   6.050  69.285  1.00  0.00     0.244 A  
HETATM    9  C   UNL     1     -12.089   5.316  70.388  1.00  0.00     3.770 A  
BRANCH   7  10
HETATM   10  C   UNL     1      -9.775   7.243  67.973  1.00  0.00    -0.157 C  
HETATM   11  C   UNL     1      -9.002   8.629  68.147  1.00  0.00    -0.141 C  
HETATM   12  C   UNL     1      -7.596   8.523  68.836  1.00  0.00    -0.096 C  
HETATM   13  C   UNL     1      -7.753   8.101  70.317  1.00  0.00    -0.085 C  
HETATM   14  C   UNL     1      -6.828   7.488  67.975  1.00  0.00    -0.067 C  
HETATM   15  C   UNL     1      -5.387   7.669  68.423  1.00  0.00    -0.027 C  
HETATM   16  C   UNL     1      -7.429   6.076  67.973  1.00  0.00    -0.085 C  
HETATM   17  C   UNL     1      -5.244   9.174  68.285  1.00  0.00    -0.037 C  
HETATM   18  C   UNL     1      -6.425   5.091  67.310  1.00  0.00    -0.049 C  
HETATM   19  C   UNL     1      -6.927   4.318  66.109  1.00  0.00    -0.066 C  
HETATM   20  C   UNL     1      -6.596   9.775  68.784  1.00  0.00    -0.046 C  
HETATM   21  C   UNL     1      -8.844   6.146  67.331  1.00  0.00    -0.106 C  
HETATM   22  O   UNL     1      -6.992  10.719  67.795  1.00  0.00    -0.075 OA 
HETATM   23  C   UNL     1      -8.371   4.032  66.285  1.00  0.00    -0.105 C  
HETATM   24  H   UNL     1      -6.399  11.461  67.764  1.00  0.00     0.000 HD 
HETATM   25  C   UNL     1      -8.900   2.837  65.973  1.00  0.00    -0.136 C  
HETATM   26  C   UNL     1      -9.220   5.222  66.402  1.00  0.00    -0.145 C  
HETATM   27  C   UNL     1     -10.409   5.139  65.459  1.00  0.00     0.091 C  
HETATM   28  C   UNL     1      -9.261   3.017  64.530  1.00  0.00    -0.140 C  
HETATM   29  C   UNL     1     -10.172   4.200  64.224  1.00  0.00    -0.133 C  
HETATM   30  O   UNL     1      -8.825   2.249  63.680  1.00  0.00    -0.088 OA 
BRANCH  20  31
HETATM   31  C   UNL     1      -6.248  10.448  70.160  1.00  0.00    -0.108 C  
HETATM   32  C   UNL     1      -5.449  11.719  70.173  1.00  0.00    -0.116 C  
HETATM   33  O   UNL     1      -6.583   9.956  71.243  1.00  0.00    -0.321 OA 
ENDBRANCH  20  31
ENDBRANCH   7  10
ENDBRANCH   2   4
TORSDOF 3
ENDMDL
MODEL      102
REMARK 921   NORMALIZED FREE ENERGY PREDICTED BY IDOCK:    7.96 KCAL/MOL
REMARK 922        TOTAL FREE ENERGY PREDICTED BY IDOCK:    8.30 KCAL/MOL
REMARK 923 INTER-LIGAND FREE ENERGY PREDICTED BY IDOCK:    7.35 KCAL/MOL
REMARK 924 INTRA-LIGAND FREE ENERGY PREDICTED BY IDOCK:    0.95 KCAL/MOL
REMARK 927      BINDING AFFINITY PREDICTED BY RF-SCORE:    0.00 PKD
ROOT
HETATM    1  C   UNL     1      -5.968   6.706  71.685  1.00  0.00    -0.037 C  
HETATM    2  N   UNL     1      -6.978   6.235  70.749  1.00  0.00    -0.066 NA 
HETATM    3  C   UNL     1      -8.272   5.839  71.299  1.00  0.00    -0.122 C  
ENDROOT
BRANCH   2   4
HETATM    4  C   UNL     1      -6.703   6.047  69.399  1.00  0.00    -0.060 A  
HETATM    5  C   UNL     1      -7.194   4.965  68.652  1.00  0.00    -0.058 A  
HETATM    6  C   UNL     1      -6.965   4.836  67.258  1.00  0.00    -0.061 A  
HETATM    7  C   UNL     1      -6.284   5.830  66.538  1.00  0.00    -0.034 A  
HETATM    8  C   UNL     1      -5.670   6.824  67.311  1.00  0.00    -0.013 A  
HETATM    9  C   UNL     1      -5.894   6.938  68.689  1.00  0.00    -0.018 A  
BRANCH   7  10
HETATM   10  C   UNL     1      -6.287   5.924  64.985  1.00  0.00    -0.037 C  
HETATM   11  C   UNL     1      -6.802   4.588  64.277  1.00  0.00    -0.045 C  
HETATM   12  C   UNL     1      -8.355   4.370  64.318  1.00  0.00    -0.110 C  
HETATM   13  C   UNL     1      -8.823   4.115  65.773  1.00  0.00    -0.122 C  
HETATM   14  C   UNL     1      -8.938   5.666  63.699  1.00  0.00     0.433 C  
HETATM   15  C   UNL     1     -10.384   5.292  63.417  1.00  0.00     1.889 C  
HETATM   16  C   UNL     1      -8.648   6.949  64.491  1.00  0.00     0.312 C  
HETATM   17  C   UNL     1     -10.187   3.992  62.658  1.00  0.00    -0.161 C  
HETATM   18  C   UNL     1      -9.509   8.111  63.920  1.00  0.00     2.351 C  
HETATM   19  C   UNL     1      -8.759   9.331  63.431  1.00  0.00    -0.193 C  
HETATM   20  C   UNL     1      -9.021   3.251  63.383  1.00  0.00    -0.092 C  
HETATM   21  C   UNL     1      -7.110   7.179  64.505  1.00  0.00    -0.058 C  
HETATM   22  O   UNL     1      -8.128   2.830  62.357  1.00  0.00    -0.069 OA 
HETATM   23  C   UNL     1      -7.555   9.532  64.272  1.00  0.00    -0.122 C  
HETATM   24  H   UNL     1      -8.523   2.167  61.803  1.00  0.00     0.000 HD 
HETATM   25  C   UNL     1      -7.178  10.751  64.693  1.00  0.00     0.315 C  
HETATM   26  C   UNL     1      -6.601   8.417  64.248  1.00  0.00    -0.067 C  
HETATM   27  C   UNL     1      -5.190   8.913  63.981  1.00  0.00    -0.056 C  
HETATM   28  C   UNL     1      -6.296  11.214  63.575  1.00  0.00     0.938 C  
HETATM   29  C   UNL     1      -5.134  10.289  63.230  1.00  0.00    -0.115 C  
HETATM   30  O   UNL     1      -6.530  12.268  62.995  1.00  0.00     3.051 OA 
BRANCH  20  31
HETATM   31  C   UNL     1      -9.711   2.047  64.119  1.00  0.00    -0.114 C  
HETATM   32  C   UNL     1     -11.018   1.523  63.599  1.00  0.00     0.011 C  
HETATM   33  O   UNL     1      -9.233   1.527  65.133  1.00  0.00    -0.124 OA 
ENDBRANCH  20  31
ENDBRANCH   7  10
ENDBRANCH   2   4
TORSDOF 3
ENDMDL
MODEL      103
REMARK 921   NORMALIZED FREE ENERGY PREDICTED BY IDOCK:    8.01 KCAL/MOL
REMARK 922        TOTAL FREE ENERGY PREDICTED BY IDOCK:    8.36 KCAL/MOL
REMARK 923 INTER-LIGAND FREE ENERGY PREDICTED BY IDOCK:    9.53 KCAL/MOL
REMARK 924 INTRA-LIGAND FREE ENERGY PREDICTED BY IDOCK:   -1.17 KCAL/MOL
REMARK 927      BINDING AFFINITY PREDICTED BY RF-SCORE:    0.00 PKD
ROOT
HETATM    1  C   UNL     1     -12.770  10.025  73.443  1.00  0.00     4.699 C  
HETATM    2  N   UNL     1     -12.518   9.256  72.233  1.00  0.00    -0.341 NA 
HETATM    3  C   UNL     1     -12.815   7.826  72.270  1.00  0.00    -0.078 C  
ENDROOT
BRANCH   2   4
HETATM    4  C   UNL     1     -11.906   9.816  71.118  1.00  0.00    -0.382 A  
HETATM    5  C   UNL     1     -11.542  11.169  71.031  1.00  0.00     0.258 A  
HETATM    6  C   UNL     1     -10.848  11.700  69.915  1.00  0.00     0.249 A  
HETATM    7  C   UNL     1     -10.427  10.876  68.860  1.00  0.00    -0.228 A  
HETATM    8  C   UNL     1     -10.922   9.565  68.881  1.00  0.00    -0.116 A  
HETATM    9  C   UNL     1     -11.616   9.051  69.984  1.00  0.00     0.081 A  
BRANCH   7  10
HETATM   10  C   UNL     1      -9.388  11.311  67.787  1.00  0.00    -0.163 C  
HETATM   11  C   UNL     1      -9.886  11.054  66.291  1.00  0.00    -0.257 C  
HETATM   12  C   UNL     1     -10.945  12.081  65.757  1.00  0.00    -0.351 C  
HETATM   13  C   UNL     1     -12.280  11.926  66.528  1.00  0.00     0.622 C  
HETATM   14  C   UNL     1     -10.271  13.462  65.958  1.00  0.00    -0.301 C  
HETATM   15  C   UNL     1     -11.134  14.391  65.120  1.00  0.00    -0.365 C  
HETATM   16  C   UNL     1      -9.986  13.836  67.420  1.00  0.00    -0.237 C  
HETATM   17  C   UNL     1     -11.157  13.631  63.806  1.00  0.00     0.177 C  
HETATM   18  C   UNL     1      -9.574  15.334  67.496  1.00  0.00    -0.206 C  
HETATM   19  C   UNL     1      -8.224  15.633  68.111  1.00  0.00    -0.144 C  
HETATM   20  C   UNL     1     -11.282  12.124  64.191  1.00  0.00    -0.368 C  
HETATM   21  C   UNL     1      -8.966  12.815  67.998  1.00  0.00    -0.196 C  
HETATM   22  O   UNL     1     -10.295  11.442  63.425  1.00  0.00    -0.357 OA 
HETATM   23  C   UNL     1      -7.948  14.645  69.181  1.00  0.00    -0.097 C  
HETATM   24  H   UNL     1     -10.496  11.468  62.497  1.00  0.00     0.000 HD 
HETATM   25  C   UNL     1      -7.405  15.005  70.356  1.00  0.00     0.482 C  
HETATM   26  C   UNL     1      -7.900  13.251  68.728  1.00  0.00     0.008 C  
HETATM   27  C   UNL     1      -6.647  12.555  69.232  1.00  0.00    -0.089 C  
HETATM   28  C   UNL     1      -5.937  14.893  70.076  1.00  0.00    -0.143 C  
HETATM   29  C   UNL     1      -5.469  13.536  69.563  1.00  0.00    -0.088 C  
HETATM   30  O   UNL     1      -5.197  15.855  70.250  1.00  0.00    -0.134 OA 
BRANCH  20  31
HETATM   31  C   UNL     1     -12.747  11.730  63.782  1.00  0.00    -0.255 C  
HETATM   32  C   UNL     1     -13.064  10.290  63.494  1.00  0.00     7.638 C  
HETATM   33  O   UNL     1     -13.649  12.564  63.658  1.00  0.00     0.212 OA 
ENDBRANCH  20  31
ENDBRANCH   7  10
ENDBRANCH   2   4
TORSDOF 3
ENDMDL
MODEL      104
REMARK 921   NORMALIZED FREE ENERGY PREDICTED BY IDOCK:    9.24 KCAL/MOL
REMARK 922        TOTAL FREE ENERGY PREDICTED BY IDOCK:    9.80 KCAL/MOL
REMARK 923 INTER-LIGAND FREE ENERGY PREDICTED BY IDOCK:    8.96 KCAL/MOL
REMARK 924 INTRA-LIGAND FREE ENERGY PREDICTED BY IDOCK:    0.84 KCAL/MOL
REMARK 927      BINDING AFFINITY PREDICTED BY RF-SCORE:    0.00 PKD
ROOT
HETATM    1  C   UNL     1      -6.045  18.813  73.580  1.00  0.00     7.111 C  
HETATM    2  N   UNL     1      -5.578  19.442  72.352  1.00  0.00    -0.128 NA 
HETATM    3  C   UNL     1      -5.138  20.832  72.434  1.00  0.00     0.507 C  
ENDROOT
BRANCH   2   4
HETATM    4  C   UNL     1      -5.655  18.802  71.121  1.00  0.00    -0.092 A  
HETATM    5  C   UNL     1      -5.609  17.407  70.968  1.00  0.00     0.187 A  
HETATM    6  C   UNL     1      -5.768  16.774  69.710  1.00  0.00    -0.206 A  
HETATM    7  C   UNL     1      -6.049  17.515  68.552  1.00  0.00    -0.173 A  
HETATM    8  C   UNL     1      -5.943  18.906  68.684  1.00  0.00    -0.228 A  
HETATM    9  C   UNL     1      -5.776  19.523  69.930  1.00  0.00    -0.287 A  
BRANCH   7  10
HETATM   10  C   UNL     1      -6.562  16.883  67.226  1.00  0.00    -0.205 C  
HETATM   11  C   UNL     1      -6.221  15.328  67.100  1.00  0.00     0.351 C  
HETATM   12  C   UNL     1      -7.125  14.378  67.963  1.00  0.00    -0.144 C  
HETATM   13  C   UNL     1      -6.855  14.603  69.471  1.00  0.00    -0.165 C  
HETATM   14  C   UNL     1      -8.571  14.734  67.533  1.00  0.00    -0.198 C  
HETATM   15  C   UNL     1      -9.390  13.582  68.091  1.00  0.00    -0.213 C  
HETATM   16  C   UNL     1      -9.005  16.172  67.852  1.00  0.00    -0.183 C  
HETATM   17  C   UNL     1      -8.602  12.401  67.554  1.00  0.00    -0.177 C  
HETATM   18  C   UNL     1     -10.537  16.308  67.626  1.00  0.00    -0.311 C  
HETATM   19  C   UNL     1     -10.984  17.364  66.638  1.00  0.00     0.201 C  
HETATM   20  C   UNL     1      -7.099  12.799  67.688  1.00  0.00    -0.145 C  
HETATM   21  C   UNL     1      -8.104  17.148  67.042  1.00  0.00    -0.228 C  
HETATM   22  O   UNL     1      -6.502  12.498  66.431  1.00  0.00    -0.158 OA 
HETATM   23  C   UNL     1     -10.053  18.516  66.702  1.00  0.00    -0.414 C  
HETATM   24  H   UNL     1      -6.486  11.562  66.269  1.00  0.00     0.000 HD 
HETATM   25  C   UNL     1     -10.492  19.785  66.674  1.00  0.00    -0.615 C  
HETATM   26  C   UNL     1      -8.661  18.195  66.371  1.00  0.00    -0.251 C  
HETATM   27  C   UNL     1      -8.105  19.170  65.346  1.00  0.00     0.796 C  
HETATM   28  C   UNL     1     -10.521  20.079  65.206  1.00  0.00     0.149 C  
HETATM   29  C   UNL     1      -9.207  19.859  64.467  1.00  0.00     3.976 C  
HETATM   30  O   UNL     1     -11.556  20.460  64.669  1.00  0.00     0.486 OA 
BRANCH  20  31
HETATM   31  C   UNL     1      -6.551  11.898  68.852  1.00  0.00    -0.087 C  
HETATM   32  C   UNL     1      -7.390  10.756  69.351  1.00  0.00    -0.128 C  
HETATM   33  O   UNL     1      -5.463  12.107  69.398  1.00  0.00    -0.064 OA 
ENDBRANCH  20  31
ENDBRANCH   7  10
ENDBRANCH   2   4
TORSDOF 3
ENDMDL
MODEL      105
REMARK 921   NORMALIZED FREE ENERGY PREDICTED BY IDOCK:   10.81 KCAL/MOL
REMARK 922        TOTAL FREE ENERGY PREDICTED BY IDOCK:   11.64 KCAL/MOL
REMARK 923 INTER-LIGAND FREE ENERGY PREDICTED BY IDOCK:   10.98 KCAL/MOL
REMARK 924 INTRA-LIGAND FREE ENERGY PREDICTED BY IDOCK:    0.67 KCAL/MOL
REMARK 927      BINDING AFFINITY PREDICTED BY RF-SCORE:    0.00 PKD
ROOT
HETATM    1  C   UNL     1      -8.414   8.759  74.472  1.00  0.00     0.934 C  
HETATM    2  N   UNL     1      -7.761   9.858  73.775  1.00  0.00     2.801 NA 
HETATM    3  C   UNL     1      -7.522  11.085  74.529  1.00  0.00     6.626 C  
ENDROOT
BRANCH   2   4
HETATM    4  C   UNL     1      -7.479   9.805  72.415  1.00  0.00     2.247 A  
HETATM    5  C   UNL     1      -8.455   9.590  71.429  1.00  0.00     0.566 A  
HETATM    6  C   UNL     1      -8.156   9.618  70.043  1.00  0.00    -0.190 A  
HETATM    7  C   UNL     1      -6.868   9.932  69.583  1.00  0.00    -0.076 A  
HETATM    8  C   UNL     1      -5.872   9.995  70.566  1.00  0.00    -0.084 A  
HETATM    9  C   UNL     1      -6.176   9.957  71.934  1.00  0.00     0.437 A  
BRANCH   7  10
HETATM   10  C   UNL     1      -6.547  10.308  68.108  1.00  0.00    -0.057 C  
HETATM   11  C   UNL     1      -6.258   9.037  67.185  1.00  0.00    -0.059 C  
HETATM   12  C   UNL     1      -7.531   8.225  66.755  1.00  0.00    -0.087 C  
HETATM   13  C   UNL     1      -8.171   7.538  67.987  1.00  0.00    -0.124 C  
HETATM   14  C   UNL     1      -8.449   9.281  66.089  1.00  0.00    -0.135 C  
HETATM   15  C   UNL     1      -9.485   8.432  65.370  1.00  0.00     0.255 C  
HETATM   16  C   UNL     1      -8.930  10.401  67.022  1.00  0.00    -0.150 C  
HETATM   17  C   UNL     1      -8.579   7.480  64.610  1.00  0.00     0.213 C  
HETATM   18  C   UNL     1     -10.046  11.219  66.311  1.00  0.00    -0.271 C  
HETATM   19  C   UNL     1      -9.799  12.703  66.152  1.00  0.00    -0.265 C  
HETATM   20  C   UNL     1      -7.413   7.133  65.587  1.00  0.00    -0.082 C  
HETATM   21  C   UNL     1      -7.690  11.207  67.501  1.00  0.00    -0.116 C  
HETATM   22  O   UNL     1      -6.213   7.296  64.839  1.00  0.00    -0.037 OA 
HETATM   23  C   UNL     1      -9.031  13.196  67.320  1.00  0.00    -0.216 C  
HETATM   24  H   UNL     1      -6.144   6.649  64.147  1.00  0.00     0.000 HD 
HETATM   25  C   UNL     1      -9.323  14.362  67.920  1.00  0.00    -0.203 C  
HETATM   26  C   UNL     1      -7.716  12.570  67.495  1.00  0.00    -0.165 C  
HETATM   27  C   UNL     1      -6.633  13.619  67.688  1.00  0.00    -0.176 C  
HETATM   28  C   UNL     1      -8.488  15.336  67.145  1.00  0.00    -0.209 C  
HETATM   29  C   UNL     1      -6.998  15.022  67.088  1.00  0.00     0.075 C  
HETATM   30  O   UNL     1      -9.008  16.303  66.601  1.00  0.00    -0.208 OA 
BRANCH  20  31
HETATM   31  C   UNL     1      -7.673   5.640  66.001  1.00  0.00    -0.095 C  
HETATM   32  C   UNL     1      -7.220   4.538  65.087  1.00  0.00    -0.068 C  
HETATM   33  O   UNL     1      -8.264   5.332  67.041  1.00  0.00    -0.108 OA 
ENDBRANCH  20  31
ENDBRANCH   7  10
ENDBRANCH   2   4
TORSDOF 3
ENDMDL
MODEL      106
REMARK 921   NORMALIZED FREE ENERGY PREDICTED BY IDOCK:   13.10 KCAL/MOL
REMARK 922        TOTAL FREE ENERGY PREDICTED BY IDOCK:   14.35 KCAL/MOL
REMARK 923 INTER-LIGAND FREE ENERGY PREDICTED BY IDOCK:   13.47 KCAL/MOL
REMARK 924 INTRA-LIGAND FREE ENERGY PREDICTED BY IDOCK:    0.88 KCAL/MOL
REMARK 927      BINDING AFFINITY PREDICTED BY RF-SCORE:    0.00 PKD
ROOT
HETATM    1  C   UNL     1      -6.514  18.619  70.101  1.00  0.00     0.153 C  
HETATM    2  N   UNL     1      -6.509  17.438  70.951  1.00  0.00     1.518 NA 
HETATM    3  C   UNL     1      -5.898  17.563  72.272  1.00  0.00     2.020 C  
ENDROOT
BRANCH   2   4
HETATM    4  C   UNL     1      -6.952  16.201  70.498  1.00  0.00     1.253 A  
HETATM    5  C   UNL     1      -7.243  15.122  71.348  1.00  0.00     2.165 A  
HETATM    6  C   UNL     1      -7.768  13.896  70.869  1.00  0.00     3.384 A  
HETATM    7  C   UNL     1      -8.089  13.722  69.514  1.00  0.00     0.738 A  
HETATM    8  C   UNL     1      -7.658  14.740  68.654  1.00  0.00    -0.126 A  
HETATM    9  C   UNL     1      -7.130  15.945  69.135  1.00  0.00    -0.185 A  
BRANCH   7  10
HETATM   10  C   UNL     1      -8.965  12.552  68.979  1.00  0.00     0.485 C  
HETATM   11  C   UNL     1     -10.391  13.032  68.441  1.00  0.00    -0.257 C  
HETATM   12  C   UNL     1     -10.370  13.728  67.035  1.00  0.00    -0.260 C  
HETATM   13  C   UNL     1      -9.630  15.086  67.119  1.00  0.00    -0.222 C  
HETATM   14  C   UNL     1      -9.671  12.699  66.111  1.00  0.00    -0.253 C  
HETATM   15  C   UNL     1      -9.982  13.220  64.717  1.00  0.00    -0.150 C  
HETATM   16  C   UNL     1      -8.213  12.388  66.474  1.00  0.00     0.160 C  
HETATM   17  C   UNL     1     -11.487  13.398  64.822  1.00  0.00    -0.359 C  
HETATM   18  C   UNL     1      -7.559  11.570  65.324  1.00  0.00     1.064 C  
HETATM   19  C   UNL     1      -6.983  10.221  65.697  1.00  0.00    -0.133 C  
HETATM   20  C   UNL     1     -11.748  13.965  66.251  1.00  0.00    -0.383 C  
HETATM   21  C   UNL     1      -8.188  11.729  67.883  1.00  0.00    -0.147 C  
HETATM   22  O   UNL     1     -12.801  13.179  66.798  1.00  0.00     0.088 OA 
HETATM   23  C   UNL     1      -6.440  10.288  67.075  1.00  0.00    -0.073 C  
HETATM   24  H   UNL     1     -13.618  13.320  66.333  1.00  0.00     0.000 HD 
HETATM   25  C   UNL     1      -5.267   9.721  67.404  1.00  0.00    -0.035 C  
HETATM   26  C   UNL     1      -7.429  10.619  68.106  1.00  0.00    -0.090 C  
HETATM   27  C   UNL     1      -7.355   9.642  69.267  1.00  0.00    -0.079 C  
HETATM   28  C   UNL     1      -5.682   8.335  67.792  1.00  0.00    -0.039 C  
HETATM   29  C   UNL     1      -6.742   8.250  68.884  1.00  0.00    -0.053 C  
HETATM   30  O   UNL     1      -5.186   7.360  67.238  1.00  0.00    -0.022 OA 
BRANCH  20  31
HETATM   31  C   UNL     1     -12.167  15.461  66.015  1.00  0.00     0.742 C  
HETATM   32  C   UNL     1     -11.654  16.182  64.802  1.00  0.00    -0.056 C  
HETATM   33  O   UNL     1     -12.883  16.083  66.806  1.00  0.00     2.621 OA 
ENDBRANCH  20  31
ENDBRANCH   7  10
ENDBRANCH   2   4
TORSDOF 3
ENDMDL
MODEL      107
REMARK 921   NORMALIZED FREE ENERGY PREDICTED BY IDOCK:   13.42 KCAL/MOL
REMARK 922        TOTAL FREE ENERGY PREDICTED BY IDOCK:   14.72 KCAL/MOL
REMARK 923 INTER-LIGAND FREE ENERGY PREDICTED BY IDOCK:   13.34 KCAL/MOL
REMARK 924 INTRA-LIGAND FREE ENERGY PREDICTED BY IDOCK:    1.38 KCAL/MOL
REMARK 927      BINDING AFFINITY PREDICTED BY RF-SCORE:    0.00 PKD
ROOT
HETATM    1  C   UNL     1      -9.535   5.260  67.938  1.00  0.00    -0.125 C  
HETATM    2  N   UNL     1      -8.749   6.472  68.118  1.00  0.00    -0.118 NA 
HETATM    3  C   UNL     1      -7.417   6.330  68.700  1.00  0.00    -0.088 C  
ENDROOT
BRANCH   2   4
HETATM    4  C   UNL     1      -9.273   7.735  67.865  1.00  0.00    -0.137 A  
HETATM    5  C   UNL     1     -10.231   7.991  66.872  1.00  0.00    -0.385 A  
HETATM    6  C   UNL     1     -10.809   9.273  66.685  1.00  0.00     0.078 A  
HETATM    7  C   UNL     1     -10.496  10.343  67.537  1.00  0.00    -0.292 A  
HETATM    8  C   UNL     1      -9.434  10.121  68.423  1.00  0.00    -0.147 A  
HETATM    9  C   UNL     1      -8.862   8.854  68.594  1.00  0.00    -0.137 A  
BRANCH   7  10
HETATM   10  C   UNL     1     -11.323  11.659  67.607  1.00  0.00    -0.362 C  
HETATM   11  C   UNL     1     -12.506  11.600  68.679  1.00  0.00     0.561 C  
HETATM   12  C   UNL     1     -12.054  11.744  70.175  1.00  0.00    -0.398 C  
HETATM   13  C   UNL     1     -11.223  10.510  70.606  1.00  0.00    -0.283 C  
HETATM   14  C   UNL     1     -11.253  13.070  70.205  1.00  0.00     0.522 C  
HETATM   15  C   UNL     1     -11.142  13.372  71.691  1.00  0.00     3.863 C  
HETATM   16  C   UNL     1      -9.977  13.076  69.353  1.00  0.00     0.755 C  
HETATM   17  C   UNL     1     -12.596  13.237  72.107  1.00  0.00    -0.036 C  
HETATM   18  C   UNL     1      -9.140  14.343  69.688  1.00  0.00     0.582 C  
HETATM   19  C   UNL     1      -8.821  15.268  68.533  1.00  0.00    -0.185 C  
HETATM   20  C   UNL     1     -13.154  12.018  71.309  1.00  0.00    -0.115 C  
HETATM   21  C   UNL     1     -10.381  12.897  67.862  1.00  0.00    -0.233 C  
HETATM   22  O   UNL     1     -14.387  12.450  70.746  1.00  0.00     3.238 OA 
HETATM   23  C   UNL     1      -8.644  14.463  67.300  1.00  0.00    -0.230 C  
HETATM   24  H   UNL     1     -15.039  12.612  71.418  1.00  0.00     0.000 HD 
HETATM   25  C   UNL     1      -7.660  14.718  66.422  1.00  0.00     1.466 C  
HETATM   26  C   UNL     1      -9.825  13.688  66.902  1.00  0.00    -0.261 C  
HETATM   27  C   UNL     1     -10.152  13.908  65.435  1.00  0.00    -0.328 C  
HETATM   28  C   UNL     1      -8.303  15.713  65.505  1.00  0.00     1.995 C  
HETATM   29  C   UNL     1      -9.610  15.264  64.862  1.00  0.00     0.634 C  
HETATM   30  O   UNL     1      -7.786  16.809  65.317  1.00  0.00     0.908 OA 
BRANCH  20  31
HETATM   31  C   UNL     1     -13.340  10.889  72.386  1.00  0.00     0.238 C  
HETATM   32  C   UNL     1     -12.208   9.940  72.655  1.00  0.00     1.041 C  
HETATM   33  O   UNL     1     -14.397  10.730  73.004  1.00  0.00     1.322 OA 
ENDBRANCH  20  31
ENDBRANCH   7  10
ENDBRANCH   2   4
TORSDOF 3
ENDMDL
MODEL      108
REMARK 921   NORMALIZED FREE ENERGY PREDICTED BY IDOCK:   13.53 KCAL/MOL
REMARK 922        TOTAL FREE ENERGY PREDICTED BY IDOCK:   14.85 KCAL/MOL
REMARK 923 INTER-LIGAND FREE ENERGY PREDICTED BY IDOCK:   14.41 KCAL/MOL
REMARK 924 INTRA-LIGAND FREE ENERGY PREDICTED BY IDOCK:    0.44 KCAL/MOL
REMARK 927      BINDING AFFINITY PREDICTED BY RF-SCORE:    0.00 PKD
ROOT
HETATM    1  C   UNL     1     -10.413   9.102  73.335  1.00  0.00     3.587 C  
HETATM    2  N   UNL     1     -11.578   9.490  72.554  1.00  0.00     0.625 NA 
HETATM    3  C   UNL     1     -12.866   8.918  72.938  1.00  0.00     0.136 C  
ENDROOT
BRANCH   2   4
HETATM    4  C   UNL     1     -11.472  10.275  71.412  1.00  0.00    -0.041 A  
HETATM    5  C   UNL     1     -12.059  11.545  71.287  1.00  0.00    -0.025 A  
HETATM    6  C   UNL     1     -11.871  12.360  70.143  1.00  0.00    -0.341 A  
HETATM    7  C   UNL     1     -11.026  11.962  69.096  1.00  0.00    -0.251 A  
HETATM    8  C   UNL     1     -10.568  10.639  69.157  1.00  0.00    -0.256 A  
HETATM    9  C   UNL     1     -10.766   9.837  70.288  1.00  0.00    -0.358 A  
BRANCH   7  10
HETATM   10  C   UNL     1     -10.512  12.926  67.988  1.00  0.00    -0.237 C  
HETATM   11  C   UNL     1     -10.969  14.440  68.212  1.00  0.00    -0.259 C  
HETATM   12  C   UNL     1     -10.177  15.214  69.325  1.00  0.00    -0.251 C  
HETATM   13  C   UNL     1     -10.488  14.617  70.720  1.00  0.00     0.688 C  
HETATM   14  C   UNL     1      -8.692  15.068  68.907  1.00  0.00    -0.197 C  
HETATM   15  C   UNL     1      -7.988  16.105  69.766  1.00  0.00     0.386 C  
HETATM   16  C   UNL     1      -8.159  13.628  68.902  1.00  0.00     0.093 C  
HETATM   17  C   UNL     1      -8.845  17.325  69.479  1.00  0.00     0.595 C  
HETATM   18  C   UNL     1      -6.613  13.653  68.738  1.00  0.00    -0.101 C  
HETATM   19  C   UNL     1      -6.046  12.897  67.556  1.00  0.00    -0.143 C  
HETATM   20  C   UNL     1     -10.316  16.807  69.429  1.00  0.00    -0.276 C  
HETATM   21  C   UNL     1      -8.948  12.817  67.835  1.00  0.00    -0.186 C  
HETATM   22  O   UNL     1     -10.885  17.360  68.247  1.00  0.00    -0.355 OA 
HETATM   23  C   UNL     1      -6.885  11.703  67.294  1.00  0.00    -0.129 C  
HETATM   24  H   UNL     1     -10.968  18.304  68.309  1.00  0.00     0.000 HD 
HETATM   25  C   UNL     1      -6.347  10.509  66.993  1.00  0.00    -0.074 C  
HETATM   26  C   UNL     1      -8.284  12.000  66.968  1.00  0.00    -0.169 C  
HETATM   27  C   UNL     1      -8.721  11.264  65.713  1.00  0.00    -0.111 C  
HETATM   28  C   UNL     1      -6.237  10.579  65.500  1.00  0.00    -0.118 C  
HETATM   29  C   UNL     1      -7.535  10.881  64.760  1.00  0.00     0.404 C  
HETATM   30  O   UNL     1      -5.155  10.407  64.949  1.00  0.00    -0.085 OA 
BRANCH  20  31
HETATM   31  C   UNL     1     -10.979  17.365  70.739  1.00  0.00     1.399 C  
HETATM   32  C   UNL     1     -10.263  17.200  72.049  1.00  0.00     5.346 C  
HETATM   33  O   UNL     1     -12.086  17.913  70.742  1.00  0.00     5.113 OA 
ENDBRANCH  20  31
ENDBRANCH   7  10
ENDBRANCH   2   4
TORSDOF 3
ENDMDL
MODEL      109
REMARK 921   NORMALIZED FREE ENERGY PREDICTED BY IDOCK:   16.41 KCAL/MOL
REMARK 922        TOTAL FREE ENERGY PREDICTED BY IDOCK:   18.23 KCAL/MOL
REMARK 923 INTER-LIGAND FREE ENERGY PREDICTED BY IDOCK:   17.38 KCAL/MOL
REMARK 924 INTRA-LIGAND FREE ENERGY PREDICTED BY IDOCK:    0.85 KCAL/MOL
REMARK 927      BINDING AFFINITY PREDICTED BY RF-SCORE:    0.00 PKD
ROOT
HETATM    1  C   UNL     1      -8.373  11.925  64.947  1.00  0.00     1.395 C  
HETATM    2  N   UNL     1      -7.450  11.109  65.723  1.00  0.00     0.073 NA 
HETATM    3  C   UNL     1      -6.437  10.357  64.988  1.00  0.00    -0.086 C  
ENDROOT
BRANCH   2   4
HETATM    4  C   UNL     1      -7.587  10.944  67.096  1.00  0.00    -0.109 A  
HETATM    5  C   UNL     1      -8.308  11.828  67.914  1.00  0.00    -0.149 A  
HETATM    6  C   UNL     1      -8.501  11.596  69.300  1.00  0.00     0.441 A  
HETATM    7  C   UNL     1      -8.031  10.425  69.914  1.00  0.00    -0.011 A  
HETATM    8  C   UNL     1      -7.188   9.626  69.130  1.00  0.00    -0.068 A  
HETATM    9  C   UNL     1      -6.995   9.868  67.764  1.00  0.00    -0.085 A  
BRANCH   7  10
HETATM   10  C   UNL     1      -8.486   9.948  71.323  1.00  0.00     1.419 C  
HETATM   11  C   UNL     1      -9.657  10.842  71.940  1.00  0.00     9.321 C  
HETATM   12  C   UNL     1     -11.082  10.580  71.335  1.00  0.00     0.863 C  
HETATM   13  C   UNL     1     -11.129  11.037  69.856  1.00  0.00    -0.276 C  
HETATM   14  C   UNL     1     -11.299   9.057  71.520  1.00  0.00    -0.416 C  
HETATM   15  C   UNL     1     -12.789   8.890  71.272  1.00  0.00    -0.272 C  
HETATM   16  C   UNL     1     -10.317   8.164  70.748  1.00  0.00    -0.217 C  
HETATM   17  C   UNL     1     -13.343   9.955  72.202  1.00  0.00    -0.498 C  
HETATM   18  C   UNL     1     -10.813   6.691  70.799  1.00  0.00    -0.299 C  
HETATM   19  C   UNL     1      -9.856   5.675  71.383  1.00  0.00    -0.221 C  
HETATM   20  C   UNL     1     -12.374  11.172  72.075  1.00  0.00     0.563 C  
HETATM   21  C   UNL     1      -8.885   8.424  71.294  1.00  0.00    -0.210 C  
HETATM   22  O   UNL     1     -12.075  11.574  73.407  1.00  0.00     5.937 OA 
HETATM   23  C   UNL     1      -8.466   6.068  71.049  1.00  0.00    -0.124 C  
HETATM   24  H   UNL     1     -12.841  11.924  73.845  1.00  0.00     0.000 HD 
HETATM   25  C   UNL     1      -7.549   5.168  70.657  1.00  0.00    -0.071 C  
HETATM   26  C   UNL     1      -8.058   7.376  71.572  1.00  0.00    -0.100 C  
HETATM   27  C   UNL     1      -6.725   7.284  72.295  1.00  0.00    -0.059 C  
HETATM   28  C   UNL     1      -6.956   4.730  71.961  1.00  0.00    -0.060 C  
HETATM   29  C   UNL     1      -6.397   5.848  72.835  1.00  0.00    -0.062 C  
HETATM   30  O   UNL     1      -6.948   3.545  72.273  1.00  0.00    -0.038 OA 
BRANCH  20  31
HETATM   31  C   UNL     1     -13.196  12.253  71.285  1.00  0.00     0.019 C  
HETATM   32  C   UNL     1     -14.356  12.928  71.959  1.00  0.00     0.450 C  
HETATM   33  O   UNL     1     -12.944  12.554  70.114  1.00  0.00     0.329 OA 
ENDBRANCH  20  31
ENDBRANCH   7  10
ENDBRANCH   2   4
TORSDOF 3
ENDMDL
MODEL      110
REMARK 921   NORMALIZED FREE ENERGY PREDICTED BY IDOCK:   17.35 KCAL/MOL
REMARK 922        TOTAL FREE ENERGY PREDICTED BY IDOCK:   19.34 KCAL/MOL
REMARK 923 INTER-LIGAND FREE ENERGY PREDICTED BY IDOCK:   17.87 KCAL/MOL
REMARK 924 INTRA-LIGAND FREE ENERGY PREDICTED BY IDOCK:    1.47 KCAL/MOL
REMARK 927      BINDING AFFINITY PREDICTED BY RF-SCORE:    0.00 PKD
ROOT
HETATM    1  C   UNL     1      -7.389  18.078  66.934  1.00  0.00    -0.204 C  
HETATM    2  N   UNL     1      -6.902  16.734  66.661  1.00  0.00    -0.229 NA 
HETATM    3  C   UNL     1      -5.967  16.570  65.551  1.00  0.00     3.245 C  
ENDROOT
BRANCH   2   4
HETATM    4  C   UNL     1      -7.388  15.622  67.339  1.00  0.00    -0.204 A  
HETATM    5  C   UNL     1      -6.643  14.448  67.536  1.00  0.00    -0.101 A  
HETATM    6  C   UNL     1      -7.131  13.357  68.298  1.00  0.00    -0.109 A  
HETATM    7  C   UNL     1      -8.369  13.424  68.957  1.00  0.00     0.347 A  
HETATM    8  C   UNL     1      -9.166  14.530  68.634  1.00  0.00    -0.192 A  
HETATM    9  C   UNL     1      -8.680  15.599  67.872  1.00  0.00    -0.166 A  
BRANCH   7  10
HETATM   10  C   UNL     1      -8.812  12.426  70.064  1.00  0.00     3.517 C  
HETATM   11  C   UNL     1      -9.695  13.107  71.207  1.00  0.00    10.174 C  
HETATM   12  C   UNL     1     -11.184  13.404  70.807  1.00  0.00     1.234 C  
HETATM   13  C   UNL     1     -11.238  14.502  69.717  1.00  0.00    -0.276 C  
HETATM   14  C   UNL     1     -11.731  12.034  70.333  1.00  0.00    -0.175 C  
HETATM   15  C   UNL     1     -13.234  12.255  70.300  1.00  0.00     0.987 C  
HETATM   16  C   UNL     1     -11.042  11.457  69.087  1.00  0.00    -0.317 C  
HETATM   17  C   UNL     1     -13.455  12.834  71.686  1.00  0.00    -0.225 C  
HETATM   18  C   UNL     1     -11.857  10.240  68.565  1.00  0.00     0.227 C  
HETATM   19  C   UNL     1     -11.117   8.924  68.463  1.00  0.00     0.198 C  
HETATM   20  C   UNL     1     -12.246  13.786  71.945  1.00  0.00     0.167 C  
HETATM   21  C   UNL     1      -9.551  11.185  69.433  1.00  0.00     0.187 C  
HETATM   22  O   UNL     1     -11.761  13.458  73.243  1.00  0.00     2.175 OA 
HETATM   23  C   UNL     1      -9.704   9.189  68.100  1.00  0.00    -0.174 C  
HETATM   24  H   UNL     1     -12.390  13.684  73.917  1.00  0.00     0.000 HD 
HETATM   25  C   UNL     1      -9.051   8.439  67.196  1.00  0.00    -0.162 C  
HETATM   26  C   UNL     1      -8.968  10.008  69.069  1.00  0.00    -0.163 C  
HETATM   27  C   UNL     1      -7.640   9.364  69.431  1.00  0.00    -0.083 C  
HETATM   28  C   UNL     1      -8.476   7.347  68.046  1.00  0.00    -0.123 C  
HETATM   29  C   UNL     1      -7.610   7.811  69.212  1.00  0.00    -0.098 C  
HETATM   30  O   UNL     1      -8.716   6.172  67.794  1.00  0.00    -0.114 OA 
BRANCH  20  31
HETATM   31  C   UNL     1     -12.855  15.232  71.873  1.00  0.00    -0.368 C  
HETATM   32  C   UNL     1     -12.674  16.162  73.038  1.00  0.00    -0.537 C  
HETATM   33  O   UNL     1     -13.507  15.630  70.902  1.00  0.00    -0.569 OA 
ENDBRANCH  20  31
ENDBRANCH   7  10
ENDBRANCH   2   4
TORSDOF 3
ENDMDL
MODEL      111
REMARK 921   NORMALIZED FREE ENERGY PREDICTED BY IDOCK:   18.28 KCAL/MOL
REMARK 922        TOTAL FREE ENERGY PREDICTED BY IDOCK:   20.43 KCAL/MOL
REMARK 923 INTER-LIGAND FREE ENERGY PREDICTED BY IDOCK:   21.10 KCAL/MOL
REMARK 924 INTRA-LIGAND FREE ENERGY PREDICTED BY IDOCK:   -0.67 KCAL/MOL
REMARK 927      BINDING AFFINITY PREDICTED BY RF-SCORE:    0.00 PKD
ROOT
HETATM    1  C   UNL     1      -6.428  15.213  72.394  1.00  0.00     1.858 C  
HETATM    2  N   UNL     1      -6.681  15.231  70.961  1.00  0.00     0.658 NA 
HETATM    3  C   UNL     1      -5.762  15.998  70.125  1.00  0.00    -0.164 C  
ENDROOT
BRANCH   2   4
HETATM    4  C   UNL     1      -7.815  14.650  70.405  1.00  0.00     1.077 A  
HETATM    5  C   UNL     1      -9.119  14.913  70.852  1.00  0.00     2.379 A  
HETATM    6  C   UNL     1     -10.265  14.370  70.219  1.00  0.00     0.814 A  
HETATM    7  C   UNL     1     -10.153  13.587  69.060  1.00  0.00     0.076 A  
HETATM    8  C   UNL     1      -8.851  13.206  68.709  1.00  0.00     0.163 A  
HETATM    9  C   UNL     1      -7.725  13.741  69.347  1.00  0.00     0.368 A  
BRANCH   7  10
HETATM   10  C   UNL     1     -11.354  13.244  68.132  1.00  0.00    -0.323 C  
HETATM   11  C   UNL     1     -12.037  14.535  67.485  1.00  0.00    -0.284 C  
HETATM   12  C   UNL     1     -11.239  15.184  66.299  1.00  0.00    -0.273 C  
HETATM   13  C   UNL     1      -9.913  15.795  66.814  1.00  0.00    -0.260 C  
HETATM   14  C   UNL     1     -11.036  14.020  65.296  1.00  0.00    -0.335 C  
HETATM   15  C   UNL     1     -10.599  14.733  64.026  1.00  0.00     1.305 C  
HETATM   16  C   UNL     1     -10.184  12.856  65.820  1.00  0.00    -0.298 C  
HETATM   17  C   UNL     1     -11.690  15.783  63.913  1.00  0.00     0.297 C  
HETATM   18  C   UNL     1      -9.833  11.904  64.640  1.00  0.00    -0.207 C  
HETATM   19  C   UNL     1     -10.260  10.460  64.787  1.00  0.00    -0.319 C  
HETATM   20  C   UNL     1     -11.957  16.275  65.370  1.00  0.00     1.233 C  
HETATM   21  C   UNL     1     -10.925  12.208  67.024  1.00  0.00    -0.319 C  
HETATM   22  O   UNL     1     -13.371  16.254  65.536  1.00  0.00     3.713 OA 
HETATM   23  C   UNL     1     -10.176  10.070  66.215  1.00  0.00    -0.285 C  
HETATM   24  H   UNL     1     -13.795  16.901  64.985  1.00  0.00     0.000 HD 
HETATM   25  C   UNL     1      -9.682   8.881  66.599  1.00  0.00    -0.303 C  
HETATM   26  C   UNL     1     -11.033  10.852  67.113  1.00  0.00    -0.334 C  
HETATM   27  C   UNL     1     -11.851   9.944  68.015  1.00  0.00     1.324 C  
HETATM   28  C   UNL     1     -10.902   8.011  66.584  1.00  0.00     0.408 C  
HETATM   29  C   UNL     1     -12.069   8.504  67.433  1.00  0.00     5.424 C  
HETATM   30  O   UNL     1     -10.925   6.985  65.914  1.00  0.00     1.565 OA 
BRANCH  20  31
HETATM   31  C   UNL     1     -11.362  17.728  65.414  1.00  0.00     1.158 C  
HETATM   32  C   UNL     1     -11.232  18.425  66.737  1.00  0.00     0.547 C  
HETATM   33  O   UNL     1     -11.021  18.337  64.395  1.00  0.00     0.437 OA 
ENDBRANCH  20  31
ENDBRANCH   7  10
ENDBRANCH   2   4
TORSDOF 3
ENDMDL
MODEL      112
REMARK 921   NORMALIZED FREE ENERGY PREDICTED BY IDOCK:   18.60 KCAL/MOL
REMARK 922        TOTAL FREE ENERGY PREDICTED BY IDOCK:   20.80 KCAL/MOL
REMARK 923 INTER-LIGAND FREE ENERGY PREDICTED BY IDOCK:   20.07 KCAL/MOL
REMARK 924 INTRA-LIGAND FREE ENERGY PREDICTED BY IDOCK:    0.73 KCAL/MOL
REMARK 927      BINDING AFFINITY PREDICTED BY RF-SCORE:    0.00 PKD
ROOT
HETATM    1  C   UNL     1     -12.485   4.537  65.817  1.00  0.00     6.937 C  
HETATM    2  N   UNL     1     -11.674   5.475  65.054  1.00  0.00     2.633 NA 
HETATM    3  C   UNL     1     -11.493   5.203  63.630  1.00  0.00     3.248 C  
ENDROOT
BRANCH   2   4
HETATM    4  C   UNL     1     -10.993   6.523  65.660  1.00  0.00     2.745 A  
HETATM    5  C   UNL     1     -11.598   7.740  66.014  1.00  0.00     5.404 A  
HETATM    6  C   UNL     1     -10.901   8.764  66.703  1.00  0.00     0.224 A  
HETATM    7  C   UNL     1      -9.576   8.584  67.128  1.00  0.00    -0.232 A  
HETATM    8  C   UNL     1      -8.935   7.437  66.643  1.00  0.00    -0.168 A  
HETATM    9  C   UNL     1      -9.629   6.433  65.955  1.00  0.00     0.129 A  
BRANCH   7  10
HETATM   10  C   UNL     1      -8.869   9.507  68.162  1.00  0.00    -0.124 C  
HETATM   11  C   UNL     1      -9.138  11.060  67.904  1.00  0.00    -0.147 C  
HETATM   12  C   UNL     1     -10.557  11.570  68.340  1.00  0.00    -0.227 C  
HETATM   13  C   UNL     1     -11.653  10.942  67.444  1.00  0.00    -0.027 C  
HETATM   14  C   UNL     1     -10.666  11.161  69.831  1.00  0.00     0.033 C  
HETATM   15  C   UNL     1     -11.858  11.965  70.323  1.00  0.00    -0.368 C  
HETATM   16  C   UNL     1     -10.638   9.648  70.090  1.00  0.00    -0.320 C  
HETATM   17  C   UNL     1     -11.470  13.351  69.840  1.00  0.00    -0.181 C  
HETATM   18  C   UNL     1     -11.030   9.372  71.570  1.00  0.00    -0.429 C  
HETATM   19  C   UNL     1     -10.024   8.611  72.405  1.00  0.00    -0.320 C  
HETATM   20  C   UNL     1     -10.835  13.146  68.429  1.00  0.00    -0.262 C  
HETATM   21  C   UNL     1      -9.258   9.096  69.633  1.00  0.00    -0.172 C  
HETATM   22  O   UNL     1      -9.623  13.891  68.434  1.00  0.00    -0.214 OA 
HETATM   23  C   UNL     1      -9.315   7.635  71.543  1.00  0.00    -0.157 C  
HETATM   24  H   UNL     1      -9.788  14.825  68.487  1.00  0.00     0.000 HD 
HETATM   25  C   UNL     1      -9.050   6.384  71.956  1.00  0.00    -0.141 C  
HETATM   26  C   UNL     1      -8.568   8.232  70.430  1.00  0.00    -0.134 C  
HETATM   27  C   UNL     1      -7.147   7.698  70.378  1.00  0.00    -0.058 C  
HETATM   28  C   UNL     1      -7.717   6.544  72.620  1.00  0.00    -0.102 C  
HETATM   29  C   UNL     1      -6.623   7.158  71.754  1.00  0.00    -0.048 C  
HETATM   30  O   UNL     1      -7.559   6.201  73.786  1.00  0.00    -0.091 OA 
BRANCH  20  31
HETATM   31  C   UNL     1     -11.899  13.724  67.427  1.00  0.00    -0.396 C  
HETATM   32  C   UNL     1     -13.283  14.026  67.923  1.00  0.00     3.371 C  
HETATM   33  O   UNL     1     -11.650  13.914  66.232  1.00  0.00    -0.337 OA 
ENDBRANCH  20  31
ENDBRANCH   7  10
ENDBRANCH   2   4
TORSDOF 3
ENDMDL
MODEL      113
REMARK 921   NORMALIZED FREE ENERGY PREDICTED BY IDOCK:   20.40 KCAL/MOL
REMARK 922        TOTAL FREE ENERGY PREDICTED BY IDOCK:   22.93 KCAL/MOL
REMARK 923 INTER-LIGAND FREE ENERGY PREDICTED BY IDOCK:   22.21 KCAL/MOL
REMARK 924 INTRA-LIGAND FREE ENERGY PREDICTED BY IDOCK:    0.71 KCAL/MOL
REMARK 927      BINDING AFFINITY PREDICTED BY RF-SCORE:    0.00 PKD
ROOT
HETATM    1  C   UNL     1      -8.343   8.850  64.264  1.00  0.00    -0.169 C  
HETATM    2  N   UNL     1      -9.316   8.192  65.124  1.00  0.00     0.434 NA 
HETATM    3  C   UNL     1     -10.058   7.067  64.562  1.00  0.00     4.805 C  
ENDROOT
BRANCH   2   4
HETATM    4  C   UNL     1      -9.627   8.675  66.390  1.00  0.00    -0.247 A  
HETATM    5  C   UNL     1      -9.564   7.893  67.555  1.00  0.00    -0.190 A  
HETATM    6  C   UNL     1      -9.810   8.429  68.844  1.00  0.00    -0.184 A  
HETATM    7  C   UNL     1     -10.065   9.796  69.028  1.00  0.00    -0.195 A  
HETATM    8  C   UNL     1     -10.274  10.536  67.857  1.00  0.00    -0.213 A  
HETATM    9  C   UNL     1     -10.039   9.996  66.586  1.00  0.00    -0.289 A  
BRANCH   7  10
HETATM   10  C   UNL     1     -10.010  10.505  70.412  1.00  0.00     0.574 C  
HETATM   11  C   UNL     1      -9.508   9.548  71.588  1.00  0.00     0.585 C  
HETATM   12  C   UNL     1      -7.962   9.276  71.608  1.00  0.00     0.336 C  
HETATM   13  C   UNL     1      -7.548   8.442  70.370  1.00  0.00    -0.072 C  
HETATM   14  C   UNL     1      -7.327  10.689  71.643  1.00  0.00     3.833 C  
HETATM   15  C   UNL     1      -5.883  10.408  72.025  1.00  0.00     0.569 C  
HETATM   16  C   UNL     1      -7.610  11.556  70.409  1.00  0.00     2.377 C  
HETATM   17  C   UNL     1      -6.089   9.529  73.245  1.00  0.00     0.452 C  
HETATM   18  C   UNL     1      -6.701  12.818  70.448  1.00  0.00     0.907 C  
HETATM   19  C   UNL     1      -7.404  14.158  70.419  1.00  0.00     0.906 C  
HETATM   20  C   UNL     1      -7.297   8.603  72.901  1.00  0.00     0.089 C  
HETATM   21  C   UNL     1      -9.141  11.817  70.332  1.00  0.00     4.644 C  
HETATM   22  O   UNL     1      -8.167   8.661  74.026  1.00  0.00    -0.359 OA 
HETATM   23  C   UNL     1      -8.629  14.048  69.591  1.00  0.00     0.955 C  
HETATM   24  H   UNL     1      -7.772   8.262  74.793  1.00  0.00     0.000 HD 
HETATM   25  C   UNL     1      -8.987  15.008  68.723  1.00  0.00    -0.196 C  
HETATM   26  C   UNL     1      -9.609  13.072  70.079  1.00  0.00     3.030 C  
HETATM   27  C   UNL     1     -10.998  13.683  70.151  1.00  0.00     0.462 C  
HETATM   28  C   UNL     1      -9.822  15.913  69.577  1.00  0.00    -0.268 C  
HETATM   29  C   UNL     1     -10.995  15.246  70.286  1.00  0.00    -0.313 C  
HETATM   30  O   UNL     1      -9.542  17.102  69.680  1.00  0.00     0.144 OA 
BRANCH  20  31
HETATM   31  C   UNL     1      -6.661   7.180  72.698  1.00  0.00    -0.067 C  
HETATM   32  C   UNL     1      -5.671   6.670  73.705  1.00  0.00    -0.054 C  
HETATM   33  O   UNL     1      -6.923   6.470  71.722  1.00  0.00    -0.072 OA 
ENDBRANCH  20  31
ENDBRANCH   7  10
ENDBRANCH   2   4
TORSDOF 3
ENDMDL
MODEL      114
REMARK 921   NORMALIZED FREE ENERGY PREDICTED BY IDOCK:   21.20 KCAL/MOL
REMARK 922        TOTAL FREE ENERGY PREDICTED BY IDOCK:   23.86 KCAL/MOL
REMARK 923 INTER-LIGAND FREE ENERGY PREDICTED BY IDOCK:   23.96 KCAL/MOL
REMARK 924 INTRA-LIGAND FREE ENERGY PREDICTED BY IDOCK:   -0.09 KCAL/MOL
REMARK 927      BINDING AFFINITY PREDICTED BY RF-SCORE:    0.00 PKD
ROOT
HETATM    1  C   UNL     1     -12.250   4.888  73.963  1.00  0.00     3.056 C  
HETATM    2  N   UNL     1     -12.164   4.885  72.509  1.00  0.00     0.492 NA 
HETATM    3  C   UNL     1     -12.049   3.590  71.845  1.00  0.00     4.527 C  
ENDROOT
BRANCH   2   4
HETATM    4  C   UNL     1     -12.073   6.061  71.774  1.00  0.00     0.026 A  
HETATM    5  C   UNL     1     -11.229   7.128  72.121  1.00  0.00    -0.290 A  
HETATM    6  C   UNL     1     -11.093   8.285  71.313  1.00  0.00    -0.296 A  
HETATM    7  C   UNL     1     -11.753   8.392  70.079  1.00  0.00     0.308 A  
HETATM    8  C   UNL     1     -12.704   7.398  69.812  1.00  0.00     1.744 A  
HETATM    9  C   UNL     1     -12.838   6.263  70.622  1.00  0.00     1.209 A  
BRANCH   7  10
HETATM   10  C   UNL     1     -11.398   9.456  69.001  1.00  0.00     0.183 C  
HETATM   11  C   UNL     1     -12.094  10.870  69.261  1.00  0.00    -0.332 C  
HETATM   12  C   UNL     1     -11.441  11.731  70.400  1.00  0.00     0.067 C  
HETATM   13  C   UNL     1     -11.657  11.054  71.776  1.00  0.00     1.686 C  
HETATM   14  C   UNL     1      -9.951  11.838  69.990  1.00  0.00     1.890 C  
HETATM   15  C   UNL     1      -9.427  12.951  70.882  1.00  0.00     8.998 C  
HETATM   16  C   UNL     1      -9.193  10.504  69.951  1.00  0.00     0.243 C  
HETATM   17  C   UNL     1     -10.469  14.025  70.620  1.00  0.00     1.781 C  
HETATM   18  C   UNL     1      -7.670  10.782  69.800  1.00  0.00     0.066 C  
HETATM   19  C   UNL     1      -6.984  10.160  68.603  1.00  0.00    -0.062 C  
HETATM   20  C   UNL     1     -11.837  13.278  70.545  1.00  0.00    -0.134 C  
HETATM   21  C   UNL     1      -9.836   9.605  68.857  1.00  0.00    -0.179 C  
HETATM   22  O   UNL     1     -12.483  13.763  69.373  1.00  0.00    -0.333 OA 
HETATM   23  C   UNL     1      -7.619   8.854  68.303  1.00  0.00    -0.092 C  
HETATM   24  H   UNL     1     -12.717  14.679  69.459  1.00  0.00     0.000 HD 
HETATM   25  C   UNL     1      -6.894   7.771  67.975  1.00  0.00    -0.072 C  
HETATM   26  C   UNL     1      -9.047   8.930  67.975  1.00  0.00    -0.143 C  
HETATM   27  C   UNL     1      -9.354   8.167  66.697  1.00  0.00    -0.250 C  
HETATM   28  C   UNL     1      -6.791   7.898  66.486  1.00  0.00    -0.070 C  
HETATM   29  C   UNL     1      -8.118   8.007  65.744  1.00  0.00    -0.121 C  
HETATM   30  O   UNL     1      -5.694   7.919  65.939  1.00  0.00    -0.036 OA 
BRANCH  20  31
HETATM   31  C   UNL     1     -12.585  13.685  71.864  1.00  0.00    -0.153 C  
HETATM   32  C   UNL     1     -14.039  14.057  71.796  1.00  0.00    -0.452 C  
HETATM   33  O   UNL     1     -12.017  13.741  72.960  1.00  0.00     0.693 OA 
ENDBRANCH  20  31
ENDBRANCH   7  10
ENDBRANCH   2   4
TORSDOF 3
ENDMDL
MODEL      115
REMARK 921   NORMALIZED FREE ENERGY PREDICTED BY IDOCK:   22.04 KCAL/MOL
REMARK 922        TOTAL FREE ENERGY PREDICTED BY IDOCK:   24.85 KCAL/MOL
REMARK 923 INTER-LIGAND FREE ENERGY PREDICTED BY IDOCK:   24.08 KCAL/MOL
REMARK 924 INTRA-LIGAND FREE ENERGY PREDICTED BY IDOCK:    0.77 KCAL/MOL
REMARK 927      BINDING AFFINITY PREDICTED BY RF-SCORE:    0.00 PKD
ROOT
HETATM    1  C   UNL     1      -8.360  10.302  64.613  1.00  0.00    -0.169 C  
HETATM    2  N   UNL     1      -7.299  10.708  65.525  1.00  0.00    -0.104 NA 
HETATM    3  C   UNL     1      -6.049   9.955  65.479  1.00  0.00    -0.078 C  
ENDROOT
BRANCH   2   4
HETATM    4  C   UNL     1      -7.492  11.689  66.490  1.00  0.00     0.032 A  
HETATM    5  C   UNL     1      -7.407  13.065  66.224  1.00  0.00     2.075 A  
HETATM    6  C   UNL     1      -7.686  14.048  67.207  1.00  0.00    -0.120 A  
HETATM    7  C   UNL     1      -8.130  13.691  68.489  1.00  0.00    -0.118 A  
HETATM    8  C   UNL     1      -8.067  12.325  68.792  1.00  0.00     0.054 A  
HETATM    9  C   UNL     1      -7.782  11.360  67.817  1.00  0.00    -0.115 A  
BRANCH   7  10
HETATM   10  C   UNL     1      -8.767  14.695  69.492  1.00  0.00     0.210 C  
HETATM   11  C   UNL     1      -8.506  16.222  69.102  1.00  0.00    -0.218 C  
HETATM   12  C   UNL     1      -9.385  16.765  67.920  1.00  0.00    -0.229 C  
HETATM   13  C   UNL     1      -8.994  16.066  66.595  1.00  0.00    -0.293 C  
HETATM   14  C   UNL     1     -10.841  16.478  68.365  1.00  0.00    -0.348 C  
HETATM   15  C   UNL     1     -11.667  17.318  67.406  1.00  0.00     1.312 C  
HETATM   16  C   UNL     1     -11.186  14.991  68.529  1.00  0.00    -0.298 C  
HETATM   17  C   UNL     1     -10.974  18.661  67.553  1.00  0.00    -0.238 C  
HETATM   18  C   UNL     1     -12.724  14.836  68.703  1.00  0.00     0.652 C  
HETATM   19  C   UNL     1     -13.195  14.145  69.965  1.00  0.00     0.563 C  
HETATM   20  C   UNL     1      -9.449  18.343  67.645  1.00  0.00    -0.272 C  
HETATM   21  C   UNL     1     -10.306  14.405  69.669  1.00  0.00     0.110 C  
HETATM   22  O   UNL     1      -8.960  19.087  68.756  1.00  0.00    -0.347 OA 
HETATM   23  C   UNL     1     -12.212  13.103  70.346  1.00  0.00    -0.389 C  
HETATM   24  H   UNL     1      -8.999  20.022  68.592  1.00  0.00     0.000 HD 
HETATM   25  C   UNL     1     -12.595  11.890  70.778  1.00  0.00    -0.325 C  
HETATM   26  C   UNL     1     -10.863  13.609  70.625  1.00  0.00     1.612 C  
HETATM   27  C   UNL     1     -10.343  13.073  71.948  1.00  0.00    10.452 C  
HETATM   28  C   UNL     1     -12.720  12.105  72.255  1.00  0.00     0.377 C  
HETATM   29  C   UNL     1     -11.475  12.647  72.947  1.00  0.00     7.769 C  
HETATM   30  O   UNL     1     -13.773  11.857  72.832  1.00  0.00     0.468 OA 
BRANCH  20  31
HETATM   31  C   UNL     1      -8.857  18.836  66.276  1.00  0.00    -0.233 C  
HETATM   32  C   UNL     1      -9.688  18.712  65.032  1.00  0.00     2.563 C  
HETATM   33  O   UNL     1      -7.716  19.300  66.175  1.00  0.00    -0.277 OA 
ENDBRANCH  20  31
ENDBRANCH   7  10
ENDBRANCH   2   4
TORSDOF 3
ENDMDL
MODEL      116
REMARK 921   NORMALIZED FREE ENERGY PREDICTED BY IDOCK:   24.19 KCAL/MOL
REMARK 922        TOTAL FREE ENERGY PREDICTED BY IDOCK:   27.37 KCAL/MOL
REMARK 923 INTER-LIGAND FREE ENERGY PREDICTED BY IDOCK:   26.82 KCAL/MOL
REMARK 924 INTRA-LIGAND FREE ENERGY PREDICTED BY IDOCK:    0.55 KCAL/MOL
REMARK 927      BINDING AFFINITY PREDICTED BY RF-SCORE:    0.00 PKD
ROOT
HETATM    1  C   UNL     1     -13.884  13.768  71.603  1.00  0.00    -0.238 C  
HETATM    2  N   UNL     1     -13.244  15.011  71.198  1.00  0.00    -0.404 NA 
HETATM    3  C   UNL     1     -13.760  16.251  71.771  1.00  0.00     1.366 C  
ENDROOT
BRANCH   2   4
HETATM    4  C   UNL     1     -12.263  15.049  70.214  1.00  0.00    -0.340 A  
HETATM    5  C   UNL     1     -11.302  14.040  70.039  1.00  0.00    -0.163 A  
HETATM    6  C   UNL     1     -10.360  14.062  68.979  1.00  0.00    -0.136 A  
HETATM    7  C   UNL     1     -10.386  15.071  68.004  1.00  0.00    -0.236 A  
HETATM    8  C   UNL     1     -11.242  16.147  68.269  1.00  0.00    -0.343 A  
HETATM    9  C   UNL     1     -12.163  16.121  69.324  1.00  0.00     0.191 A  
BRANCH   7  10
HETATM   10  C   UNL     1      -9.621  14.982  66.652  1.00  0.00    -0.281 C  
HETATM   11  C   UNL     1      -9.924  13.636  65.847  1.00  0.00    -0.304 C  
HETATM   12  C   UNL     1     -11.316  13.595  65.123  1.00  0.00    -0.319 C  
HETATM   13  C   UNL     1     -12.463  13.564  66.163  1.00  0.00    -0.424 C  
HETATM   14  C   UNL     1     -11.320  14.864  64.234  1.00  0.00    -0.086 C  
HETATM   15  C   UNL     1     -12.485  14.620  63.289  1.00  0.00     1.205 C  
HETATM   16  C   UNL     1     -11.258  16.192  65.002  1.00  0.00    -0.225 C  
HETATM   17  C   UNL     1     -12.147  13.226  62.792  1.00  0.00     0.843 C  
HETATM   18  C   UNL     1     -11.546  17.366  64.023  1.00  0.00     3.616 C  
HETATM   19  C   UNL     1     -10.477  18.432  63.912  1.00  0.00     8.917 C  
HETATM   20  C   UNL     1     -11.606  12.453  64.036  1.00  0.00    -0.413 C  
HETATM   21  C   UNL     1      -9.906  16.254  65.766  1.00  0.00    -0.332 C  
HETATM   22  O   UNL     1     -10.404  11.820  63.610  1.00  0.00    -0.349 OA 
HETATM   23  C   UNL     1      -9.817  18.597  65.230  1.00  0.00     1.378 C  
HETATM   24  H   UNL     1     -10.576  11.143  62.966  1.00  0.00     0.000 HD 
HETATM   25  C   UNL     1      -9.511  19.809  65.723  1.00  0.00    -0.115 C  
HETATM   26  C   UNL     1      -9.154  17.391  65.737  1.00  0.00     0.197 C  
HETATM   27  C   UNL     1      -7.734  17.695  66.182  1.00  0.00    -0.293 C  
HETATM   28  C   UNL     1      -8.138  20.040  65.170  1.00  0.00     0.825 C  
HETATM   29  C   UNL     1      -7.112  18.960  65.492  1.00  0.00    -0.160 C  
HETATM   30  O   UNL     1      -7.898  21.038  64.499  1.00  0.00     0.889 OA 
BRANCH  20  31
HETATM   31  C   UNL     1     -12.741  11.425  64.390  1.00  0.00     1.086 C  
HETATM   32  C   UNL     1     -13.610  11.679  65.588  1.00  0.00     7.106 C  
HETATM   33  O   UNL     1     -12.931  10.395  63.736  1.00  0.00     4.363 OA 
ENDBRANCH  20  31
ENDBRANCH   7  10
ENDBRANCH   2   4
TORSDOF 3
ENDMDL
MODEL      117
REMARK 921   NORMALIZED FREE ENERGY PREDICTED BY IDOCK:   25.37 KCAL/MOL
REMARK 922        TOTAL FREE ENERGY PREDICTED BY IDOCK:   28.77 KCAL/MOL
REMARK 923 INTER-LIGAND FREE ENERGY PREDICTED BY IDOCK:   28.83 KCAL/MOL
REMARK 924 INTRA-LIGAND FREE ENERGY PREDICTED BY IDOCK:   -0.06 KCAL/MOL
REMARK 927      BINDING AFFINITY PREDICTED BY RF-SCORE:    0.00 PKD
ROOT
HETATM    1  C   UNL     1      -6.987  18.212  65.021  1.00  0.00     1.026 C  
HETATM    2  N   UNL     1      -6.745  16.805  65.304  1.00  0.00     1.847 NA 
HETATM    3  C   UNL     1      -5.892  16.068  64.375  1.00  0.00    12.503 C  
ENDROOT
BRANCH   2   4
HETATM    4  C   UNL     1      -7.388  16.140  66.342  1.00  0.00     0.173 A  
HETATM    5  C   UNL     1      -8.782  15.996  66.424  1.00  0.00    -0.362 A  
HETATM    6  C   UNL     1      -9.410  15.247  67.451  1.00  0.00    -0.202 A  
HETATM    7  C   UNL     1      -8.657  14.550  68.407  1.00  0.00    -0.172 A  
HETATM    8  C   UNL     1      -7.283  14.819  68.410  1.00  0.00    -0.114 A  
HETATM    9  C   UNL     1      -6.671  15.569  67.397  1.00  0.00    -0.200 A  
BRANCH   7  10
HETATM   10  C   UNL     1      -9.250  13.454  69.340  1.00  0.00     1.017 C  
HETATM   11  C   UNL     1      -9.899  14.049  70.673  1.00  0.00     3.027 C  
HETATM   12  C   UNL     1     -11.305  14.722  70.484  1.00  0.00    -0.242 C  
HETATM   13  C   UNL     1     -11.173  16.011  69.636  1.00  0.00    -0.336 C  
HETATM   14  C   UNL     1     -12.165  13.623  69.811  1.00  0.00    -0.350 C  
HETATM   15  C   UNL     1     -13.582  14.151  69.967  1.00  0.00     1.399 C  
HETATM   16  C   UNL     1     -11.688  13.191  68.417  1.00  0.00    -0.386 C  
HETATM   17  C   UNL     1     -13.595  14.461  71.454  1.00  0.00    -0.431 C  
HETATM   18  C   UNL     1     -12.779  12.303  67.753  1.00  0.00     2.072 C  
HETATM   19  C   UNL     1     -12.354  10.914  67.327  1.00  0.00     2.524 C  
HETATM   20  C   UNL     1     -12.193  15.068  71.772  1.00  0.00    -0.350 C  
HETATM   21  C   UNL     1     -10.278  12.552  68.557  1.00  0.00    -0.210 C  
HETATM   22  O   UNL     1     -11.724  14.384  72.929  1.00  0.00     0.186 OA 
HETATM   23  C   UNL     1     -10.939  10.953  66.886  1.00  0.00    -0.286 C  
HETATM   24  H   UNL     1     -12.251  14.590  73.692  1.00  0.00     0.000 HD 
HETATM   25  C   UNL     1     -10.517  10.290  65.797  1.00  0.00    -0.159 C  
HETATM   26  C   UNL     1      -9.989  11.383  67.918  1.00  0.00    -0.190 C  
HETATM   27  C   UNL     1      -8.820  10.418  68.020  1.00  0.00    -0.130 C  
HETATM   28  C   UNL     1     -10.153   8.950  66.361  1.00  0.00    -0.263 C  
HETATM   29  C   UNL     1      -9.145   8.973  67.504  1.00  0.00    -0.145 C  
HETATM   30  O   UNL     1     -10.661   7.929  65.912  1.00  0.00     1.061 OA 
BRANCH  20  31
HETATM   31  C   UNL     1     -12.471  16.591  72.039  1.00  0.00     0.365 C  
HETATM   32  C   UNL     1     -11.913  17.231  73.277  1.00  0.00     0.586 C  
HETATM   33  O   UNL     1     -13.159  17.283  71.281  1.00  0.00     5.573 OA 
ENDBRANCH  20  31
ENDBRANCH   7  10
ENDBRANCH   2   4
TORSDOF 3
ENDMDL
MODEL      118
REMARK 921   NORMALIZED FREE ENERGY PREDICTED BY IDOCK:   27.21 KCAL/MOL
REMARK 922        TOTAL FREE ENERGY PREDICTED BY IDOCK:   30.93 KCAL/MOL
REMARK 923 INTER-LIGAND FREE ENERGY PREDICTED BY IDOCK:   30.09 KCAL/MOL
REMARK 924 INTRA-LIGAND FREE ENERGY PREDICTED BY IDOCK:    0.84 KCAL/MOL
REMARK 927      BINDING AFFINITY PREDICTED BY RF-SCORE:    0.00 PKD
ROOT
HETATM    1  C   UNL     1      -9.782   3.688  69.110  1.00  0.00     0.004 C  
HETATM    2  N   UNL     1      -9.056   4.822  68.558  1.00  0.00    -0.111 NA 
HETATM    3  C   UNL     1      -7.630   4.645  68.296  1.00  0.00    -0.076 C  
ENDROOT
BRANCH   2   4
HETATM    4  C   UNL     1      -9.649   6.068  68.393  1.00  0.00    -0.120 A  
HETATM    5  C   UNL     1      -9.870   6.967  69.449  1.00  0.00    -0.161 A  
HETATM    6  C   UNL     1     -10.405   8.264  69.245  1.00  0.00    -0.223 A  
HETATM    7  C   UNL     1     -10.681   8.743  67.956  1.00  0.00    -0.151 A  
HETATM    8  C   UNL     1     -10.602   7.794  66.928  1.00  0.00    -0.347 A  
HETATM    9  C   UNL     1     -10.081   6.511  67.140  1.00  0.00    -0.223 A  
BRANCH   7  10
HETATM   10  C   UNL     1     -10.943  10.241  67.630  1.00  0.00    -0.356 C  
HETATM   11  C   UNL     1     -12.121  10.876  68.504  1.00  0.00     0.004 C  
HETATM   12  C   UNL     1     -11.739  11.212  69.988  1.00  0.00    -0.438 C  
HETATM   13  C   UNL     1     -11.472   9.909  70.782  1.00  0.00    -0.433 C  
HETATM   14  C   UNL     1     -10.495  12.127  69.864  1.00  0.00     1.104 C  
HETATM   15  C   UNL     1     -10.367  12.725  71.256  1.00  0.00     7.649 C  
HETATM   16  C   UNL     1      -9.265  11.465  69.228  1.00  0.00     0.307 C  
HETATM   17  C   UNL     1     -11.783  13.227  71.470  1.00  0.00     1.345 C  
HETATM   18  C   UNL     1      -8.029  12.389  69.416  1.00  0.00     0.786 C  
HETATM   19  C   UNL     1      -7.311  12.823  68.156  1.00  0.00    -0.118 C  
HETATM   20  C   UNL     1     -12.716  12.132  70.865  1.00  0.00    -0.189 C  
HETATM   21  C   UNL     1      -9.617  11.081  67.763  1.00  0.00    -0.180 C  
HETATM   22  O   UNL     1     -13.654  12.824  70.048  1.00  0.00     1.700 OA 
HETATM   23  C   UNL     1      -7.382  11.732  67.156  1.00  0.00    -0.146 C  
HETATM   24  H   UNL     1     -14.233  13.369  70.568  1.00  0.00     0.000 HD 
HETATM   25  C   UNL     1      -6.324  11.392  66.400  1.00  0.00    -0.047 C  
HETATM   26  C   UNL     1      -8.742  11.358  66.754  1.00  0.00    -0.174 C  
HETATM   27  C   UNL     1      -8.872  11.312  65.241  1.00  0.00    -0.015 C  
HETATM   28  C   UNL     1      -6.480  12.293  65.213  1.00  0.00     4.656 C  
HETATM   29  C   UNL     1      -7.818  12.198  64.489  1.00  0.00     3.523 C  
HETATM   30  O   UNL     1      -5.573  13.049  64.883  1.00  0.00     7.647 OA 
BRANCH  20  31
HETATM   31  C   UNL     1     -13.386  11.447  72.111  1.00  0.00    -0.166 C  
HETATM   32  C   UNL     1     -13.329  12.138  73.443  1.00  0.00     5.038 C  
HETATM   33  O   UNL     1     -13.936  10.344  72.047  1.00  0.00    -0.001 OA 
ENDBRANCH  20  31
ENDBRANCH   7  10
ENDBRANCH   2   4
TORSDOF 3
ENDMDL
MODEL      119
REMARK 921   NORMALIZED FREE ENERGY PREDICTED BY IDOCK:   27.22 KCAL/MOL
REMARK 922        TOTAL FREE ENERGY PREDICTED BY IDOCK:   30.94 KCAL/MOL
REMARK 923 INTER-LIGAND FREE ENERGY PREDICTED BY IDOCK:   29.06 KCAL/MOL
REMARK 924 INTRA-LIGAND FREE ENERGY PREDICTED BY IDOCK:    1.87 KCAL/MOL
REMARK 927      BINDING AFFINITY PREDICTED BY RF-SCORE:    0.00 PKD
ROOT
HETATM    1  C   UNL     1      -7.054   7.844  65.666  1.00  0.00    -0.056 C  
HETATM    2  N   UNL     1      -7.954   8.305  66.714  1.00  0.00    -0.098 NA 
HETATM    3  C   UNL     1      -8.746   7.296  67.412  1.00  0.00    -0.121 C  
ENDROOT
BRANCH   2   4
HETATM    4  C   UNL     1      -8.156   9.656  66.970  1.00  0.00    -0.113 A  
HETATM    5  C   UNL     1      -9.386  10.306  66.779  1.00  0.00    -0.187 A  
HETATM    6  C   UNL     1      -9.589  11.667  67.122  1.00  0.00    -0.185 A  
HETATM    7  C   UNL     1      -8.579  12.420  67.739  1.00  0.00    -0.172 A  
HETATM    8  C   UNL     1      -7.316  11.815  67.789  1.00  0.00    -0.106 A  
HETATM    9  C   UNL     1      -7.123  10.472  67.438  1.00  0.00    -0.090 A  
BRANCH   7  10
HETATM   10  C   UNL     1      -8.828  13.787  68.439  1.00  0.00    -0.165 C  
HETATM   11  C   UNL     1      -8.580  13.739  70.016  1.00  0.00     2.237 C  
HETATM   12  C   UNL     1      -7.072  13.733  70.451  1.00  0.00     0.900 C  
HETATM   13  C   UNL     1      -6.393  12.410  70.019  1.00  0.00    -0.005 C  
HETATM   14  C   UNL     1      -6.473  14.988  69.766  1.00  0.00    -0.163 C  
HETATM   15  C   UNL     1      -5.142  15.166  70.476  1.00  0.00    -0.125 C  
HETATM   16  C   UNL     1      -6.494  14.959  68.231  1.00  0.00    -0.120 C  
HETATM   17  C   UNL     1      -5.595  15.113  71.924  1.00  0.00     0.295 C  
HETATM   18  C   UNL     1      -5.628  16.129  67.683  1.00  0.00    -0.167 C  
HETATM   19  C   UNL     1      -6.322  17.111  66.764  1.00  0.00    -0.248 C  
HETATM   20  C   UNL     1      -6.691  14.004  71.984  1.00  0.00     2.313 C  
HETATM   21  C   UNL     1      -7.976  14.925  67.760  1.00  0.00    -0.161 C  
HETATM   22  O   UNL     1      -7.783  14.572  72.700  1.00  0.00     3.013 OA 
HETATM   23  C   UNL     1      -7.340  16.391  65.962  1.00  0.00     0.629 C  
HETATM   24  H   UNL     1      -7.557  14.733  73.609  1.00  0.00     0.000 HD 
HETATM   25  C   UNL     1      -7.514  16.635  64.652  1.00  0.00     7.689 C  
HETATM   26  C   UNL     1      -8.392  15.742  66.752  1.00  0.00    -0.309 C  
HETATM   27  C   UNL     1      -9.771  16.097  66.220  1.00  0.00    -0.332 C  
HETATM   28  C   UNL     1      -8.522  17.743  64.667  1.00  0.00     5.996 C  
HETATM   29  C   UNL     1      -9.812  17.446  65.421  1.00  0.00     0.522 C  
HETATM   30  O   UNL     1      -8.283  18.807  64.106  1.00  0.00     5.420 OA 
BRANCH  20  31
HETATM   31  C   UNL     1      -6.013  12.815  72.755  1.00  0.00     2.149 C  
HETATM   32  C   UNL     1      -5.530  13.035  74.160  1.00  0.00     0.297 C  
HETATM   33  O   UNL     1      -5.832  11.707  72.240  1.00  0.00     0.528 OA 
ENDBRANCH  20  31
ENDBRANCH   7  10
ENDBRANCH   2   4
TORSDOF 3
ENDMDL
MODEL      120
REMARK 921   NORMALIZED FREE ENERGY PREDICTED BY IDOCK:   29.17 KCAL/MOL
REMARK 922        TOTAL FREE ENERGY PREDICTED BY IDOCK:   33.23 KCAL/MOL
REMARK 923 INTER-LIGAND FREE ENERGY PREDICTED BY IDOCK:   33.27 KCAL/MOL
REMARK 924 INTRA-LIGAND FREE ENERGY PREDICTED BY IDOCK:   -0.03 KCAL/MOL
REMARK 927      BINDING AFFINITY PREDICTED BY RF-SCORE:    0.00 PKD
ROOT
HETATM    1  C   UNL     1      -5.125  19.070  71.105  1.00  0.00    -0.285 C  
HETATM    2  N   UNL     1      -6.330  19.634  71.696  1.00  0.00     0.186 NA 
HETATM    3  C   UNL     1      -6.163  20.547  72.824  1.00  0.00     2.558 C  
ENDROOT
BRANCH   2   4
HETATM    4  C   UNL     1      -7.602  19.240  71.296  1.00  0.00     3.170 A  
HETATM    5  C   UNL     1      -8.678  20.129  71.146  1.00  0.00     2.093 A  
HETATM    6  C   UNL     1      -9.944  19.715  70.661  1.00  0.00     1.322 A  
HETATM    7  C   UNL     1     -10.167  18.396  70.240  1.00  0.00     1.482 A  
HETATM    8  C   UNL     1      -9.143  17.486  70.532  1.00  0.00     3.913 A  
HETATM    9  C   UNL     1      -7.897  17.902  71.020  1.00  0.00     6.139 A  
BRANCH   7  10
HETATM   10  C   UNL     1     -11.399  17.956  69.398  1.00  0.00     2.078 C  
HETATM   11  C   UNL     1     -11.503  18.712  67.995  1.00  0.00     1.097 C  
HETATM   12  C   UNL     1     -10.505  18.208  66.893  1.00  0.00    -0.372 C  
HETATM   13  C   UNL     1      -9.048  18.552  67.290  1.00  0.00    -0.282 C  
HETATM   14  C   UNL     1     -10.779  16.686  66.800  1.00  0.00    -0.133 C  
HETATM   15  C   UNL     1     -10.085  16.290  65.506  1.00  0.00    -0.276 C  
HETATM   16  C   UNL     1     -10.468  15.893  68.077  1.00  0.00    -0.274 C  
HETATM   17  C   UNL     1     -10.663  17.326  64.558  1.00  0.00     1.475 C  
HETATM   18  C   UNL     1     -10.520  14.371  67.762  1.00  0.00    -0.245 C  
HETATM   19  C   UNL     1     -11.491  13.545  68.578  1.00  0.00    -0.345 C  
HETATM   20  C   UNL     1     -10.720  18.658  65.370  1.00  0.00     0.255 C  
HETATM   21  C   UNL     1     -11.414  16.391  69.206  1.00  0.00    -0.165 C  
HETATM   22  O   UNL     1     -12.024  19.188  65.160  1.00  0.00     2.629 OA 
HETATM   23  C   UNL     1     -11.579  14.109  69.947  1.00  0.00    -0.329 C  
HETATM   24  H   UNL     1     -12.151  19.454  64.257  1.00  0.00     0.000 HD 
HETATM   25  C   UNL     1     -11.606  13.325  71.037  1.00  0.00     0.836 C  
HETATM   26  C   UNL     1     -12.057  15.494  70.006  1.00  0.00    -0.391 C  
HETATM   27  C   UNL     1     -13.176  15.643  71.023  1.00  0.00    -0.435 C  
HETATM   28  C   UNL     1     -13.072  13.066  71.207  1.00  0.00    -0.179 C  
HETATM   29  C   UNL     1     -13.948  14.309  71.312  1.00  0.00    -0.257 C  
HETATM   30  O   UNL     1     -13.500  11.918  71.244  1.00  0.00     0.052 OA 
BRANCH  20  31
HETATM   31  C   UNL     1      -9.592  19.554  64.742  1.00  0.00     3.270 C  
HETATM   32  C   UNL     1      -8.156  19.156  64.921  1.00  0.00     2.393 C  
HETATM   33  O   UNL     1      -9.838  20.596  64.126  1.00  0.00     2.287 OA 
ENDBRANCH  20  31
ENDBRANCH   7  10
ENDBRANCH   2   4
TORSDOF 3
ENDMDL
MODEL      121
REMARK 921   NORMALIZED FREE ENERGY PREDICTED BY IDOCK:   30.46 KCAL/MOL
REMARK 922        TOTAL FREE ENERGY PREDICTED BY IDOCK:   34.75 KCAL/MOL
REMARK 923 INTER-LIGAND FREE ENERGY PREDICTED BY IDOCK:   35.08 KCAL/MOL
REMARK 924 INTRA-LIGAND FREE ENERGY PREDICTED BY IDOCK:   -0.33 KCAL/MOL
REMARK 927      BINDING AFFINITY PREDICTED BY RF-SCORE:    0.00 PKD
ROOT
HETATM    1  C   UNL     1      -8.879  14.072  63.513  1.00  0.00     9.969 C  
HETATM    2  N   UNL     1      -9.780  12.964  63.799  1.00  0.00     0.066 NA 
HETATM    3  C   UNL     1     -10.789  12.641  62.794  1.00  0.00     1.576 C  
ENDROOT
BRANCH   2   4
HETATM    4  C   UNL     1      -9.776  12.308  65.025  1.00  0.00    -0.059 A  
HETATM    5  C   UNL     1      -8.603  11.980  65.724  1.00  0.00     0.388 A  
HETATM    6  C   UNL     1      -8.626  11.382  67.009  1.00  0.00    -0.157 A  
HETATM    7  C   UNL     1      -9.836  11.146  67.680  1.00  0.00    -0.191 A  
HETATM    8  C   UNL     1     -10.997  11.335  66.920  1.00  0.00    -0.348 A  
HETATM    9  C   UNL     1     -10.965  11.918  65.647  1.00  0.00    -0.353 A  
BRANCH   7  10
HETATM   10  C   UNL     1      -9.929  10.814  69.198  1.00  0.00    -0.206 C  
HETATM   11  C   UNL     1     -10.486   9.345  69.485  1.00  0.00    -0.229 C  
HETATM   12  C   UNL     1      -9.458   8.185  69.241  1.00  0.00    -0.159 C  
HETATM   13  C   UNL     1      -9.126   8.069  67.733  1.00  0.00    -0.136 C  
HETATM   14  C   UNL     1      -8.237   8.568  70.116  1.00  0.00    -0.121 C  
HETATM   15  C   UNL     1      -7.424   7.285  70.154  1.00  0.00    -0.088 C  
HETATM   16  C   UNL     1      -7.538   9.874  69.714  1.00  0.00    -0.151 C  
HETATM   17  C   UNL     1      -8.498   6.293  70.566  1.00  0.00    -0.138 C  
HETATM   18  C   UNL     1      -6.190   9.993  70.481  1.00  0.00    -0.109 C  
HETATM   19  C   UNL     1      -6.006  11.227  71.338  1.00  0.00     0.665 C  
HETATM   20  C   UNL     1      -9.784   6.714  69.788  1.00  0.00    -0.159 C  
HETATM   21  C   UNL     1      -8.541  11.047  69.906  1.00  0.00     0.975 C  
HETATM   22  O   UNL     1     -10.833   6.735  70.750  1.00  0.00    -0.232 OA 
HETATM   23  C   UNL     1      -6.695  12.372  70.695  1.00  0.00     1.537 C  
HETATM   24  H   UNL     1     -11.025   5.863  71.074  1.00  0.00     0.000 HD 
HETATM   25  C   UNL     1      -6.139  13.594  70.641  1.00  0.00    -0.081 C  
HETATM   26  C   UNL     1      -8.140  12.196  70.521  1.00  0.00     5.129 C  
HETATM   27  C   UNL     1      -8.904  13.403  71.039  1.00  0.00     8.762 C  
HETATM   28  C   UNL     1      -6.612  14.215  71.919  1.00  0.00     1.580 C  
HETATM   29  C   UNL     1      -8.123  14.227  72.122  1.00  0.00     6.892 C  
HETATM   30  O   UNL     1      -5.807  14.664  72.727  1.00  0.00     0.152 OA 
BRANCH  20  31
HETATM   31  C   UNL     1      -9.977   5.593  68.704  1.00  0.00    -0.162 C  
HETATM   32  C   UNL     1      -8.834   5.253  67.792  1.00  0.00    -0.105 C  
HETATM   33  O   UNL     1     -11.047   4.996  68.550  1.00  0.00     0.568 OA 
ENDBRANCH  20  31
ENDBRANCH   7  10
ENDBRANCH   2   4
TORSDOF 3
ENDMDL
MODEL      122
REMARK 921   NORMALIZED FREE ENERGY PREDICTED BY IDOCK:   31.51 KCAL/MOL
REMARK 922        TOTAL FREE ENERGY PREDICTED BY IDOCK:   35.98 KCAL/MOL
REMARK 923 INTER-LIGAND FREE ENERGY PREDICTED BY IDOCK:   36.91 KCAL/MOL
REMARK 924 INTRA-LIGAND FREE ENERGY PREDICTED BY IDOCK:   -0.93 KCAL/MOL
REMARK 927      BINDING AFFINITY PREDICTED BY RF-SCORE:    0.00 PKD
ROOT
HETATM    1  C   UNL     1     -14.104  15.781  63.963  1.00  0.00     5.283 C  
HETATM    2  N   UNL     1     -13.635  16.574  65.091  1.00  0.00     5.149 NA 
HETATM    3  C   UNL     1     -14.251  17.882  65.295  1.00  0.00    16.988 C  
ENDROOT
BRANCH   2   4
HETATM    4  C   UNL     1     -12.563  16.173  65.879  1.00  0.00     2.904 A  
HETATM    5  C   UNL     1     -11.813  17.054  66.673  1.00  0.00     2.119 A  
HETATM    6  C   UNL     1     -10.773  16.609  67.530  1.00  0.00    -0.278 A  
HETATM    7  C   UNL     1     -10.485  15.244  67.676  1.00  0.00    -0.263 A  
HETATM    8  C   UNL     1     -11.131  14.389  66.774  1.00  0.00    -0.323 A  
HETATM    9  C   UNL     1     -12.150  14.838  65.924  1.00  0.00    -0.106 A  
BRANCH   7  10
HETATM   10  C   UNL     1      -9.609  14.666  68.824  1.00  0.00    -0.210 C  
HETATM   11  C   UNL     1      -9.998  15.244  70.262  1.00  0.00     0.061 C  
HETATM   12  C   UNL     1     -11.305  14.642  70.888  1.00  0.00    -0.140 C  
HETATM   13  C   UNL     1     -12.544  15.077  70.066  1.00  0.00    -0.257 C  
HETATM   14  C   UNL     1     -11.063  13.112  70.878  1.00  0.00     2.192 C  
HETATM   15  C   UNL     1     -12.151  12.584  71.799  1.00  0.00     0.992 C  
HETATM   16  C   UNL     1     -10.910  12.489  69.483  1.00  0.00     0.134 C  
HETATM   17  C   UNL     1     -11.942  13.478  73.008  1.00  0.00     2.101 C  
HETATM   18  C   UNL     1     -10.951  10.939  69.604  1.00  0.00    -0.311 C  
HETATM   19  C   UNL     1      -9.751  10.188  69.069  1.00  0.00    -0.212 C  
HETATM   20  C   UNL     1     -11.628  14.896  72.437  1.00  0.00    -0.148 C  
HETATM   21  C   UNL     1      -9.643  13.091  68.813  1.00  0.00     0.083 C  
HETATM   22  O   UNL     1     -10.479  15.355  73.141  1.00  0.00     1.985 OA 
HETATM   23  C   UNL     1      -9.209  10.910  67.894  1.00  0.00    -0.152 C  
HETATM   24  H   UNL     1     -10.671  15.506  74.059  1.00  0.00     0.000 HD 
HETATM   25  C   UNL     1      -8.803  10.264  66.788  1.00  0.00    -0.143 C  
HETATM   26  C   UNL     1      -8.755  12.277  68.173  1.00  0.00    -0.186 C  
HETATM   27  C   UNL     1      -7.359  12.512  67.624  1.00  0.00    -0.134 C  
HETATM   28  C   UNL     1      -7.364   9.981  67.096  1.00  0.00    -0.091 C  
HETATM   29  C   UNL     1      -6.518  11.199  67.450  1.00  0.00    -0.071 C  
HETATM   30  O   UNL     1      -6.936   8.833  67.063  1.00  0.00    -0.073 OA 
BRANCH  20  31
HETATM   31  C   UNL     1     -12.912  15.745  72.752  1.00  0.00    -0.490 C  
HETATM   32  C   UNL     1     -14.249  15.063  72.791  1.00  0.00    -0.033 C  
HETATM   33  O   UNL     1     -12.871  16.965  72.941  1.00  0.00     0.542 OA 
ENDBRANCH  20  31
ENDBRANCH   7  10
ENDBRANCH   2   4
TORSDOF 3
ENDMDL
MODEL      123
REMARK 921   NORMALIZED FREE ENERGY PREDICTED BY IDOCK:   33.85 KCAL/MOL
REMARK 922        TOTAL FREE ENERGY PREDICTED BY IDOCK:   38.73 KCAL/MOL
REMARK 923 INTER-LIGAND FREE ENERGY PREDICTED BY IDOCK:   37.36 KCAL/MOL
REMARK 924 INTRA-LIGAND FREE ENERGY PREDICTED BY IDOCK:    1.37 KCAL/MOL
REMARK 927      BINDING AFFINITY PREDICTED BY RF-SCORE:    0.00 PKD
ROOT
HETATM    1  C   UNL     1      -8.879  14.072  63.513  1.00  0.00     9.969 C  
HETATM    2  N   UNL     1      -9.780  12.963  63.793  1.00  0.00     0.066 NA 
HETATM    3  C   UNL     1     -10.782  12.639  62.781  1.00  0.00     1.678 C  
ENDROOT
BRANCH   2   4
HETATM    4  C   UNL     1      -9.783  12.306  65.017  1.00  0.00    -0.059 A  
HETATM    5  C   UNL     1      -8.615  11.979  65.724  1.00  0.00     0.388 A  
HETATM    6  C   UNL     1      -8.645  11.379  67.008  1.00  0.00    -0.157 A  
HETATM    7  C   UNL     1      -9.858  11.142  67.672  1.00  0.00    -0.191 A  
HETATM    8  C   UNL     1     -11.015  11.329  66.905  1.00  0.00    -0.348 A  
HETATM    9  C   UNL     1     -10.975  11.913  65.632  1.00  0.00    -0.353 A  
BRANCH   7  10
HETATM   10  C   UNL     1      -9.961  10.808  69.188  1.00  0.00    -0.206 C  
HETATM   11  C   UNL     1      -9.242   9.436  69.579  1.00  0.00    -0.182 C  
HETATM   12  C   UNL     1      -7.676   9.503  69.647  1.00  0.00    -0.112 C  
HETATM   13  C   UNL     1      -7.086   9.737  68.234  1.00  0.00    -0.077 C  
HETATM   14  C   UNL     1      -7.387  10.659  70.637  1.00  0.00     1.041 C  
HETATM   15  C   UNL     1      -5.914  10.473  70.965  1.00  0.00     0.042 C  
HETATM   16  C   UNL     1      -7.871  12.042  70.177  1.00  0.00     2.594 C  
HETATM   17  C   UNL     1      -5.902   9.001  71.337  1.00  0.00    -0.059 C  
HETATM   18  C   UNL     1      -7.281  13.132  71.116  1.00  0.00     4.257 C  
HETATM   19  C   UNL     1      -8.276  14.028  71.821  1.00  0.00     7.520 C  
HETATM   20  C   UNL     1      -6.863   8.300  70.327  1.00  0.00    -0.036 C  
HETATM   21  C   UNL     1      -9.421  12.005  70.060  1.00  0.00     2.862 C  
HETATM   22  O   UNL     1      -7.716   7.471  71.109  1.00  0.00    -0.087 OA 
HETATM   23  C   UNL     1      -9.447  14.244  70.938  1.00  0.00     3.591 C  
HETATM   24  H   UNL     1      -7.234   6.758  71.512  1.00  0.00     0.000 HD 
HETATM   25  C   UNL     1     -10.025  15.450  70.807  1.00  0.00     0.701 C  
HETATM   26  C   UNL     1     -10.171  13.022  70.572  1.00  0.00     3.938 C  
HETATM   27  C   UNL     1     -11.663  13.180  70.808  1.00  0.00     0.241 C  
HETATM   28  C   UNL     1     -11.042  15.435  71.907  1.00  0.00    -0.160 C  
HETATM   29  C   UNL     1     -12.023  14.269  71.878  1.00  0.00    -0.044 C  
HETATM   30  O   UNL     1     -11.046  16.315  72.761  1.00  0.00     0.614 OA 
BRANCH  20  31
HETATM   31  C   UNL     1      -5.916   7.477  69.382  1.00  0.00    -0.030 C  
HETATM   32  C   UNL     1      -5.291   6.211  69.894  1.00  0.00    -0.013 C  
HETATM   33  O   UNL     1      -5.638   7.844  68.236  1.00  0.00    -0.031 OA 
ENDBRANCH  20  31
ENDBRANCH   7  10
ENDBRANCH   2   4
TORSDOF 3
ENDMDL
MODEL      124
REMARK 921   NORMALIZED FREE ENERGY PREDICTED BY IDOCK:   35.90 KCAL/MOL
REMARK 922        TOTAL FREE ENERGY PREDICTED BY IDOCK:   41.14 KCAL/MOL
REMARK 923 INTER-LIGAND FREE ENERGY PREDICTED BY IDOCK:   40.03 KCAL/MOL
REMARK 924 INTRA-LIGAND FREE ENERGY PREDICTED BY IDOCK:    1.11 KCAL/MOL
REMARK 927      BINDING AFFINITY PREDICTED BY RF-SCORE:    0.00 PKD
ROOT
HETATM    1  C   UNL     1     -13.080   7.330  73.143  1.00  0.00     2.052 C  
HETATM    2  N   UNL     1     -11.648   7.583  73.061  1.00  0.00    -0.201 NA 
HETATM    3  C   UNL     1     -10.940   7.848  74.311  1.00  0.00     3.642 C  
ENDROOT
BRANCH   2   4
HETATM    4  C   UNL     1     -10.987   7.694  71.844  1.00  0.00    -0.241 A  
HETATM    5  C   UNL     1     -11.524   7.246  70.627  1.00  0.00    -0.322 A  
HETATM    6  C   UNL     1     -10.865   7.441  69.387  1.00  0.00    -0.184 A  
HETATM    7  C   UNL     1      -9.662   8.159  69.307  1.00  0.00    -0.170 A  
HETATM    8  C   UNL     1      -9.060   8.469  70.533  1.00  0.00    -0.174 A  
HETATM    9  C   UNL     1      -9.714   8.264  71.755  1.00  0.00    -0.278 A  
BRANCH   7  10
HETATM   10  C   UNL     1      -9.066   8.696  67.974  1.00  0.00    -0.144 C  
HETATM   11  C   UNL     1      -8.010   7.698  67.311  1.00  0.00    -0.118 C  
HETATM   12  C   UNL     1      -8.636   6.453  66.589  1.00  0.00    -0.121 C  
HETATM   13  C   UNL     1      -9.303   5.512  67.622  1.00  0.00    -0.116 C  
HETATM   14  C   UNL     1      -9.634   7.064  65.574  1.00  0.00     0.722 C  
HETATM   15  C   UNL     1      -9.950   5.896  64.655  1.00  0.00     1.911 C  
HETATM   16  C   UNL     1     -10.797   7.846  66.201  1.00  0.00     1.742 C  
HETATM   17  C   UNL     1      -8.546   5.435  64.306  1.00  0.00    -0.044 C  
HETATM   18  C   UNL     1     -11.855   8.162  65.105  1.00  0.00    12.919 C  
HETATM   19  C   UNL     1     -12.190   9.621  64.889  1.00  0.00    10.394 C  
HETATM   20  C   UNL     1      -7.721   5.557  65.625  1.00  0.00    -0.088 C  
HETATM   21  C   UNL     1     -10.213   9.071  66.961  1.00  0.00    -0.336 C  
HETATM   22  O   UNL     1      -6.518   6.232  65.272  1.00  0.00    -0.037 OA 
HETATM   23  C   UNL     1     -12.105  10.337  66.185  1.00  0.00     4.362 C  
HETATM   24  H   UNL     1      -5.976   5.701  64.701  1.00  0.00     0.000 HD 
HETATM   25  C   UNL     1     -13.018  11.252  66.551  1.00  0.00     6.289 C  
HETATM   26  C   UNL     1     -10.782  10.301  66.817  1.00  0.00    -0.216 C  
HETATM   27  C   UNL     1     -10.338  11.693  67.234  1.00  0.00    -0.232 C  
HETATM   28  C   UNL     1     -12.446  12.515  65.983  1.00  0.00     0.231 C  
HETATM   29  C   UNL     1     -11.024  12.845  66.420  1.00  0.00    -0.310 C  
HETATM   30  O   UNL     1     -13.107  13.205  65.214  1.00  0.00    -0.678 OA 
BRANCH  20  31
HETATM   31  C   UNL     1      -7.474   4.073  66.078  1.00  0.00    -0.088 C  
HETATM   32  C   UNL     1      -8.195   3.548  67.286  1.00  0.00    -0.090 C  
HETATM   33  O   UNL     1      -6.684   3.324  65.496  1.00  0.00    -0.042 OA 
ENDBRANCH  20  31
ENDBRANCH   7  10
ENDBRANCH   2   4
TORSDOF 3
ENDMDL
MODEL      125
REMARK 921   NORMALIZED FREE ENERGY PREDICTED BY IDOCK:   36.41 KCAL/MOL
REMARK 922        TOTAL FREE ENERGY PREDICTED BY IDOCK:   41.74 KCAL/MOL
REMARK 923 INTER-LIGAND FREE ENERGY PREDICTED BY IDOCK:   41.44 KCAL/MOL
REMARK 924 INTRA-LIGAND FREE ENERGY PREDICTED BY IDOCK:    0.30 KCAL/MOL
REMARK 927      BINDING AFFINITY PREDICTED BY RF-SCORE:    0.00 PKD
ROOT
HETATM    1  C   UNL     1     -11.686  11.226  70.401  1.00  0.00    -0.304 C  
HETATM    2  N   UNL     1     -10.733  10.710  69.429  1.00  0.00    -0.230 NA 
HETATM    3  C   UNL     1     -10.376  11.578  68.310  1.00  0.00    -0.197 C  
ENDROOT
BRANCH   2   4
HETATM    4  C   UNL     1     -10.264   9.402  69.478  1.00  0.00    -0.209 A  
HETATM    5  C   UNL     1     -11.053   8.311  69.875  1.00  0.00    -0.100 A  
HETATM    6  C   UNL     1     -10.577   6.976  69.842  1.00  0.00    -0.249 A  
HETATM    7  C   UNL     1      -9.301   6.670  69.343  1.00  0.00    -0.147 A  
HETATM    8  C   UNL     1      -8.470   7.770  69.092  1.00  0.00    -0.138 A  
HETATM    9  C   UNL     1      -8.946   9.086  69.137  1.00  0.00    -0.140 A  
BRANCH   7  10
HETATM   10  C   UNL     1      -8.845   5.232  68.966  1.00  0.00    -0.111 C  
HETATM   11  C   UNL     1      -8.718   4.262  70.229  1.00  0.00    -0.118 C  
HETATM   12  C   UNL     1     -10.081   3.736  70.801  1.00  0.00     0.082 C  
HETATM   13  C   UNL     1     -10.890   4.902  71.422  1.00  0.00     0.066 C  
HETATM   14  C   UNL     1     -10.777   3.079  69.582  1.00  0.00     3.455 C  
HETATM   15  C   UNL     1     -11.898   2.273  70.218  1.00  0.00    10.328 C  
HETATM   16  C   UNL     1     -11.119   4.042  68.436  1.00  0.00     4.323 C  
HETATM   17  C   UNL     1     -11.120   1.510  71.275  1.00  0.00     1.625 C  
HETATM   18  C   UNL     1     -12.046   3.320  67.417  1.00  0.00    16.814 C  
HETATM   19  C   UNL     1     -11.552   3.245  65.989  1.00  0.00     6.600 C  
HETATM   20  C   UNL     1     -10.081   2.523  71.850  1.00  0.00    -0.093 C  
HETATM   21  C   UNL     1      -9.791   4.617  67.866  1.00  0.00    -0.177 C  
HETATM   22  O   UNL     1      -8.832   1.840  71.858  1.00  0.00    -0.065 OA 
HETATM   23  C   UNL     1     -10.777   4.470  65.677  1.00  0.00    -0.160 C  
HETATM   24  H   UNL     1      -8.832   1.122  72.479  1.00  0.00     0.000 HD 
HETATM   25  C   UNL     1     -10.907   5.112  64.504  1.00  0.00     1.474 C  
HETATM   26  C   UNL     1      -9.593   4.675  66.519  1.00  0.00    -0.190 C  
HETATM   27  C   UNL     1      -8.366   4.969  65.672  1.00  0.00    -0.120 C  
HETATM   28  C   UNL     1      -9.884   4.425  63.651  1.00  0.00     0.054 C  
HETATM   29  C   UNL     1      -8.464   4.421  64.205  1.00  0.00    -0.115 C  
HETATM   30  O   UNL     1     -10.209   3.904  62.590  1.00  0.00    -0.163 OA 
BRANCH  20  31
HETATM   31  C   UNL     1     -10.602   2.851  73.295  1.00  0.00    -0.166 C  
HETATM   32  C   UNL     1      -9.613   2.994  74.415  1.00  0.00    -0.125 C  
HETATM   33  O   UNL     1     -11.804   2.969  73.557  1.00  0.00    -0.068 OA 
ENDBRANCH  20  31
ENDBRANCH   7  10
ENDBRANCH   2   4
TORSDOF 3
ENDMDL
MODEL      126
REMARK 921   NORMALIZED FREE ENERGY PREDICTED BY IDOCK:   38.26 KCAL/MOL
REMARK 922        TOTAL FREE ENERGY PREDICTED BY IDOCK:   43.92 KCAL/MOL
REMARK 923 INTER-LIGAND FREE ENERGY PREDICTED BY IDOCK:   43.09 KCAL/MOL
REMARK 924 INTRA-LIGAND FREE ENERGY PREDICTED BY IDOCK:    0.82 KCAL/MOL
REMARK 927      BINDING AFFINITY PREDICTED BY RF-SCORE:    0.00 PKD
ROOT
HETATM    1  C   UNL     1     -13.476   4.713  67.409  1.00  0.00    23.982 C  
HETATM    2  N   UNL     1     -12.615   4.853  66.243  1.00  0.00     6.672 NA 
HETATM    3  C   UNL     1     -12.885   3.986  65.100  1.00  0.00     9.577 C  
ENDROOT
BRANCH   2   4
HETATM    4  C   UNL     1     -11.502   5.686  66.245  1.00  0.00     0.974 A  
HETATM    5  C   UNL     1     -11.576   7.080  66.098  1.00  0.00     3.335 A  
HETATM    6  C   UNL     1     -10.434   7.915  66.182  1.00  0.00     0.811 A  
HETATM    7  C   UNL     1      -9.169   7.390  66.485  1.00  0.00    -0.206 A  
HETATM    8  C   UNL     1      -9.076   5.992  66.480  1.00  0.00    -0.153 A  
HETATM    9  C   UNL     1     -10.209   5.174  66.387  1.00  0.00    -0.303 A  
BRANCH   7  10
HETATM   10  C   UNL     1      -7.955   8.262  66.920  1.00  0.00    -0.099 C  
HETATM   11  C   UNL     1      -7.929   9.696  66.217  1.00  0.00    -0.108 C  
HETATM   12  C   UNL     1      -8.950  10.738  66.795  1.00  0.00    -0.157 C  
HETATM   13  C   UNL     1     -10.402  10.298  66.482  1.00  0.00    -0.276 C  
HETATM   14  C   UNL     1      -8.631  10.783  68.311  1.00  0.00    -0.135 C  
HETATM   15  C   UNL     1      -9.358  12.032  68.780  1.00  0.00     0.044 C  
HETATM   16  C   UNL     1      -8.867   9.465  69.062  1.00  0.00    -0.141 C  
HETATM   17  C   UNL     1      -8.850  13.041  67.765  1.00  0.00    -0.188 C  
HETATM   18  C   UNL     1      -8.777   9.722  70.593  1.00  0.00     0.114 C  
HETATM   19  C   UNL     1      -7.750   8.912  71.355  1.00  0.00    -0.126 C  
HETATM   20  C   UNL     1      -8.807  12.285  66.401  1.00  0.00    -0.071 C  
HETATM   21  C   UNL     1      -7.897   8.393  68.489  1.00  0.00    -0.120 C  
HETATM   22  O   UNL     1      -7.530  12.564  65.839  1.00  0.00     0.826 OA 
HETATM   23  C   UNL     1      -7.629   7.571  70.734  1.00  0.00    -0.081 C  
HETATM   24  H   UNL     1      -7.446  13.481  65.605  1.00  0.00     0.000 HD 
HETATM   25  C   UNL     1      -7.536   6.453  71.473  1.00  0.00    -0.098 C  
HETATM   26  C   UNL     1      -7.195   7.584  69.333  1.00  0.00    -0.082 C  
HETATM   27  C   UNL     1      -6.045   6.618  69.109  1.00  0.00    -0.026 C  
HETATM   28  C   UNL     1      -6.057   6.330  71.678  1.00  0.00    -0.040 C  
HETATM   29  C   UNL     1      -5.218   6.307  70.406  1.00  0.00    -0.014 C  
HETATM   30  O   UNL     1      -5.591   6.265  72.810  1.00  0.00    -0.035 OA 
BRANCH  20  31
HETATM   31  C   UNL     1      -9.986  12.903  65.566  1.00  0.00    -0.213 C  
HETATM   32  C   UNL     1     -11.133  13.551  66.288  1.00  0.00    -0.308 C  
HETATM   33  O   UNL     1     -10.024  12.853  64.333  1.00  0.00    -0.261 OA 
ENDBRANCH  20  31
ENDBRANCH   7  10
ENDBRANCH   2   4
TORSDOF 3
ENDMDL
MODEL      127
REMARK 921   NORMALIZED FREE ENERGY PREDICTED BY IDOCK:   41.41 KCAL/MOL
REMARK 922        TOTAL FREE ENERGY PREDICTED BY IDOCK:   47.62 KCAL/MOL
REMARK 923 INTER-LIGAND FREE ENERGY PREDICTED BY IDOCK:   47.97 KCAL/MOL
REMARK 924 INTRA-LIGAND FREE ENERGY PREDICTED BY IDOCK:   -0.35 KCAL/MOL
REMARK 927      BINDING AFFINITY PREDICTED BY RF-SCORE:    0.00 PKD
ROOT
HETATM    1  C   UNL     1     -14.305  16.082  64.600  1.00  0.00     5.378 C  
HETATM    2  N   UNL     1     -13.882  16.758  65.819  1.00  0.00     8.828 NA 
HETATM    3  C   UNL     1     -14.402  18.102  66.058  1.00  0.00    16.591 C  
ENDROOT
BRANCH   2   4
HETATM    4  C   UNL     1     -12.929  16.213  66.672  1.00  0.00     4.435 A  
HETATM    5  C   UNL     1     -12.241  16.959  67.642  1.00  0.00     2.102 A  
HETATM    6  C   UNL     1     -11.331  16.365  68.553  1.00  0.00    -0.289 A  
HETATM    7  C   UNL     1     -11.121  14.978  68.573  1.00  0.00    -0.279 A  
HETATM    8  C   UNL     1     -11.691  14.264  67.510  1.00  0.00    -0.415 A  
HETATM    9  C   UNL     1     -12.582  14.861  66.609  1.00  0.00     0.658 A  
BRANCH   7  10
HETATM   10  C   UNL     1     -10.413  14.230  69.738  1.00  0.00     0.205 C  
HETATM   11  C   UNL     1     -10.417  15.053  71.107  1.00  0.00     0.529 C  
HETATM   12  C   UNL     1     -11.786  15.058  71.874  1.00  0.00    -0.455 C  
HETATM   13  C   UNL     1     -12.850  15.846  71.070  1.00  0.00    -0.224 C  
HETATM   14  C   UNL     1     -12.130  13.558  72.051  1.00  0.00     0.633 C  
HETATM   15  C   UNL     1     -13.239  13.578  73.089  1.00  0.00     0.547 C  
HETATM   16  C   UNL     1     -12.356  12.787  70.742  1.00  0.00    -0.375 C  
HETATM   17  C   UNL     1     -12.597  14.443  74.159  1.00  0.00     0.912 C  
HETATM   18  C   UNL     1     -12.955  11.389  71.066  1.00  0.00    -0.280 C  
HETATM   19  C   UNL     1     -12.178  10.189  70.571  1.00  0.00    -0.352 C  
HETATM   20  C   UNL     1     -11.838  15.570  73.392  1.00  0.00    -0.364 C  
HETATM   21  C   UNL     1     -11.028  12.792  69.933  1.00  0.00     0.430 C  
HETATM   22  O   UNL     1     -10.538  15.628  73.968  1.00  0.00     3.585 OA 
HETATM   23  C   UNL     1     -11.524  10.530  69.284  1.00  0.00    -0.323 C  
HETATM   24  H   UNL     1     -10.569  15.931  74.868  1.00  0.00     0.000 HD 
HETATM   25  C   UNL     1     -11.498   9.670  68.252  1.00  0.00     0.317 C  
HETATM   26  C   UNL     1     -10.572  11.643  69.359  1.00  0.00    -0.008 C  
HETATM   27  C   UNL     1      -9.249  11.274  68.710  1.00  0.00    -0.133 C  
HETATM   28  C   UNL     1     -10.243   8.895  68.517  1.00  0.00    -0.197 C  
HETATM   29  C   UNL     1      -8.976   9.730  68.664  1.00  0.00    -0.130 C  
HETATM   30  O   UNL     1     -10.275   7.674  68.611  1.00  0.00    -0.190 OA 
BRANCH  20  31
HETATM   31  C   UNL     1     -12.679  16.870  73.661  1.00  0.00     0.416 C  
HETATM   32  C   UNL     1     -12.384  18.110  72.868  1.00  0.00     5.517 C  
HETATM   33  O   UNL     1     -13.560  16.923  74.525  1.00  0.00     0.904 OA 
ENDBRANCH  20  31
ENDBRANCH   7  10
ENDBRANCH   2   4
TORSDOF 3
ENDMDL
MODEL      128
REMARK 921   NORMALIZED FREE ENERGY PREDICTED BY IDOCK:   48.23 KCAL/MOL
REMARK 922        TOTAL FREE ENERGY PREDICTED BY IDOCK:   55.63 KCAL/MOL
REMARK 923 INTER-LIGAND FREE ENERGY PREDICTED BY IDOCK:   54.76 KCAL/MOL
REMARK 924 INTRA-LIGAND FREE ENERGY PREDICTED BY IDOCK:    0.87 KCAL/MOL
REMARK 927      BINDING AFFINITY PREDICTED BY RF-SCORE:    0.00 PKD
ROOT
HETATM    1  C   UNL     1     -13.691   5.390  68.444  1.00  0.00    22.361 C  
HETATM    2  N   UNL     1     -12.850   5.918  67.379  1.00  0.00     8.611 NA 
HETATM    3  C   UNL     1     -12.968   5.300  66.061  1.00  0.00     9.059 C  
ENDROOT
BRANCH   2   4
HETATM    4  C   UNL     1     -11.882   6.886  67.616  1.00  0.00     1.598 A  
HETATM    5  C   UNL     1     -10.989   7.345  66.635  1.00  0.00     0.345 A  
HETATM    6  C   UNL     1     -10.062   8.390  66.879  1.00  0.00    -0.364 A  
HETATM    7  C   UNL     1     -10.037   9.069  68.107  1.00  0.00    -0.229 A  
HETATM    8  C   UNL     1     -10.822   8.510  69.124  1.00  0.00    -0.049 A  
HETATM    9  C   UNL     1     -11.728   7.471  68.876  1.00  0.00     1.090 A  
BRANCH   7  10
HETATM   10  C   UNL     1      -9.299  10.420  68.330  1.00  0.00    -0.150 C  
HETATM   11  C   UNL     1      -7.959  10.552  67.471  1.00  0.00    -0.107 C  
HETATM   12  C   UNL     1      -8.175  10.863  65.948  1.00  0.00    -0.133 C  
HETATM   13  C   UNL     1      -8.843   9.656  65.243  1.00  0.00    -0.204 C  
HETATM   14  C   UNL     1      -9.046  12.144  65.940  1.00  0.00    -0.001 C  
HETATM   15  C   UNL     1      -8.939  12.626  64.503  1.00  0.00     1.485 C  
HETATM   16  C   UNL     1     -10.440  11.983  66.563  1.00  0.00    -0.253 C  
HETATM   17  C   UNL     1      -7.431  12.612  64.322  1.00  0.00     8.043 C  
HETATM   18  C   UNL     1     -11.295  13.242  66.244  1.00  0.00    -0.336 C  
HETATM   19  C   UNL     1     -11.854  13.998  67.430  1.00  0.00    -0.445 C  
HETATM   20  C   UNL     1      -6.929  11.328  65.053  1.00  0.00     1.028 C  
HETATM   21  C   UNL     1     -10.268  11.635  68.069  1.00  0.00    -0.202 C  
HETATM   22  O   UNL     1      -5.832  11.743  65.861  1.00  0.00    -0.457 OA 
HETATM   23  C   UNL     1     -12.172  13.036  68.513  1.00  0.00    -0.038 C  
HETATM   24  H   UNL     1      -5.094  12.018  65.330  1.00  0.00     0.000 HD 
HETATM   25  C   UNL     1     -13.298  13.132  69.239  1.00  0.00     2.828 C  
HETATM   26  C   UNL     1     -11.022  12.272  69.009  1.00  0.00    -0.250 C  
HETATM   27  C   UNL     1     -10.948  12.320  70.525  1.00  0.00     1.726 C  
HETATM   28  C   UNL     1     -12.878  14.032  70.360  1.00  0.00    -0.170 C  
HETATM   29  C   UNL     1     -11.663  13.566  71.155  1.00  0.00     0.503 C  
HETATM   30  O   UNL     1     -13.490  15.070  70.586  1.00  0.00    -0.300 OA 
BRANCH  20  31
HETATM   31  C   UNL     1      -6.498  10.355  63.897  1.00  0.00    -0.024 C  
HETATM   32  C   UNL     1      -7.167  10.468  62.558  1.00  0.00    -0.138 C  
HETATM   33  O   UNL     1      -5.646   9.475  64.054  1.00  0.00    -0.067 OA 
ENDBRANCH  20  31
ENDBRANCH   7  10
ENDBRANCH   2   4
TORSDOF 3
ENDMDL
MODEL      129
REMARK 921   NORMALIZED FREE ENERGY PREDICTED BY IDOCK:   53.62 KCAL/MOL
REMARK 922        TOTAL FREE ENERGY PREDICTED BY IDOCK:   61.97 KCAL/MOL
REMARK 923 INTER-LIGAND FREE ENERGY PREDICTED BY IDOCK:   61.98 KCAL/MOL
REMARK 924 INTRA-LIGAND FREE ENERGY PREDICTED BY IDOCK:   -0.01 KCAL/MOL
REMARK 927      BINDING AFFINITY PREDICTED BY RF-SCORE:    0.00 PKD
ROOT
HETATM    1  C   UNL     1      -8.276  21.189  72.429  1.00  0.00     4.376 C  
HETATM    2  N   UNL     1      -7.716  19.855  72.591  1.00  0.00     2.397 NA 
HETATM    3  C   UNL     1      -6.630  19.693  73.554  1.00  0.00     6.747 C  
ENDROOT
BRANCH   2   4
HETATM    4  C   UNL     1      -8.101  18.791  71.783  1.00  0.00     7.916 A  
HETATM    5  C   UNL     1      -7.223  17.779  71.363  1.00  0.00     5.808 A  
HETATM    6  C   UNL     1      -7.657  16.662  70.605  1.00  0.00     3.215 A  
HETATM    7  C   UNL     1      -9.012  16.477  70.292  1.00  0.00     2.000 A  
HETATM    8  C   UNL     1      -9.854  17.559  70.582  1.00  0.00     2.865 A  
HETATM    9  C   UNL     1      -9.414  18.663  71.323  1.00  0.00     5.280 A  
BRANCH   7  10
HETATM   10  C   UNL     1      -9.600  15.135  69.769  1.00  0.00    -0.066 C  
HETATM   11  C   UNL     1     -10.799  15.337  68.734  1.00  0.00    -0.254 C  
HETATM   12  C   UNL     1     -10.363  15.768  67.289  1.00  0.00    -0.290 C  
HETATM   13  C   UNL     1      -9.769  17.198  67.312  1.00  0.00    -0.254 C  
HETATM   14  C   UNL     1      -9.347  14.681  66.857  1.00  0.00    -0.258 C  
HETATM   15  C   UNL     1      -9.218  14.904  65.360  1.00  0.00     0.549 C  
HETATM   16  C   UNL     1      -8.069  14.617  67.707  1.00  0.00    -0.160 C  
HETATM   17  C   UNL     1     -10.683  14.917  64.959  1.00  0.00    -0.451 C  
HETATM   18  C   UNL     1      -7.033  13.691  67.008  1.00  0.00     0.596 C  
HETATM   19  C   UNL     1      -6.533  12.509  67.810  1.00  0.00    -0.120 C  
HETATM   20  C   UNL     1     -11.425  15.695  66.090  1.00  0.00     0.186 C  
HETATM   21  C   UNL     1      -8.464  14.228  69.159  1.00  0.00     0.142 C  
HETATM   22  O   UNL     1     -12.552  14.898  66.438  1.00  0.00    -0.098 OA 
HETATM   23  C   UNL     1      -6.470  12.886  69.243  1.00  0.00    -0.104 C  
HETATM   24  H   UNL     1     -13.180  14.855  65.727  1.00  0.00     0.000 HD 
HETATM   25  C   UNL     1      -5.437  12.531  70.025  1.00  0.00    -0.115 C  
HETATM   26  C   UNL     1      -7.757  13.275  69.829  1.00  0.00     1.205 C  
HETATM   27  C   UNL     1      -8.009  12.536  71.133  1.00  0.00     9.046 C  
HETATM   28  C   UNL     1      -5.877  11.197  70.546  1.00  0.00    -0.133 C  
HETATM   29  C   UNL     1      -7.227  11.181  71.253  1.00  0.00     3.819 C  
HETATM   30  O   UNL     1      -5.174  10.205  70.385  1.00  0.00    -0.040 OA 
BRANCH  20  31
HETATM   31  C   UNL     1     -11.829  17.063  65.432  1.00  0.00     2.111 C  
HETATM   32  C   UNL     1     -12.632  17.056  64.163  1.00  0.00     5.136 C  
HETATM   33  O   UNL     1     -11.486  18.153  65.902  1.00  0.00     0.927 OA 
ENDBRANCH  20  31
ENDBRANCH   7  10
ENDBRANCH   2   4
TORSDOF 3
ENDMDL
MODEL      130
REMARK 921   NORMALIZED FREE ENERGY PREDICTED BY IDOCK:   54.86 KCAL/MOL
REMARK 922        TOTAL FREE ENERGY PREDICTED BY IDOCK:   63.42 KCAL/MOL
REMARK 923 INTER-LIGAND FREE ENERGY PREDICTED BY IDOCK:   62.21 KCAL/MOL
REMARK 924 INTRA-LIGAND FREE ENERGY PREDICTED BY IDOCK:    1.21 KCAL/MOL
REMARK 927      BINDING AFFINITY PREDICTED BY RF-SCORE:    0.00 PKD
ROOT
HETATM    1  C   UNL     1      -9.323   1.648  71.847  1.00  0.00    -0.091 C  
HETATM    2  N   UNL     1      -9.862   2.993  71.705  1.00  0.00    -0.162 NA 
HETATM    3  C   UNL     1     -11.098   3.301  72.419  1.00  0.00     0.626 C  
ENDROOT
BRANCH   2   4
HETATM    4  C   UNL     1      -9.305   3.923  70.834  1.00  0.00    -0.152 A  
HETATM    5  C   UNL     1      -9.678   4.042  69.486  1.00  0.00    -0.227 A  
HETATM    6  C   UNL     1      -9.152   5.049  68.638  1.00  0.00    -0.139 A  
HETATM    7  C   UNL     1      -8.275   6.029  69.128  1.00  0.00    -0.111 A  
HETATM    8  C   UNL     1      -7.793   5.815  70.426  1.00  0.00    -0.104 A  
HETATM    9  C   UNL     1      -8.311   4.811  71.254  1.00  0.00    -0.108 A  
BRANCH   7  10
HETATM   10  C   UNL     1      -7.929   7.337  68.361  1.00  0.00    -0.124 C  
HETATM   11  C   UNL     1      -8.498   7.360  66.869  1.00  0.00    -0.123 C  
HETATM   12  C   UNL     1     -10.039   7.636  66.749  1.00  0.00    -0.325 C  
HETATM   13  C   UNL     1     -10.844   6.452  67.340  1.00  0.00    -0.457 C  
HETATM   14  C   UNL     1     -10.247   8.968  67.513  1.00  0.00    -0.302 C  
HETATM   15  C   UNL     1     -11.640   9.397  67.084  1.00  0.00     2.037 C  
HETATM   16  C   UNL     1      -9.920   8.912  69.012  1.00  0.00    -0.195 C  
HETATM   17  C   UNL     1     -11.508   9.284  65.576  1.00  0.00     5.191 C  
HETATM   18  C   UNL     1     -10.429  10.212  69.698  1.00  0.00    -0.282 C  
HETATM   19  C   UNL     1      -9.396  11.037  70.435  1.00  0.00     2.340 C  
HETATM   20  C   UNL     1     -10.667   7.995  65.319  1.00  0.00     5.055 C  
HETATM   21  C   UNL     1      -8.405   8.602  69.173  1.00  0.00    -0.119 C  
HETATM   22  O   UNL     1      -9.660   8.365  64.385  1.00  0.00     0.653 OA 
HETATM   23  C   UNL     1      -8.384  10.131  71.030  1.00  0.00     1.639 C  
HETATM   24  H   UNL     1     -10.033   8.578  63.537  1.00  0.00     0.000 HD 
HETATM   25  C   UNL     1      -7.906  10.319  72.271  1.00  0.00     5.167 C  
HETATM   26  C   UNL     1      -7.650   9.313  70.058  1.00  0.00    -0.099 C  
HETATM   27  C   UNL     1      -6.152   9.402  70.291  1.00  0.00    -0.049 C  
HETATM   28  C   UNL     1      -6.738  11.225  72.028  1.00  0.00     4.568 C  
HETATM   29  C   UNL     1      -5.704  10.709  71.034  1.00  0.00    -0.031 C  
HETATM   30  O   UNL     1      -6.661  12.306  72.602  1.00  0.00     4.062 OA 
BRANCH  20  31
HETATM   31  C   UNL     1     -11.693   6.962  64.729  1.00  0.00    11.817 C  
HETATM   32  C   UNL     1     -11.846   6.853  63.239  1.00  0.00    17.491 C  
HETATM   33  O   UNL     1     -12.404   6.250  65.445  1.00  0.00     4.768 OA 
ENDBRANCH  20  31
ENDBRANCH   7  10
ENDBRANCH   2   4
TORSDOF 3
ENDMDL
MODEL      131
REMARK 921   NORMALIZED FREE ENERGY PREDICTED BY IDOCK:   58.10 KCAL/MOL
REMARK 922        TOTAL FREE ENERGY PREDICTED BY IDOCK:   67.23 KCAL/MOL
REMARK 923 INTER-LIGAND FREE ENERGY PREDICTED BY IDOCK:   65.52 KCAL/MOL
REMARK 924 INTRA-LIGAND FREE ENERGY PREDICTED BY IDOCK:    1.71 KCAL/MOL
REMARK 927      BINDING AFFINITY PREDICTED BY RF-SCORE:    0.00 PKD
ROOT
HETATM    1  C   UNL     1     -13.842  13.976  73.185  1.00  0.00     0.761 C  
HETATM    2  N   UNL     1     -12.388  14.016  73.249  1.00  0.00     0.022 NA 
HETATM    3  C   UNL     1     -11.767  15.272  73.660  1.00  0.00    -0.096 C  
ENDROOT
BRANCH   2   4
HETATM    4  C   UNL     1     -11.602  12.952  72.822  1.00  0.00     5.646 A  
HETATM    5  C   UNL     1     -12.038  11.617  72.822  1.00  0.00     4.769 A  
HETATM    6  C   UNL     1     -11.247  10.559  72.309  1.00  0.00     3.527 A  
HETATM    7  C   UNL     1     -10.002  10.805  71.708  1.00  0.00     6.623 A  
HETATM    8  C   UNL     1      -9.510  12.109  71.848  1.00  0.00    17.837 A  
HETATM    9  C   UNL     1     -10.295  13.147  72.365  1.00  0.00    11.957 A  
BRANCH   7  10
HETATM   10  C   UNL     1      -9.244   9.762  70.837  1.00  0.00     0.272 C  
HETATM   11  C   UNL     1      -9.677   8.255  71.142  1.00  0.00    -0.209 C  
HETATM   12  C   UNL     1     -11.063   7.828  70.541  1.00  0.00    -0.265 C  
HETATM   13  C   UNL     1     -12.212   8.597  71.238  1.00  0.00    -0.320 C  
HETATM   14  C   UNL     1     -10.934   8.143  69.029  1.00  0.00     0.093 C  
HETATM   15  C   UNL     1     -12.114   7.402  68.421  1.00  0.00     2.628 C  
HETATM   16  C   UNL     1     -10.743   9.628  68.691  1.00  0.00    -0.233 C  
HETATM   17  C   UNL     1     -11.914   6.025  69.031  1.00  0.00     1.741 C  
HETATM   18  C   UNL     1     -10.906   9.833  67.158  1.00  0.00    -0.207 C  
HETATM   19  C   UNL     1      -9.734  10.456  66.431  1.00  0.00    -0.250 C  
HETATM   20  C   UNL     1     -11.461   6.275  70.502  1.00  0.00    -0.338 C  
HETATM   21  C   UNL     1      -9.394  10.101  69.305  1.00  0.00    -0.227 C  
HETATM   22  O   UNL     1     -10.327   5.441  70.709  1.00  0.00    -0.228 OA 
HETATM   23  C   UNL     1      -9.068  11.430  67.327  1.00  0.00    -0.162 C  
HETATM   24  H   UNL     1     -10.563   4.521  70.687  1.00  0.00     0.000 HD 
HETATM   25  C   UNL     1      -8.644  12.626  66.886  1.00  0.00    -0.151 C  
HETATM   26  C   UNL     1      -8.532  10.854  68.565  1.00  0.00    -0.147 C  
HETATM   27  C   UNL     1      -7.090  11.279  68.786  1.00  0.00    -0.096 C  
HETATM   28  C   UNL     1      -7.252  12.319  66.425  1.00  0.00     0.723 C  
HETATM   29  C   UNL     1      -6.341  11.683  67.469  1.00  0.00    -0.087 C  
HETATM   30  O   UNL     1      -6.909  12.570  65.275  1.00  0.00     3.712 OA 
BRANCH  20  31
HETATM   31  C   UNL     1     -12.695   5.851  71.377  1.00  0.00     1.246 C  
HETATM   32  C   UNL     1     -13.054   6.670  72.583  1.00  0.00     0.715 C  
HETATM   33  O   UNL     1     -13.370   4.847  71.129  1.00  0.00     6.266 OA 
ENDBRANCH  20  31
ENDBRANCH   7  10
ENDBRANCH   2   4
TORSDOF 3
ENDMDL
MODEL      132
REMARK 921   NORMALIZED FREE ENERGY PREDICTED BY IDOCK:   60.00 KCAL/MOL
REMARK 922        TOTAL FREE ENERGY PREDICTED BY IDOCK:   69.47 KCAL/MOL
REMARK 923 INTER-LIGAND FREE ENERGY PREDICTED BY IDOCK:   68.90 KCAL/MOL
REMARK 924 INTRA-LIGAND FREE ENERGY PREDICTED BY IDOCK:    0.57 KCAL/MOL
REMARK 927      BINDING AFFINITY PREDICTED BY RF-SCORE:    0.00 PKD
ROOT
HETATM    1  C   UNL     1      -9.685  11.102  72.795  1.00  0.00    16.699 C  
HETATM    2  N   UNL     1      -8.929  10.926  71.563  1.00  0.00     6.255 NA 
HETATM    3  C   UNL     1      -7.524  11.326  71.573  1.00  0.00     6.263 C  
ENDROOT
BRANCH   2   4
HETATM    4  C   UNL     1      -9.532  10.512  70.381  1.00  0.00     1.006 A  
HETATM    5  C   UNL     1      -9.182  11.011  69.116  1.00  0.00    -0.022 A  
HETATM    6  C   UNL     1      -9.756  10.517  67.918  1.00  0.00    -0.171 A  
HETATM    7  C   UNL     1     -10.663   9.446  67.933  1.00  0.00    -0.269 A  
HETATM    8  C   UNL     1     -11.118   9.056  69.199  1.00  0.00     0.072 A  
HETATM    9  C   UNL     1     -10.553   9.557  70.378  1.00  0.00    -0.333 A  
BRANCH   7  10
HETATM   10  C   UNL     1     -11.068   8.641  66.664  1.00  0.00     0.956 C  
HETATM   11  C   UNL     1     -12.338   9.252  65.912  1.00  0.00    11.095 C  
HETATM   12  C   UNL     1     -12.051  10.542  65.066  1.00  0.00     3.922 C  
HETATM   13  C   UNL     1     -11.680  11.723  65.995  1.00  0.00    -0.100 C  
HETATM   14  C   UNL     1     -10.905  10.123  64.110  1.00  0.00     1.834 C  
HETATM   15  C   UNL     1     -10.894  11.237  63.077  1.00  0.00     0.027 C  
HETATM   16  C   UNL     1      -9.589   9.745  64.804  1.00  0.00    -0.284 C  
HETATM   17  C   UNL     1     -12.362  11.270  62.693  1.00  0.00     1.425 C  
HETATM   18  C   UNL     1      -8.464   9.618  63.738  1.00  0.00    -0.190 C  
HETATM   19  C   UNL     1      -7.748   8.286  63.666  1.00  0.00    -0.146 C  
HETATM   20  C   UNL     1     -13.152  11.061  64.023  1.00  0.00     2.884 C  
HETATM   21  C   UNL     1      -9.842   8.489  65.686  1.00  0.00     0.306 C  
HETATM   22  O   UNL     1     -14.124  10.059  63.748  1.00  0.00     6.362 OA 
HETATM   23  C   UNL     1      -7.665   7.705  65.027  1.00  0.00    -0.109 C  
HETATM   24  H   UNL     1     -14.777  10.368  63.130  1.00  0.00     0.000 HD 
HETATM   25  C   UNL     1      -6.550   7.106  65.477  1.00  0.00    -0.048 C  
HETATM   26  C   UNL     1      -8.963   7.447  65.661  1.00  0.00     0.002 C  
HETATM   27  C   UNL     1      -9.028   6.035  66.218  1.00  0.00    -0.156 C  
HETATM   28  C   UNL     1      -6.753   5.687  65.041  1.00  0.00    -0.047 C  
HETATM   29  C   UNL     1      -8.044   5.034  65.518  1.00  0.00    -0.115 C  
HETATM   30  O   UNL     1      -5.917   5.127  64.341  1.00  0.00    -0.021 OA 
BRANCH  20  31
HETATM   31  C   UNL     1     -13.794  12.463  64.328  1.00  0.00     2.150 C  
HETATM   32  C   UNL     1     -13.956  12.898  65.756  1.00  0.00     5.124 C  
HETATM   33  O   UNL     1     -14.200  13.215  63.437  1.00  0.00     4.527 OA 
ENDBRANCH  20  31
ENDBRANCH   7  10
ENDBRANCH   2   4
TORSDOF 3
ENDMDL
MODEL      133
REMARK 921   NORMALIZED FREE ENERGY PREDICTED BY IDOCK:   60.35 KCAL/MOL
REMARK 922        TOTAL FREE ENERGY PREDICTED BY IDOCK:   69.88 KCAL/MOL
REMARK 923 INTER-LIGAND FREE ENERGY PREDICTED BY IDOCK:   69.04 KCAL/MOL
REMARK 924 INTRA-LIGAND FREE ENERGY PREDICTED BY IDOCK:    0.84 KCAL/MOL
REMARK 927      BINDING AFFINITY PREDICTED BY RF-SCORE:    0.00 PKD
ROOT
HETATM    1  C   UNL     1      -5.401   6.066  73.102  1.00  0.00    -0.031 C  
HETATM    2  N   UNL     1      -6.653   5.607  72.518  1.00  0.00    -0.064 NA 
HETATM    3  C   UNL     1      -7.753   5.311  73.432  1.00  0.00    -0.096 C  
ENDROOT
BRANCH   2   4
HETATM    4  C   UNL     1      -6.778   5.337  71.160  1.00  0.00    -0.044 A  
HETATM    5  C   UNL     1      -7.643   4.361  70.640  1.00  0.00    -0.052 A  
HETATM    6  C   UNL     1      -7.811   4.158  69.247  1.00  0.00    -0.057 A  
HETATM    7  C   UNL     1      -7.166   4.978  68.309  1.00  0.00    -0.063 A  
HETATM    8  C   UNL     1      -6.195   5.845  68.828  1.00  0.00    -0.032 A  
HETATM    9  C   UNL     1      -6.028   6.032  70.207  1.00  0.00    -0.025 A  
BRANCH   7  10
HETATM   10  C   UNL     1      -7.554   5.037  66.804  1.00  0.00    -0.088 C  
HETATM   11  C   UNL     1      -8.594   3.902  66.379  1.00  0.00    -0.111 C  
HETATM   12  C   UNL     1     -10.077   4.159  66.825  1.00  0.00    -0.034 C  
HETATM   13  C   UNL     1     -10.194   4.085  68.368  1.00  0.00     0.448 C  
HETATM   14  C   UNL     1     -10.412   5.556  66.245  1.00  0.00    -0.230 C  
HETATM   15  C   UNL     1     -11.925   5.626  66.367  1.00  0.00     2.627 C  
HETATM   16  C   UNL     1      -9.571   6.710  66.810  1.00  0.00    -0.207 C  
HETATM   17  C   UNL     1     -12.313   4.311  65.715  1.00  0.00     6.977 C  
HETATM   18  C   UNL     1     -10.188   8.065  66.359  1.00  0.00    -0.096 C  
HETATM   19  C   UNL     1      -9.282   8.995  65.582  1.00  0.00    -0.288 C  
HETATM   20  C   UNL     1     -11.255   3.271  66.198  1.00  0.00     4.748 C  
HETATM   21  C   UNL     1      -8.085   6.471  66.421  1.00  0.00    -0.113 C  
HETATM   22  O   UNL     1     -10.823   2.582  65.030  1.00  0.00     0.679 OA 
HETATM   23  C   UNL     1      -7.892   8.844  66.076  1.00  0.00    -0.102 C  
HETATM   24  H   UNL     1     -11.522   2.056  64.658  1.00  0.00     0.000 HD 
HETATM   25  C   UNL     1      -7.088   9.903  66.269  1.00  0.00    -0.101 C  
HETATM   26  C   UNL     1      -7.334   7.495  65.926  1.00  0.00    -0.074 C  
HETATM   27  C   UNL     1      -5.964   7.541  65.271  1.00  0.00    -0.038 C  
HETATM   28  C   UNL     1      -6.440  10.059  64.927  1.00  0.00    -0.125 C  
HETATM   29  C   UNL     1      -5.723   8.822  64.398  1.00  0.00    -0.064 C  
HETATM   30  O   UNL     1      -6.512  11.123  64.323  1.00  0.00     0.618 OA 
BRANCH  20  31
HETATM   31  C   UNL     1     -12.036   2.343  67.196  1.00  0.00    18.163 C  
HETATM   32  C   UNL     1     -13.520   2.180  67.035  1.00  0.00    29.923 C  
HETATM   33  O   UNL     1     -11.481   1.760  68.133  1.00  0.00     6.995 OA 
ENDBRANCH  20  31
ENDBRANCH   7  10
ENDBRANCH   2   4
TORSDOF 3
ENDMDL
MODEL      134
REMARK 921   NORMALIZED FREE ENERGY PREDICTED BY IDOCK:   60.86 KCAL/MOL
REMARK 922        TOTAL FREE ENERGY PREDICTED BY IDOCK:   70.47 KCAL/MOL
REMARK 923 INTER-LIGAND FREE ENERGY PREDICTED BY IDOCK:   70.29 KCAL/MOL
REMARK 924 INTRA-LIGAND FREE ENERGY PREDICTED BY IDOCK:    0.18 KCAL/MOL
REMARK 927      BINDING AFFINITY PREDICTED BY RF-SCORE:    0.00 PKD
ROOT
HETATM    1  C   UNL     1      -9.613  15.766  70.969  1.00  0.00     2.159 C  
HETATM    2  N   UNL     1      -9.597  14.393  71.454  1.00  0.00     3.892 NA 
HETATM    3  C   UNL     1      -9.811  14.183  72.884  1.00  0.00     8.492 C  
ENDROOT
BRANCH   2   4
HETATM    4  C   UNL     1      -9.273  13.323  70.629  1.00  0.00     6.555 A  
HETATM    5  C   UNL     1     -10.116  12.219  70.424  1.00  0.00     3.781 A  
HETATM    6  C   UNL     1      -9.798  11.177  69.516  1.00  0.00     0.231 A  
HETATM    7  C   UNL     1      -8.644  11.233  68.720  1.00  0.00    -0.109 A  
HETATM    8  C   UNL     1      -7.739  12.254  69.036  1.00  0.00     0.152 A  
HETATM    9  C   UNL     1      -8.057  13.274  69.942  1.00  0.00     2.026 A  
BRANCH   7  10
HETATM   10  C   UNL     1      -8.404  10.318  67.484  1.00  0.00    -0.114 C  
HETATM   11  C   UNL     1      -7.192   9.298  67.685  1.00  0.00    -0.083 C  
HETATM   12  C   UNL     1      -7.507   8.064  68.602  1.00  0.00    -0.098 C  
HETATM   13  C   UNL     1      -7.731   8.525  70.064  1.00  0.00    -0.086 C  
HETATM   14  C   UNL     1      -8.760   7.420  67.957  1.00  0.00    -0.124 C  
HETATM   15  C   UNL     1      -8.828   6.056  68.623  1.00  0.00    -0.109 C  
HETATM   16  C   UNL     1     -10.014   8.305  67.956  1.00  0.00    -0.224 C  
HETATM   17  C   UNL     1      -7.405   5.573  68.403  1.00  0.00    -0.076 C  
HETATM   18  C   UNL     1     -11.246   7.451  67.541  1.00  0.00     0.148 C  
HETATM   19  C   UNL     1     -12.022   7.927  66.332  1.00  0.00     6.301 C  
HETATM   20  C   UNL     1      -6.495   6.821  68.627  1.00  0.00    -0.040 C  
HETATM   21  C   UNL     1      -9.728   9.562  67.086  1.00  0.00    -0.221 C  
HETATM   22  O   UNL     1      -5.600   6.855  67.521  1.00  0.00    -0.018 OA 
HETATM   23  C   UNL     1     -11.992   9.408  66.287  1.00  0.00     6.210 C  
HETATM   24  H   UNL     1      -5.000   6.118  67.536  1.00  0.00     0.000 HD 
HETATM   25  C   UNL     1     -13.081  10.131  65.977  1.00  0.00    13.479 C  
HETATM   26  C   UNL     1     -10.649   9.988  66.176  1.00  0.00    -0.071 C  
HETATM   27  C   UNL     1     -10.588  11.015  65.057  1.00  0.00    -0.315 C  
HETATM   28  C   UNL     1     -12.984  10.229  64.485  1.00  0.00     9.070 C  
HETATM   29  C   UNL     1     -11.680  10.808  63.950  1.00  0.00     1.693 C  
HETATM   30  O   UNL     1     -13.910   9.849  63.777  1.00  0.00     7.847 OA 
BRANCH  20  31
HETATM   31  C   UNL     1      -5.766   6.542  69.990  1.00  0.00    -0.018 C  
HETATM   32  C   UNL     1      -5.541   7.679  70.945  1.00  0.00    -0.030 C  
HETATM   33  O   UNL     1      -5.342   5.424  70.300  1.00  0.00    -0.004 OA 
ENDBRANCH  20  31
ENDBRANCH   7  10
ENDBRANCH   2   4
TORSDOF 3
ENDMDL
MODEL      135
REMARK 921   NORMALIZED FREE ENERGY PREDICTED BY IDOCK:   62.60 KCAL/MOL
REMARK 922        TOTAL FREE ENERGY PREDICTED BY IDOCK:   72.53 KCAL/MOL
REMARK 923 INTER-LIGAND FREE ENERGY PREDICTED BY IDOCK:   71.05 KCAL/MOL
REMARK 924 INTRA-LIGAND FREE ENERGY PREDICTED BY IDOCK:    1.47 KCAL/MOL
REMARK 927      BINDING AFFINITY PREDICTED BY RF-SCORE:    0.00 PKD
ROOT
HETATM    1  C   UNL     1      -9.083  15.689  73.788  1.00  0.00    13.544 C  
HETATM    2  N   UNL     1      -8.384  15.551  72.518  1.00  0.00     8.304 NA 
HETATM    3  C   UNL     1      -6.927  15.649  72.539  1.00  0.00     5.265 C  
ENDROOT
BRANCH   2   4
HETATM    4  C   UNL     1      -9.063  15.453  71.309  1.00  0.00     3.312 A  
HETATM    5  C   UNL     1      -9.918  14.388  70.985  1.00  0.00     2.677 A  
HETATM    6  C   UNL     1     -10.660  14.350  69.778  1.00  0.00     0.051 A  
HETATM    7  C   UNL     1     -10.627  15.418  68.869  1.00  0.00    -0.244 A  
HETATM    8  C   UNL     1      -9.663  16.401  69.124  1.00  0.00    -0.260 A  
HETATM    9  C   UNL     1      -8.926  16.426  70.315  1.00  0.00     1.809 A  
BRANCH   7  10
HETATM   10  C   UNL     1     -11.652  15.597  67.712  1.00  0.00    -0.139 C  
HETATM   11  C   UNL     1     -11.854  17.122  67.283  1.00  0.00     1.661 C  
HETATM   12  C   UNL     1     -10.694  17.729  66.418  1.00  0.00    -0.097 C  
HETATM   13  C   UNL     1      -9.399  17.843  67.261  1.00  0.00    -0.258 C  
HETATM   14  C   UNL     1     -10.567  16.758  65.217  1.00  0.00    -0.185 C  
HETATM   15  C   UNL     1      -9.715  17.540  64.231  1.00  0.00     6.750 C  
HETATM   16  C   UNL     1     -10.148  15.327  65.583  1.00  0.00    -0.401 C  
HETATM   17  C   UNL     1     -10.475  18.854  64.195  1.00  0.00     7.078 C  
HETATM   18  C   UNL     1      -9.793  14.547  64.285  1.00  0.00     1.820 C  
HETATM   19  C   UNL     1     -10.574  13.277  64.025  1.00  0.00    -0.217 C  
HETATM   20  C   UNL     1     -10.918  19.127  65.667  1.00  0.00     0.029 C  
HETATM   21  C   UNL     1     -11.258  14.703  66.475  1.00  0.00    -0.346 C  
HETATM   22  O   UNL     1     -12.297  19.470  65.602  1.00  0.00     3.674 OA 
HETATM   23  C   UNL     1     -10.888  12.626  65.319  1.00  0.00    -0.319 C  
HETATM   24  H   UNL     1     -12.430  20.298  65.157  1.00  0.00     0.000 HD 
HETATM   25  C   UNL     1     -10.785  11.297  65.489  1.00  0.00    -0.283 C  
HETATM   26  C   UNL     1     -11.703  13.438  66.229  1.00  0.00    -0.405 C  
HETATM   27  C   UNL     1     -12.886  12.645  66.758  1.00  0.00     1.797 C  
HETATM   28  C   UNL     1     -12.146  10.819  65.085  1.00  0.00     2.825 C  
HETATM   29  C   UNL     1     -13.313  11.453  65.832  1.00  0.00     7.582 C  
HETATM   30  O   UNL     1     -12.271   9.979  64.200  1.00  0.00     5.806 OA 
BRANCH  20  31
HETATM   31  C   UNL     1     -10.016  20.324  66.138  1.00  0.00    -0.323 C  
HETATM   32  C   UNL     1      -9.872  20.597  67.607  1.00  0.00    -0.425 C  
HETATM   33  O   UNL     1      -9.438  21.073  65.344  1.00  0.00     0.971 OA 
ENDBRANCH  20  31
ENDBRANCH   7  10
ENDBRANCH   2   4
TORSDOF 3
ENDMDL
MODEL      136
REMARK 921   NORMALIZED FREE ENERGY PREDICTED BY IDOCK:   64.05 KCAL/MOL
REMARK 922        TOTAL FREE ENERGY PREDICTED BY IDOCK:   74.23 KCAL/MOL
REMARK 923 INTER-LIGAND FREE ENERGY PREDICTED BY IDOCK:   75.03 KCAL/MOL
REMARK 924 INTRA-LIGAND FREE ENERGY PREDICTED BY IDOCK:   -0.80 KCAL/MOL
REMARK 927      BINDING AFFINITY PREDICTED BY RF-SCORE:    0.00 PKD
ROOT
HETATM    1  C   UNL     1      -8.351  19.036  65.179  1.00  0.00     1.912 C  
HETATM    2  N   UNL     1      -9.489  18.129  65.242  1.00  0.00     0.758 NA 
HETATM    3  C   UNL     1     -10.793  18.658  64.851  1.00  0.00     1.764 C  
ENDROOT
BRANCH   2   4
HETATM    4  C   UNL     1      -9.380  16.846  65.765  1.00  0.00     0.040 A  
HETATM    5  C   UNL     1      -8.616  16.534  66.901  1.00  0.00    -0.237 A  
HETATM    6  C   UNL     1      -8.584  15.233  67.462  1.00  0.00    -0.190 A  
HETATM    7  C   UNL     1      -9.376  14.197  66.945  1.00  0.00    -0.274 A  
HETATM    8  C   UNL     1     -10.016  14.474  65.730  1.00  0.00    -0.361 A  
HETATM    9  C   UNL     1     -10.034  15.761  65.176  1.00  0.00    -0.050 A  
BRANCH   7  10
HETATM   10  C   UNL     1      -9.649  12.862  67.696  1.00  0.00    -0.196 C  
HETATM   11  C   UNL     1      -9.734  13.040  69.281  1.00  0.00     0.693 C  
HETATM   12  C   UNL     1     -11.072  13.670  69.808  1.00  0.00     0.006 C  
HETATM   13  C   UNL     1     -11.188  15.145  69.352  1.00  0.00    -0.293 C  
HETATM   14  C   UNL     1     -12.178  12.754  69.225  1.00  0.00    -0.104 C  
HETATM   15  C   UNL     1     -13.409  13.149  70.024  1.00  0.00     1.398 C  
HETATM   16  C   UNL     1     -12.266  12.740  67.692  1.00  0.00    -0.000 C  
HETATM   17  C   UNL     1     -12.863  13.042  71.437  1.00  0.00    -0.385 C  
HETATM   18  C   UNL     1     -13.571  12.014  67.259  1.00  0.00     9.125 C  
HETATM   19  C   UNL     1     -13.408  10.815  66.349  1.00  0.00    12.092 C  
HETATM   20  C   UNL     1     -11.410  13.609  71.373  1.00  0.00     1.870 C  
HETATM   21  C   UNL     1     -10.939  12.157  67.130  1.00  0.00    -0.316 C  
HETATM   22  O   UNL     1     -10.591  12.660  72.048  1.00  0.00     7.293 OA 
HETATM   23  C   UNL     1     -12.251  11.041  65.450  1.00  0.00     2.396 C  
HETATM   24  H   UNL     1     -10.792  12.625  72.976  1.00  0.00     0.000 HD 
HETATM   25  C   UNL     1     -12.292  10.720  64.146  1.00  0.00     2.964 C  
HETATM   26  C   UNL     1     -10.968  11.221  66.139  1.00  0.00    -0.252 C  
HETATM   27  C   UNL     1      -9.897  10.324  65.542  1.00  0.00    -0.347 C  
HETATM   28  C   UNL     1     -11.822   9.298  64.154  1.00  0.00    12.581 C  
HETATM   29  C   UNL     1     -10.468   9.058  64.811  1.00  0.00     3.337 C  
HETATM   30  O   UNL     1     -12.514   8.413  63.663  1.00  0.00    19.795 OA 
BRANCH  20  31
HETATM   31  C   UNL     1     -11.488  14.987  72.124  1.00  0.00    -0.239 C  
HETATM   32  C   UNL     1     -12.740  15.344  72.871  1.00  0.00    -0.532 C  
HETATM   33  O   UNL     1     -10.565  15.808  72.101  1.00  0.00     0.782 OA 
ENDBRANCH  20  31
ENDBRANCH   7  10
ENDBRANCH   2   4
TORSDOF 3
ENDMDL
MODEL      137
REMARK 921   NORMALIZED FREE ENERGY PREDICTED BY IDOCK:   65.91 KCAL/MOL
REMARK 922        TOTAL FREE ENERGY PREDICTED BY IDOCK:   76.42 KCAL/MOL
REMARK 923 INTER-LIGAND FREE ENERGY PREDICTED BY IDOCK:   75.85 KCAL/MOL
REMARK 924 INTRA-LIGAND FREE ENERGY PREDICTED BY IDOCK:    0.57 KCAL/MOL
REMARK 927      BINDING AFFINITY PREDICTED BY RF-SCORE:    0.00 PKD
ROOT
HETATM    1  C   UNL     1      -9.479  14.371  73.865  1.00  0.00     9.466 C  
HETATM    2  N   UNL     1      -8.755  13.560  72.897  1.00  0.00    12.522 NA 
HETATM    3  C   UNL     1      -7.326  13.358  73.124  1.00  0.00     7.781 C  
ENDROOT
BRANCH   2   4
HETATM    4  C   UNL     1      -9.353  13.089  71.734  1.00  0.00    16.665 A  
HETATM    5  C   UNL     1      -9.544  13.877  70.588  1.00  0.00     3.839 A  
HETATM    6  C   UNL     1     -10.085  13.354  69.386  1.00  0.00     0.543 A  
HETATM    7  C   UNL     1     -10.397  11.991  69.262  1.00  0.00     0.163 A  
HETATM    8  C   UNL     1     -10.346  11.247  70.448  1.00  0.00     1.584 A  
HETATM    9  C   UNL     1      -9.819  11.776  71.633  1.00  0.00    12.112 A  
BRANCH   7  10
HETATM   10  C   UNL     1     -10.669  11.290  67.900  1.00  0.00    -0.250 C  
HETATM   11  C   UNL     1     -11.890  11.934  67.095  1.00  0.00    -0.216 C  
HETATM   12  C   UNL     1     -11.573  13.299  66.388  1.00  0.00    -0.387 C  
HETATM   13  C   UNL     1     -11.318  14.403  67.443  1.00  0.00    -0.353 C  
HETATM   14  C   UNL     1     -10.339  12.991  65.503  1.00  0.00    -0.304 C  
HETATM   15  C   UNL     1     -10.275  14.191  64.572  1.00  0.00     0.002 C  
HETATM   16  C   UNL     1      -9.074  12.586  66.273  1.00  0.00    -0.074 C  
HETATM   17  C   UNL     1     -11.706  14.222  64.068  1.00  0.00    -0.190 C  
HETATM   18  C   UNL     1      -7.860  12.578  65.302  1.00  0.00     3.350 C  
HETATM   19  C   UNL     1      -7.100  11.275  65.180  1.00  0.00     0.869 C  
HETATM   20  C   UNL     1     -12.598  13.881  65.302  1.00  0.00    -0.478 C  
HETATM   21  C   UNL     1      -9.361  11.253  67.021  1.00  0.00    -0.183 C  
HETATM   22  O   UNL     1     -13.513  12.884  64.860  1.00  0.00    -0.501 OA 
HETATM   23  C   UNL     1      -7.114  10.580  66.489  1.00  0.00    -0.120 C  
HETATM   24  H   UNL     1     -14.120  13.230  64.217  1.00  0.00     0.000 HD 
HETATM   25  C   UNL     1      -6.022   9.971  66.981  1.00  0.00    -0.051 C  
HETATM   26  C   UNL     1      -8.452  10.238  66.984  1.00  0.00    -0.129 C  
HETATM   27  C   UNL     1      -8.520   8.782  67.412  1.00  0.00    -0.116 C  
HETATM   28  C   UNL     1      -6.144   8.591  66.411  1.00  0.00    -0.056 C  
HETATM   29  C   UNL     1      -7.451   7.868  66.718  1.00  0.00    -0.090 C  
HETATM   30  O   UNL     1      -5.236   8.114  65.741  1.00  0.00    -0.027 OA 
BRANCH  20  31
HETATM   31  C   UNL     1     -13.306  15.235  65.668  1.00  0.00     1.900 C  
HETATM   32  C   UNL     1     -13.084  16.436  64.795  1.00  0.00     3.847 C  
HETATM   33  O   UNL     1     -14.021  15.361  66.667  1.00  0.00     4.733 OA 
ENDBRANCH  20  31
ENDBRANCH   7  10
ENDBRANCH   2   4
TORSDOF 3
ENDMDL
MODEL      138
REMARK 921   NORMALIZED FREE ENERGY PREDICTED BY IDOCK:   66.88 KCAL/MOL
REMARK 922        TOTAL FREE ENERGY PREDICTED BY IDOCK:   77.56 KCAL/MOL
REMARK 923 INTER-LIGAND FREE ENERGY PREDICTED BY IDOCK:   76.73 KCAL/MOL
REMARK 924 INTRA-LIGAND FREE ENERGY PREDICTED BY IDOCK:    0.83 KCAL/MOL
REMARK 927      BINDING AFFINITY PREDICTED BY RF-SCORE:    0.00 PKD
ROOT
HETATM    1  C   UNL     1     -10.357   3.472  69.320  1.00  0.00     1.460 C  
HETATM    2  N   UNL     1      -9.630   4.622  68.802  1.00  0.00    -0.154 NA 
HETATM    3  C   UNL     1      -8.212   4.440  68.500  1.00  0.00    -0.084 C  
ENDROOT
BRANCH   2   4
HETATM    4  C   UNL     1     -10.212   5.880  68.706  1.00  0.00    -0.189 A  
HETATM    5  C   UNL     1     -10.419   6.724  69.808  1.00  0.00    -0.240 A  
HETATM    6  C   UNL     1     -10.942   8.035  69.675  1.00  0.00    -0.106 A  
HETATM    7  C   UNL     1     -11.218   8.584  68.414  1.00  0.00     0.514 A  
HETATM    8  C   UNL     1     -11.152   7.690  67.337  1.00  0.00     0.081 A  
HETATM    9  C   UNL     1     -10.644   6.393  67.479  1.00  0.00    -0.350 A  
BRANCH   7  10
HETATM   10  C   UNL     1     -11.467  10.100  68.169  1.00  0.00    -0.036 C  
HETATM   11  C   UNL     1     -11.795  10.907  69.508  1.00  0.00    -0.404 C  
HETATM   12  C   UNL     1     -10.556  11.205  70.423  1.00  0.00     0.928 C  
HETATM   13  C   UNL     1      -9.997   9.889  71.018  1.00  0.00     0.247 C  
HETATM   14  C   UNL     1      -9.558  11.934  69.488  1.00  0.00     1.041 C  
HETATM   15  C   UNL     1      -8.547  12.526  70.456  1.00  0.00     6.496 C  
HETATM   16  C   UNL     1      -9.047  11.096  68.308  1.00  0.00    -0.162 C  
HETATM   17  C   UNL     1      -9.479  13.226  71.430  1.00  0.00    11.558 C  
HETATM   18  C   UNL     1      -7.864  11.838  67.623  1.00  0.00    -0.138 C  
HETATM   19  C   UNL     1      -8.023  12.150  66.151  1.00  0.00     0.563 C  
HETATM   20  C   UNL     1     -10.694  12.266  71.617  1.00  0.00     7.666 C  
HETATM   21  C   UNL     1     -10.256  10.746  67.394  1.00  0.00    -0.241 C  
HETATM   22  O   UNL     1     -11.857  13.073  71.467  1.00  0.00     0.149 OA 
HETATM   23  C   UNL     1      -8.801  11.066  65.505  1.00  0.00    -0.179 C  
HETATM   24  H   UNL     1     -11.939  13.701  72.175  1.00  0.00     0.000 HD 
HETATM   25  C   UNL     1      -8.465  10.570  64.303  1.00  0.00    -0.128 C  
HETATM   26  C   UNL     1     -10.154  10.883  66.042  1.00  0.00    -0.303 C  
HETATM   27  C   UNL     1     -11.183  10.835  64.924  1.00  0.00     0.432 C  
HETATM   28  C   UNL     1      -9.217  11.467  63.368  1.00  0.00    -0.081 C  
HETATM   29  C   UNL     1     -10.720  11.553  63.608  1.00  0.00    -0.491 C  
HETATM   30  O   UNL     1      -8.626  12.082  62.488  1.00  0.00     0.235 OA 
BRANCH  20  31
HETATM   31  C   UNL     1     -10.533  11.700  73.074  1.00  0.00    17.876 C  
HETATM   32  C   UNL     1      -9.604  12.393  74.030  1.00  0.00    21.404 C  
HETATM   33  O   UNL     1     -11.120  10.685  73.461  1.00  0.00     9.363 OA 
ENDBRANCH  20  31
ENDBRANCH   7  10
ENDBRANCH   2   4
TORSDOF 3
ENDMDL
MODEL      139
REMARK 921   NORMALIZED FREE ENERGY PREDICTED BY IDOCK:   70.04 KCAL/MOL
REMARK 922        TOTAL FREE ENERGY PREDICTED BY IDOCK:   81.26 KCAL/MOL
REMARK 923 INTER-LIGAND FREE ENERGY PREDICTED BY IDOCK:   82.14 KCAL/MOL
REMARK 924 INTRA-LIGAND FREE ENERGY PREDICTED BY IDOCK:   -0.88 KCAL/MOL
REMARK 927      BINDING AFFINITY PREDICTED BY RF-SCORE:    0.00 PKD
ROOT
HETATM    1  C   UNL     1      -8.153  21.150  73.019  1.00  0.00     6.684 C  
HETATM    2  N   UNL     1      -7.699  19.773  72.887  1.00  0.00     2.775 NA 
HETATM    3  C   UNL     1      -6.708  19.297  73.849  1.00  0.00     9.148 C  
ENDROOT
BRANCH   2   4
HETATM    4  C   UNL     1      -8.087  18.967  71.824  1.00  0.00     7.219 A  
HETATM    5  C   UNL     1      -8.795  19.443  70.709  1.00  0.00     2.583 A  
HETATM    6  C   UNL     1      -9.112  18.618  69.600  1.00  0.00     0.685 A  
HETATM    7  C   UNL     1      -8.671  17.288  69.533  1.00  0.00     0.620 A  
HETATM    8  C   UNL     1      -8.100  16.779  70.706  1.00  0.00     4.565 A  
HETATM    9  C   UNL     1      -7.799  17.600  71.801  1.00  0.00    10.605 A  
BRANCH   7  10
HETATM   10  C   UNL     1      -8.686  16.439  68.228  1.00  0.00    -0.201 C  
HETATM   11  C   UNL     1      -8.914  14.881  68.496  1.00  0.00    -0.179 C  
HETATM   12  C   UNL     1     -10.390  14.475  68.839  1.00  0.00    -0.237 C  
HETATM   13  C   UNL     1     -10.803  15.060  70.213  1.00  0.00    -0.202 C  
HETATM   14  C   UNL     1     -11.222  15.030  67.655  1.00  0.00    -0.331 C  
HETATM   15  C   UNL     1     -12.560  14.328  67.815  1.00  0.00     0.477 C  
HETATM   16  C   UNL     1     -11.203  16.559  67.511  1.00  0.00     0.021 C  
HETATM   17  C   UNL     1     -12.099  12.886  67.938  1.00  0.00    -0.209 C  
HETATM   18  C   UNL     1     -12.281  16.991  66.476  1.00  0.00     3.601 C  
HETATM   19  C   UNL     1     -11.793  17.786  65.284  1.00  0.00     3.400 C  
HETATM   20  C   UNL     1     -10.809  12.928  68.816  1.00  0.00    -0.242 C  
HETATM   21  C   UNL     1      -9.745  17.005  67.208  1.00  0.00    -0.253 C  
HETATM   22  O   UNL     1      -9.844  12.137  68.131  1.00  0.00    -0.196 OA 
HETATM   23  C   UNL     1     -10.659  18.644  65.703  1.00  0.00    -0.171 C  
HETATM   24  H   UNL     1     -10.093  11.220  68.117  1.00  0.00     0.000 HD 
HETATM   25  C   UNL     1     -10.541  19.916  65.288  1.00  0.00     0.018 C  
HETATM   26  C   UNL     1      -9.498  17.912  66.221  1.00  0.00    -0.234 C  
HETATM   27  C   UNL     1      -8.216  18.379  65.552  1.00  0.00     0.800 C  
HETATM   28  C   UNL     1      -9.766  19.765  64.015  1.00  0.00     7.895 C  
HETATM   29  C   UNL     1      -8.439  19.025  64.140  1.00  0.00     7.917 C  
HETATM   30  O   UNL     1     -10.208  20.211  62.962  1.00  0.00    10.605 OA 
BRANCH  20  31
HETATM   31  C   UNL     1     -11.242  12.303  70.190  1.00  0.00     0.410 C  
HETATM   32  C   UNL     1     -12.674  11.895  70.390  1.00  0.00    -0.033 C  
HETATM   33  O   UNL     1     -10.455  12.157  71.131  1.00  0.00     4.603 OA 
ENDBRANCH  20  31
ENDBRANCH   7  10
ENDBRANCH   2   4
TORSDOF 3
ENDMDL
MODEL      140
REMARK 921   NORMALIZED FREE ENERGY PREDICTED BY IDOCK:   73.00 KCAL/MOL
REMARK 922        TOTAL FREE ENERGY PREDICTED BY IDOCK:   84.75 KCAL/MOL
REMARK 923 INTER-LIGAND FREE ENERGY PREDICTED BY IDOCK:   85.67 KCAL/MOL
REMARK 924 INTRA-LIGAND FREE ENERGY PREDICTED BY IDOCK:   -0.92 KCAL/MOL
REMARK 927      BINDING AFFINITY PREDICTED BY RF-SCORE:    0.00 PKD
ROOT
HETATM    1  C   UNL     1      -6.796  14.224  63.950  1.00  0.00    24.217 C  
HETATM    2  N   UNL     1      -8.201  14.263  63.570  1.00  0.00    12.968 NA 
HETATM    3  C   UNL     1      -8.635  15.362  62.712  1.00  0.00    24.841 C  
ENDROOT
BRANCH   2   4
HETATM    4  C   UNL     1      -9.131  13.371  64.091  1.00  0.00     3.275 A  
HETATM    5  C   UNL     1      -9.956  12.559  63.296  1.00  0.00     0.360 A  
HETATM    6  C   UNL     1     -10.841  11.600  63.850  1.00  0.00    -0.471 A  
HETATM    7  C   UNL     1     -10.887  11.366  65.233  1.00  0.00    -0.297 A  
HETATM    8  C   UNL     1     -10.178  12.277  66.025  1.00  0.00    -0.267 A  
HETATM    9  C   UNL     1      -9.313  13.229  65.469  1.00  0.00     0.308 A  
BRANCH   7  10
HETATM   10  C   UNL     1     -11.568  10.123  65.874  1.00  0.00     2.327 C  
HETATM   11  C   UNL     1     -11.212   8.757  65.127  1.00  0.00     7.036 C  
HETATM   12  C   UNL     1      -9.780   8.190  65.426  1.00  0.00     0.799 C  
HETATM   13  C   UNL     1      -8.697   9.125  64.833  1.00  0.00    -0.215 C  
HETATM   14  C   UNL     1      -9.727   8.085  66.972  1.00  0.00    -0.275 C  
HETATM   15  C   UNL     1      -8.507   7.214  67.217  1.00  0.00    -0.122 C  
HETATM   16  C   UNL     1      -9.840   9.423  67.715  1.00  0.00    -0.207 C  
HETATM   17  C   UNL     1      -8.810   6.052  66.287  1.00  0.00    -0.144 C  
HETATM   18  C   UNL     1      -9.499   9.208  69.217  1.00  0.00    -0.158 C  
HETATM   19  C   UNL     1     -10.563   9.605  70.217  1.00  0.00    -0.333 C  
HETATM   20  C   UNL     1      -9.421   6.687  65.000  1.00  0.00     1.222 C  
HETATM   21  C   UNL     1     -11.237  10.037  67.412  1.00  0.00    -0.004 C  
HETATM   22  O   UNL     1     -10.592   5.933  64.710  1.00  0.00     1.677 OA 
HETATM   23  C   UNL     1     -11.302  10.782  69.699  1.00  0.00    -0.362 C  
HETATM   24  H   UNL     1     -10.379   5.042  64.457  1.00  0.00     0.000 HD 
HETATM   25  C   UNL     1     -11.641  11.812  70.491  1.00  0.00     0.033 C  
HETATM   26  C   UNL     1     -11.989  10.558  68.422  1.00  0.00     0.246 C  
HETATM   27  C   UNL     1     -13.435  11.019  68.493  1.00  0.00     6.019 C  
HETATM   28  C   UNL     1     -12.980  11.385  71.011  1.00  0.00    -0.187 C  
HETATM   29  C   UNL     1     -14.019  11.048  69.949  1.00  0.00     3.560 C  
HETATM   30  O   UNL     1     -13.183  11.313  72.218  1.00  0.00    -0.402 OA 
BRANCH  20  31
HETATM   31  C   UNL     1      -8.305   6.521  63.906  1.00  0.00     0.155 C  
HETATM   32  C   UNL     1      -8.527   7.103  62.540  1.00  0.00     0.119 C  
HETATM   33  O   UNL     1      -7.257   5.901  64.115  1.00  0.00    -0.051 OA 
ENDBRANCH  20  31
ENDBRANCH   7  10
ENDBRANCH   2   4
TORSDOF 3
ENDMDL
MODEL      141
REMARK 921   NORMALIZED FREE ENERGY PREDICTED BY IDOCK:   76.73 KCAL/MOL
REMARK 922        TOTAL FREE ENERGY PREDICTED BY IDOCK:   89.13 KCAL/MOL
REMARK 923 INTER-LIGAND FREE ENERGY PREDICTED BY IDOCK:   88.06 KCAL/MOL
REMARK 924 INTRA-LIGAND FREE ENERGY PREDICTED BY IDOCK:    1.07 KCAL/MOL
REMARK 927      BINDING AFFINITY PREDICTED BY RF-SCORE:    0.00 PKD
ROOT
HETATM    1  C   UNL     1      -9.562   5.269  70.440  1.00  0.00    -0.179 C  
HETATM    2  N   UNL     1      -9.449   5.762  69.075  1.00  0.00    -0.122 NA 
HETATM    3  C   UNL     1      -9.770   4.832  67.996  1.00  0.00    -0.147 C  
ENDROOT
BRANCH   2   4
HETATM    4  C   UNL     1      -8.942   7.023  68.786  1.00  0.00    -0.131 A  
HETATM    5  C   UNL     1      -9.365   7.797  67.693  1.00  0.00    -0.160 A  
HETATM    6  C   UNL     1      -8.891   9.113  67.464  1.00  0.00    -0.124 A  
HETATM    7  C   UNL     1      -8.016   9.739  68.365  1.00  0.00    -0.089 A  
HETATM    8  C   UNL     1      -7.484   8.913  69.364  1.00  0.00    -0.077 A  
HETATM    9  C   UNL     1      -7.951   7.610  69.578  1.00  0.00    -0.125 A  
BRANCH   7  10
HETATM   10  C   UNL     1      -7.723  11.267  68.363  1.00  0.00    -0.125 C  
HETATM   11  C   UNL     1      -7.742  11.907  66.899  1.00  0.00    -0.106 C  
HETATM   12  C   UNL     1      -9.171  12.127  66.289  1.00  0.00    -0.183 C  
HETATM   13  C   UNL     1      -9.851  10.765  66.008  1.00  0.00    -0.285 C  
HETATM   14  C   UNL     1      -9.910  12.981  67.350  1.00  0.00    -0.215 C  
HETATM   15  C   UNL     1     -11.133  13.481  66.599  1.00  0.00    -0.309 C  
HETATM   16  C   UNL     1     -10.108  12.295  68.709  1.00  0.00    -0.082 C  
HETATM   17  C   UNL     1     -10.475  14.044  65.351  1.00  0.00    -0.365 C  
HETATM   18  C   UNL     1     -11.089  13.138  69.572  1.00  0.00    -0.067 C  
HETATM   19  C   UNL     1     -10.574  13.612  70.914  1.00  0.00     3.016 C  
HETATM   20  C   UNL     1      -9.338  13.041  64.982  1.00  0.00     0.622 C  
HETATM   21  C   UNL     1      -8.709  12.025  69.331  1.00  0.00     1.015 C  
HETATM   22  O   UNL     1      -8.179  13.833  64.747  1.00  0.00     4.378 OA 
HETATM   23  C   UNL     1      -9.653  12.592  71.469  1.00  0.00    14.522 C  
HETATM   24  H   UNL     1      -8.279  14.374  63.973  1.00  0.00     0.000 HD 
HETATM   25  C   UNL     1      -9.678  12.245  72.767  1.00  0.00    22.521 C  
HETATM   26  C   UNL     1      -8.474  12.318  70.641  1.00  0.00     7.018 C  
HETATM   27  C   UNL     1      -7.201  12.374  71.469  1.00  0.00     6.801 C  
HETATM   28  C   UNL     1      -8.724  13.226  73.376  1.00  0.00    16.021 C  
HETATM   29  C   UNL     1      -7.328  13.248  72.765  1.00  0.00     8.435 C  
HETATM   30  O   UNL     1      -9.083  13.951  74.297  1.00  0.00     6.950 OA 
BRANCH  20  31
HETATM   31  C   UNL     1      -9.851  12.316  63.686  1.00  0.00    -0.155 C  
HETATM   32  C   UNL     1      -9.121  11.102  63.189  1.00  0.00    -0.243 C  
HETATM   33  O   UNL     1     -10.821  12.722  63.039  1.00  0.00     0.048 OA 
ENDBRANCH  20  31
ENDBRANCH   7  10
ENDBRANCH   2   4
TORSDOF 3
ENDMDL
MODEL      142
REMARK 921   NORMALIZED FREE ENERGY PREDICTED BY IDOCK:   88.20 KCAL/MOL
REMARK 922        TOTAL FREE ENERGY PREDICTED BY IDOCK:  102.61 KCAL/MOL
REMARK 923 INTER-LIGAND FREE ENERGY PREDICTED BY IDOCK:  101.41 KCAL/MOL
REMARK 924 INTRA-LIGAND FREE ENERGY PREDICTED BY IDOCK:    1.20 KCAL/MOL
REMARK 927      BINDING AFFINITY PREDICTED BY RF-SCORE:    0.00 PKD
ROOT
HETATM    1  C   UNL     1      -8.665  12.388  64.883  1.00  0.00     1.531 C  
HETATM    2  N   UNL     1      -9.611  11.346  65.256  1.00  0.00    -0.228 NA 
HETATM    3  C   UNL     1     -10.639  10.991  64.280  1.00  0.00    -0.331 C  
ENDROOT
BRANCH   2   4
HETATM    4  C   UNL     1      -9.628  10.786  66.528  1.00  0.00    -0.183 A  
HETATM    5  C   UNL     1      -8.468  10.441  67.238  1.00  0.00    -0.122 A  
HETATM    6  C   UNL     1      -8.508   9.944  68.566  1.00  0.00    -0.112 A  
HETATM    7  C   UNL     1      -9.719   9.835  69.265  1.00  0.00    -0.204 A  
HETATM    8  C   UNL     1     -10.878  10.035  68.505  1.00  0.00    -0.270 A  
HETATM    9  C   UNL     1     -10.829  10.517  67.190  1.00  0.00    -0.319 A  
BRANCH   7  10
HETATM   10  C   UNL     1      -9.810   9.625  70.804  1.00  0.00    -0.224 C  
HETATM   11  C   UNL     1      -9.314   8.180  71.271  1.00  0.00    -0.195 C  
HETATM   12  C   UNL     1      -7.757   7.985  71.284  1.00  0.00    -0.090 C  
HETATM   13  C   UNL     1      -7.199   8.021  69.840  1.00  0.00    -0.061 C  
HETATM   14  C   UNL     1      -7.236   9.139  72.178  1.00  0.00     0.327 C  
HETATM   15  C   UNL     1      -5.803   8.727  72.472  1.00  0.00    -0.076 C  
HETATM   16  C   UNL     1      -7.503  10.549  71.634  1.00  0.00     3.673 C  
HETATM   17  C   UNL     1      -6.020   7.303  72.950  1.00  0.00    -0.048 C  
HETATM   18  C   UNL     1      -6.699  11.584  72.471  1.00  0.00     6.241 C  
HETATM   19  C   UNL     1      -7.499  12.681  73.141  1.00  0.00    12.435 C  
HETATM   20  C   UNL     1      -7.128   6.710  72.024  1.00  0.00    -0.080 C  
HETATM   21  C   UNL     1      -9.041  10.768  71.569  1.00  0.00     6.904 C  
HETATM   22  O   UNL     1      -8.072   6.091  72.891  1.00  0.00    -0.113 OA 
HETATM   23  C   UNL     1      -8.655  13.033  72.281  1.00  0.00    18.114 C  
HETATM   24  H   UNL     1      -7.699   5.335  73.330  1.00  0.00     0.000 HD 
HETATM   25  C   UNL     1      -9.028  14.308  72.082  1.00  0.00     8.222 C  
HETATM   26  C   UNL     1      -9.587  11.929  72.029  1.00  0.00    17.174 C  
HETATM   27  C   UNL     1     -11.021  12.353  72.299  1.00  0.00     9.147 C  
HETATM   28  C   UNL     1      -9.984  14.539  73.212  1.00  0.00     6.719 C  
HETATM   29  C   UNL     1     -11.147  13.557  73.298  1.00  0.00     6.469 C  
HETATM   30  O   UNL     1      -9.804  15.462  73.998  1.00  0.00     7.185 OA 
BRANCH  20  31
HETATM   31  C   UNL     1      -6.373   5.677  71.112  1.00  0.00    -0.035 C  
HETATM   32  C   UNL     1      -5.979   4.346  71.686  1.00  0.00    -0.017 C  
HETATM   33  O   UNL     1      -6.062   5.926  69.943  1.00  0.00    -0.024 OA 
ENDBRANCH  20  31
ENDBRANCH   7  10
ENDBRANCH   2   4
TORSDOF 3
ENDMDL
