MODEL        1
REMARK 921   NORMALIZED FREE ENERGY PREDICTED BY IDOCK:   -8.07 KCAL/MOL
REMARK 922        TOTAL FREE ENERGY PREDICTED BY IDOCK:   -7.31 KCAL/MOL
REMARK 923 INTER-LIGAND FREE ENERGY PREDICTED BY IDOCK:   -8.54 KCAL/MOL
REMARK 924 INTRA-LIGAND FREE ENERGY PREDICTED BY IDOCK:    1.23 KCAL/MOL
REMARK 927      BINDING AFFINITY PREDICTED BY RF-SCORE:    0.00 PKD
ROOT
HETATM    1  C   UNL     1     -11.252  14.819  66.215  1.00  0.00    -0.343 C  
HETATM    2  C   UNL     1     -10.450  14.418  65.125  1.00  0.00    -0.437 C  
HETATM    3  C   UNL     1      -9.936  13.818  66.418  1.00  0.00    -0.301 C  
HETATM    4  C   UNL     1      -9.018  12.586  65.731  1.00  0.00     0.341 C  
HETATM    5  C   UNL     1     -11.169  14.061  68.073  1.00  0.00    -0.279 C  
HETATM    6  O   UNL     1     -12.528  14.640  67.941  1.00  0.00    -0.586 OA 
HETATM    7  C   UNL     1      -6.505  16.762  67.097  1.00  0.00    -0.225 C  
HETATM    8  C   UNL     1     -10.972  13.122  67.111  1.00  0.00    -0.289 C  
HETATM    9  C   UNL     1      -9.473  13.105  68.345  1.00  0.00    -0.166 C  
HETATM   10  C   UNL     1     -11.878  12.008  66.592  1.00  0.00    -0.239 C  
HETATM   11  C   UNL     1      -7.936  17.309  67.526  1.00  0.00    -0.194 C  
HETATM   12  C   UNL     1      -7.644  18.071  68.807  1.00  0.00    -0.277 C  
HETATM   13  H   UNL     1     -13.092  14.751  68.698  1.00  0.00     0.000 HD 
HETATM   14  C   UNL     1      -8.746  14.770  68.570  1.00  0.00    -0.174 C  
HETATM   15  C   UNL     1      -7.305  19.383  68.756  1.00  0.00    -0.390 C  
HETATM   16  O   UNL     1      -9.185  15.227  69.856  1.00  0.00    -0.435 OA 
HETATM   17  C   UNL     1      -8.912  16.056  67.382  1.00  0.00    -0.191 C  
HETATM   18  C   UNL     1     -10.476  16.250  66.974  1.00  0.00    -0.306 C  
HETATM   19  F   UNL     1      -8.352  15.658  66.143  1.00  0.00    -0.313 F  
HETATM   20  H   UNL     1      -8.807  16.091  69.973  1.00  0.00     0.000 HD 
HETATM   21  C   UNL     1     -10.659  17.449  66.028  1.00  0.00    -0.210 C  
HETATM   22  C   UNL     1      -9.881  18.663  66.503  1.00  0.00    -0.364 C  
HETATM   23  C   UNL     1      -8.396  18.379  66.506  1.00  0.00    -0.290 C  
HETATM   24  F   UNL     1     -10.176  19.697  65.665  1.00  0.00    -0.462 F  
HETATM   25  C   UNL     1      -7.547  19.382  66.195  1.00  0.00    -0.308 C  
HETATM   26  C   UNL     1      -7.293  20.160  67.463  1.00  0.00    -0.290 C  
HETATM   27  O   UNL     1      -7.031  21.354  67.432  1.00  0.00    -0.572 OA 
ENDROOT
BRANCH   5  28
HETATM   28  C   UNL     1     -11.789  12.989  69.279  1.00  0.00    -0.316 C  
HETATM   29  C   UNL     1     -11.964  13.523  70.696  1.00  0.00    -0.230 C  
HETATM   30  O   UNL     1     -12.148  11.811  69.126  1.00  0.00    -0.300 OA 
HETATM   31 CL   UNL     1     -13.203  14.776  70.751  1.00  0.00    -0.393 Cl 
ENDBRANCH   5  28
TORSDOF 1
ENDMDL
MODEL        2
REMARK 921   NORMALIZED FREE ENERGY PREDICTED BY IDOCK:   -7.93 KCAL/MOL
REMARK 922        TOTAL FREE ENERGY PREDICTED BY IDOCK:   -7.16 KCAL/MOL
REMARK 923 INTER-LIGAND FREE ENERGY PREDICTED BY IDOCK:   -8.61 KCAL/MOL
REMARK 924 INTRA-LIGAND FREE ENERGY PREDICTED BY IDOCK:    1.44 KCAL/MOL
REMARK 927      BINDING AFFINITY PREDICTED BY RF-SCORE:    0.00 PKD
ROOT
HETATM    1  C   UNL     1     -11.418  14.278  67.937  1.00  0.00    -0.341 C  
HETATM    2  C   UNL     1     -10.243  14.730  68.574  1.00  0.00    -0.232 C  
HETATM    3  C   UNL     1      -9.928  14.178  67.199  1.00  0.00    -0.255 C  
HETATM    4  C   UNL     1      -8.427  14.915  67.012  1.00  0.00    -0.260 C  
HETATM    5  C   UNL     1     -11.575  13.746  66.007  1.00  0.00    -0.346 C  
HETATM    6  O   UNL     1     -12.948  14.114  66.429  1.00  0.00    -0.416 OA 
HETATM    7  C   UNL     1      -8.385  10.094  68.554  1.00  0.00    -0.116 C  
HETATM    8  C   UNL     1     -10.736  14.797  66.197  1.00  0.00    -0.314 C  
HETATM    9  C   UNL     1      -9.796  13.387  65.251  1.00  0.00    -0.106 C  
HETATM   10  C   UNL     1     -10.906  16.286  65.902  1.00  0.00    -0.141 C  
HETATM   11  C   UNL     1      -9.970  10.218  68.513  1.00  0.00    -0.177 C  
HETATM   12  C   UNL     1     -10.407   8.867  67.974  1.00  0.00    -0.271 C  
HETATM   13  H   UNL     1     -13.701  13.916  65.884  1.00  0.00     0.000 HD 
HETATM   14  C   UNL     1      -9.923  11.776  66.112  1.00  0.00    -0.226 C  
HETATM   15  C   UNL     1     -10.643   7.838  68.826  1.00  0.00    -0.161 C  
HETATM   16  O   UNL     1     -10.866  10.997  65.363  1.00  0.00    -0.206 OA 
HETATM   17  C   UNL     1     -10.252  11.633  67.834  1.00  0.00    -0.189 C  
HETATM   18  C   UNL     1     -11.562  12.513  68.233  1.00  0.00    -0.376 C  
HETATM   19  F   UNL     1      -9.243  12.286  68.584  1.00  0.00    -0.185 F  
HETATM   20  H   UNL     1     -10.932  10.160  65.810  1.00  0.00     0.000 HD 
HETATM   21  C   UNL     1     -11.940  12.307  69.710  1.00  0.00    -0.365 C  
HETATM   22  C   UNL     1     -11.910  10.840  70.099  1.00  0.00    -0.343 C  
HETATM   23  C   UNL     1     -10.513  10.278  69.961  1.00  0.00    -0.293 C  
HETATM   24  F   UNL     1     -12.347  10.743  71.386  1.00  0.00    -0.421 F  
HETATM   25  C   UNL     1     -10.105   9.341  70.843  1.00  0.00    -0.373 C  
HETATM   26  C   UNL     1     -10.577   8.005  70.325  1.00  0.00    -0.231 C  
HETATM   27  O   UNL     1     -10.835   7.085  71.087  1.00  0.00    -0.232 OA 
ENDROOT
BRANCH   5  28
HETATM   28  C   UNL     1     -12.018  14.132  64.381  1.00  0.00    -0.457 C  
HETATM   29  C   UNL     1     -11.961  13.023  63.336  1.00  0.00    -0.520 C  
HETATM   30  O   UNL     1     -12.417  15.225  63.949  1.00  0.00    -0.737 OA 
HETATM   31 CL   UNL     1     -13.154  11.772  63.678  1.00  0.00    -0.314 Cl 
ENDBRANCH   5  28
TORSDOF 1
ENDMDL
MODEL        3
REMARK 921   NORMALIZED FREE ENERGY PREDICTED BY IDOCK:   -7.84 KCAL/MOL
REMARK 922        TOTAL FREE ENERGY PREDICTED BY IDOCK:   -7.07 KCAL/MOL
REMARK 923 INTER-LIGAND FREE ENERGY PREDICTED BY IDOCK:   -8.67 KCAL/MOL
REMARK 924 INTRA-LIGAND FREE ENERGY PREDICTED BY IDOCK:    1.60 KCAL/MOL
REMARK 927      BINDING AFFINITY PREDICTED BY RF-SCORE:    0.00 PKD
ROOT
HETATM    1  C   UNL     1     -11.075  12.735  67.700  1.00  0.00    -0.294 C  
HETATM    2  C   UNL     1     -10.010  13.278  68.450  1.00  0.00    -0.226 C  
HETATM    3  C   UNL     1      -9.487  12.372  67.354  1.00  0.00    -0.186 C  
HETATM    4  C   UNL     1      -7.910  12.960  67.327  1.00  0.00    -0.134 C  
HETATM    5  C   UNL     1     -10.898  11.728  65.971  1.00  0.00    -0.296 C  
HETATM    6  O   UNL     1     -12.282  12.261  65.979  1.00  0.00    -0.646 OA 
HETATM    7  C   UNL     1      -8.679   8.709  69.966  1.00  0.00    -0.141 C  
HETATM    8  C   UNL     1     -10.009  12.750  66.079  1.00  0.00    -0.277 C  
HETATM    9  C   UNL     1      -9.052  11.097  65.735  1.00  0.00    -0.222 C  
HETATM   10  C   UNL     1      -9.961  14.117  65.401  1.00  0.00    -0.321 C  
HETATM   11  C   UNL     1     -10.202   8.897  69.549  1.00  0.00    -0.204 C  
HETATM   12  C   UNL     1     -10.661   7.476  69.273  1.00  0.00    -0.215 C  
HETATM   13  H   UNL     1     -12.928  11.967  65.347  1.00  0.00     0.000 HD 
HETATM   14  C   UNL     1      -9.515   9.773  66.912  1.00  0.00    -0.160 C  
HETATM   15  C   UNL     1     -11.167   6.717  70.276  1.00  0.00    -0.408 C  
HETATM   16  O   UNL     1     -10.366   8.874  66.187  1.00  0.00    -0.337 OA 
HETATM   17  C   UNL     1     -10.193  10.100  68.501  1.00  0.00    -0.174 C  
HETATM   18  C   UNL     1     -11.458  11.117  68.377  1.00  0.00    -0.377 C  
HETATM   19  F   UNL     1      -9.293  10.873  69.273  1.00  0.00    -0.194 F  
HETATM   20  H   UNL     1     -10.606   8.187  66.799  1.00  0.00     0.000 HD 
HETATM   21  C   UNL     1     -12.143  11.321  69.740  1.00  0.00    -0.394 C  
HETATM   22  C   UNL     1     -12.344  10.005  70.471  1.00  0.00    -0.200 C  
HETATM   23  C   UNL     1     -11.013   9.358  70.784  1.00  0.00    -0.371 C  
HETATM   24  F   UNL     1     -13.037  10.268  71.614  1.00  0.00    -0.416 F  
HETATM   25  C   UNL     1     -10.889   8.664  71.935  1.00  0.00    -0.419 C  
HETATM   26  C   UNL     1     -11.385   7.264  71.666  1.00  0.00    -0.254 C  
HETATM   27  O   UNL     1     -11.885   6.587  72.553  1.00  0.00    -0.229 OA 
ENDROOT
BRANCH   5  28
HETATM   28  C   UNL     1     -10.966  11.700  64.244  1.00  0.00    -0.355 C  
HETATM   29  C   UNL     1     -12.247  12.169  63.565  1.00  0.00    -0.567 C  
HETATM   30  O   UNL     1     -10.063  11.361  63.462  1.00  0.00    -0.316 OA 
HETATM   31 CL   UNL     1     -12.514  13.890  63.841  1.00  0.00    -0.336 Cl 
ENDBRANCH   5  28
TORSDOF 1
ENDMDL
MODEL        4
REMARK 921   NORMALIZED FREE ENERGY PREDICTED BY IDOCK:   -7.78 KCAL/MOL
REMARK 922        TOTAL FREE ENERGY PREDICTED BY IDOCK:   -7.00 KCAL/MOL
REMARK 923 INTER-LIGAND FREE ENERGY PREDICTED BY IDOCK:   -8.49 KCAL/MOL
REMARK 924 INTRA-LIGAND FREE ENERGY PREDICTED BY IDOCK:    1.48 KCAL/MOL
REMARK 927      BINDING AFFINITY PREDICTED BY RF-SCORE:    0.00 PKD
ROOT
HETATM    1  C   UNL     1      -9.265  13.448  67.331  1.00  0.00    -0.213 C  
HETATM    2  C   UNL     1      -9.630  13.489  68.694  1.00  0.00    -0.077 C  
HETATM    3  C   UNL     1     -10.784  13.929  67.817  1.00  0.00    -0.252 C  
HETATM    4  C   UNL     1     -12.009  13.702  68.948  1.00  0.00    -0.392 C  
HETATM    5  C   UNL     1     -10.520  13.644  65.775  1.00  0.00    -0.293 C  
HETATM    6  O   UNL     1      -9.345  12.909  65.247  1.00  0.00    -0.413 OA 
HETATM    7  C   UNL     1     -10.286  18.432  68.425  1.00  0.00    -0.407 C  
HETATM    8  C   UNL     1     -11.068  12.957  66.810  1.00  0.00    -0.315 C  
HETATM    9  C   UNL     1     -12.209  14.460  66.360  1.00  0.00    -0.363 C  
HETATM   10  C   UNL     1     -11.362  11.469  66.986  1.00  0.00    -0.340 C  
HETATM   11  C   UNL     1      -9.283  17.797  67.367  1.00  0.00    -0.248 C  
HETATM   12  C   UNL     1      -9.220  18.851  66.275  1.00  0.00    -0.278 C  
HETATM   13  H   UNL     1      -9.224  12.779  64.313  1.00  0.00     0.000 HD 
HETATM   14  C   UNL     1     -11.285  16.041  66.319  1.00  0.00     0.159 C  
HETATM   15  C   UNL     1      -8.305  19.848  66.345  1.00  0.00    -0.368 C  
HETATM   16  O   UNL     1     -11.115  16.367  64.933  1.00  0.00    -0.510 OA 
HETATM   17  C   UNL     1      -9.778  16.291  67.189  1.00  0.00    -0.238 C  
HETATM   18  C   UNL     1      -8.727  15.093  66.854  1.00  0.00    -0.289 C  
HETATM   19  F   UNL     1      -9.974  16.104  68.579  1.00  0.00    -0.211 F  
HETATM   20  H   UNL     1     -10.636  17.187  64.911  1.00  0.00     0.000 HD 
HETATM   21  C   UNL     1      -7.360  15.355  67.509  1.00  0.00    -0.222 C  
HETATM   22  C   UNL     1      -6.906  16.791  67.308  1.00  0.00    -0.171 C  
HETATM   23  C   UNL     1      -7.862  17.752  67.978  1.00  0.00    -0.241 C  
HETATM   24  F   UNL     1      -5.654  16.906  67.832  1.00  0.00    -0.105 F  
HETATM   25  C   UNL     1      -7.361  18.877  68.532  1.00  0.00    -0.330 C  
HETATM   26  C   UNL     1      -7.262  19.908  67.434  1.00  0.00    -0.244 C  
HETATM   27  O   UNL     1      -6.411  20.786  67.464  1.00  0.00    -0.263 OA 
ENDROOT
BRANCH   5  28
HETATM   28  C   UNL     1     -11.476  12.928  64.526  1.00  0.00    -0.344 C  
HETATM   29  C   UNL     1     -10.768  12.100  63.461  1.00  0.00    -0.457 C  
HETATM   30  O   UNL     1     -12.710  12.981  64.400  1.00  0.00    -0.652 OA 
HETATM   31 CL   UNL     1     -10.059  10.646  64.159  1.00  0.00    -0.411 Cl 
ENDBRANCH   5  28
TORSDOF 1
ENDMDL
MODEL        5
REMARK 921   NORMALIZED FREE ENERGY PREDICTED BY IDOCK:   -7.71 KCAL/MOL
REMARK 922        TOTAL FREE ENERGY PREDICTED BY IDOCK:   -6.93 KCAL/MOL
REMARK 923 INTER-LIGAND FREE ENERGY PREDICTED BY IDOCK:   -8.15 KCAL/MOL
REMARK 924 INTRA-LIGAND FREE ENERGY PREDICTED BY IDOCK:    1.22 KCAL/MOL
REMARK 927      BINDING AFFINITY PREDICTED BY RF-SCORE:    0.00 PKD
ROOT
HETATM    1  C   UNL     1     -11.505  15.309  66.224  1.00  0.00    -0.079 C  
HETATM    2  C   UNL     1     -10.964  15.302  64.921  1.00  0.00    -0.445 C  
HETATM    3  C   UNL     1     -10.310  14.238  65.778  1.00  0.00    -0.341 C  
HETATM    4  C   UNL     1      -9.690  13.305  64.522  1.00  0.00     0.259 C  
HETATM    5  C   UNL     1     -11.193  13.910  67.631  1.00  0.00    -0.295 C  
HETATM    6  O   UNL     1     -12.470  14.566  68.001  1.00  0.00    -0.598 OA 
HETATM    7  C   UNL     1      -6.472  16.534  66.721  1.00  0.00    -0.123 C  
HETATM    8  C   UNL     1     -11.287  13.388  66.380  1.00  0.00    -0.338 C  
HETATM    9  C   UNL     1      -9.609  12.835  67.184  1.00  0.00    -0.219 C  
HETATM   10  C   UNL     1     -12.404  12.597  65.702  1.00  0.00    -0.390 C  
HETATM   11  C   UNL     1      -7.724  16.955  67.605  1.00  0.00    -0.179 C  
HETATM   12  C   UNL     1      -7.118  17.169  68.981  1.00  0.00    -0.232 C  
HETATM   13  H   UNL     1     -12.874  14.417  68.848  1.00  0.00     0.000 HD 
HETATM   14  C   UNL     1      -8.650  14.256  67.827  1.00  0.00    -0.177 C  
HETATM   15  C   UNL     1      -6.631  18.385  69.329  1.00  0.00    -0.257 C  
HETATM   16  O   UNL     1      -8.796  14.223  69.253  1.00  0.00    -0.375 OA 
HETATM   17  C   UNL     1      -8.860  15.898  67.234  1.00  0.00    -0.196 C  
HETATM   18  C   UNL     1     -10.435  16.311  67.260  1.00  0.00    -0.300 C  
HETATM   19  F   UNL     1      -8.581  15.962  65.847  1.00  0.00    -0.348 F  
HETATM   20  H   UNL     1      -8.298  14.961  69.587  1.00  0.00     0.000 HD 
HETATM   21  C   UNL     1     -10.629  17.785  66.861  1.00  0.00    -0.247 C  
HETATM   22  C   UNL     1      -9.633  18.692  67.561  1.00  0.00    -0.294 C  
HETATM   23  C   UNL     1      -8.218  18.351  67.152  1.00  0.00    -0.248 C  
HETATM   24  F   UNL     1      -9.938  19.978  67.226  1.00  0.00    -0.451 F  
HETATM   25  C   UNL     1      -7.318  19.351  67.046  1.00  0.00    -0.232 C  
HETATM   26  C   UNL     1      -6.749  19.587  68.424  1.00  0.00    -0.280 C  
HETATM   27  O   UNL     1      -6.349  20.691  68.764  1.00  0.00    -0.312 OA 
ENDROOT
BRANCH   5  28
HETATM   28  C   UNL     1     -11.721  12.500  68.480  1.00  0.00    -0.324 C  
HETATM   29  C   UNL     1     -11.549  12.465  69.994  1.00  0.00    -0.138 C  
HETATM   30  O   UNL     1     -12.265  11.493  68.001  1.00  0.00    -0.582 OA 
HETATM   31 CL   UNL     1     -12.566  13.676  70.773  1.00  0.00    -0.410 Cl 
ENDBRANCH   5  28
TORSDOF 1
ENDMDL
MODEL        6
REMARK 921   NORMALIZED FREE ENERGY PREDICTED BY IDOCK:   -7.66 KCAL/MOL
REMARK 922        TOTAL FREE ENERGY PREDICTED BY IDOCK:   -6.88 KCAL/MOL
REMARK 923 INTER-LIGAND FREE ENERGY PREDICTED BY IDOCK:   -8.34 KCAL/MOL
REMARK 924 INTRA-LIGAND FREE ENERGY PREDICTED BY IDOCK:    1.46 KCAL/MOL
REMARK 927      BINDING AFFINITY PREDICTED BY RF-SCORE:    0.00 PKD
ROOT
HETATM    1  C   UNL     1      -9.503  18.530  66.176  1.00  0.00    -0.175 C  
HETATM    2  C   UNL     1     -10.636  19.029  66.853  1.00  0.00    -0.518 C  
HETATM    3  C   UNL     1      -9.484  18.822  67.816  1.00  0.00    -0.333 C  
HETATM    4  C   UNL     1     -10.057  19.814  69.049  1.00  0.00    -0.427 C  
HETATM    5  C   UNL     1      -7.652  18.377  66.942  1.00  0.00    -0.218 C  
HETATM    6  O   UNL     1      -7.470  18.426  65.471  1.00  0.00    -0.528 OA 
HETATM    7  C   UNL     1     -10.912  14.854  69.579  1.00  0.00    -0.289 C  
HETATM    8  C   UNL     1      -8.307  19.490  67.363  1.00  0.00    -0.330 C  
HETATM    9  C   UNL     1      -7.716  18.469  68.904  1.00  0.00    -0.253 C  
HETATM   10  C   UNL     1      -8.136  20.960  66.987  1.00  0.00    -0.121 C  
HETATM   11  C   UNL     1     -10.195  14.725  68.166  1.00  0.00    -0.228 C  
HETATM   12  C   UNL     1      -9.373  13.457  68.310  1.00  0.00    -0.205 C  
HETATM   13  H   UNL     1      -6.632  18.222  65.071  1.00  0.00     0.000 HD 
HETATM   14  C   UNL     1      -8.248  16.719  68.817  1.00  0.00    -0.250 C  
HETATM   15  C   UNL     1      -9.915  12.254  67.996  1.00  0.00    -0.202 C  
HETATM   16  O   UNL     1      -7.081  15.964  68.467  1.00  0.00    -0.117 OA 
HETATM   17  C   UNL     1      -9.625  16.184  67.863  1.00  0.00    -0.223 C  
HETATM   18  C   UNL     1      -9.506  16.741  66.338  1.00  0.00    -0.307 C  
HETATM   19  F   UNL     1     -10.808  16.827  68.300  1.00  0.00    -0.318 F  
HETATM   20  H   UNL     1      -7.357  15.055  68.421  1.00  0.00     0.000 HD 
HETATM   21  C   UNL     1     -10.636  16.185  65.454  1.00  0.00    -0.399 C  
HETATM   22  C   UNL     1     -10.832  14.694  65.664  1.00  0.00    -0.331 C  
HETATM   23  C   UNL     1     -11.258  14.405  67.086  1.00  0.00    -0.337 C  
HETATM   24  F   UNL     1     -11.778  14.273  64.779  1.00  0.00    -0.344 F  
HETATM   25  C   UNL     1     -12.118  13.389  67.307  1.00  0.00    -0.352 C  
HETATM   26  C   UNL     1     -11.299  12.126  67.409  1.00  0.00    -0.326 C  
HETATM   27  O   UNL     1     -11.763  11.042  67.086  1.00  0.00    -0.456 OA 
ENDROOT
BRANCH   5  28
HETATM   28  C   UNL     1      -6.051  19.004  67.118  1.00  0.00    -0.174 C  
HETATM   29  C   UNL     1      -5.172  19.094  65.876  1.00  0.00    -0.147 C  
HETATM   30  O   UNL     1      -5.520  19.429  68.156  1.00  0.00    -0.192 OA 
HETATM   31 CL   UNL     1      -5.820  20.263  64.727  1.00  0.00    -0.245 Cl 
ENDBRANCH   5  28
TORSDOF 1
ENDMDL
MODEL        7
REMARK 921   NORMALIZED FREE ENERGY PREDICTED BY IDOCK:   -7.63 KCAL/MOL
REMARK 922        TOTAL FREE ENERGY PREDICTED BY IDOCK:   -6.85 KCAL/MOL
REMARK 923 INTER-LIGAND FREE ENERGY PREDICTED BY IDOCK:   -8.41 KCAL/MOL
REMARK 924 INTRA-LIGAND FREE ENERGY PREDICTED BY IDOCK:    1.57 KCAL/MOL
REMARK 927      BINDING AFFINITY PREDICTED BY RF-SCORE:    0.00 PKD
ROOT
HETATM    1  C   UNL     1      -9.054   8.790  67.417  1.00  0.00    -0.147 C  
HETATM    2  C   UNL     1      -7.820   9.468  67.508  1.00  0.00    -0.102 C  
HETATM    3  C   UNL     1      -8.680   9.757  68.721  1.00  0.00    -0.128 C  
HETATM    4  C   UNL     1      -7.448  10.296  69.733  1.00  0.00    -0.169 C  
HETATM    5  C   UNL     1     -10.403   8.607  68.894  1.00  0.00    -0.211 C  
HETATM    6  O   UNL     1     -10.669   7.476  67.972  1.00  0.00    -0.362 OA 
HETATM    7  C   UNL     1     -10.170  13.873  67.406  1.00  0.00    -0.252 C  
HETATM    8  C   UNL     1      -9.122   8.548  69.340  1.00  0.00    -0.150 C  
HETATM    9  C   UNL     1     -10.071   9.949  70.292  1.00  0.00    -0.295 C  
HETATM   10  C   UNL     1      -8.281   7.371  69.830  1.00  0.00    -0.132 C  
HETATM   11  C   UNL     1     -10.935  12.651  66.734  1.00  0.00    -0.296 C  
HETATM   12  C   UNL     1     -12.379  13.121  66.710  1.00  0.00    -0.173 C  
HETATM   13  H   UNL     1     -11.457   6.950  68.051  1.00  0.00     0.000 HD 
HETATM   14  C   UNL     1     -10.896  11.120  69.152  1.00  0.00    -0.238 C  
HETATM   15  C   UNL     1     -12.849  13.825  65.651  1.00  0.00    -0.456 C  
HETATM   16  O   UNL     1     -12.294  10.801  69.195  1.00  0.00    -0.699 OA 
HETATM   17  C   UNL     1     -10.381  11.359  67.488  1.00  0.00    -0.195 C  
HETATM   18  C   UNL     1     -10.258   9.927  66.723  1.00  0.00    -0.301 C  
HETATM   19  F   UNL     1      -9.039  11.810  67.446  1.00  0.00    -0.163 F  
HETATM   20  H   UNL     1     -12.722  11.409  68.604  1.00  0.00     0.000 HD 
HETATM   21  C   UNL     1      -9.927  10.120  65.233  1.00  0.00    -0.381 C  
HETATM   22  C   UNL     1     -10.784  11.204  64.602  1.00  0.00    -0.280 C  
HETATM   23  C   UNL     1     -10.513  12.544  65.249  1.00  0.00    -0.313 C  
HETATM   24  F   UNL     1     -10.492  11.239  63.271  1.00  0.00    -0.359 F  
HETATM   25  C   UNL     1     -10.565  13.652  64.481  1.00  0.00    -0.428 C  
HETATM   26  C   UNL     1     -12.008  14.090  64.426  1.00  0.00    -0.454 C  
HETATM   27  O   UNL     1     -12.453  14.686  63.456  1.00  0.00    -0.681 OA 
ENDROOT
BRANCH   5  28
HETATM   28  C   UNL     1     -11.106   7.677  70.170  1.00  0.00    -0.218 C  
HETATM   29  C   UNL     1     -11.657   6.296  69.836  1.00  0.00    -0.291 C  
HETATM   30  O   UNL     1     -11.196   7.990  71.368  1.00  0.00    -0.243 OA 
HETATM   31 CL   UNL     1     -10.364   5.200  69.350  1.00  0.00    -0.296 Cl 
ENDBRANCH   5  28
TORSDOF 1
ENDMDL
MODEL        8
REMARK 921   NORMALIZED FREE ENERGY PREDICTED BY IDOCK:   -7.29 KCAL/MOL
REMARK 922        TOTAL FREE ENERGY PREDICTED BY IDOCK:   -6.48 KCAL/MOL
REMARK 923 INTER-LIGAND FREE ENERGY PREDICTED BY IDOCK:   -7.58 KCAL/MOL
REMARK 924 INTRA-LIGAND FREE ENERGY PREDICTED BY IDOCK:    1.10 KCAL/MOL
REMARK 927      BINDING AFFINITY PREDICTED BY RF-SCORE:    0.00 PKD
ROOT
HETATM    1  C   UNL     1     -10.632  11.095  68.070  1.00  0.00    -0.233 C  
HETATM    2  C   UNL     1     -11.616  11.374  67.098  1.00  0.00    -0.182 C  
HETATM    3  C   UNL     1     -10.426  12.298  66.937  1.00  0.00    -0.240 C  
HETATM    4  C   UNL     1     -10.736  12.771  65.352  1.00  0.00    -0.309 C  
HETATM    5  C   UNL     1      -8.763  11.830  68.092  1.00  0.00    -0.168 C  
HETATM    6  O   UNL     1      -8.707  10.580  68.888  1.00  0.00    -0.138 OA 
HETATM    7  C   UNL     1     -12.255  15.955  68.982  1.00  0.00     0.036 C  
HETATM    8  C   UNL     1      -9.208  11.559  66.838  1.00  0.00    -0.181 C  
HETATM    9  C   UNL     1      -8.638  13.412  66.933  1.00  0.00    -0.114 C  
HETATM   10  C   UNL     1      -8.859  10.433  65.868  1.00  0.00    -0.179 C  
HETATM   11  C   UNL     1     -11.693  14.854  69.982  1.00  0.00    -0.338 C  
HETATM   12  C   UNL     1     -11.054  15.683  71.083  1.00  0.00    -0.345 C  
HETATM   13  H   UNL     1      -7.947  10.365  69.416  1.00  0.00     0.000 HD 
HETATM   14  C   UNL     1      -9.426  14.306  68.324  1.00  0.00    -0.209 C  
HETATM   15  C   UNL     1     -11.792  16.084  72.148  1.00  0.00    -0.623 C  
HETATM   16  O   UNL     1      -8.416  14.440  69.334  1.00  0.00    -0.369 OA 
HETATM   17  C   UNL     1     -10.945  13.798  69.050  1.00  0.00    -0.243 C  
HETATM   18  C   UNL     1     -10.882  12.221  69.447  1.00  0.00    -0.012 C  
HETATM   19  F   UNL     1     -11.979  13.798  68.082  1.00  0.00    -0.356 F  
HETATM   20  H   UNL     1      -8.825  14.904  70.056  1.00  0.00     0.000 HD 
HETATM   21  C   UNL     1     -12.155  11.785  70.193  1.00  0.00    -0.398 C  
HETATM   22  C   UNL     1     -12.546  12.784  71.267  1.00  0.00    -0.250 C  
HETATM   23  C   UNL     1     -12.882  14.125  70.654  1.00  0.00    -0.356 C  
HETATM   24  F   UNL     1     -13.619  12.274  71.936  1.00  0.00    -0.483 F  
HETATM   25  C   UNL     1     -13.858  14.866  71.219  1.00  0.00    -0.500 C  
HETATM   26  C   UNL     1     -13.227  15.657  72.338  1.00  0.00    -0.474 C  
HETATM   27  O   UNL     1     -13.871  15.985  73.325  1.00  0.00    -0.520 OA 
ENDROOT
BRANCH   5  28
HETATM   28  C   UNL     1      -7.078  11.640  67.755  1.00  0.00    -0.092 C  
HETATM   29  C   UNL     1      -6.080  12.386  68.633  1.00  0.00    -0.065 C  
HETATM   30  O   UNL     1      -6.562  10.929  66.879  1.00  0.00    -0.084 OA 
HETATM   31 CL   UNL     1      -6.119  11.781  70.288  1.00  0.00    -0.156 Cl 
ENDBRANCH   5  28
TORSDOF 1
ENDMDL
MODEL        9
REMARK 921   NORMALIZED FREE ENERGY PREDICTED BY IDOCK:   -7.01 KCAL/MOL
REMARK 922        TOTAL FREE ENERGY PREDICTED BY IDOCK:   -6.19 KCAL/MOL
REMARK 923 INTER-LIGAND FREE ENERGY PREDICTED BY IDOCK:   -7.66 KCAL/MOL
REMARK 924 INTRA-LIGAND FREE ENERGY PREDICTED BY IDOCK:    1.47 KCAL/MOL
REMARK 927      BINDING AFFINITY PREDICTED BY RF-SCORE:    0.00 PKD
ROOT
HETATM    1  C   UNL     1      -9.065  12.461  66.907  1.00  0.00    -0.211 C  
HETATM    2  C   UNL     1      -9.431  12.285  68.258  1.00  0.00    -0.209 C  
HETATM    3  C   UNL     1     -10.642  12.631  67.416  1.00  0.00    -0.240 C  
HETATM    4  C   UNL     1     -11.814  12.080  68.490  1.00  0.00    -0.369 C  
HETATM    5  C   UNL     1     -10.335  12.630  65.360  1.00  0.00    -0.291 C  
HETATM    6  O   UNL     1      -9.057  12.160  64.773  1.00  0.00    -0.259 OA 
HETATM    7  C   UNL     1     -10.884  17.055  68.542  1.00  0.00    -0.310 C  
HETATM    8  C   UNL     1     -10.764  11.748  66.300  1.00  0.00    -0.312 C  
HETATM    9  C   UNL     1     -12.135  13.089  66.002  1.00  0.00    -0.493 C  
HETATM   10  C   UNL     1     -10.812  10.222  66.299  1.00  0.00     0.014 C  
HETATM   11  C   UNL     1      -9.791  16.716  67.437  1.00  0.00    -0.254 C  
HETATM   12  C   UNL     1      -9.901  17.885  66.474  1.00  0.00    -0.343 C  
HETATM   13  H   UNL     1      -8.916  12.160  63.833  1.00  0.00     0.000 HD 
HETATM   14  C   UNL     1     -11.481  14.792  66.159  1.00  0.00    -0.311 C  
HETATM   15  C   UNL     1      -9.160  19.003  66.673  1.00  0.00    -0.346 C  
HETATM   16  O   UNL     1     -11.366  15.299  64.822  1.00  0.00    -0.435 OA 
HETATM   17  C   UNL     1     -10.034  15.180  67.080  1.00  0.00    -0.241 C  
HETATM   18  C   UNL     1      -8.802  14.216  66.630  1.00  0.00    -0.141 C  
HETATM   19  F   UNL     1     -10.197  14.806  68.436  1.00  0.00    -0.207 F  
HETATM   20  H   UNL     1     -11.026  16.183  64.903  1.00  0.00     0.000 HD 
HETATM   21  C   UNL     1      -7.496  14.618  67.336  1.00  0.00    -0.212 C  
HETATM   22  C   UNL     1      -7.282  16.121  67.308  1.00  0.00    -0.197 C  
HETATM   23  C   UNL     1      -8.381  16.832  68.066  1.00  0.00    -0.200 C  
HETATM   24  F   UNL     1      -6.065  16.377  67.866  1.00  0.00    -0.098 F  
HETATM   25  C   UNL     1      -8.071  17.951  68.753  1.00  0.00    -0.238 C  
HETATM   26  C   UNL     1      -8.141  19.104  67.782  1.00  0.00    -0.278 C  
HETATM   27  O   UNL     1      -7.444  20.099  67.928  1.00  0.00    -0.290 OA 
ENDROOT
BRANCH   5  28
HETATM   28  C   UNL     1     -11.162  11.917  64.020  1.00  0.00    -0.396 C  
HETATM   29  C   UNL     1     -10.330  11.385  62.860  1.00  0.00    -0.101 C  
HETATM   30  O   UNL     1     -12.386  11.753  63.893  1.00  0.00    -0.371 OA 
HETATM   31 CL   UNL     1      -9.349  10.011  63.364  1.00  0.00    -0.322 Cl 
ENDBRANCH   5  28
TORSDOF 1
ENDMDL
MODEL       10
REMARK 921   NORMALIZED FREE ENERGY PREDICTED BY IDOCK:   -6.84 KCAL/MOL
REMARK 922        TOTAL FREE ENERGY PREDICTED BY IDOCK:   -6.00 KCAL/MOL
REMARK 923 INTER-LIGAND FREE ENERGY PREDICTED BY IDOCK:   -7.47 KCAL/MOL
REMARK 924 INTRA-LIGAND FREE ENERGY PREDICTED BY IDOCK:    1.46 KCAL/MOL
REMARK 927      BINDING AFFINITY PREDICTED BY RF-SCORE:    0.00 PKD
ROOT
HETATM    1  C   UNL     1      -9.102  14.314  68.589  1.00  0.00    -0.160 C  
HETATM    2  C   UNL     1      -9.677  14.723  69.812  1.00  0.00     0.193 C  
HETATM    3  C   UNL     1     -10.642  14.945  68.665  1.00  0.00    -0.251 C  
HETATM    4  C   UNL     1     -12.046  15.055  69.587  1.00  0.00    -0.337 C  
HETATM    5  C   UNL     1     -10.075  14.125  66.842  1.00  0.00    -0.258 C  
HETATM    6  O   UNL     1      -8.885  13.247  66.731  1.00  0.00    -0.337 OA 
HETATM    7  C   UNL     1      -9.937  19.435  68.177  1.00  0.00    -0.510 C  
HETATM    8  C   UNL     1     -10.828  13.749  67.908  1.00  0.00    -0.257 C  
HETATM    9  C   UNL     1     -11.775  15.108  66.897  1.00  0.00    -0.093 C  
HETATM   10  C   UNL     1     -11.249  12.367  68.405  1.00  0.00    -0.316 C  
HETATM   11  C   UNL     1      -8.824  18.518  67.507  1.00  0.00    -0.276 C  
HETATM   12  C   UNL     1      -8.514  19.244  66.210  1.00  0.00    -0.328 C  
HETATM   13  H   UNL     1      -8.625  12.872  65.897  1.00  0.00     0.000 HD 
HETATM   14  C   UNL     1     -10.749  16.598  66.613  1.00  0.00    -0.124 C  
HETATM   15  C   UNL     1      -7.554  20.202  66.179  1.00  0.00    -0.294 C  
HETATM   16  O   UNL     1     -10.337  16.542  65.241  1.00  0.00    -0.596 OA 
HETATM   17  C   UNL     1      -9.387  17.031  67.638  1.00  0.00    -0.241 C  
HETATM   18  C   UNL     1      -8.382  15.762  67.807  1.00  0.00    -0.163 C  
HETATM   19  F   UNL     1      -9.816  17.223  68.974  1.00  0.00    -0.266 F  
HETATM   20  H   UNL     1      -9.804  17.315  65.093  1.00  0.00     0.000 HD 
HETATM   21  C   UNL     1      -7.122  16.153  68.600  1.00  0.00    -0.147 C  
HETATM   22  C   UNL     1      -6.544  17.473  68.119  1.00  0.00    -0.186 C  
HETATM   23  C   UNL     1      -7.525  18.601  68.346  1.00  0.00    -0.320 C  
HETATM   24  F   UNL     1      -5.387  17.691  68.805  1.00  0.00    -0.146 F  
HETATM   25  C   UNL     1      -7.043  19.819  68.670  1.00  0.00    -0.366 C  
HETATM   26  C   UNL     1      -6.698  20.521  67.380  1.00  0.00    -0.285 C  
HETATM   27  O   UNL     1      -5.804  21.354  67.331  1.00  0.00    -0.312 OA 
ENDROOT
BRANCH   5  28
HETATM   28  C   UNL     1     -10.866  13.128  65.672  1.00  0.00    -0.278 C  
HETATM   29  C   UNL     1     -10.031  12.102  64.916  1.00  0.00    -0.212 C  
HETATM   30  O   UNL     1     -12.073  13.123  65.381  1.00  0.00    -0.380 OA 
HETATM   31 CL   UNL     1      -9.426  10.854  66.005  1.00  0.00    -0.221 Cl 
ENDBRANCH   5  28
TORSDOF 1
ENDMDL
MODEL       11
REMARK 921   NORMALIZED FREE ENERGY PREDICTED BY IDOCK:   -6.82 KCAL/MOL
REMARK 922        TOTAL FREE ENERGY PREDICTED BY IDOCK:   -5.99 KCAL/MOL
REMARK 923 INTER-LIGAND FREE ENERGY PREDICTED BY IDOCK:   -7.27 KCAL/MOL
REMARK 924 INTRA-LIGAND FREE ENERGY PREDICTED BY IDOCK:    1.28 KCAL/MOL
REMARK 927      BINDING AFFINITY PREDICTED BY RF-SCORE:    0.00 PKD
ROOT
HETATM    1  C   UNL     1      -8.939  14.704  67.695  1.00  0.00    -0.187 C  
HETATM    2  C   UNL     1      -8.753  15.202  66.388  1.00  0.00    -0.219 C  
HETATM    3  C   UNL     1     -10.213  14.881  66.636  1.00  0.00    -0.264 C  
HETATM    4  C   UNL     1     -10.850  15.808  65.384  1.00  0.00    -0.376 C  
HETATM    5  C   UNL     1     -10.710  14.422  68.601  1.00  0.00    -0.253 C  
HETATM    6  O   UNL     1      -9.722  14.565  69.698  1.00  0.00    -0.403 OA 
HETATM    7  C   UNL     1     -10.299  10.862  64.459  1.00  0.00    -0.417 C  
HETATM    8  C   UNL     1     -10.690  15.530  67.815  1.00  0.00    -0.297 C  
HETATM    9  C   UNL     1     -12.157  14.380  67.272  1.00  0.00    -0.358 C  
HETATM   10  C   UNL     1     -10.635  17.014  68.169  1.00  0.00    -0.369 C  
HETATM   11  C   UNL     1      -9.688  10.803  65.925  1.00  0.00    -0.272 C  
HETATM   12  C   UNL     1     -10.231   9.494  66.472  1.00  0.00    -0.307 C  
HETATM   13  H   UNL     1      -9.948  14.355  70.596  1.00  0.00     0.000 HD 
HETATM   14  C   UNL     1     -11.606  12.664  66.949  1.00  0.00    -0.373 C  
HETATM   15  C   UNL     1      -9.546   8.340  66.283  1.00  0.00    -0.266 C  
HETATM   16  O   UNL     1     -12.041  11.887  68.074  1.00  0.00    -0.541 OA 
HETATM   17  C   UNL     1      -9.947  12.254  66.535  1.00  0.00    -0.220 C  
HETATM   18  C   UNL     1      -8.917  12.911  67.611  1.00  0.00    -0.192 C  
HETATM   19  F   UNL     1      -9.558  12.914  65.344  1.00  0.00    -0.206 F  
HETATM   20  H   UNL     1     -11.755  10.997  67.906  1.00  0.00     0.000 HD 
HETATM   21  C   UNL     1      -7.470  12.465  67.338  1.00  0.00    -0.157 C  
HETATM   22  C   UNL     1      -7.382  10.972  67.074  1.00  0.00    -0.123 C  
HETATM   23  C   UNL     1      -8.156  10.603  65.828  1.00  0.00    -0.158 C  
HETATM   24  F   UNL     1      -6.064  10.652  66.940  1.00  0.00    -0.052 F  
HETATM   25  C   UNL     1      -7.682   9.611  65.046  1.00  0.00    -0.119 C  
HETATM   26  C   UNL     1      -8.191   8.310  65.618  1.00  0.00    -0.134 C  
HETATM   27  O   UNL     1      -7.559   7.272  65.491  1.00  0.00    -0.087 OA 
ENDROOT
BRANCH   5  28
HETATM   28  C   UNL     1     -11.935  14.968  69.692  1.00  0.00    -0.321 C  
HETATM   29  C   UNL     1     -13.023  13.984  70.104  1.00  0.00     0.128 C  
HETATM   30  O   UNL     1     -12.026  16.088  70.220  1.00  0.00    -0.328 OA 
HETATM   31 CL   UNL     1     -12.350  12.661  71.055  1.00  0.00    -0.400 Cl 
ENDBRANCH   5  28
TORSDOF 1
ENDMDL
MODEL       12
REMARK 921   NORMALIZED FREE ENERGY PREDICTED BY IDOCK:   -6.78 KCAL/MOL
REMARK 922        TOTAL FREE ENERGY PREDICTED BY IDOCK:   -5.94 KCAL/MOL
REMARK 923 INTER-LIGAND FREE ENERGY PREDICTED BY IDOCK:   -7.40 KCAL/MOL
REMARK 924 INTRA-LIGAND FREE ENERGY PREDICTED BY IDOCK:    1.46 KCAL/MOL
REMARK 927      BINDING AFFINITY PREDICTED BY RF-SCORE:    0.00 PKD
ROOT
HETATM    1  C   UNL     1     -11.241  11.511  68.122  1.00  0.00    -0.335 C  
HETATM    2  C   UNL     1     -11.658  11.635  66.780  1.00  0.00    -0.220 C  
HETATM    3  C   UNL     1     -10.168  11.369  66.856  1.00  0.00    -0.254 C  
HETATM    4  C   UNL     1      -9.964  10.844  65.270  1.00  0.00    -0.330 C  
HETATM    5  C   UNL     1      -9.442  10.864  68.736  1.00  0.00    -0.190 C  
HETATM    6  O   UNL     1     -10.359  10.624  69.877  1.00  0.00    -0.420 OA 
HETATM    7  C   UNL     1      -8.779  15.675  66.205  1.00  0.00    -0.325 C  
HETATM    8  C   UNL     1      -9.891  10.206  67.636  1.00  0.00    -0.201 C  
HETATM    9  C   UNL     1      -8.142  10.963  67.265  1.00  0.00    -0.123 C  
HETATM   10  C   UNL     1     -10.449   8.795  67.466  1.00  0.00    -0.340 C  
HETATM   11  C   UNL     1      -9.254  15.355  67.688  1.00  0.00    -0.187 C  
HETATM   12  C   UNL     1      -8.257  16.117  68.542  1.00  0.00    -0.186 C  
HETATM   13  H   UNL     1     -10.027  10.393  70.737  1.00  0.00     0.000 HD 
HETATM   14  C   UNL     1      -8.068  12.751  67.652  1.00  0.00    -0.175 C  
HETATM   15  C   UNL     1      -8.499  17.407  68.885  1.00  0.00    -0.156 C  
HETATM   16  O   UNL     1      -7.330  12.863  68.877  1.00  0.00    -0.205 OA 
HETATM   17  C   UNL     1      -9.494  13.778  67.708  1.00  0.00    -0.216 C  
HETATM   18  C   UNL     1     -10.633  13.112  68.662  1.00  0.00    -0.259 C  
HETATM   19  F   UNL     1     -10.151  13.779  66.454  1.00  0.00    -0.264 F  
HETATM   20  H   UNL     1      -7.291  13.791  69.078  1.00  0.00     0.000 HD 
HETATM   21  C   UNL     1     -11.841  14.051  68.822  1.00  0.00    -0.396 C  
HETATM   22  C   UNL     1     -11.409  15.479  69.104  1.00  0.00    -0.328 C  
HETATM   23  C   UNL     1     -10.620  16.038  67.942  1.00  0.00    -0.301 C  
HETATM   24  F   UNL     1     -12.534  16.215  69.326  1.00  0.00    -0.214 F  
HETATM   25  C   UNL     1     -10.752  17.348  67.644  1.00  0.00    -0.310 C  
HETATM   26  C   UNL     1      -9.788  18.105  68.525  1.00  0.00    -0.382 C  
HETATM   27  O   UNL     1     -10.019  19.253  68.877  1.00  0.00    -0.422 OA 
ENDROOT
BRANCH   5  28
HETATM   28  C   UNL     1      -8.434   9.593  69.336  1.00  0.00    -0.156 C  
HETATM   29  C   UNL     1      -8.725   9.037  70.725  1.00  0.00    -0.224 C  
HETATM   30  O   UNL     1      -7.492   9.039  68.747  1.00  0.00    -0.075 OA 
HETATM   31 CL   UNL     1     -10.286   8.218  70.763  1.00  0.00    -0.210 Cl 
ENDBRANCH   5  28
TORSDOF 1
ENDMDL
MODEL       13
REMARK 921   NORMALIZED FREE ENERGY PREDICTED BY IDOCK:   -6.75 KCAL/MOL
REMARK 922        TOTAL FREE ENERGY PREDICTED BY IDOCK:   -5.92 KCAL/MOL
REMARK 923 INTER-LIGAND FREE ENERGY PREDICTED BY IDOCK:   -7.45 KCAL/MOL
REMARK 924 INTRA-LIGAND FREE ENERGY PREDICTED BY IDOCK:    1.53 KCAL/MOL
REMARK 927      BINDING AFFINITY PREDICTED BY RF-SCORE:    0.00 PKD
ROOT
HETATM    1  C   UNL     1     -10.605  15.917  66.839  1.00  0.00    -0.309 C  
HETATM    2  C   UNL     1     -11.502  15.451  67.823  1.00  0.00    -0.284 C  
HETATM    3  C   UNL     1     -10.116  15.636  68.406  1.00  0.00    -0.214 C  
HETATM    4  C   UNL     1     -10.571  15.688  70.026  1.00  0.00    -0.342 C  
HETATM    5  C   UNL     1      -8.745  16.598  67.175  1.00  0.00    -0.195 C  
HETATM    6  O   UNL     1      -9.160  17.199  65.885  1.00  0.00    -0.513 OA 
HETATM    7  C   UNL     1      -8.858  11.242  68.317  1.00  0.00    -0.158 C  
HETATM    8  C   UNL     1      -9.621  16.951  68.152  1.00  0.00    -0.255 C  
HETATM    9  C   UNL     1      -8.115  16.017  68.944  1.00  0.00    -0.218 C  
HETATM   10  C   UNL     1     -10.276  18.291  68.479  1.00  0.00    -0.402 C  
HETATM   11  C   UNL     1      -8.738  11.990  66.918  1.00  0.00    -0.193 C  
HETATM   12  C   UNL     1      -7.447  11.434  66.341  1.00  0.00    -0.013 C  
HETATM   13  H   UNL     1      -8.534  17.639  65.321  1.00  0.00     0.000 HD 
HETATM   14  C   UNL     1      -7.800  14.405  68.134  1.00  0.00    -0.138 C  
HETATM   15  C   UNL     1      -7.468  10.308  65.587  1.00  0.00    -0.149 C  
HETATM   16  O   UNL     1      -6.640  14.592  67.312  1.00  0.00    -0.327 OA 
HETATM   17  C   UNL     1      -9.035  13.522  67.247  1.00  0.00    -0.222 C  
HETATM   18  C   UNL     1      -9.749  14.494  66.154  1.00  0.00    -0.340 C  
HETATM   19  F   UNL     1     -10.126  13.213  68.095  1.00  0.00    -0.210 F  
HETATM   20  H   UNL     1      -6.476  13.755  66.891  1.00  0.00     0.000 HD 
HETATM   21  C   UNL     1     -10.748  13.712  65.284  1.00  0.00    -0.340 C  
HETATM   22  C   UNL     1     -10.165  12.394  64.805  1.00  0.00    -0.279 C  
HETATM   23  C   UNL     1      -9.859  11.487  65.976  1.00  0.00    -0.255 C  
HETATM   24  F   UNL     1     -11.074  11.818  63.970  1.00  0.00    -0.344 F  
HETATM   25  C   UNL     1     -10.026  10.157  65.822  1.00  0.00    -0.339 C  
HETATM   26  C   UNL     1      -8.756   9.617  65.210  1.00  0.00    -0.160 C  
HETATM   27  O   UNL     1      -8.770   8.627  64.492  1.00  0.00    -0.125 OA 
ENDROOT
BRANCH   5  28
HETATM   28  C   UNL     1      -7.654  17.921  67.392  1.00  0.00    -0.206 C  
HETATM   29  C   UNL     1      -7.541  18.952  66.275  1.00  0.00    -0.271 C  
HETATM   30  O   UNL     1      -6.950  18.161  68.386  1.00  0.00    -0.224 OA 
HETATM   31 CL   UNL     1      -9.050  19.843  66.083  1.00  0.00    -0.424 Cl 
ENDBRANCH   5  28
TORSDOF 1
ENDMDL
MODEL       14
REMARK 921   NORMALIZED FREE ENERGY PREDICTED BY IDOCK:   -6.73 KCAL/MOL
REMARK 922        TOTAL FREE ENERGY PREDICTED BY IDOCK:   -5.90 KCAL/MOL
REMARK 923 INTER-LIGAND FREE ENERGY PREDICTED BY IDOCK:   -7.28 KCAL/MOL
REMARK 924 INTRA-LIGAND FREE ENERGY PREDICTED BY IDOCK:    1.38 KCAL/MOL
REMARK 927      BINDING AFFINITY PREDICTED BY RF-SCORE:    0.00 PKD
ROOT
HETATM    1  C   UNL     1      -9.526   7.413  69.040  1.00  0.00    -0.148 C  
HETATM    2  C   UNL     1      -8.178   7.794  69.218  1.00  0.00    -0.129 C  
HETATM    3  C   UNL     1      -9.050   8.386  70.306  1.00  0.00    -0.149 C  
HETATM    4  C   UNL     1      -7.821   8.719  71.406  1.00  0.00    -0.166 C  
HETATM    5  C   UNL     1     -11.006   7.685  70.370  1.00  0.00    -0.247 C  
HETATM    6  O   UNL     1     -11.450   6.564  69.506  1.00  0.00    -0.533 OA 
HETATM    7  C   UNL     1      -9.392  12.593  68.552  1.00  0.00    -0.082 C  
HETATM    8  C   UNL     1      -9.821   7.374  70.957  1.00  0.00    -0.179 C  
HETATM    9  C   UNL     1     -10.490   9.038  71.699  1.00  0.00    -0.426 C  
HETATM   10  C   UNL     1      -9.332   6.087  71.616  1.00  0.00    -0.160 C  
HETATM   11  C   UNL     1     -10.362  11.523  67.888  1.00  0.00    -0.203 C  
HETATM   12  C   UNL     1     -11.645  12.307  67.674  1.00  0.00    -0.421 C  
HETATM   13  H   UNL     1     -12.344   6.244  69.535  1.00  0.00     0.000 HD 
HETATM   14  C   UNL     1     -10.906  10.256  70.397  1.00  0.00    -0.253 C  
HETATM   15  C   UNL     1     -11.836  12.998  66.523  1.00  0.00    -0.464 C  
HETATM   16  O   UNL     1     -12.338  10.273  70.310  1.00  0.00    -0.408 OA 
HETATM   17  C   UNL     1     -10.202  10.214  68.786  1.00  0.00    -0.186 C  
HETATM   18  C   UNL     1     -10.356   8.727  68.141  1.00  0.00    -0.266 C  
HETATM   19  F   UNL     1      -8.793  10.337  68.860  1.00  0.00    -0.123 F  
HETATM   20  H   UNL     1     -12.554  10.905  69.634  1.00  0.00     0.000 HD 
HETATM   21  C   UNL     1      -9.856   8.698  66.686  1.00  0.00    -0.336 C  
HETATM   22  C   UNL     1     -10.370   9.886  65.892  1.00  0.00    -0.113 C  
HETATM   23  C   UNL     1      -9.847  11.182  66.469  1.00  0.00    -0.242 C  
HETATM   24  F   UNL     1      -9.961   9.729  64.601  1.00  0.00    -0.373 F  
HETATM   25  C   UNL     1      -9.563  12.196  65.624  1.00  0.00    -0.177 C  
HETATM   26  C   UNL     1     -10.850  12.947  65.382  1.00  0.00    -0.283 C  
HETATM   27  O   UNL     1     -11.051  13.536  64.330  1.00  0.00    -0.381 OA 
ENDROOT
BRANCH   5  28
HETATM   28  C   UNL     1     -12.022   7.064  71.624  1.00  0.00    -0.329 C  
HETATM   29  C   UNL     1     -13.181   7.928  72.105  1.00  0.00    -0.143 C  
HETATM   30  O   UNL     1     -11.941   5.957  72.179  1.00  0.00    -0.274 OA 
HETATM   31 CL   UNL     1     -14.381   8.141  70.832  1.00  0.00    -0.089 Cl 
ENDBRANCH   5  28
TORSDOF 1
ENDMDL
MODEL       15
REMARK 921   NORMALIZED FREE ENERGY PREDICTED BY IDOCK:   -6.71 KCAL/MOL
REMARK 922        TOTAL FREE ENERGY PREDICTED BY IDOCK:   -5.87 KCAL/MOL
REMARK 923 INTER-LIGAND FREE ENERGY PREDICTED BY IDOCK:   -7.01 KCAL/MOL
REMARK 924 INTRA-LIGAND FREE ENERGY PREDICTED BY IDOCK:    1.15 KCAL/MOL
REMARK 927      BINDING AFFINITY PREDICTED BY RF-SCORE:    0.00 PKD
ROOT
HETATM    1  C   UNL     1     -11.112  13.743  68.011  1.00  0.00    -0.284 C  
HETATM    2  C   UNL     1      -9.963  14.161  68.714  1.00  0.00    -0.184 C  
HETATM    3  C   UNL     1      -9.615  13.806  67.283  1.00  0.00    -0.237 C  
HETATM    4  C   UNL     1      -8.148  14.628  67.211  1.00  0.00    -0.230 C  
HETATM    5  C   UNL     1     -11.233  13.459  66.026  1.00  0.00    -0.296 C  
HETATM    6  O   UNL     1     -12.624  13.707  66.476  1.00  0.00    -0.335 OA 
HETATM    7  C   UNL     1      -7.894   9.655  68.119  1.00  0.00    -0.086 C  
HETATM    8  C   UNL     1     -10.444  14.513  66.360  1.00  0.00    -0.295 C  
HETATM    9  C   UNL     1      -9.435  13.280  65.252  1.00  0.00     0.296 C  
HETATM   10  C   UNL     1     -10.681  16.018  66.257  1.00  0.00    -0.234 C  
HETATM   11  C   UNL     1      -9.482   9.712  68.075  1.00  0.00    -0.146 C  
HETATM   12  C   UNL     1      -9.853   8.423  67.362  1.00  0.00    -0.249 C  
HETATM   13  H   UNL     1     -13.364  13.548  65.901  1.00  0.00     0.000 HD 
HETATM   14  C   UNL     1      -9.493  11.567  65.896  1.00  0.00    -0.230 C  
HETATM   15  C   UNL     1     -10.046   7.284  68.071  1.00  0.00    -0.207 C  
HETATM   16  O   UNL     1     -10.394  10.850  65.042  1.00  0.00    -0.285 OA 
HETATM   17  C   UNL     1      -9.825  11.189  67.581  1.00  0.00    -0.174 C  
HETATM   18  C   UNL     1     -11.177  11.950  68.075  1.00  0.00    -0.317 C  
HETATM   19  F   UNL     1      -8.852  11.784  68.421  1.00  0.00    -0.157 F  
HETATM   20  H   UNL     1     -10.425   9.961  65.377  1.00  0.00     0.000 HD 
HETATM   21  C   UNL     1     -11.553  11.538  69.509  1.00  0.00    -0.400 C  
HETATM   22  C   UNL     1     -11.458  10.036  69.705  1.00  0.00    -0.184 C  
HETATM   23  C   UNL     1     -10.035   9.560  69.513  1.00  0.00    -0.205 C  
HETATM   24  F   UNL     1     -11.898   9.754  70.964  1.00  0.00    -0.319 F  
HETATM   25  C   UNL     1      -9.590   8.536  70.272  1.00  0.00    -0.177 C  
HETATM   26  C   UNL     1      -9.997   7.259  69.580  1.00  0.00    -0.170 C  
HETATM   27  O   UNL     1     -10.218   6.237  70.214  1.00  0.00    -0.184 OA 
ENDROOT
BRANCH   5  28
HETATM   28  C   UNL     1     -11.684  14.031  64.458  1.00  0.00    -0.413 C  
HETATM   29  C   UNL     1     -11.822  13.014  63.332  1.00  0.00    -0.476 C  
HETATM   30  O   UNL     1     -11.946  15.199  64.131  1.00  0.00    -0.467 OA 
HETATM   31 CL   UNL     1     -13.161  11.909  63.639  1.00  0.00    -0.369 Cl 
ENDBRANCH   5  28
TORSDOF 1
ENDMDL
MODEL       16
REMARK 921   NORMALIZED FREE ENERGY PREDICTED BY IDOCK:   -6.69 KCAL/MOL
REMARK 922        TOTAL FREE ENERGY PREDICTED BY IDOCK:   -5.85 KCAL/MOL
REMARK 923 INTER-LIGAND FREE ENERGY PREDICTED BY IDOCK:   -6.96 KCAL/MOL
REMARK 924 INTRA-LIGAND FREE ENERGY PREDICTED BY IDOCK:    1.10 KCAL/MOL
REMARK 927      BINDING AFFINITY PREDICTED BY RF-SCORE:    0.00 PKD
ROOT
HETATM    1  C   UNL     1     -10.433  16.315  66.761  1.00  0.00    -0.287 C  
HETATM    2  C   UNL     1     -11.497  15.885  67.582  1.00  0.00    -0.070 C  
HETATM    3  C   UNL     1     -10.192  15.885  68.352  1.00  0.00    -0.226 C  
HETATM    4  C   UNL     1     -10.857  15.882  69.898  1.00  0.00    -0.333 C  
HETATM    5  C   UNL     1      -8.580  16.773  67.386  1.00  0.00    -0.193 C  
HETATM    6  O   UNL     1      -8.755  17.495  66.103  1.00  0.00    -0.438 OA 
HETATM    7  C   UNL     1      -9.364  11.397  68.087  1.00  0.00    -0.181 C  
HETATM    8  C   UNL     1      -9.542  17.154  68.266  1.00  0.00    -0.280 C  
HETATM    9  C   UNL     1      -8.256  16.017  69.171  1.00  0.00    -0.241 C  
HETATM   10  C   UNL     1     -10.104  18.532  68.607  1.00  0.00    -0.406 C  
HETATM   11  C   UNL     1      -8.982  12.215  66.778  1.00  0.00    -0.203 C  
HETATM   12  C   UNL     1      -7.684  11.564  66.332  1.00  0.00     0.003 C  
HETATM   13  H   UNL     1      -8.018  17.901  65.661  1.00  0.00     0.000 HD 
HETATM   14  C   UNL     1      -7.990  14.435  68.288  1.00  0.00    -0.140 C  
HETATM   15  C   UNL     1      -7.711  10.496  65.496  1.00  0.00    -0.127 C  
HETATM   16  O   UNL     1      -6.716  14.550  67.639  1.00  0.00    -0.170 OA 
HETATM   17  C   UNL     1      -9.172  13.746  67.183  1.00  0.00    -0.243 C  
HETATM   18  C   UNL     1      -9.633  14.856  66.085  1.00  0.00    -0.340 C  
HETATM   19  F   UNL     1     -10.394  13.501  67.857  1.00  0.00    -0.229 F  
HETATM   20  H   UNL     1      -6.578  13.729  67.180  1.00  0.00     0.000 HD 
HETATM   21  C   UNL     1     -10.575  14.240  65.035  1.00  0.00    -0.444 C  
HETATM   22  C   UNL     1     -10.062  12.902  64.536  1.00  0.00    -0.235 C  
HETATM   23  C   UNL     1     -10.007  11.895  65.663  1.00  0.00    -0.269 C  
HETATM   24  F   UNL     1     -10.900  12.479  63.548  1.00  0.00    -0.407 F  
HETATM   25  C   UNL     1     -10.279  10.602  65.387  1.00  0.00    -0.341 C  
HETATM   26  C   UNL     1      -8.996   9.971  64.905  1.00  0.00    -0.205 C  
HETATM   27  O   UNL     1      -9.007   9.036  64.116  1.00  0.00    -0.111 OA 
ENDROOT
BRANCH   5  28
HETATM   28  C   UNL     1      -7.406  17.956  67.843  1.00  0.00    -0.222 C  
HETATM   29  C   UNL     1      -5.936  17.653  67.579  1.00  0.00    -0.149 C  
HETATM   30  O   UNL     1      -7.619  19.070  68.349  1.00  0.00    -0.283 OA 
HETATM   31 CL   UNL     1      -5.610  17.568  65.849  1.00  0.00    -0.185 Cl 
ENDBRANCH   5  28
TORSDOF 1
ENDMDL
MODEL       17
REMARK 921   NORMALIZED FREE ENERGY PREDICTED BY IDOCK:   -6.45 KCAL/MOL
REMARK 922        TOTAL FREE ENERGY PREDICTED BY IDOCK:   -5.60 KCAL/MOL
REMARK 923 INTER-LIGAND FREE ENERGY PREDICTED BY IDOCK:   -6.69 KCAL/MOL
REMARK 924 INTRA-LIGAND FREE ENERGY PREDICTED BY IDOCK:    1.09 KCAL/MOL
REMARK 927      BINDING AFFINITY PREDICTED BY RF-SCORE:    0.00 PKD
ROOT
HETATM    1  C   UNL     1      -9.804  13.634  65.207  1.00  0.00    -0.135 C  
HETATM    2  C   UNL     1     -10.887  13.020  64.542  1.00  0.00    -0.390 C  
HETATM    3  C   UNL     1     -11.359  13.723  65.798  1.00  0.00    -0.309 C  
HETATM    4  C   UNL     1     -12.989  13.817  65.389  1.00  0.00    -0.361 C  
HETATM    5  C   UNL     1      -9.950  14.928  66.737  1.00  0.00    -0.246 C  
HETATM    6  O   UNL     1      -8.631  15.197  66.115  1.00  0.00    -0.433 OA 
HETATM    7  C   UNL     1     -11.659  10.016  68.455  1.00  0.00     0.104 C  
HETATM    8  C   UNL     1     -10.936  15.087  65.817  1.00  0.00    -0.351 C  
HETATM    9  C   UNL     1     -11.728  14.806  67.567  1.00  0.00    -0.370 C  
HETATM   10  C   UNL     1     -11.159  16.163  64.757  1.00  0.00    -0.345 C  
HETATM   11  C   UNL     1     -10.184  10.586  68.286  1.00  0.00    -0.185 C  
HETATM   12  C   UNL     1      -9.591  10.423  69.674  1.00  0.00    -0.142 C  
HETATM   13  H   UNL     1      -7.987  15.748  66.544  1.00  0.00     0.000 HD 
HETATM   14  C   UNL     1     -11.076  13.304  68.386  1.00  0.00    -0.270 C  
HETATM   15  C   UNL     1      -8.963   9.271  70.015  1.00  0.00    -0.216 C  
HETATM   16  O   UNL     1     -10.168  13.763  69.396  1.00  0.00    -0.420 OA 
HETATM   17  C   UNL     1     -10.366  11.961  67.499  1.00  0.00    -0.200 C  
HETATM   18  C   UNL     1      -9.223  12.503  66.475  1.00  0.00    -0.210 C  
HETATM   19  F   UNL     1     -11.309  11.414  66.595  1.00  0.00    -0.349 F  
HETATM   20  H   UNL     1      -9.830  12.983  69.822  1.00  0.00     0.000 HD 
HETATM   21  C   UNL     1      -8.504  11.335  65.777  1.00  0.00    -0.018 C  
HETATM   22  C   UNL     1      -8.133  10.237  66.758  1.00  0.00    -0.121 C  
HETATM   23  C   UNL     1      -9.373   9.631  67.377  1.00  0.00    -0.155 C  
HETATM   24  F   UNL     1      -7.422   9.295  66.076  1.00  0.00    -0.091 F  
HETATM   25  C   UNL     1      -9.372   8.312  67.664  1.00  0.00    -0.158 C  
HETATM   26  C   UNL     1      -8.743   8.153  69.026  1.00  0.00    -0.144 C  
HETATM   27  O   UNL     1      -8.136   7.135  69.329  1.00  0.00    -0.117 OA 
ENDROOT
BRANCH   5  28
HETATM   28  C   UNL     1      -9.957  16.553  67.325  1.00  0.00    -0.264 C  
HETATM   29  C   UNL     1      -9.502  16.803  68.758  1.00  0.00    -0.259 C  
HETATM   30  O   UNL     1     -10.267  17.579  66.698  1.00  0.00    -0.311 OA 
HETATM   31 CL   UNL     1      -7.792  16.426  68.954  1.00  0.00    -0.224 Cl 
ENDBRANCH   5  28
TORSDOF 1
ENDMDL
MODEL       18
REMARK 921   NORMALIZED FREE ENERGY PREDICTED BY IDOCK:   -6.43 KCAL/MOL
REMARK 922        TOTAL FREE ENERGY PREDICTED BY IDOCK:   -5.57 KCAL/MOL
REMARK 923 INTER-LIGAND FREE ENERGY PREDICTED BY IDOCK:   -6.67 KCAL/MOL
REMARK 924 INTRA-LIGAND FREE ENERGY PREDICTED BY IDOCK:    1.10 KCAL/MOL
REMARK 927      BINDING AFFINITY PREDICTED BY RF-SCORE:    0.00 PKD
ROOT
HETATM    1  C   UNL     1      -8.651  12.479  67.415  1.00  0.00    -0.187 C  
HETATM    2  C   UNL     1      -8.743  11.557  66.350  1.00  0.00    -0.179 C  
HETATM    3  C   UNL     1     -10.122  11.969  66.821  1.00  0.00    -0.223 C  
HETATM    4  C   UNL     1     -10.967  11.496  65.445  1.00  0.00    -0.288 C  
HETATM    5  C   UNL     1     -10.174  13.543  68.177  1.00  0.00    -0.249 C  
HETATM    6  O   UNL     1      -8.948  14.303  68.522  1.00  0.00    -0.188 OA 
HETATM    7  C   UNL     1     -11.011   8.255  69.332  1.00  0.00    -0.013 C  
HETATM    8  C   UNL     1     -10.260  13.391  66.830  1.00  0.00    -0.252 C  
HETATM    9  C   UNL     1     -11.893  12.745  67.657  1.00  0.00    -0.396 C  
HETATM   10  C   UNL     1     -10.015  14.375  65.689  1.00  0.00    -0.365 C  
HETATM   11  C   UNL     1     -10.078   9.325  70.048  1.00  0.00    -0.240 C  
HETATM   12  C   UNL     1     -10.571   9.306  71.484  1.00  0.00    -0.405 C  
HETATM   13  H   UNL     1      -8.971  15.022  69.142  1.00  0.00     0.000 HD 
HETATM   14  C   UNL     1     -11.560  11.532  68.987  1.00  0.00    -0.318 C  
HETATM   15  C   UNL     1     -10.035   8.438  72.377  1.00  0.00    -0.380 C  
HETATM   16  O   UNL     1     -11.773  12.227  70.223  1.00  0.00    -0.509 OA 
HETATM   17  C   UNL     1     -10.080  10.586  69.072  1.00  0.00    -0.217 C  
HETATM   18  C   UNL     1      -8.780  11.560  68.952  1.00  0.00     0.031 C  
HETATM   19  F   UNL     1      -9.935   9.790  67.909  1.00  0.00    -0.163 F  
HETATM   20  H   UNL     1     -11.600  11.597  70.914  1.00  0.00     0.000 HD 
HETATM   21  C   UNL     1      -7.474  10.769  69.145  1.00  0.00    -0.123 C  
HETATM   22  C   UNL     1      -7.560   9.823  70.329  1.00  0.00    -0.172 C  
HETATM   23  C   UNL     1      -8.630   8.778  70.103  1.00  0.00    -0.149 C  
HETATM   24  F   UNL     1      -6.338   9.240  70.483  1.00  0.00    -0.040 F  
HETATM   25  C   UNL     1      -8.428   7.533  70.583  1.00  0.00    -0.132 C  
HETATM   26  C   UNL     1      -8.881   7.532  72.022  1.00  0.00    -0.117 C  
HETATM   27  O   UNL     1      -8.373   6.784  72.846  1.00  0.00    -0.116 OA 
ENDROOT
BRANCH   5  28
HETATM   28  C   UNL     1     -11.065  15.022  68.272  1.00  0.00    -0.286 C  
HETATM   29  C   UNL     1     -11.922  15.269  69.508  1.00  0.00    -0.330 C  
HETATM   30  O   UNL     1     -11.072  15.950  67.448  1.00  0.00    -0.301 OA 
HETATM   31 CL   UNL     1     -10.920  15.435  70.949  1.00  0.00    -0.364 Cl 
ENDBRANCH   5  28
TORSDOF 1
ENDMDL
MODEL       19
REMARK 921   NORMALIZED FREE ENERGY PREDICTED BY IDOCK:   -6.36 KCAL/MOL
REMARK 922        TOTAL FREE ENERGY PREDICTED BY IDOCK:   -5.50 KCAL/MOL
REMARK 923 INTER-LIGAND FREE ENERGY PREDICTED BY IDOCK:   -6.64 KCAL/MOL
REMARK 924 INTRA-LIGAND FREE ENERGY PREDICTED BY IDOCK:    1.13 KCAL/MOL
REMARK 927      BINDING AFFINITY PREDICTED BY RF-SCORE:    0.00 PKD
ROOT
HETATM    1  C   UNL     1     -11.065   7.385  72.397  1.00  0.00    -0.331 C  
HETATM    2  C   UNL     1     -11.850   6.618  71.510  1.00  0.00    -0.387 C  
HETATM    3  C   UNL     1     -10.375   6.417  71.230  1.00  0.00    -0.244 C  
HETATM    4  C   UNL     1     -10.517   4.978  70.368  1.00  0.00    -0.237 C  
HETATM    5  C   UNL     1      -9.076   7.235  72.631  1.00  0.00    -0.139 C  
HETATM    6  O   UNL     1      -9.580   7.828  73.893  1.00  0.00    -0.365 OA 
HETATM    7  C   UNL     1     -10.085   9.208  67.622  1.00  0.00    -0.273 C  
HETATM    8  C   UNL     1      -9.673   6.034  72.413  1.00  0.00    -0.172 C  
HETATM    9  C   UNL     1      -8.276   6.307  71.094  1.00  0.00    -0.123 C  
HETATM   10  C   UNL     1      -9.970   4.873  73.359  1.00  0.00    -0.183 C  
HETATM   11  C   UNL     1     -10.062   9.948  69.029  1.00  0.00    -0.199 C  
HETATM   12  C   UNL     1      -9.037  11.049  68.823  1.00  0.00    -0.161 C  
HETATM   13  H   UNL     1      -8.986   8.202  74.534  1.00  0.00     0.000 HD 
HETATM   14  C   UNL     1      -8.448   7.912  70.228  1.00  0.00    -0.128 C  
HETATM   15  C   UNL     1      -9.422  12.257  68.343  1.00  0.00    -0.175 C  
HETATM   16  O   UNL     1      -7.438   8.770  70.776  1.00  0.00    -0.066 OA 
HETATM   17  C   UNL     1      -9.975   8.774  70.106  1.00  0.00    -0.184 C  
HETATM   18  C   UNL     1     -10.656   8.929  71.577  1.00  0.00    -0.399 C  
HETATM   19  F   UNL     1     -10.939   7.979  69.439  1.00  0.00    -0.224 F  
HETATM   20  H   UNL     1      -7.527   9.603  70.327  1.00  0.00     0.000 HD 
HETATM   21  C   UNL     1     -11.932   9.786  71.510  1.00  0.00    -0.488 C  
HETATM   22  C   UNL     1     -11.727  11.037  70.675  1.00  0.00    -0.269 C  
HETATM   23  C   UNL     1     -11.412  10.677  69.240  1.00  0.00    -0.351 C  
HETATM   24  F   UNL     1     -12.868  11.777  70.750  1.00  0.00    -0.354 F  
HETATM   25  C   UNL     1     -11.873  11.479  68.258  1.00  0.00    -0.327 C  
HETATM   26  C   UNL     1     -10.871  12.594  68.086  1.00  0.00    -0.227 C  
HETATM   27  O   UNL     1     -11.215  13.701  67.697  1.00  0.00    -0.262 OA 
ENDROOT
BRANCH   5  28
HETATM   28  C   UNL     1      -7.715   6.630  73.508  1.00  0.00    -0.090 C  
HETATM   29  C   UNL     1      -6.472   7.506  73.605  1.00  0.00    -0.073 C  
HETATM   30  O   UNL     1      -7.631   5.549  74.113  1.00  0.00    -0.092 OA 
HETATM   31 CL   UNL     1      -6.799   8.965  74.538  1.00  0.00    -0.118 Cl 
ENDBRANCH   5  28
TORSDOF 1
ENDMDL
MODEL       20
REMARK 921   NORMALIZED FREE ENERGY PREDICTED BY IDOCK:   -6.35 KCAL/MOL
REMARK 922        TOTAL FREE ENERGY PREDICTED BY IDOCK:   -5.49 KCAL/MOL
REMARK 923 INTER-LIGAND FREE ENERGY PREDICTED BY IDOCK:   -6.96 KCAL/MOL
REMARK 924 INTRA-LIGAND FREE ENERGY PREDICTED BY IDOCK:    1.47 KCAL/MOL
REMARK 927      BINDING AFFINITY PREDICTED BY RF-SCORE:    0.00 PKD
ROOT
HETATM    1  C   UNL     1      -8.039  11.137  67.435  1.00  0.00    -0.132 C  
HETATM    2  C   UNL     1      -8.998  10.744  68.393  1.00  0.00    -0.153 C  
HETATM    3  C   UNL     1      -9.532  10.547  66.988  1.00  0.00    -0.188 C  
HETATM    4  C   UNL     1     -10.764   9.470  67.378  1.00  0.00    -0.297 C  
HETATM    5  C   UNL     1      -8.146  10.792  65.459  1.00  0.00    -0.084 C  
HETATM    6  O   UNL     1      -6.705  10.984  65.750  1.00  0.00    -0.333 OA 
HETATM    7  C   UNL     1     -12.113  14.316  66.818  1.00  0.00    -0.446 C  
HETATM    8  C   UNL     1      -8.634   9.764  66.200  1.00  0.00    -0.138 C  
HETATM    9  C   UNL     1      -9.990  10.352  64.942  1.00  0.00    -0.409 C  
HETATM   10  C   UNL     1      -8.058   8.384  66.509  1.00  0.00    -0.101 C  
HETATM   11  C   UNL     1     -10.565  14.567  66.557  1.00  0.00    -0.297 C  
HETATM   12  C   UNL     1     -10.566  15.608  65.451  1.00  0.00    -0.436 C  
HETATM   13  H   UNL     1      -6.071  11.097  65.051  1.00  0.00     0.000 HD 
HETATM   14  C   UNL     1     -10.289  12.156  65.041  1.00  0.00    -0.287 C  
HETATM   15  C   UNL     1     -10.593  16.928  65.759  1.00  0.00    -0.238 C  
HETATM   16  O   UNL     1      -9.652  12.728  63.890  1.00  0.00    -0.651 OA 
HETATM   17  C   UNL     1      -9.923  13.109  66.472  1.00  0.00    -0.268 C  
HETATM   18  C   UNL     1      -8.395  12.832  66.961  1.00  0.00    -0.123 C  
HETATM   19  F   UNL     1     -10.659  12.631  67.584  1.00  0.00    -0.210 F  
HETATM   20  H   UNL     1      -9.807  13.665  63.941  1.00  0.00     0.000 HD 
HETATM   21  C   UNL     1      -8.014  13.746  68.139  1.00  0.00    -0.150 C  
HETATM   22  C   UNL     1      -8.446  15.181  67.898  1.00  0.00    -0.149 C  
HETATM   23  C   UNL     1      -9.951  15.276  67.789  1.00  0.00    -0.224 C  
HETATM   24  F   UNL     1      -7.987  15.931  68.940  1.00  0.00    -0.151 F  
HETATM   25  C   UNL     1     -10.565  16.378  68.272  1.00  0.00    -0.318 C  
HETATM   26  C   UNL     1     -10.527  17.422  67.184  1.00  0.00    -0.305 C  
HETATM   27  O   UNL     1     -10.505  18.615  67.451  1.00  0.00    -0.384 OA 
ENDROOT
BRANCH   5  28
HETATM   28  C   UNL     1      -7.698   9.853  64.079  1.00  0.00    -0.141 C  
HETATM   29  C   UNL     1      -6.228   9.815  63.679  1.00  0.00    -0.116 C  
HETATM   30  O   UNL     1      -8.443   9.160  63.366  1.00  0.00    -0.189 OA 
HETATM   31 CL   UNL     1      -5.259   9.009  64.911  1.00  0.00    -0.038 Cl 
ENDBRANCH   5  28
TORSDOF 1
ENDMDL
MODEL       21
REMARK 921   NORMALIZED FREE ENERGY PREDICTED BY IDOCK:   -6.34 KCAL/MOL
REMARK 922        TOTAL FREE ENERGY PREDICTED BY IDOCK:   -5.48 KCAL/MOL
REMARK 923 INTER-LIGAND FREE ENERGY PREDICTED BY IDOCK:   -6.59 KCAL/MOL
REMARK 924 INTRA-LIGAND FREE ENERGY PREDICTED BY IDOCK:    1.11 KCAL/MOL
REMARK 927      BINDING AFFINITY PREDICTED BY RF-SCORE:    0.00 PKD
ROOT
HETATM    1  C   UNL     1     -10.247   9.746  65.903  1.00  0.00    -0.245 C  
HETATM    2  C   UNL     1      -9.379  10.073  64.838  1.00  0.00    -0.324 C  
HETATM    3  C   UNL     1      -8.593   9.788  66.102  1.00  0.00    -0.138 C  
HETATM    4  C   UNL     1      -7.106   9.503  65.367  1.00  0.00    -0.095 C  
HETATM    5  C   UNL     1      -9.689   9.002  67.683  1.00  0.00    -0.156 C  
HETATM    6  O   UNL     1     -11.107   8.603  67.513  1.00  0.00    -0.457 OA 
HETATM    7  C   UNL     1      -7.812  14.133  67.288  1.00  0.00    -0.154 C  
HETATM    8  C   UNL     1      -8.946   8.519  66.654  1.00  0.00    -0.178 C  
HETATM    9  C   UNL     1      -7.771   9.310  67.981  1.00  0.00    -0.088 C  
HETATM   10  C   UNL     1      -8.941   7.153  65.971  1.00  0.00    -0.141 C  
HETATM   11  C   UNL     1      -9.261  13.598  67.666  1.00  0.00    -0.213 C  
HETATM   12  C   UNL     1      -9.512  14.218  69.029  1.00  0.00     0.009 C  
HETATM   13  H   UNL     1     -11.608   8.243  68.236  1.00  0.00     0.000 HD 
HETATM   14  C   UNL     1      -8.266  11.020  68.410  1.00  0.00    -0.137 C  
HETATM   15  C   UNL     1     -10.084  15.443  69.125  1.00  0.00    -0.235 C  
HETATM   16  O   UNL     1      -8.887  10.943  69.700  1.00  0.00    -0.373 OA 
HETATM   17  C   UNL     1      -9.219  12.038  67.338  1.00  0.00    -0.180 C  
HETATM   18  C   UNL     1     -10.552  11.245  66.844  1.00  0.00    -0.300 C  
HETATM   19  F   UNL     1      -8.541  12.230  66.109  1.00  0.00    -0.101 F  
HETATM   20  H   UNL     1      -9.145  11.830  69.923  1.00  0.00     0.000 HD 
HETATM   21  C   UNL     1     -11.461  12.158  66.003  1.00  0.00    -0.427 C  
HETATM   22  C   UNL     1     -11.630  13.525  66.642  1.00  0.00    -0.363 C  
HETATM   23  C   UNL     1     -10.303  14.246  66.722  1.00  0.00    -0.274 C  
HETATM   24  F   UNL     1     -12.519  14.228  65.887  1.00  0.00    -0.420 F  
HETATM   25  C   UNL     1     -10.287  15.586  66.565  1.00  0.00    -0.293 C  
HETATM   26  C   UNL     1     -10.577  16.197  67.914  1.00  0.00    -0.309 C  
HETATM   27  O   UNL     1     -11.134  17.281  68.013  1.00  0.00    -0.289 OA 
ENDROOT
BRANCH   5  28
HETATM   28  C   UNL     1      -9.479   7.650  68.738  1.00  0.00    -0.152 C  
HETATM   29  C   UNL     1      -9.389   7.912  70.237  1.00  0.00    -0.159 C  
HETATM   30  O   UNL     1      -9.419   6.451  68.422  1.00  0.00    -0.121 OA 
HETATM   31 CL   UNL     1     -10.914   8.538  70.861  1.00  0.00    -0.278 Cl 
ENDBRANCH   5  28
TORSDOF 1
ENDMDL
MODEL       22
REMARK 921   NORMALIZED FREE ENERGY PREDICTED BY IDOCK:   -6.33 KCAL/MOL
REMARK 922        TOTAL FREE ENERGY PREDICTED BY IDOCK:   -5.47 KCAL/MOL
REMARK 923 INTER-LIGAND FREE ENERGY PREDICTED BY IDOCK:   -6.97 KCAL/MOL
REMARK 924 INTRA-LIGAND FREE ENERGY PREDICTED BY IDOCK:    1.50 KCAL/MOL
REMARK 927      BINDING AFFINITY PREDICTED BY RF-SCORE:    0.00 PKD
ROOT
HETATM    1  C   UNL     1     -11.126  14.799  66.628  1.00  0.00    -0.333 C  
HETATM    2  C   UNL     1     -11.986  14.144  67.535  1.00  0.00    -0.419 C  
HETATM    3  C   UNL     1     -10.677  14.506  68.205  1.00  0.00    -0.240 C  
HETATM    4  C   UNL     1     -11.213  14.392  69.796  1.00  0.00    -0.251 C  
HETATM    5  C   UNL     1      -9.416  15.738  67.104  1.00  0.00    -0.213 C  
HETATM    6  O   UNL     1      -9.856  16.342  65.824  1.00  0.00    -0.421 OA 
HETATM    7  C   UNL     1      -8.743  10.371  67.967  1.00  0.00    -0.123 C  
HETATM    8  C   UNL     1     -10.382  15.894  68.045  1.00  0.00    -0.262 C  
HETATM    9  C   UNL     1      -8.789  15.158  68.874  1.00  0.00    -0.205 C  
HETATM   10  C   UNL     1     -11.255  17.096  68.401  1.00  0.00     0.036 C  
HETATM   11  C   UNL     1      -8.673  11.209  66.617  1.00  0.00    -0.166 C  
HETATM   12  C   UNL     1      -7.285  10.893  66.088  1.00  0.00    -0.101 C  
HETATM   13  H   UNL     1      -9.279  16.906  65.320  1.00  0.00     0.000 HD 
HETATM   14  C   UNL     1      -8.186  13.664  68.004  1.00  0.00    -0.162 C  
HETATM   15  C   UNL     1      -7.092   9.823  65.278  1.00  0.00    -0.119 C  
HETATM   16  O   UNL     1      -7.031  14.075  67.260  1.00  0.00    -0.334 OA 
HETATM   17  C   UNL     1      -9.223  12.655  67.005  1.00  0.00    -0.212 C  
HETATM   18  C   UNL     1     -10.026  13.568  65.923  1.00  0.00    -0.295 C  
HETATM   19  F   UNL     1     -10.292  12.133  67.772  1.00  0.00    -0.194 F  
HETATM   20  H   UNL     1      -6.718  13.300  66.809  1.00  0.00     0.000 HD 
HETATM   21  C   UNL     1     -10.846  12.693  64.958  1.00  0.00    -0.321 C  
HETATM   22  C   UNL     1     -10.041  11.512  64.448  1.00  0.00    -0.282 C  
HETATM   23  C   UNL     1      -9.654  10.596  65.588  1.00  0.00    -0.268 C  
HETATM   24  F   UNL     1     -10.807  10.852  63.535  1.00  0.00    -0.397 F  
HETATM   25  C   UNL     1      -9.602   9.267  65.358  1.00  0.00    -0.237 C  
HETATM   26  C   UNL     1      -8.236   8.965  64.794  1.00  0.00    -0.163 C  
HETATM   27  O   UNL     1      -8.059   8.029  64.027  1.00  0.00    -0.150 OA 
ENDROOT
BRANCH   5  28
HETATM   28  C   UNL     1      -8.557  17.198  67.449  1.00  0.00    -0.203 C  
HETATM   29  C   UNL     1      -8.514  18.279  66.376  1.00  0.00    -0.244 C  
HETATM   30  O   UNL     1      -7.978  17.499  68.505  1.00  0.00    -0.255 OA 
HETATM   31 CL   UNL     1     -10.120  18.944  66.083  1.00  0.00    -0.438 Cl 
ENDBRANCH   5  28
TORSDOF 1
ENDMDL
MODEL       23
REMARK 921   NORMALIZED FREE ENERGY PREDICTED BY IDOCK:   -6.33 KCAL/MOL
REMARK 922        TOTAL FREE ENERGY PREDICTED BY IDOCK:   -5.47 KCAL/MOL
REMARK 923 INTER-LIGAND FREE ENERGY PREDICTED BY IDOCK:   -6.57 KCAL/MOL
REMARK 924 INTRA-LIGAND FREE ENERGY PREDICTED BY IDOCK:    1.10 KCAL/MOL
REMARK 927      BINDING AFFINITY PREDICTED BY RF-SCORE:    0.00 PKD
ROOT
HETATM    1  C   UNL     1     -11.441   7.610  71.857  1.00  0.00    -0.313 C  
HETATM    2  C   UNL     1     -12.193   6.985  70.839  1.00  0.00    -0.388 C  
HETATM    3  C   UNL     1     -10.717   6.693  70.669  1.00  0.00    -0.286 C  
HETATM    4  C   UNL     1     -10.880   5.349  69.670  1.00  0.00    -0.158 C  
HETATM    5  C   UNL     1      -9.497   7.283  72.245  1.00  0.00    -0.142 C  
HETATM    6  O   UNL     1     -10.072   7.804  73.509  1.00  0.00    -0.319 OA 
HETATM    7  C   UNL     1      -9.896   9.749  67.371  1.00  0.00    -0.219 C  
HETATM    8  C   UNL     1     -10.156   6.157  71.868  1.00  0.00    -0.216 C  
HETATM    9  C   UNL     1      -8.627   6.429  70.704  1.00  0.00    -0.139 C  
HETATM   10  C   UNL     1     -10.621   4.946  72.675  1.00  0.00    -0.272 C  
HETATM   11  C   UNL     1      -9.951  10.362  68.837  1.00  0.00    -0.208 C  
HETATM   12  C   UNL     1      -8.835  11.392  68.822  1.00  0.00    -0.076 C  
HETATM   13  H   UNL     1      -9.515   8.075  74.230  1.00  0.00     0.000 HD 
HETATM   14  C   UNL     1      -8.603   8.110  69.978  1.00  0.00    -0.129 C  
HETATM   15  C   UNL     1      -9.088  12.664  68.424  1.00  0.00    -0.128 C  
HETATM   16  O   UNL     1      -7.590   8.836  70.687  1.00  0.00    -0.069 OA 
HETATM   17  C   UNL     1     -10.048   9.098  69.805  1.00  0.00    -0.199 C  
HETATM   18  C   UNL     1     -10.848   9.181  71.220  1.00  0.00    -0.402 C  
HETATM   19  F   UNL     1     -11.000   8.442  68.988  1.00  0.00    -0.186 F  
HETATM   20  H   UNL     1      -7.578   9.709  70.311  1.00  0.00     0.000 HD 
HETATM   21  C   UNL     1     -12.049  10.138  71.124  1.00  0.00    -0.485 C  
HETATM   22  C   UNL     1     -11.679  11.436  70.428  1.00  0.00    -0.268 C  
HETATM   23  C   UNL     1     -11.259  11.175  68.998  1.00  0.00    -0.318 C  
HETATM   24  F   UNL     1     -12.767  12.255  70.472  1.00  0.00    -0.292 F  
HETATM   25  C   UNL     1     -11.569  12.093  68.058  1.00  0.00    -0.411 C  
HETATM   26  C   UNL     1     -10.479  13.135  68.076  1.00  0.00    -0.239 C  
HETATM   27  O   UNL     1     -10.705  14.295  67.762  1.00  0.00    -0.247 OA 
ENDROOT
BRANCH   5  28
HETATM   28  C   UNL     1      -8.270   6.500  73.177  1.00  0.00    -0.113 C  
HETATM   29  C   UNL     1      -6.932   7.208  73.347  1.00  0.00    -0.072 C  
HETATM   30  O   UNL     1      -8.354   5.411  73.767  1.00  0.00    -0.111 OA 
HETATM   31 CL   UNL     1      -7.116   8.688  74.288  1.00  0.00    -0.162 Cl 
ENDBRANCH   5  28
TORSDOF 1
ENDMDL
MODEL       24
REMARK 921   NORMALIZED FREE ENERGY PREDICTED BY IDOCK:   -6.28 KCAL/MOL
REMARK 922        TOTAL FREE ENERGY PREDICTED BY IDOCK:   -5.42 KCAL/MOL
REMARK 923 INTER-LIGAND FREE ENERGY PREDICTED BY IDOCK:   -6.51 KCAL/MOL
REMARK 924 INTRA-LIGAND FREE ENERGY PREDICTED BY IDOCK:    1.09 KCAL/MOL
REMARK 927      BINDING AFFINITY PREDICTED BY RF-SCORE:    0.00 PKD
ROOT
HETATM    1  C   UNL     1      -8.080   8.765  66.528  1.00  0.00    -0.103 C  
HETATM    2  C   UNL     1      -6.926   9.469  66.124  1.00  0.00    -0.091 C  
HETATM    3  C   UNL     1      -7.222   9.721  67.588  1.00  0.00    -0.089 C  
HETATM    4  C   UNL     1      -5.693  10.274  68.022  1.00  0.00    -0.041 C  
HETATM    5  C   UNL     1      -8.707   8.530  68.422  1.00  0.00    -0.143 C  
HETATM    6  O   UNL     1      -9.308   7.407  67.663  1.00  0.00    -0.132 OA 
HETATM    7  C   UNL     1      -9.180  13.821  67.086  1.00  0.00    -0.245 C  
HETATM    8  C   UNL     1      -7.354   8.493  68.306  1.00  0.00    -0.094 C  
HETATM    9  C   UNL     1      -7.854   9.858  69.593  1.00  0.00    -0.156 C  
HETATM   10  C   UNL     1      -6.369   7.329  68.385  1.00  0.00    -0.036 C  
HETATM   11  C   UNL     1     -10.133  12.592  66.757  1.00  0.00    -0.233 C  
HETATM   12  C   UNL     1     -11.469  13.028  67.333  1.00  0.00    -0.380 C  
HETATM   13  H   UNL     1      -9.988   6.862  68.044  1.00  0.00     0.000 HD 
HETATM   14  C   UNL     1      -9.090  11.027  68.914  1.00  0.00    -0.123 C  
HETATM   15  C   UNL     1     -12.340  13.736  66.573  1.00  0.00    -0.432 C  
HETATM   16  O   UNL     1     -10.343  10.675  69.516  1.00  0.00    -0.267 OA 
HETATM   17  C   UNL     1      -9.301  11.302  67.190  1.00  0.00    -0.163 C  
HETATM   18  C   UNL     1      -9.479   9.884  66.410  1.00  0.00    -0.234 C  
HETATM   19  F   UNL     1      -8.099  11.783  66.616  1.00  0.00    -0.162 F  
HETATM   20  H   UNL     1     -10.985  11.282  69.163  1.00  0.00     0.000 HD 
HETATM   21  C   UNL     1      -9.787  10.106  64.919  1.00  0.00    -0.390 C  
HETATM   22  C   UNL     1     -10.842  11.178  64.716  1.00  0.00    -0.207 C  
HETATM   23  C   UNL     1     -10.351  12.515  65.226  1.00  0.00    -0.310 C  
HETATM   24  F   UNL     1     -11.119  11.240  63.383  1.00  0.00    -0.449 F  
HETATM   25  C   UNL     1     -10.728  13.633  64.571  1.00  0.00    -0.420 C  
HETATM   26  C   UNL     1     -12.074  14.039  65.118  1.00  0.00    -0.410 C  
HETATM   27  O   UNL     1     -12.885  14.638  64.427  1.00  0.00    -0.578 OA 
ENDROOT
BRANCH   5  28
HETATM   28  C   UNL     1      -8.815   7.565  69.852  1.00  0.00    -0.141 C  
HETATM   29  C   UNL     1      -9.941   7.859  70.836  1.00  0.00    -0.182 C  
HETATM   30  O   UNL     1      -8.085   6.615  70.175  1.00  0.00    -0.119 OA 
HETATM   31 CL   UNL     1     -11.513   7.503  70.122  1.00  0.00    -0.179 Cl 
ENDBRANCH   5  28
TORSDOF 1
ENDMDL
MODEL       25
REMARK 921   NORMALIZED FREE ENERGY PREDICTED BY IDOCK:   -6.13 KCAL/MOL
REMARK 922        TOTAL FREE ENERGY PREDICTED BY IDOCK:   -5.26 KCAL/MOL
REMARK 923 INTER-LIGAND FREE ENERGY PREDICTED BY IDOCK:   -6.37 KCAL/MOL
REMARK 924 INTRA-LIGAND FREE ENERGY PREDICTED BY IDOCK:    1.11 KCAL/MOL
REMARK 927      BINDING AFFINITY PREDICTED BY RF-SCORE:    0.00 PKD
ROOT
HETATM    1  C   UNL     1      -8.432  16.001  69.371  1.00  0.00    -0.146 C  
HETATM    2  C   UNL     1      -7.563  14.890  69.402  1.00  0.00    -0.162 C  
HETATM    3  C   UNL     1      -7.198  15.824  68.266  1.00  0.00    -0.118 C  
HETATM    4  C   UNL     1      -5.629  15.263  68.025  1.00  0.00    -0.146 C  
HETATM    5  C   UNL     1      -8.181  17.654  68.258  1.00  0.00    -0.276 C  
HETATM    6  O   UNL     1      -9.054  18.064  69.385  1.00  0.00     0.163 OA 
HETATM    7  C   UNL     1      -9.170  13.442  64.900  1.00  0.00     1.203 C  
HETATM    8  C   UNL     1      -7.011  17.159  68.737  1.00  0.00    -0.217 C  
HETATM    9  C   UNL     1      -6.904  17.312  66.805  1.00  0.00    -0.251 C  
HETATM   10  C   UNL     1      -6.091  17.652  69.852  1.00  0.00    -0.178 C  
HETATM   11  C   UNL     1     -10.176  14.329  65.755  1.00  0.00    -0.351 C  
HETATM   12  C   UNL     1     -11.131  14.873  64.708  1.00  0.00    -0.395 C  
HETATM   13  H   UNL     1      -9.504  18.901  69.382  1.00  0.00     0.000 HD 
HETATM   14  C   UNL     1      -8.308  16.487  65.968  1.00  0.00    -0.128 C  
HETATM   15  C   UNL     1     -12.243  14.173  64.371  1.00  0.00    -0.466 C  
HETATM   16  O   UNL     1      -9.180  17.535  65.526  1.00  0.00    -0.261 OA 
HETATM   17  C   UNL     1      -9.241  15.196  66.714  1.00  0.00    -0.254 C  
HETATM   18  C   UNL     1      -9.742  15.645  68.196  1.00  0.00    -0.204 C  
HETATM   19  F   UNL     1      -8.403  14.098  67.027  1.00  0.00    -0.199 F  
HETATM   20  H   UNL     1      -9.910  17.107  65.092  1.00  0.00     0.000 HD 
HETATM   21  C   UNL     1     -10.662  14.579  68.818  1.00  0.00    -0.257 C  
HETATM   22  C   UNL     1     -11.699  14.084  67.825  1.00  0.00    -0.368 C  
HETATM   23  C   UNL     1     -11.033  13.402  66.652  1.00  0.00    -0.297 C  
HETATM   24  F   UNL     1     -12.523  13.222  68.484  1.00  0.00    -0.270 F  
HETATM   25  C   UNL     1     -11.652  12.346  66.083  1.00  0.00    -0.452 C  
HETATM   26  C   UNL     1     -12.630  12.894  65.073  1.00  0.00    -0.472 C  
HETATM   27  O   UNL     1     -13.658  12.293  64.795  1.00  0.00    -0.330 OA 
ENDROOT
BRANCH   5  28
HETATM   28  C   UNL     1      -7.665  19.298  68.118  1.00  0.00    -0.297 C  
HETATM   29  C   UNL     1      -8.209  20.128  66.961  1.00  0.00    -0.327 C  
HETATM   30  O   UNL     1      -6.905  19.915  68.881  1.00  0.00    -0.323 OA 
HETATM   31 CL   UNL     1      -9.946  20.379  67.126  1.00  0.00    -0.592 Cl 
ENDBRANCH   5  28
TORSDOF 1
ENDMDL
MODEL       26
REMARK 921   NORMALIZED FREE ENERGY PREDICTED BY IDOCK:   -6.09 KCAL/MOL
REMARK 922        TOTAL FREE ENERGY PREDICTED BY IDOCK:   -5.22 KCAL/MOL
REMARK 923 INTER-LIGAND FREE ENERGY PREDICTED BY IDOCK:   -6.35 KCAL/MOL
REMARK 924 INTRA-LIGAND FREE ENERGY PREDICTED BY IDOCK:    1.13 KCAL/MOL
REMARK 927      BINDING AFFINITY PREDICTED BY RF-SCORE:    0.00 PKD
ROOT
HETATM    1  C   UNL     1     -10.764   8.365  71.411  1.00  0.00    -0.298 C  
HETATM    2  C   UNL     1     -11.761   7.626  70.740  1.00  0.00    -0.260 C  
HETATM    3  C   UNL     1     -10.380   7.187  70.298  1.00  0.00    -0.214 C  
HETATM    4  C   UNL     1     -10.827   5.697  69.654  1.00  0.00    -0.365 C  
HETATM    5  C   UNL     1      -8.797   7.959  71.401  1.00  0.00    -0.135 C  
HETATM    6  O   UNL     1      -9.032   8.752  72.632  1.00  0.00    -0.380 OA 
HETATM    7  C   UNL     1     -10.274   9.497  66.355  1.00  0.00    -0.302 C  
HETATM    8  C   UNL     1      -9.566   6.840  71.419  1.00  0.00    -0.170 C  
HETATM    9  C   UNL     1      -8.355   6.765  69.904  1.00  0.00    -0.135 C  
HETATM   10  C   UNL     1      -9.865   5.843  72.537  1.00  0.00    -0.179 C  
HETATM   11  C   UNL     1      -9.952  10.375  67.641  1.00  0.00    -0.205 C  
HETATM   12  C   UNL     1      -8.837  11.289  67.163  1.00  0.00    -0.153 C  
HETATM   13  H   UNL     1      -8.308   9.106  73.136  1.00  0.00     0.000 HD 
HETATM   14  C   UNL     1      -8.448   8.273  68.870  1.00  0.00    -0.128 C  
HETATM   15  C   UNL     1      -9.134  12.481  66.587  1.00  0.00    -0.203 C  
HETATM   16  O   UNL     1      -7.269   9.033  69.167  1.00  0.00    -0.065 OA 
HETATM   17  C   UNL     1      -9.856   9.326  68.839  1.00  0.00    -0.165 C  
HETATM   18  C   UNL     1     -10.289   9.736  70.354  1.00  0.00    -0.354 C  
HETATM   19  F   UNL     1     -11.000   8.608  68.411  1.00  0.00    -0.173 F  
HETATM   20  H   UNL     1      -7.317   9.817  68.631  1.00  0.00     0.000 HD 
HETATM   21  C   UNL     1     -11.443  10.754  70.345  1.00  0.00    -0.397 C  
HETATM   22  C   UNL     1     -11.206  11.864  69.337  1.00  0.00    -0.211 C  
HETATM   23  C   UNL     1     -11.153  11.308  67.932  1.00  0.00    -0.325 C  
HETATM   24  F   UNL     1     -12.222  12.763  69.465  1.00  0.00    -0.322 F  
HETATM   25  C   UNL     1     -11.649  12.056  66.923  1.00  0.00    -0.389 C  
HETATM   26  C   UNL     1     -10.550  12.991  66.480  1.00  0.00    -0.282 C  
HETATM   27  O   UNL     1     -10.805  14.086  66.001  1.00  0.00    -0.290 OA 
ENDROOT
BRANCH   5  28
HETATM   28  C   UNL     1      -7.410   7.266  72.163  1.00  0.00    -0.079 C  
HETATM   29  C   UNL     1      -6.030   7.720  71.700  1.00  0.00    -0.035 C  
HETATM   30  O   UNL     1      -7.395   6.440  73.090  1.00  0.00    -0.086 OA 
HETATM   31 CL   UNL     1      -5.761   9.418  72.088  1.00  0.00    -0.047 Cl 
ENDBRANCH   5  28
TORSDOF 1
ENDMDL
MODEL       27
REMARK 921   NORMALIZED FREE ENERGY PREDICTED BY IDOCK:   -6.05 KCAL/MOL
REMARK 922        TOTAL FREE ENERGY PREDICTED BY IDOCK:   -5.17 KCAL/MOL
REMARK 923 INTER-LIGAND FREE ENERGY PREDICTED BY IDOCK:   -6.31 KCAL/MOL
REMARK 924 INTRA-LIGAND FREE ENERGY PREDICTED BY IDOCK:    1.14 KCAL/MOL
REMARK 927      BINDING AFFINITY PREDICTED BY RF-SCORE:    0.00 PKD
ROOT
HETATM    1  C   UNL     1      -9.792   8.075  66.705  1.00  0.00    -0.327 C  
HETATM    2  C   UNL     1      -8.518   8.205  66.112  1.00  0.00    -0.143 C  
HETATM    3  C   UNL     1      -8.412   8.245  67.623  1.00  0.00    -0.130 C  
HETATM    4  C   UNL     1      -6.771   7.884  67.731  1.00  0.00    -0.068 C  
HETATM    5  C   UNL     1     -10.150   7.768  68.658  1.00  0.00    -0.199 C  
HETATM    6  O   UNL     1     -11.353   7.268  67.951  1.00  0.00    -0.458 OA 
HETATM    7  C   UNL     1      -8.019  12.778  68.056  1.00  0.00    -0.160 C  
HETATM    8  C   UNL     1      -9.047   7.111  68.215  1.00  0.00    -0.134 C  
HETATM    9  C   UNL     1      -8.565   8.233  69.724  1.00  0.00    -0.129 C  
HETATM   10  C   UNL     1      -8.807   5.631  67.926  1.00  0.00    -0.105 C  
HETATM   11  C   UNL     1      -9.508  12.265  67.837  1.00  0.00    -0.200 C  
HETATM   12  C   UNL     1     -10.319  13.154  68.763  1.00  0.00    -0.146 C  
HETATM   13  H   UNL     1     -12.149   7.050  68.424  1.00  0.00     0.000 HD 
HETATM   14  C   UNL     1      -9.106   9.967  69.495  1.00  0.00    -0.223 C  
HETATM   15  C   UNL     1     -10.803  14.340  68.317  1.00  0.00    -0.256 C  
HETATM   16  O   UNL     1     -10.251  10.142  70.341  1.00  0.00    -0.398 OA 
HETATM   17  C   UNL     1      -9.407  10.675  67.914  1.00  0.00    -0.148 C  
HETATM   18  C   UNL     1     -10.410   9.725  67.051  1.00  0.00    -0.305 C  
HETATM   19  F   UNL     1      -8.234  10.629  67.121  1.00  0.00    -0.116 F  
HETATM   20  H   UNL     1     -10.532  11.042  70.222  1.00  0.00     0.000 HD 
HETATM   21  C   UNL     1     -10.783  10.384  65.712  1.00  0.00    -0.010 C  
HETATM   22  C   UNL     1     -11.149  11.847  65.888  1.00  0.00    -0.316 C  
HETATM   23  C   UNL     1      -9.966  12.636  66.405  1.00  0.00    -0.262 C  
HETATM   24  F   UNL     1     -11.555  12.321  64.677  1.00  0.00    -0.348 F  
HETATM   25  C   UNL     1      -9.807  13.908  65.985  1.00  0.00    -0.306 C  
HETATM   26  C   UNL     1     -10.647  14.783  66.883  1.00  0.00    -0.294 C  
HETATM   27  O   UNL     1     -11.126  15.832  66.478  1.00  0.00    -0.227 OA 
ENDROOT
BRANCH   5  28
HETATM   28  C   UNL     1     -10.520   6.692  69.959  1.00  0.00    -0.212 C  
HETATM   29  C   UNL     1     -11.066   7.285  71.252  1.00  0.00    -0.247 C  
HETATM   30  O   UNL     1     -10.420   5.455  69.963  1.00  0.00    -0.280 OA 
HETATM   31 CL   UNL     1     -12.659   7.997  70.997  1.00  0.00    -0.159 Cl 
ENDBRANCH   5  28
TORSDOF 1
ENDMDL
MODEL       28
REMARK 921   NORMALIZED FREE ENERGY PREDICTED BY IDOCK:   -6.03 KCAL/MOL
REMARK 922        TOTAL FREE ENERGY PREDICTED BY IDOCK:   -5.15 KCAL/MOL
REMARK 923 INTER-LIGAND FREE ENERGY PREDICTED BY IDOCK:   -6.24 KCAL/MOL
REMARK 924 INTRA-LIGAND FREE ENERGY PREDICTED BY IDOCK:    1.09 KCAL/MOL
REMARK 927      BINDING AFFINITY PREDICTED BY RF-SCORE:    0.00 PKD
ROOT
HETATM    1  C   UNL     1     -10.933   7.239  71.190  1.00  0.00    -0.267 C  
HETATM    2  C   UNL     1     -11.762   6.704  70.181  1.00  0.00    -0.412 C  
HETATM    3  C   UNL     1     -10.301   6.551  69.810  1.00  0.00    -0.234 C  
HETATM    4  C   UNL     1     -10.501   5.348  68.650  1.00  0.00    -0.199 C  
HETATM    5  C   UNL     1      -8.941   7.012  71.311  1.00  0.00    -0.137 C  
HETATM    6  O   UNL     1      -9.391   7.310  72.693  1.00  0.00    -0.136 OA 
HETATM    7  C   UNL     1     -10.066  10.084  66.919  1.00  0.00    -0.287 C  
HETATM    8  C   UNL     1      -9.570   5.900  70.850  1.00  0.00    -0.202 C  
HETATM    9  C   UNL     1      -8.211   6.446  69.576  1.00  0.00    -0.118 C  
HETATM   10  C   UNL     1      -9.862   4.559  71.519  1.00  0.00    -0.260 C  
HETATM   11  C   UNL     1      -9.983  10.484  68.455  1.00  0.00    -0.181 C  
HETATM   12  C   UNL     1      -8.941  11.589  68.467  1.00  0.00    -0.146 C  
HETATM   13  H   UNL     1      -8.769   7.521  73.379  1.00  0.00     0.000 HD 
HETATM   14  C   UNL     1      -8.375   8.207  69.103  1.00  0.00    -0.131 C  
HETATM   15  C   UNL     1      -9.315  12.880  68.287  1.00  0.00    -0.194 C  
HETATM   16  O   UNL     1      -7.330   8.905  69.795  1.00  0.00    -0.053 OA 
HETATM   17  C   UNL     1      -9.886   9.096  69.235  1.00  0.00    -0.175 C  
HETATM   18  C   UNL     1     -10.516   8.923  70.726  1.00  0.00    -0.283 C  
HETATM   19  F   UNL     1     -10.888   8.487  68.440  1.00  0.00    -0.210 F  
HETATM   20  H   UNL     1      -7.415   9.819  69.550  1.00  0.00     0.000 HD 
HETATM   21  C   UNL     1     -11.775   9.790  70.901  1.00  0.00    -0.429 C  
HETATM   22  C   UNL     1     -11.569  11.195  70.364  1.00  0.00    -0.259 C  
HETATM   23  C   UNL     1     -11.309  11.165  68.874  1.00  0.00    -0.344 C  
HETATM   24  F   UNL     1     -12.692  11.914  70.646  1.00  0.00    -0.346 F  
HETATM   25  C   UNL     1     -11.783  12.176  68.117  1.00  0.00    -0.402 C  
HETATM   26  C   UNL     1     -10.763  13.287  68.165  1.00  0.00    -0.249 C  
HETATM   27  O   UNL     1     -11.096  14.458  68.049  1.00  0.00    -0.257 OA 
ENDROOT
BRANCH   5  28
HETATM   28  C   UNL     1      -7.566   6.204  71.979  1.00  0.00    -0.096 C  
HETATM   29  C   UNL     1      -6.234   6.945  71.999  1.00  0.00    -0.041 C  
HETATM   30  O   UNL     1      -7.532   5.072  72.488  1.00  0.00    -0.089 OA 
HETATM   31 CL   UNL     1      -6.304   8.343  73.071  1.00  0.00    -0.102 Cl 
ENDBRANCH   5  28
TORSDOF 1
ENDMDL
MODEL       29
REMARK 921   NORMALIZED FREE ENERGY PREDICTED BY IDOCK:   -6.01 KCAL/MOL
REMARK 922        TOTAL FREE ENERGY PREDICTED BY IDOCK:   -5.13 KCAL/MOL
REMARK 923 INTER-LIGAND FREE ENERGY PREDICTED BY IDOCK:   -6.23 KCAL/MOL
REMARK 924 INTRA-LIGAND FREE ENERGY PREDICTED BY IDOCK:    1.11 KCAL/MOL
REMARK 927      BINDING AFFINITY PREDICTED BY RF-SCORE:    0.00 PKD
ROOT
HETATM    1  C   UNL     1      -8.448  12.131  67.586  1.00  0.00    -0.163 C  
HETATM    2  C   UNL     1      -8.095  11.562  66.344  1.00  0.00    -0.069 C  
HETATM    3  C   UNL     1      -9.595  11.745  66.442  1.00  0.00    -0.234 C  
HETATM    4  C   UNL     1      -9.929  11.657  64.795  1.00  0.00    -0.292 C  
HETATM    5  C   UNL     1     -10.261  12.843  68.076  1.00  0.00    -0.229 C  
HETATM    6  O   UNL     1      -9.307  13.529  68.982  1.00  0.00    -0.389 OA 
HETATM    7  C   UNL     1     -10.642   7.414  67.461  1.00  0.00    -0.340 C  
HETATM    8  C   UNL     1      -9.929  13.091  66.783  1.00  0.00    -0.245 C  
HETATM    9  C   UNL     1     -11.624  12.146  66.844  1.00  0.00    -0.408 C  
HETATM   10  C   UNL     1      -9.505  14.380  66.083  1.00  0.00    -0.271 C  
HETATM   11  C   UNL     1     -10.117   8.271  68.693  1.00  0.00    -0.212 C  
HETATM   12  C   UNL     1     -10.998   7.803  69.838  1.00  0.00    -0.194 C  
HETATM   13  H   UNL     1      -9.611  14.031  69.729  1.00  0.00     0.000 HD 
HETATM   14  C   UNL     1     -11.523  10.613  67.839  1.00  0.00    -0.181 C  
HETATM   15  C   UNL     1     -10.627   6.739  70.591  1.00  0.00    -0.257 C  
HETATM   16  O   UNL     1     -12.182  10.900  69.080  1.00  0.00    -0.582 OA 
HETATM   17  C   UNL     1     -10.013   9.763  68.138  1.00  0.00    -0.154 C  
HETATM   18  C   UNL     1      -8.886  10.794  68.701  1.00  0.00    -0.152 C  
HETATM   19  F   UNL     1      -9.427   9.355  66.915  1.00  0.00    -0.157 F  
HETATM   20  H   UNL     1     -12.130  10.104  69.598  1.00  0.00     0.000 HD 
HETATM   21  C   UNL     1      -7.595  10.050  69.083  1.00  0.00    -0.096 C  
HETATM   22  C   UNL     1      -7.886   8.793  69.883  1.00  0.00    -0.093 C  
HETATM   23  C   UNL     1      -8.686   7.808  69.060  1.00  0.00    -0.135 C  
HETATM   24  F   UNL     1      -6.692   8.255  70.258  1.00  0.00    -0.036 F  
HETATM   25  C   UNL     1      -8.458   6.489  69.232  1.00  0.00    -0.127 C  
HETATM   26  C   UNL     1      -9.304   6.039  70.397  1.00  0.00    -0.160 C  
HETATM   27  O   UNL     1      -8.957   5.108  71.110  1.00  0.00    -0.134 OA 
ENDROOT
BRANCH   5  28
HETATM   28  C   UNL     1     -11.340  14.179  68.270  1.00  0.00    -0.291 C  
HETATM   29  C   UNL     1     -12.423  14.082  69.338  1.00  0.00    -0.068 C  
HETATM   30  O   UNL     1     -11.325  15.254  67.649  1.00  0.00    -0.328 OA 
HETATM   31 CL   UNL     1     -11.717  14.037  70.952  1.00  0.00    -0.236 Cl 
ENDBRANCH   5  28
TORSDOF 1
ENDMDL
MODEL       30
REMARK 921   NORMALIZED FREE ENERGY PREDICTED BY IDOCK:   -5.90 KCAL/MOL
REMARK 922        TOTAL FREE ENERGY PREDICTED BY IDOCK:   -5.01 KCAL/MOL
REMARK 923 INTER-LIGAND FREE ENERGY PREDICTED BY IDOCK:   -6.45 KCAL/MOL
REMARK 924 INTRA-LIGAND FREE ENERGY PREDICTED BY IDOCK:    1.44 KCAL/MOL
REMARK 927      BINDING AFFINITY PREDICTED BY RF-SCORE:    0.00 PKD
ROOT
HETATM    1  C   UNL     1     -11.561  12.245  68.131  1.00  0.00    -0.396 C  
HETATM    2  C   UNL     1     -11.055  12.804  69.324  1.00  0.00    -0.193 C  
HETATM    3  C   UNL     1     -10.174  13.168  68.147  1.00  0.00    -0.239 C  
HETATM    4  C   UNL     1      -9.393  14.476  68.861  1.00  0.00    -0.136 C  
HETATM    5  C   UNL     1     -10.932  12.680  66.274  1.00  0.00    -0.283 C  
HETATM    6  O   UNL     1     -12.312  12.162  66.113  1.00  0.00    -0.536 OA 
HETATM    7  C   UNL     1      -6.894  10.075  68.903  1.00  0.00    -0.054 C  
HETATM    8  C   UNL     1     -10.937  13.762  67.095  1.00  0.00    -0.299 C  
HETATM    9  C   UNL     1      -9.165  13.538  66.335  1.00  0.00    -0.136 C  
HETATM   10  C   UNL     1     -11.872  14.967  67.166  1.00  0.00    -0.229 C  
HETATM   11  C   UNL     1      -8.191   9.497  68.186  1.00  0.00    -0.114 C  
HETATM   12  C   UNL     1      -7.618   8.525  67.169  1.00  0.00    -0.096 C  
HETATM   13  H   UNL     1     -12.659  11.939  65.257  1.00  0.00     0.000 HD 
HETATM   14  C   UNL     1      -8.517  11.843  66.580  1.00  0.00    -0.143 C  
HETATM   15  C   UNL     1      -7.395   7.233  67.514  1.00  0.00    -0.092 C  
HETATM   16  O   UNL     1      -8.626  11.187  65.309  1.00  0.00    -0.356 OA 
HETATM   17  C   UNL     1      -9.083  10.778  67.860  1.00  0.00    -0.150 C  
HETATM   18  C   UNL     1     -10.708  10.691  67.845  1.00  0.00    -0.292 C  
HETATM   19  F   UNL     1      -8.850  11.364  69.128  1.00  0.00    -0.103 F  
HETATM   20  H   UNL     1      -8.290  10.307  65.436  1.00  0.00     0.000 HD 
HETATM   21  C   UNL     1     -11.219   9.671  68.879  1.00  0.00    -0.020 C  
HETATM   22  C   UNL     1     -10.426   8.377  68.830  1.00  0.00    -0.189 C  
HETATM   23  C   UNL     1      -8.979   8.622  69.192  1.00  0.00    -0.142 C  
HETATM   24  F   UNL     1     -11.004   7.505  69.703  1.00  0.00    -0.243 F  
HETATM   25  C   UNL     1      -8.314   7.667  69.876  1.00  0.00    -0.132 C  
HETATM   26  C   UNL     1      -7.783   6.682  68.864  1.00  0.00    -0.109 C  
HETATM   27  O   UNL     1      -7.619   5.505  69.151  1.00  0.00    -0.083 OA 
ENDROOT
BRANCH   5  28
HETATM   28  C   UNL     1     -11.131  13.548  64.793  1.00  0.00    -0.359 C  
HETATM   29  C   UNL     1     -11.299  12.750  63.506  1.00  0.00    -0.420 C  
HETATM   30  O   UNL     1     -11.186  14.780  64.644  1.00  0.00    -0.377 OA 
HETATM   31 CL   UNL     1     -12.809  11.840  63.519  1.00  0.00    -0.531 Cl 
ENDBRANCH   5  28
TORSDOF 1
ENDMDL
MODEL       31
REMARK 921   NORMALIZED FREE ENERGY PREDICTED BY IDOCK:   -5.86 KCAL/MOL
REMARK 922        TOTAL FREE ENERGY PREDICTED BY IDOCK:   -4.97 KCAL/MOL
REMARK 923 INTER-LIGAND FREE ENERGY PREDICTED BY IDOCK:   -6.06 KCAL/MOL
REMARK 924 INTRA-LIGAND FREE ENERGY PREDICTED BY IDOCK:    1.09 KCAL/MOL
REMARK 927      BINDING AFFINITY PREDICTED BY RF-SCORE:    0.00 PKD
ROOT
HETATM    1  C   UNL     1      -9.564  12.848  64.994  1.00  0.00     0.185 C  
HETATM    2  C   UNL     1     -10.433  12.147  64.130  1.00  0.00    -0.395 C  
HETATM    3  C   UNL     1     -11.150  12.542  65.405  1.00  0.00    -0.337 C  
HETATM    4  C   UNL     1     -12.721  12.381  64.824  1.00  0.00    -0.324 C  
HETATM    5  C   UNL     1     -10.110  13.835  66.655  1.00  0.00    -0.277 C  
HETATM    6  O   UNL     1      -8.827  14.447  66.234  1.00  0.00    -0.475 OA 
HETATM    7  C   UNL     1     -10.903   8.480  67.488  1.00  0.00    -0.086 C  
HETATM    8  C   UNL     1     -11.023  13.942  65.656  1.00  0.00    -0.290 C  
HETATM    9  C   UNL     1     -11.889  13.246  67.247  1.00  0.00    -0.421 C  
HETATM   10  C   UNL     1     -11.371  15.106  64.731  1.00  0.00    -0.399 C  
HETATM   11  C   UNL     1      -9.570   9.344  67.570  1.00  0.00    -0.174 C  
HETATM   12  C   UNL     1      -9.079   9.085  68.984  1.00  0.00    -0.143 C  
HETATM   13  H   UNL     1      -8.351  15.039  66.806  1.00  0.00     0.000 HD 
HETATM   14  C   UNL     1     -11.013  11.789  67.928  1.00  0.00    -0.221 C  
HETATM   15  C   UNL     1      -8.258   8.037  69.239  1.00  0.00    -0.127 C  
HETATM   16  O   UNL     1     -10.313  12.253  69.091  1.00  0.00    -0.425 OA 
HETATM   17  C   UNL     1      -9.965  10.763  66.959  1.00  0.00    -0.197 C  
HETATM   18  C   UNL     1      -8.874  11.667  66.158  1.00  0.00    -0.139 C  
HETATM   19  F   UNL     1     -10.690  10.191  65.885  1.00  0.00    -0.227 F  
HETATM   20  H   UNL     1      -9.858  11.497  69.444  1.00  0.00     0.000 HD 
HETATM   21  C   UNL     1      -7.870  10.782  65.398  1.00  0.00    -0.001 C  
HETATM   22  C   UNL     1      -7.365   9.638  66.260  1.00  0.00    -0.094 C  
HETATM   23  C   UNL     1      -8.501   8.716  66.643  1.00  0.00    -0.115 C  
HETATM   24  F   UNL     1      -6.417   8.969  65.546  1.00  0.00    -0.063 F  
HETATM   25  C   UNL     1      -8.251   7.394  66.748  1.00  0.00    -0.121 C  
HETATM   26  C   UNL     1      -7.724   7.149  68.141  1.00  0.00    -0.117 C  
HETATM   27  O   UNL     1      -6.948   6.234  68.373  1.00  0.00    -0.074 OA 
ENDROOT
BRANCH   5  28
HETATM   28  C   UNL     1     -10.506  15.318  67.451  1.00  0.00    -0.270 C  
HETATM   29  C   UNL     1     -10.335  15.392  68.964  1.00  0.00    -0.243 C  
HETATM   30  O   UNL     1     -10.898  16.372  66.926  1.00  0.00    -0.249 OA 
HETATM   31 CL   UNL     1      -8.636  15.261  69.414  1.00  0.00    -0.243 Cl 
ENDBRANCH   5  28
TORSDOF 1
ENDMDL
MODEL       32
REMARK 921   NORMALIZED FREE ENERGY PREDICTED BY IDOCK:   -5.85 KCAL/MOL
REMARK 922        TOTAL FREE ENERGY PREDICTED BY IDOCK:   -4.96 KCAL/MOL
REMARK 923 INTER-LIGAND FREE ENERGY PREDICTED BY IDOCK:   -6.06 KCAL/MOL
REMARK 924 INTRA-LIGAND FREE ENERGY PREDICTED BY IDOCK:    1.10 KCAL/MOL
REMARK 927      BINDING AFFINITY PREDICTED BY RF-SCORE:    0.00 PKD
ROOT
HETATM    1  C   UNL     1      -7.948  10.595  68.619  1.00  0.00    -0.128 C  
HETATM    2  C   UNL     1      -7.277   9.604  67.872  1.00  0.00    -0.081 C  
HETATM    3  C   UNL     1      -8.629   9.911  67.261  1.00  0.00    -0.125 C  
HETATM    4  C   UNL     1      -8.322   9.273  65.734  1.00  0.00    -0.128 C  
HETATM    5  C   UNL     1      -9.620  11.555  68.057  1.00  0.00    -0.180 C  
HETATM    6  O   UNL     1      -8.962  12.449  69.040  1.00  0.00    -0.355 OA 
HETATM    7  C   UNL     1     -10.859   6.294  68.944  1.00  0.00    -0.396 C  
HETATM    8  C   UNL     1      -8.779  11.311  67.019  1.00  0.00    -0.152 C  
HETATM    9  C   UNL     1     -10.526  10.564  66.622  1.00  0.00    -0.290 C  
HETATM   10  C   UNL     1      -7.863  12.240  66.227  1.00  0.00     0.586 C  
HETATM   11  C   UNL     1     -10.676   7.491  69.975  1.00  0.00    -0.248 C  
HETATM   12  C   UNL     1     -12.002   7.516  70.714  1.00  0.00    -0.224 C  
HETATM   13  H   UNL     1      -9.415  13.200  69.405  1.00  0.00     0.000 HD 
HETATM   14  C   UNL     1     -11.133   9.474  67.963  1.00  0.00     0.005 C  
HETATM   15  C   UNL     1     -12.175   6.760  71.827  1.00  0.00    -0.402 C  
HETATM   16  O   UNL     1     -12.138  10.222  68.660  1.00  0.00    -0.686 OA 
HETATM   17  C   UNL     1     -10.061   8.683  69.111  1.00  0.00    -0.199 C  
HETATM   18  C   UNL     1      -9.045   9.767  69.775  1.00  0.00    -0.246 C  
HETATM   19  F   UNL     1      -9.154   7.833  68.433  1.00  0.00    -0.132 F  
HETATM   20  H   UNL     1     -12.453   9.657  69.356  1.00  0.00     0.000 HD 
HETATM   21  C   UNL     1      -8.180   9.119  70.870  1.00  0.00    -0.220 C  
HETATM   22  C   UNL     1      -9.008   8.245  71.796  1.00  0.00    -0.181 C  
HETATM   23  C   UNL     1      -9.621   7.090  71.035  1.00  0.00    -0.170 C  
HETATM   24  F   UNL     1      -8.185   7.793  72.783  1.00  0.00    -0.113 F  
HETATM   25  C   UNL     1      -9.755   5.903  71.663  1.00  0.00    -0.185 C  
HETATM   26  C   UNL     1     -11.054   5.949  72.429  1.00  0.00    -0.280 C  
HETATM   27  O   UNL     1     -11.206   5.306  73.459  1.00  0.00    -0.296 OA 
ENDROOT
BRANCH   5  28
HETATM   28  C   UNL     1     -10.389  12.944  67.374  1.00  0.00    -0.233 C  
HETATM   29  C   UNL     1     -11.810  13.273  67.817  1.00  0.00    -0.353 C  
HETATM   30  O   UNL     1      -9.904  13.749  66.563  1.00  0.00    -0.273 OA 
HETATM   31 CL   UNL     1     -11.851  13.722  69.521  1.00  0.00    -0.371 Cl 
ENDBRANCH   5  28
TORSDOF 1
ENDMDL
MODEL       33
REMARK 921   NORMALIZED FREE ENERGY PREDICTED BY IDOCK:   -5.83 KCAL/MOL
REMARK 922        TOTAL FREE ENERGY PREDICTED BY IDOCK:   -4.94 KCAL/MOL
REMARK 923 INTER-LIGAND FREE ENERGY PREDICTED BY IDOCK:   -6.04 KCAL/MOL
REMARK 924 INTRA-LIGAND FREE ENERGY PREDICTED BY IDOCK:    1.10 KCAL/MOL
REMARK 927      BINDING AFFINITY PREDICTED BY RF-SCORE:    0.00 PKD
ROOT
HETATM    1  C   UNL     1     -10.785  10.362  66.845  1.00  0.00    -0.272 C  
HETATM    2  C   UNL     1     -10.187  10.377  65.567  1.00  0.00    -0.316 C  
HETATM    3  C   UNL     1      -9.246   9.779  66.592  1.00  0.00    -0.184 C  
HETATM    4  C   UNL     1      -8.229   8.986  65.510  1.00  0.00    -0.124 C  
HETATM    5  C   UNL     1     -10.074   9.405  68.461  1.00  0.00    -0.187 C  
HETATM    6  O   UNL     1     -11.528   9.568  68.704  1.00  0.00    -0.452 OA 
HETATM    7  C   UNL     1      -6.633  13.479  67.208  1.00  0.00     0.175 C  
HETATM    8  C   UNL     1      -9.873   8.715  67.309  1.00  0.00    -0.256 C  
HETATM    9  C   UNL     1      -8.174   8.967  68.213  1.00  0.00    -0.116 C  
HETATM   10  C   UNL     1     -10.556   7.468  66.751  1.00  0.00    -0.269 C  
HETATM   11  C   UNL     1      -8.014  13.510  67.996  1.00  0.00    -0.151 C  
HETATM   12  C   UNL     1      -7.636  14.133  69.329  1.00  0.00     0.058 C  
HETATM   13  H   UNL     1     -11.907   9.397  69.559  1.00  0.00     0.000 HD 
HETATM   14  C   UNL     1      -7.870  10.723  68.633  1.00  0.00    -0.122 C  
HETATM   15  C   UNL     1      -7.669  15.479  69.484  1.00  0.00    -0.197 C  
HETATM   16  O   UNL     1      -8.097  10.841  70.045  1.00  0.00    -0.310 OA 
HETATM   17  C   UNL     1      -8.638  12.057  67.784  1.00  0.00    -0.157 C  
HETATM   18  C   UNL     1     -10.250  11.835  67.722  1.00  0.00    -0.205 C  
HETATM   19  F   UNL     1      -8.303  12.025  66.408  1.00  0.00    -0.164 F  
HETATM   20  H   UNL     1      -7.939  11.752  70.263  1.00  0.00     0.000 HD 
HETATM   21  C   UNL     1     -10.954  13.048  67.090  1.00  0.00    -0.293 C  
HETATM   22  C   UNL     1     -10.428  14.357  67.649  1.00  0.00    -0.245 C  
HETATM   23  C   UNL     1      -8.962  14.530  67.319  1.00  0.00    -0.220 C  
HETATM   24  F   UNL     1     -11.168  15.366  67.109  1.00  0.00    -0.327 F  
HETATM   25  C   UNL     1      -8.500  15.772  67.067  1.00  0.00    -0.251 C  
HETATM   26  C   UNL     1      -8.164  16.402  68.397  1.00  0.00    -0.190 C  
HETATM   27  O   UNL     1      -8.234  17.611  68.561  1.00  0.00    -0.280 OA 
ENDROOT
BRANCH   5  28
HETATM   28  C   UNL     1     -10.093   8.038  69.518  1.00  0.00    -0.196 C  
HETATM   29  C   UNL     1      -9.705   8.248  70.976  1.00  0.00    -0.163 C  
HETATM   30  O   UNL     1     -10.421   6.874  69.236  1.00  0.00    -0.197 OA 
HETATM   31 CL   UNL     1     -10.879   9.273  71.800  1.00  0.00    -0.424 Cl 
ENDBRANCH   5  28
TORSDOF 1
ENDMDL
MODEL       34
REMARK 921   NORMALIZED FREE ENERGY PREDICTED BY IDOCK:   -5.79 KCAL/MOL
REMARK 922        TOTAL FREE ENERGY PREDICTED BY IDOCK:   -4.90 KCAL/MOL
REMARK 923 INTER-LIGAND FREE ENERGY PREDICTED BY IDOCK:   -6.00 KCAL/MOL
REMARK 924 INTRA-LIGAND FREE ENERGY PREDICTED BY IDOCK:    1.09 KCAL/MOL
REMARK 927      BINDING AFFINITY PREDICTED BY RF-SCORE:    0.00 PKD
ROOT
HETATM    1  C   UNL     1      -7.694   9.913  68.614  1.00  0.00    -0.081 C  
HETATM    2  C   UNL     1      -8.542  10.057  69.733  1.00  0.00    -0.192 C  
HETATM    3  C   UNL     1      -9.204   9.212  68.664  1.00  0.00    -0.136 C  
HETATM    4  C   UNL     1     -10.359   8.487  69.651  1.00  0.00    -0.218 C  
HETATM    5  C   UNL     1      -7.983   8.651  67.079  1.00  0.00    -0.096 C  
HETATM    6  O   UNL     1      -6.527   8.931  67.093  1.00  0.00    -0.059 OA 
HETATM    7  C   UNL     1     -11.906  12.472  66.941  1.00  0.00    -0.404 C  
HETATM    8  C   UNL     1      -8.364   8.126  68.272  1.00  0.00    -0.126 C  
HETATM    9  C   UNL     1      -9.855   8.053  67.030  1.00  0.00    -0.295 C  
HETATM   10  C   UNL     1      -7.718   7.060  69.154  1.00  0.00    -0.105 C  
HETATM   11  C   UNL     1     -10.399  12.532  66.437  1.00  0.00    -0.261 C  
HETATM   12  C   UNL     1     -10.541  12.901  64.971  1.00  0.00    -0.333 C  
HETATM   13  H   UNL     1      -5.969   8.675  66.368  1.00  0.00     0.000 HD 
HETATM   14  C   UNL     1     -10.198   9.682  66.268  1.00  0.00    -0.216 C  
HETATM   15  C   UNL     1     -10.578  14.204  64.597  1.00  0.00    -0.391 C  
HETATM   16  O   UNL     1      -9.695   9.608  64.927  1.00  0.00    -0.417 OA 
HETATM   17  C   UNL     1      -9.724  11.204  67.009  1.00  0.00    -0.186 C  
HETATM   18  C   UNL     1      -8.148  11.169  67.413  1.00  0.00    -0.132 C  
HETATM   19  F   UNL     1     -10.332  11.345  68.280  1.00  0.00    -0.171 F  
HETATM   20  H   UNL     1      -9.873  10.453  64.530  1.00  0.00     0.000 HD 
HETATM   21  C   UNL     1      -7.682  12.533  67.952  1.00  0.00    -0.138 C  
HETATM   22  C   UNL     1      -8.179  13.678  67.088  1.00  0.00    -0.107 C  
HETATM   23  C   UNL     1      -9.690  13.739  67.098  1.00  0.00    -0.244 C  
HETATM   24  F   UNL     1      -7.644  14.831  67.580  1.00  0.00    -0.119 F  
HETATM   25  C   UNL     1     -10.287  14.948  67.043  1.00  0.00    -0.264 C  
HETATM   26  C   UNL     1     -10.389  15.329  65.586  1.00  0.00    -0.366 C  
HETATM   27  O   UNL     1     -10.378  16.500  65.235  1.00  0.00    -0.596 OA 
ENDROOT
BRANCH   5  28
HETATM   28  C   UNL     1      -7.644   7.149  66.294  1.00  0.00    -0.091 C  
HETATM   29  C   UNL     1      -7.778   7.082  64.777  1.00  0.00    -0.115 C  
HETATM   30  O   UNL     1      -7.264   6.093  66.823  1.00  0.00    -0.071 OA 
HETATM   31 CL   UNL     1      -6.576   8.104  63.990  1.00  0.00    -0.066 Cl 
ENDBRANCH   5  28
TORSDOF 1
ENDMDL
MODEL       35
REMARK 921   NORMALIZED FREE ENERGY PREDICTED BY IDOCK:   -5.75 KCAL/MOL
REMARK 922        TOTAL FREE ENERGY PREDICTED BY IDOCK:   -4.85 KCAL/MOL
REMARK 923 INTER-LIGAND FREE ENERGY PREDICTED BY IDOCK:   -6.07 KCAL/MOL
REMARK 924 INTRA-LIGAND FREE ENERGY PREDICTED BY IDOCK:    1.22 KCAL/MOL
REMARK 927      BINDING AFFINITY PREDICTED BY RF-SCORE:    0.00 PKD
ROOT
HETATM    1  C   UNL     1      -8.376   7.859  71.224  1.00  0.00    -0.120 C  
HETATM    2  C   UNL     1      -8.918   8.561  72.322  1.00  0.00    -0.299 C  
HETATM    3  C   UNL     1      -9.979   7.711  71.654  1.00  0.00    -0.207 C  
HETATM    4  C   UNL     1     -11.068   7.684  72.937  1.00  0.00    -0.448 C  
HETATM    5  C   UNL     1      -9.290   6.385  70.209  1.00  0.00    -0.158 C  
HETATM    6  O   UNL     1      -7.839   6.184  69.979  1.00  0.00    -0.101 OA 
HETATM    7  C   UNL     1     -11.991  11.059  69.279  1.00  0.00    -0.410 C  
HETATM    8  C   UNL     1      -9.556   6.352  71.541  1.00  0.00    -0.169 C  
HETATM    9  C   UNL     1     -11.225   6.418  70.552  1.00  0.00    -0.414 C  
HETATM   10  C   UNL     1      -9.059   5.418  72.642  1.00  0.00    -0.139 C  
HETATM   11  C   UNL     1     -10.653  10.501  68.626  1.00  0.00    -0.226 C  
HETATM   12  C   UNL     1     -10.976  10.483  67.142  1.00  0.00    -0.294 C  
HETATM   13  H   UNL     1      -7.523   5.579  69.318  1.00  0.00     0.000 HD 
HETATM   14  C   UNL     1     -11.261   7.800  69.352  1.00  0.00     0.169 C  
HETATM   15  C   UNL     1     -10.735  11.579  66.380  1.00  0.00    -0.320 C  
HETATM   16  O   UNL     1     -11.071   7.210  68.059  1.00  0.00    -0.478 OA 
HETATM   17  C   UNL     1     -10.260   9.237  69.515  1.00  0.00    -0.207 C  
HETATM   18  C   UNL     1      -8.703   8.817  69.741  1.00  0.00    -0.133 C  
HETATM   19  F   UNL     1     -10.546   9.901  70.733  1.00  0.00    -0.334 F  
HETATM   20  H   UNL     1     -11.089   7.927  67.435  1.00  0.00     0.000 HD 
HETATM   21  C   UNL     1      -7.792  10.057  69.765  1.00  0.00    -0.185 C  
HETATM   22  C   UNL     1      -8.124  11.020  68.639  1.00  0.00    -0.149 C  
HETATM   23  C   UNL     1      -9.531  11.555  68.790  1.00  0.00    -0.099 C  
HETATM   24  F   UNL     1      -7.214  12.033  68.679  1.00  0.00    -0.085 F  
HETATM   25  C   UNL     1      -9.780  12.828  68.416  1.00  0.00    -0.186 C  
HETATM   26  C   UNL     1     -10.060  12.810  66.933  1.00  0.00    -0.232 C  
HETATM   27  O   UNL     1      -9.805  13.776  66.228  1.00  0.00    -0.290 OA 
ENDROOT
BRANCH   5  28
HETATM   28  C   UNL     1      -9.527   4.699  69.911  1.00  0.00    -0.167 C  
HETATM   29  C   UNL     1      -9.600   4.226  68.464  1.00  0.00    -0.136 C  
HETATM   30  O   UNL     1      -9.619   3.792  70.754  1.00  0.00    -0.158 OA 
HETATM   31 CL   UNL     1      -8.056   4.456  67.646  1.00  0.00    -0.098 Cl 
ENDBRANCH   5  28
TORSDOF 1
ENDMDL
MODEL       36
REMARK 921   NORMALIZED FREE ENERGY PREDICTED BY IDOCK:   -5.74 KCAL/MOL
REMARK 922        TOTAL FREE ENERGY PREDICTED BY IDOCK:   -4.85 KCAL/MOL
REMARK 923 INTER-LIGAND FREE ENERGY PREDICTED BY IDOCK:   -5.94 KCAL/MOL
REMARK 924 INTRA-LIGAND FREE ENERGY PREDICTED BY IDOCK:    1.09 KCAL/MOL
REMARK 927      BINDING AFFINITY PREDICTED BY RF-SCORE:    0.00 PKD
ROOT
HETATM    1  C   UNL     1      -9.835  10.196  69.330  1.00  0.00    -0.247 C  
HETATM    2  C   UNL     1     -10.792   9.224  68.968  1.00  0.00    -0.136 C  
HETATM    3  C   UNL     1      -9.526   9.059  68.152  1.00  0.00    -0.155 C  
HETATM    4  C   UNL     1      -9.796   7.474  67.657  1.00  0.00    -0.203 C  
HETATM    5  C   UNL     1      -7.909  10.213  68.763  1.00  0.00    -0.098 C  
HETATM    6  O   UNL     1      -7.961  11.012  70.011  1.00  0.00    -0.234 OA 
HETATM    7  C   UNL     1     -11.023  11.098  64.344  1.00  0.00    -0.270 C  
HETATM    8  C   UNL     1      -8.378   8.960  68.996  1.00  0.00    -0.124 C  
HETATM    9  C   UNL     1      -7.647   9.050  67.200  1.00  0.00    -0.091 C  
HETATM   10  C   UNL     1      -8.131   7.992  70.150  1.00  0.00    -0.114 C  
HETATM   11  C   UNL     1     -10.558  12.100  65.488  1.00  0.00    -0.314 C  
HETATM   12  C   UNL     1      -9.848  13.198  64.716  1.00  0.00    -0.030 C  
HETATM   13  H   UNL     1      -7.222  11.539  70.290  1.00  0.00     0.000 HD 
HETATM   14  C   UNL     1      -8.351  10.440  66.237  1.00  0.00    -0.146 C  
HETATM   15  C   UNL     1     -10.545  14.264  64.250  1.00  0.00     0.200 C  
HETATM   16  O   UNL     1      -7.332  11.448  66.190  1.00  0.00    -0.356 OA 
HETATM   17  C   UNL     1      -9.908  11.169  66.608  1.00  0.00    -0.199 C  
HETATM   18  C   UNL     1      -9.983  11.570  68.184  1.00  0.00    -0.197 C  
HETATM   19  F   UNL     1     -10.939  10.203  66.519  1.00  0.00    -0.220 F  
HETATM   20  H   UNL     1      -7.697  12.170  65.691  1.00  0.00     0.000 HD 
HETATM   21  C   UNL     1     -11.288  12.319  68.505  1.00  0.00    -0.332 C  
HETATM   22  C   UNL     1     -11.589  13.391  67.472  1.00  0.00    -0.344 C  
HETATM   23  C   UNL     1     -11.806  12.775  66.108  1.00  0.00    -0.484 C  
HETATM   24  F   UNL     1     -12.701  14.062  67.884  1.00  0.00    -0.108 F  
HETATM   25  C   UNL     1     -12.712  13.340  65.283  1.00  0.00    -0.474 C  
HETATM   26  C   UNL     1     -12.012  14.457  64.549  1.00  0.00    -0.472 C  
HETATM   27  O   UNL     1     -12.623  15.443  64.163  1.00  0.00    -0.627 OA 
ENDROOT
BRANCH   5  28
HETATM   28  C   UNL     1      -6.248   9.874  69.100  1.00  0.00    -0.044 C  
HETATM   29  C   UNL     1      -5.184  10.662  68.345  1.00  0.00    -0.033 C  
HETATM   30  O   UNL     1      -5.798   9.064  69.926  1.00  0.00    -0.031 OA 
HETATM   31 CL   UNL     1      -5.231  12.369  68.785  1.00  0.00    -0.054 Cl 
ENDBRANCH   5  28
TORSDOF 1
ENDMDL
MODEL       37
REMARK 921   NORMALIZED FREE ENERGY PREDICTED BY IDOCK:   -5.74 KCAL/MOL
REMARK 922        TOTAL FREE ENERGY PREDICTED BY IDOCK:   -4.84 KCAL/MOL
REMARK 923 INTER-LIGAND FREE ENERGY PREDICTED BY IDOCK:   -5.93 KCAL/MOL
REMARK 924 INTRA-LIGAND FREE ENERGY PREDICTED BY IDOCK:    1.09 KCAL/MOL
REMARK 927      BINDING AFFINITY PREDICTED BY RF-SCORE:    0.00 PKD
ROOT
HETATM    1  C   UNL     1     -10.194   8.552  72.209  1.00  0.00    -0.395 C  
HETATM    2  C   UNL     1     -11.543   8.157  72.090  1.00  0.00    -0.417 C  
HETATM    3  C   UNL     1     -10.619   6.977  71.871  1.00  0.00    -0.239 C  
HETATM    4  C   UNL     1     -11.755   5.765  72.141  1.00  0.00    -0.226 C  
HETATM    5  C   UNL     1      -8.615   7.313  72.305  1.00  0.00    -0.116 C  
HETATM    6  O   UNL     1      -8.167   8.577  72.939  1.00  0.00    -0.344 OA 
HETATM    7  C   UNL     1     -10.816   6.927  67.305  1.00  0.00    -0.426 C  
HETATM    8  C   UNL     1      -9.704   6.830  72.957  1.00  0.00    -0.182 C  
HETATM    9  C   UNL     1      -9.107   5.528  71.648  1.00  0.00    -0.155 C  
HETATM   10  C   UNL     1     -10.012   6.710  74.448  1.00  0.00    -0.359 C  
HETATM   11  C   UNL     1      -9.830   8.018  67.909  1.00  0.00    -0.204 C  
HETATM   12  C   UNL     1      -8.647   7.978  66.957  1.00  0.00    -0.127 C  
HETATM   13  H   UNL     1      -7.250   8.731  73.137  1.00  0.00     0.000 HD 
HETATM   14  C   UNL     1      -8.929   6.259  69.978  1.00  0.00    -0.149 C  
HETATM   15  C   UNL     1      -8.633   8.768  65.855  1.00  0.00    -0.174 C  
HETATM   16  O   UNL     1      -7.521   6.417  69.760  1.00  0.00    -0.081 OA 
HETATM   17  C   UNL     1      -9.787   7.709  69.473  1.00  0.00    -0.178 C  
HETATM   18  C   UNL     1      -9.573   8.900  70.561  1.00  0.00    -0.242 C  
HETATM   19  F   UNL     1     -11.186   7.508  69.555  1.00  0.00    -0.210 F  
HETATM   20  H   UNL     1      -7.428   6.797  68.894  1.00  0.00     0.000 HD 
HETATM   21  C   UNL     1     -10.213  10.214  70.079  1.00  0.00    -0.271 C  
HETATM   22  C   UNL     1      -9.886  10.498  68.624  1.00  0.00    -0.178 C  
HETATM   23  C   UNL     1     -10.456   9.423  67.727  1.00  0.00    -0.310 C  
HETATM   24  F   UNL     1     -10.408  11.718  68.313  1.00  0.00    -0.180 F  
HETATM   25  C   UNL     1     -10.909   9.775  66.505  1.00  0.00     0.053 C  
HETATM   26  C   UNL     1      -9.722   9.774  65.573  1.00  0.00    -0.312 C  
HETATM   27  O   UNL     1      -9.679  10.514  64.601  1.00  0.00    -0.255 OA 
ENDROOT
BRANCH   5  28
HETATM   28  C   UNL     1      -7.428   6.474  73.240  1.00  0.00    -0.085 C  
HETATM   29  C   UNL     1      -6.127   6.070  72.558  1.00  0.00    -0.041 C  
HETATM   30  O   UNL     1      -7.493   6.174  74.443  1.00  0.00    -0.093 OA 
HETATM   31 CL   UNL     1      -5.188   7.489  72.097  1.00  0.00    -0.036 Cl 
ENDBRANCH   5  28
TORSDOF 1
ENDMDL
MODEL       38
REMARK 921   NORMALIZED FREE ENERGY PREDICTED BY IDOCK:   -5.70 KCAL/MOL
REMARK 922        TOTAL FREE ENERGY PREDICTED BY IDOCK:   -4.80 KCAL/MOL
REMARK 923 INTER-LIGAND FREE ENERGY PREDICTED BY IDOCK:   -5.91 KCAL/MOL
REMARK 924 INTRA-LIGAND FREE ENERGY PREDICTED BY IDOCK:    1.11 KCAL/MOL
REMARK 927      BINDING AFFINITY PREDICTED BY RF-SCORE:    0.00 PKD
ROOT
HETATM    1  C   UNL     1      -8.777  13.197  67.531  1.00  0.00    -0.201 C  
HETATM    2  C   UNL     1      -8.767  12.559  66.273  1.00  0.00     0.139 C  
HETATM    3  C   UNL     1     -10.186  12.737  66.772  1.00  0.00    -0.245 C  
HETATM    4  C   UNL     1     -10.958  12.550  65.288  1.00  0.00    -0.329 C  
HETATM    5  C   UNL     1     -10.400  13.923  68.465  1.00  0.00    -0.244 C  
HETATM    6  O   UNL     1      -9.250  14.668  69.033  1.00  0.00    -0.293 OA 
HETATM    7  C   UNL     1     -10.812   8.465  68.273  1.00  0.00     0.024 C  
HETATM    8  C   UNL     1     -10.444  14.098  67.118  1.00  0.00    -0.270 C  
HETATM    9  C   UNL     1     -12.034  13.146  67.696  1.00  0.00    -0.363 C  
HETATM   10  C   UNL     1     -10.258  15.347  66.260  1.00  0.00    -0.303 C  
HETATM   11  C   UNL     1      -9.988   9.396  69.264  1.00  0.00    -0.182 C  
HETATM   12  C   UNL     1     -10.508   8.990  70.631  1.00  0.00    -0.285 C  
HETATM   13  H   UNL     1      -9.347  15.210  69.807  1.00  0.00     0.000 HD 
HETATM   14  C   UNL     1     -11.628  11.675  68.707  1.00  0.00    -0.313 C  
HETATM   15  C   UNL     1      -9.920   7.973  71.309  1.00  0.00    -0.211 C  
HETATM   16  O   UNL     1     -11.925  12.029  70.064  1.00  0.00    -0.326 OA 
HETATM   17  C   UNL     1     -10.075  10.854  68.622  1.00  0.00    -0.191 C  
HETATM   18  C   UNL     1      -8.860  11.924  68.795  1.00  0.00     0.048 C  
HETATM   19  F   UNL     1      -9.839  10.379  67.309  1.00  0.00    -0.182 F  
HETATM   20  H   UNL     1     -11.715  11.265  70.589  1.00  0.00     0.000 HD 
HETATM   21  C   UNL     1      -7.497  11.212  68.845  1.00  0.00    -0.125 C  
HETATM   22  C   UNL     1      -7.528  10.002  69.761  1.00  0.00    -0.151 C  
HETATM   23  C   UNL     1      -8.501   8.965  69.245  1.00  0.00    -0.121 C  
HETATM   24  F   UNL     1      -6.264   9.495  69.819  1.00  0.00    -0.037 F  
HETATM   25  C   UNL     1      -8.204   7.660  69.418  1.00  0.00    -0.129 C  
HETATM   26  C   UNL     1      -8.686   7.272  70.795  1.00  0.00    -0.146 C  
HETATM   27  O   UNL     1      -8.135   6.388  71.434  1.00  0.00    -0.111 OA 
ENDROOT
BRANCH   5  28
HETATM   28  C   UNL     1     -11.414  15.261  68.877  1.00  0.00    -0.332 C  
HETATM   29  C   UNL     1     -12.335  15.123  70.083  1.00  0.00    -0.341 C  
HETATM   30  O   UNL     1     -11.468  16.366  68.313  1.00  0.00    -0.312 OA 
HETATM   31 CL   UNL     1     -11.406  14.987  71.575  1.00  0.00    -0.380 Cl 
ENDBRANCH   5  28
TORSDOF 1
ENDMDL
MODEL       39
REMARK 921   NORMALIZED FREE ENERGY PREDICTED BY IDOCK:   -5.64 KCAL/MOL
REMARK 922        TOTAL FREE ENERGY PREDICTED BY IDOCK:   -4.74 KCAL/MOL
REMARK 923 INTER-LIGAND FREE ENERGY PREDICTED BY IDOCK:   -6.20 KCAL/MOL
REMARK 924 INTRA-LIGAND FREE ENERGY PREDICTED BY IDOCK:    1.46 KCAL/MOL
REMARK 927      BINDING AFFINITY PREDICTED BY RF-SCORE:    0.00 PKD
ROOT
HETATM    1  C   UNL     1     -10.531   6.113  70.231  1.00  0.00    -0.288 C  
HETATM    2  C   UNL     1      -9.213   5.838  70.655  1.00  0.00    -0.172 C  
HETATM    3  C   UNL     1      -9.587   7.274  70.963  1.00  0.00    -0.158 C  
HETATM    4  C   UNL     1      -8.398   7.561  72.118  1.00  0.00    -0.127 C  
HETATM    5  C   UNL     1     -11.587   7.762  70.678  1.00  0.00    -0.218 C  
HETATM    6  O   UNL     1     -12.594   6.722  70.354  1.00  0.00    -0.545 OA 
HETATM    7  C   UNL     1      -7.417   9.204  67.433  1.00  0.00    -0.084 C  
HETATM    8  C   UNL     1     -10.804   7.342  71.706  1.00  0.00    -0.253 C  
HETATM    9  C   UNL     1     -10.389   9.193  71.293  1.00  0.00    -0.405 C  
HETATM   10  C   UNL     1     -11.156   6.643  73.017  1.00  0.00    -0.238 C  
HETATM   11  C   UNL     1      -8.825   8.561  67.068  1.00  0.00    -0.144 C  
HETATM   12  C   UNL     1      -9.414   9.558  66.085  1.00  0.00    -0.281 C  
HETATM   13  H   UNL     1     -13.508   6.945  70.223  1.00  0.00     0.000 HD 
HETATM   14  C   UNL     1     -10.015   9.438  69.518  1.00  0.00    -0.191 C  
HETATM   15  C   UNL     1      -9.163   9.435  64.758  1.00  0.00    -0.220 C  
HETATM   16  O   UNL     1     -11.172  10.068  68.950  1.00  0.00    -0.375 OA 
HETATM   17  C   UNL     1      -9.458   8.141  68.470  1.00  0.00    -0.143 C  
HETATM   18  C   UNL     1     -10.442   6.850  68.596  1.00  0.00    -0.217 C  
HETATM   19  F   UNL     1      -8.238   7.606  68.953  1.00  0.00    -0.120 F  
HETATM   20  H   UNL     1     -10.978  10.195  68.028  1.00  0.00     0.000 HD 
HETATM   21  C   UNL     1     -10.043   5.748  67.598  1.00  0.00    -0.205 C  
HETATM   22  C   UNL     1      -9.769   6.314  66.216  1.00  0.00    -0.041 C  
HETATM   23  C   UNL     1      -8.594   7.266  66.251  1.00  0.00    -0.147 C  
HETATM   24  F   UNL     1      -9.519   5.266  65.382  1.00  0.00    -0.165 F  
HETATM   25  C   UNL     1      -7.771   7.314  65.183  1.00  0.00    -0.113 C  
HETATM   26  C   UNL     1      -8.382   8.274  64.192  1.00  0.00    -0.043 C  
HETATM   27  O   UNL     1      -8.199   8.146  62.990  1.00  0.00    -0.165 OA 
ENDROOT
BRANCH   5  28
HETATM   28  C   UNL     1     -12.781   8.557  71.642  1.00  0.00    -0.332 C  
HETATM   29  C   UNL     1     -14.222   8.069  71.551  1.00  0.00    -0.413 C  
HETATM   30  O   UNL     1     -12.602   9.486  72.446  1.00  0.00    -0.305 OA 
HETATM   31 CL   UNL     1     -14.376   6.431  72.184  1.00  0.00    -0.096 Cl 
ENDBRANCH   5  28
TORSDOF 1
ENDMDL
MODEL       40
REMARK 921   NORMALIZED FREE ENERGY PREDICTED BY IDOCK:   -5.52 KCAL/MOL
REMARK 922        TOTAL FREE ENERGY PREDICTED BY IDOCK:   -4.62 KCAL/MOL
REMARK 923 INTER-LIGAND FREE ENERGY PREDICTED BY IDOCK:   -5.70 KCAL/MOL
REMARK 924 INTRA-LIGAND FREE ENERGY PREDICTED BY IDOCK:    1.09 KCAL/MOL
REMARK 927      BINDING AFFINITY PREDICTED BY RF-SCORE:    0.00 PKD
ROOT
HETATM    1  C   UNL     1      -8.560   7.405  69.886  1.00  0.00    -0.140 C  
HETATM    2  C   UNL     1      -9.483   7.690  70.914  1.00  0.00    -0.166 C  
HETATM    3  C   UNL     1     -10.186   7.085  69.716  1.00  0.00    -0.213 C  
HETATM    4  C   UNL     1     -11.590   6.609  70.511  1.00  0.00    -0.448 C  
HETATM    5  C   UNL     1      -8.941   6.329  68.233  1.00  0.00    -0.115 C  
HETATM    6  O   UNL     1      -7.473   6.250  68.427  1.00  0.00    -0.084 OA 
HETATM    7  C   UNL     1     -11.819  10.982  67.973  1.00  0.00    -0.152 C  
HETATM    8  C   UNL     1      -9.579   5.850  69.332  1.00  0.00    -0.171 C  
HETATM    9  C   UNL     1     -10.879   6.202  67.934  1.00  0.00    -0.406 C  
HETATM   10  C   UNL     1      -9.313   4.617  70.191  1.00  0.00    -0.213 C  
HETATM   11  C   UNL     1     -10.289  10.704  67.642  1.00  0.00    -0.246 C  
HETATM   12  C   UNL     1     -10.158  11.171  66.203  1.00  0.00    -0.284 C  
HETATM   13  H   UNL     1      -6.904   5.905  67.749  1.00  0.00     0.000 HD 
HETATM   14  C   UNL     1     -10.737   7.902  67.270  1.00  0.00    -0.229 C  
HETATM   15  C   UNL     1      -9.844  12.463  65.932  1.00  0.00    -0.265 C  
HETATM   16  O   UNL     1     -10.102   7.778  65.990  1.00  0.00    -0.418 OA 
HETATM   17  C   UNL     1     -10.018   9.226  68.176  1.00  0.00    -0.177 C  
HETATM   18  C   UNL     1      -8.556   8.792  68.746  1.00  0.00    -0.137 C  
HETATM   19  F   UNL     1     -10.730   9.443  69.381  1.00  0.00    -0.212 F  
HETATM   20  H   UNL     1     -10.028   8.661  65.645  1.00  0.00     0.000 HD 
HETATM   21  C   UNL     1      -7.856   9.975  69.439  1.00  0.00    -0.141 C  
HETATM   22  C   UNL     1      -7.963  11.249  68.619  1.00  0.00    -0.145 C  
HETATM   23  C   UNL     1      -9.407  11.670  68.470  1.00  0.00    -0.169 C  
HETATM   24  F   UNL     1      -7.240  12.212  69.256  1.00  0.00    -0.097 F  
HETATM   25  C   UNL     1      -9.695  12.989  68.446  1.00  0.00    -0.192 C  
HETATM   26  C   UNL     1      -9.523  13.457  67.022  1.00  0.00    -0.247 C  
HETATM   27  O   UNL     1      -9.196  14.607  66.768  1.00  0.00    -0.238 OA 
ENDROOT
BRANCH   5  28
HETATM   28  C   UNL     1      -8.865   4.832  67.372  1.00  0.00    -0.104 C  
HETATM   29  C   UNL     1      -8.875   4.875  65.849  1.00  0.00    -0.130 C  
HETATM   30  O   UNL     1      -8.772   3.692  67.854  1.00  0.00    -0.095 OA 
HETATM   31 CL   UNL     1      -7.415   5.645  65.229  1.00  0.00    -0.072 Cl 
ENDBRANCH   5  28
TORSDOF 1
ENDMDL
MODEL       41
REMARK 921   NORMALIZED FREE ENERGY PREDICTED BY IDOCK:   -5.51 KCAL/MOL
REMARK 922        TOTAL FREE ENERGY PREDICTED BY IDOCK:   -4.61 KCAL/MOL
REMARK 923 INTER-LIGAND FREE ENERGY PREDICTED BY IDOCK:   -5.71 KCAL/MOL
REMARK 924 INTRA-LIGAND FREE ENERGY PREDICTED BY IDOCK:    1.10 KCAL/MOL
REMARK 927      BINDING AFFINITY PREDICTED BY RF-SCORE:    0.00 PKD
ROOT
HETATM    1  C   UNL     1     -10.679  10.405  68.174  1.00  0.00    -0.277 C  
HETATM    2  C   UNL     1      -9.739  10.299  69.220  1.00  0.00    -0.240 C  
HETATM    3  C   UNL     1      -9.169  11.101  68.068  1.00  0.00    -0.159 C  
HETATM    4  C   UNL     1      -7.934  11.857  68.925  1.00  0.00     0.040 C  
HETATM    5  C   UNL     1     -10.521  11.607  66.573  1.00  0.00    -0.239 C  
HETATM    6  O   UNL     1     -11.971  11.335  66.722  1.00  0.00    -0.262 OA 
HETATM    7  C   UNL     1      -6.629   7.767  66.243  1.00  0.00    -0.050 C  
HETATM    8  C   UNL     1     -10.038  12.175  67.708  1.00  0.00    -0.203 C  
HETATM    9  C   UNL     1      -8.660  12.195  66.342  1.00  0.00    -0.002 C  
HETATM   10  C   UNL     1     -10.605  13.276  68.602  1.00  0.00    -0.264 C  
HETATM   11  C   UNL     1      -8.174   7.695  65.872  1.00  0.00    -0.133 C  
HETATM   12  C   UNL     1      -8.158   7.271  64.414  1.00  0.00    -0.065 C  
HETATM   13  H   UNL     1     -12.589  11.566  66.038  1.00  0.00     0.000 HD 
HETATM   14  C   UNL     1      -8.385  10.538  65.614  1.00  0.00    -0.167 C  
HETATM   15  C   UNL     1      -8.155   5.955  64.088  1.00  0.00    -0.110 C  
HETATM   16  O   UNL     1      -9.001  10.564  64.319  1.00  0.00    -0.194 OA 
HETATM   17  C   UNL     1      -8.796   9.046  66.449  1.00  0.00    -0.146 C  
HETATM   18  C   UNL     1     -10.332   9.103  66.986  1.00  0.00    -0.333 C  
HETATM   19  F   UNL     1      -8.081   8.950  67.669  1.00  0.00    -0.102 F  
HETATM   20  H   UNL     1      -8.859   9.704  63.941  1.00  0.00     0.000 HD 
HETATM   21  C   UNL     1     -10.751   7.762  67.614  1.00  0.00    -0.227 C  
HETATM   22  C   UNL     1     -10.331   6.584  66.753  1.00  0.00    -0.210 C  
HETATM   23  C   UNL     1      -8.825   6.517  66.637  1.00  0.00    -0.135 C  
HETATM   24  F   UNL     1     -10.823   5.452  67.332  1.00  0.00    -0.270 F  
HETATM   25  C   UNL     1      -8.236   5.303  66.575  1.00  0.00    -0.108 C  
HETATM   26  C   UNL     1      -8.261   4.869  65.131  1.00  0.00    -0.124 C  
HETATM   27  O   UNL     1      -8.303   3.685  64.825  1.00  0.00    -0.095 OA 
ENDROOT
BRANCH   5  28
HETATM   28  C   UNL     1     -10.925  13.081  65.764  1.00  0.00    -0.277 C  
HETATM   29  C   UNL     1     -10.983  13.074  64.241  1.00  0.00    -0.399 C  
HETATM   30  O   UNL     1     -11.210  14.171  66.285  1.00  0.00    -0.317 OA 
HETATM   31 CL   UNL     1     -12.298  12.052  63.664  1.00  0.00    -0.641 Cl 
ENDBRANCH   5  28
TORSDOF 1
ENDMDL
MODEL       42
REMARK 921   NORMALIZED FREE ENERGY PREDICTED BY IDOCK:   -5.49 KCAL/MOL
REMARK 922        TOTAL FREE ENERGY PREDICTED BY IDOCK:   -4.58 KCAL/MOL
REMARK 923 INTER-LIGAND FREE ENERGY PREDICTED BY IDOCK:   -6.05 KCAL/MOL
REMARK 924 INTRA-LIGAND FREE ENERGY PREDICTED BY IDOCK:    1.46 KCAL/MOL
REMARK 927      BINDING AFFINITY PREDICTED BY RF-SCORE:    0.00 PKD
ROOT
HETATM    1  C   UNL     1      -9.218   7.958  67.300  1.00  0.00    -0.167 C  
HETATM    2  C   UNL     1     -10.580   8.195  67.014  1.00  0.00    -0.346 C  
HETATM    3  C   UNL     1      -9.941   9.422  67.632  1.00  0.00    -0.238 C  
HETATM    4  C   UNL     1     -11.094  10.539  67.127  1.00  0.00    -0.232 C  
HETATM    5  C   UNL     1      -7.875   9.350  67.840  1.00  0.00    -0.091 C  
HETATM    6  O   UNL     1      -7.082   8.235  67.267  1.00  0.00    -0.077 OA 
HETATM    7  C   UNL     1     -11.546   8.834  71.871  1.00  0.00    -0.432 C  
HETATM    8  C   UNL     1      -8.764   9.805  66.920  1.00  0.00    -0.143 C  
HETATM    9  C   UNL     1      -8.788  10.971  68.471  1.00  0.00    -0.159 C  
HETATM   10  C   UNL     1      -8.610  10.094  65.429  1.00  0.00    -0.165 C  
HETATM   11  C   UNL     1     -10.281   7.938  71.517  1.00  0.00    -0.232 C  
HETATM   12  C   UNL     1      -9.468   7.968  72.800  1.00  0.00    -0.336 C  
HETATM   13  H   UNL     1      -6.137   8.202  67.362  1.00  0.00     0.000 HD 
HETATM   14  C   UNL     1      -9.036  10.043  70.030  1.00  0.00    -0.091 C  
HETATM   15  C   UNL     1      -9.686   7.042  73.766  1.00  0.00    -0.311 C  
HETATM   16  O   UNL     1      -7.757   9.999  70.676  1.00  0.00    -0.404 OA 
HETATM   17  C   UNL     1      -9.799   8.459  70.089  1.00  0.00    -0.181 C  
HETATM   18  C   UNL     1      -9.096   7.453  69.019  1.00  0.00    -0.133 C  
HETATM   19  F   UNL     1     -11.118   8.528  69.577  1.00  0.00    -0.208 F  
HETATM   20  H   UNL     1      -7.885   9.517  71.485  1.00  0.00     0.000 HD 
HETATM   21  C   UNL     1      -9.666   6.029  69.139  1.00  0.00    -0.168 C  
HETATM   22  C   UNL     1      -9.769   5.585  70.587  1.00  0.00    -0.176 C  
HETATM   23  C   UNL     1     -10.732   6.467  71.350  1.00  0.00    -0.290 C  
HETATM   24  F   UNL     1     -10.188   4.288  70.594  1.00  0.00    -0.274 F  
HETATM   25  C   UNL     1     -11.487   5.908  72.320  1.00  0.00    -0.351 C  
HETATM   26  C   UNL     1     -10.659   5.903  73.582  1.00  0.00    -0.272 C  
HETATM   27  O   UNL     1     -10.817   5.046  74.439  1.00  0.00    -0.340 OA 
ENDROOT
BRANCH   5  28
HETATM   28  C   UNL     1      -6.585  10.423  67.425  1.00  0.00    -0.067 C  
HETATM   29  C   UNL     1      -5.265   9.819  66.960  1.00  0.00    -0.041 C  
HETATM   30  O   UNL     1      -6.608  11.664  67.430  1.00  0.00    -0.083 OA 
HETATM   31 CL   UNL     1      -5.461   8.984  65.420  1.00  0.00    -0.038 Cl 
ENDBRANCH   5  28
TORSDOF 1
ENDMDL
MODEL       43
REMARK 921   NORMALIZED FREE ENERGY PREDICTED BY IDOCK:   -5.45 KCAL/MOL
REMARK 922        TOTAL FREE ENERGY PREDICTED BY IDOCK:   -4.54 KCAL/MOL
REMARK 923 INTER-LIGAND FREE ENERGY PREDICTED BY IDOCK:   -6.01 KCAL/MOL
REMARK 924 INTRA-LIGAND FREE ENERGY PREDICTED BY IDOCK:    1.47 KCAL/MOL
REMARK 927      BINDING AFFINITY PREDICTED BY RF-SCORE:    0.00 PKD
ROOT
HETATM    1  C   UNL     1     -10.587   8.321  69.528  1.00  0.00    -0.216 C  
HETATM    2  C   UNL     1     -10.498   7.659  68.284  1.00  0.00    -0.219 C  
HETATM    3  C   UNL     1      -9.131   7.776  68.928  1.00  0.00    -0.141 C  
HETATM    4  C   UNL     1      -8.371   6.571  68.032  1.00  0.00    -0.116 C  
HETATM    5  C   UNL     1      -9.119   8.454  70.892  1.00  0.00    -0.160 C  
HETATM    6  O   UNL     1     -10.381   8.648  71.647  1.00  0.00    -0.241 OA 
HETATM    7  C   UNL     1      -7.639  11.331  66.472  1.00  0.00    -0.111 C  
HETATM    8  C   UNL     1      -9.141   7.254  70.257  1.00  0.00    -0.152 C  
HETATM    9  C   UNL     1      -7.381   8.052  70.067  1.00  0.00    -0.062 C  
HETATM   10  C   UNL     1      -9.589   5.873  70.731  1.00  0.00    -0.203 C  
HETATM   11  C   UNL     1      -8.609  11.720  67.670  1.00  0.00    -0.153 C  
HETATM   12  C   UNL     1      -7.988  12.994  68.216  1.00  0.00    -0.151 C  
HETATM   13  H   UNL     1     -10.375   8.959  72.545  1.00  0.00     0.000 HD 
HETATM   14  C   UNL     1      -7.465   9.761  69.415  1.00  0.00    -0.099 C  
HETATM   15  C   UNL     1      -8.349  14.198  67.708  1.00  0.00    -0.175 C  
HETATM   16  O   UNL     1      -7.213  10.626  70.530  1.00  0.00    -0.463 OA 
HETATM   17  C   UNL     1      -8.826  10.362  68.478  1.00  0.00    -0.142 C  
HETATM   18  C   UNL     1     -10.225  10.058  69.254  1.00  0.00    -0.229 C  
HETATM   19  F   UNL     1      -8.993   9.592  67.300  1.00  0.00    -0.131 F  
HETATM   20  H   UNL     1      -7.257  11.513  70.192  1.00  0.00     0.000 HD 
HETATM   21  C   UNL     1     -11.419  10.682  68.511  1.00  0.00    -0.333 C  
HETATM   22  C   UNL     1     -11.129  12.108  68.079  1.00  0.00    -0.244 C  
HETATM   23  C   UNL     1      -9.982  12.146  67.094  1.00  0.00    -0.210 C  
HETATM   24  F   UNL     1     -12.265  12.611  67.519  1.00  0.00    -0.391 F  
HETATM   25  C   UNL     1     -10.010  13.064  66.105  1.00  0.00    -0.278 C  
HETATM   26  C   UNL     1      -9.430  14.340  66.665  1.00  0.00    -0.286 C  
HETATM   27  O   UNL     1      -9.781  15.434  66.246  1.00  0.00    -0.257 OA 
ENDROOT
BRANCH   5  28
HETATM   28  C   UNL     1      -8.381   7.899  72.353  1.00  0.00    -0.138 C  
HETATM   29  C   UNL     1      -9.158   8.048  73.655  1.00  0.00    -0.231 C  
HETATM   30  O   UNL     1      -7.274   7.350  72.474  1.00  0.00    -0.070 OA 
HETATM   31 CL   UNL     1     -10.600   7.035  73.650  1.00  0.00    -0.406 Cl 
ENDBRANCH   5  28
TORSDOF 1
ENDMDL
MODEL       44
REMARK 921   NORMALIZED FREE ENERGY PREDICTED BY IDOCK:   -5.41 KCAL/MOL
REMARK 922        TOTAL FREE ENERGY PREDICTED BY IDOCK:   -4.50 KCAL/MOL
REMARK 923 INTER-LIGAND FREE ENERGY PREDICTED BY IDOCK:   -7.50 KCAL/MOL
REMARK 924 INTRA-LIGAND FREE ENERGY PREDICTED BY IDOCK:    3.00 KCAL/MOL
REMARK 927      BINDING AFFINITY PREDICTED BY RF-SCORE:    0.00 PKD
ROOT
HETATM    1  C   UNL     1      -9.572  18.915  66.222  1.00  0.00    -0.344 C  
HETATM    2  C   UNL     1     -10.668  19.254  67.045  1.00  0.00    -0.565 C  
HETATM    3  C   UNL     1      -9.518  18.724  67.876  1.00  0.00    -0.339 C  
HETATM    4  C   UNL     1     -10.019  19.348  69.357  1.00  0.00    -0.210 C  
HETATM    5  C   UNL     1      -7.724  18.459  66.861  1.00  0.00    -0.224 C  
HETATM    6  O   UNL     1      -7.557  18.918  65.461  1.00  0.00    -0.466 OA 
HETATM    7  C   UNL     1     -11.140  14.492  68.471  1.00  0.00    -0.271 C  
HETATM    8  C   UNL     1      -8.311  19.435  67.601  1.00  0.00    -0.334 C  
HETATM    9  C   UNL     1      -7.758  17.986  68.769  1.00  0.00    -0.273 C  
HETATM   10  C   UNL     1      -8.063  20.941  67.656  1.00  0.00    -0.070 C  
HETATM   11  C   UNL     1     -10.449  14.739  67.061  1.00  0.00    -0.270 C  
HETATM   12  C   UNL     1      -9.696  13.443  66.814  1.00  0.00    -0.262 C  
HETATM   13  H   UNL     1      -6.737  18.796  64.997  1.00  0.00     0.000 HD 
HETATM   14  C   UNL     1      -8.387  16.363  68.201  1.00  0.00    -0.186 C  
HETATM   15  C   UNL     1     -10.308  12.410  66.184  1.00  0.00    -0.271 C  
HETATM   16  O   UNL     1      -7.268  15.684  67.617  1.00  0.00    -0.140 OA 
HETATM   17  C   UNL     1      -9.803  16.193  67.172  1.00  0.00    -0.241 C  
HETATM   18  C   UNL     1      -9.673  17.158  65.867  1.00  0.00    -0.140 C  
HETATM   19  F   UNL     1     -10.944  16.741  67.807  1.00  0.00    -0.334 F  
HETATM   20  H   UNL     1      -7.594  14.841  67.322  1.00  0.00     0.000 HD 
HETATM   21  C   UNL     1     -10.842  16.935  64.893  1.00  0.00    -0.012 C  
HETATM   22  C   UNL     1     -11.117  15.459  64.673  1.00  0.00    -0.347 C  
HETATM   23  C   UNL     1     -11.541  14.795  65.964  1.00  0.00    -0.286 C  
HETATM   24  F   UNL     1     -12.096  15.355  63.731  1.00  0.00    -0.255 F  
HETATM   25  C   UNL     1     -12.453  13.802  65.910  1.00  0.00    -0.512 C  
HETATM   26  C   UNL     1     -11.704  12.524  65.624  1.00  0.00    -0.423 C  
HETATM   27  O   UNL     1     -12.232  11.602  65.017  1.00  0.00    -0.121 OA 
ENDROOT
BRANCH   5  28
HETATM   28  C   UNL     1      -6.088  18.928  67.165  1.00  0.00    -0.170 C  
HETATM   29  C   UNL     1      -5.377  18.324  68.370  1.00  0.00    -0.167 C  
HETATM   30  O   UNL     1      -5.389  19.698  66.487  1.00  0.00    -0.163 OA 
HETATM   31 CL   UNL     1      -5.151  16.588  68.165  1.00  0.00    -0.104 Cl 
ENDBRANCH   5  28
TORSDOF 1
ENDMDL
MODEL       45
REMARK 921   NORMALIZED FREE ENERGY PREDICTED BY IDOCK:   -5.41 KCAL/MOL
REMARK 922        TOTAL FREE ENERGY PREDICTED BY IDOCK:   -4.49 KCAL/MOL
REMARK 923 INTER-LIGAND FREE ENERGY PREDICTED BY IDOCK:   -5.59 KCAL/MOL
REMARK 924 INTRA-LIGAND FREE ENERGY PREDICTED BY IDOCK:    1.10 KCAL/MOL
REMARK 927      BINDING AFFINITY PREDICTED BY RF-SCORE:    0.00 PKD
ROOT
HETATM    1  C   UNL     1      -8.415   9.014  66.889  1.00  0.00    -0.120 C  
HETATM    2  C   UNL     1      -7.480   9.739  67.657  1.00  0.00    -0.091 C  
HETATM    3  C   UNL     1      -7.340   8.252  67.908  1.00  0.00    -0.096 C  
HETATM    4  C   UNL     1      -5.788   8.290  68.557  1.00  0.00    -0.040 C  
HETATM    5  C   UNL     1      -8.433   7.021  66.639  1.00  0.00    -0.121 C  
HETATM    6  O   UNL     1      -9.163   7.573  65.472  1.00  0.00    -0.385 OA 
HETATM    7  C   UNL     1      -9.606   8.119  71.875  1.00  0.00    -0.264 C  
HETATM    8  C   UNL     1      -7.176   7.535  66.683  1.00  0.00    -0.083 C  
HETATM    9  C   UNL     1      -7.353   6.149  68.030  1.00  0.00    -0.088 C  
HETATM   10  C   UNL     1      -6.143   7.762  65.582  1.00  0.00    -0.038 C  
HETATM   11  C   UNL     1     -10.537   8.156  70.587  1.00  0.00    -0.229 C  
HETATM   12  C   UNL     1     -11.664   7.205  70.948  1.00  0.00    -0.367 C  
HETATM   13  H   UNL     1      -9.663   7.010  64.892  1.00  0.00     0.000 HD 
HETATM   14  C   UNL     1      -8.804   6.420  69.114  1.00  0.00    -0.126 C  
HETATM   15  C   UNL     1     -12.764   7.666  71.593  1.00  0.00    -0.368 C  
HETATM   16  O   UNL     1      -9.796   5.474  68.694  1.00  0.00    -0.130 OA 
HETATM   17  C   UNL     1      -9.536   8.000  69.355  1.00  0.00    -0.160 C  
HETATM   18  C   UNL     1      -9.852   8.701  67.920  1.00  0.00    -0.211 C  
HETATM   19  F   UNL     1      -8.592   8.904  69.901  1.00  0.00    -0.115 F  
HETATM   20  H   UNL     1     -10.550   5.614  69.256  1.00  0.00     0.000 HD 
HETATM   21  C   UNL     1     -10.603  10.031  68.105  1.00  0.00    -0.268 C  
HETATM   22  C   UNL     1     -11.735   9.902  69.109  1.00  0.00     0.227 C  
HETATM   23  C   UNL     1     -11.197   9.553  70.478  1.00  0.00    -0.345 C  
HETATM   24  F   UNL     1     -12.400  11.091  69.137  1.00  0.00    -0.398 F  
HETATM   25  C   UNL     1     -11.820  10.058  71.564  1.00  0.00    -0.406 C  
HETATM   26  C   UNL     1     -12.964   9.131  71.894  1.00  0.00    -0.404 C  
HETATM   27  O   UNL     1     -13.980   9.545  72.435  1.00  0.00    -0.381 OA 
ENDROOT
BRANCH   5  28
HETATM   28  C   UNL     1      -8.050   5.630  65.687  1.00  0.00    -0.120 C  
HETATM   29  C   UNL     1      -8.826   4.344  65.944  1.00  0.00    -0.120 C  
HETATM   30  O   UNL     1      -7.215   5.552  64.771  1.00  0.00    -0.059 OA 
HETATM   31 CL   UNL     1     -10.525   4.535  65.516  1.00  0.00    -0.283 Cl 
ENDBRANCH   5  28
TORSDOF 1
ENDMDL
MODEL       46
REMARK 921   NORMALIZED FREE ENERGY PREDICTED BY IDOCK:   -5.39 KCAL/MOL
REMARK 922        TOTAL FREE ENERGY PREDICTED BY IDOCK:   -4.47 KCAL/MOL
REMARK 923 INTER-LIGAND FREE ENERGY PREDICTED BY IDOCK:   -5.84 KCAL/MOL
REMARK 924 INTRA-LIGAND FREE ENERGY PREDICTED BY IDOCK:    1.37 KCAL/MOL
REMARK 927      BINDING AFFINITY PREDICTED BY RF-SCORE:    0.00 PKD
ROOT
HETATM    1  C   UNL     1     -10.865   5.848  70.342  1.00  0.00    -0.378 C  
HETATM    2  C   UNL     1      -9.773   5.069  70.781  1.00  0.00    -0.263 C  
HETATM    3  C   UNL     1      -9.539   6.536  71.080  1.00  0.00    -0.185 C  
HETATM    4  C   UNL     1      -8.344   6.327  72.246  1.00  0.00    -0.108 C  
HETATM    5  C   UNL     1     -11.170   7.786  70.773  1.00  0.00    -0.271 C  
HETATM    6  O   UNL     1     -12.508   7.238  70.442  1.00  0.00    -0.574 OA 
HETATM    7  C   UNL     1      -6.747   7.402  67.565  1.00  0.00    -0.069 C  
HETATM    8  C   UNL     1     -10.631   7.094  71.810  1.00  0.00    -0.230 C  
HETATM    9  C   UNL     1      -9.502   8.618  71.396  1.00  0.00    -0.306 C  
HETATM   10  C   UNL     1     -11.245   6.606  73.120  1.00  0.00    -0.119 C  
HETATM   11  C   UNL     1      -8.292   7.379  67.188  1.00  0.00    -0.118 C  
HETATM   12  C   UNL     1      -8.422   8.521  66.196  1.00  0.00    -0.139 C  
HETATM   13  H   UNL     1     -13.254   7.810  70.302  1.00  0.00     0.000 HD 
HETATM   14  C   UNL     1      -9.048   8.678  69.623  1.00  0.00    -0.149 C  
HETATM   15  C   UNL     1      -8.231   8.298  64.872  1.00  0.00    -0.154 C  
HETATM   16  O   UNL     1      -9.847   9.717  69.042  1.00  0.00    -0.167 OA 
HETATM   17  C   UNL     1      -9.052   7.259  68.585  1.00  0.00    -0.133 C  
HETATM   18  C   UNL     1     -10.473   6.475  68.706  1.00  0.00    -0.245 C  
HETATM   19  F   UNL     1      -8.155   6.282  69.082  1.00  0.00    -0.103 F  
HETATM   20  H   UNL     1      -9.612   9.749  68.122  1.00  0.00     0.000 HD 
HETATM   21  C   UNL     1     -10.545   5.299  67.716  1.00  0.00    -0.109 C  
HETATM   22  C   UNL     1     -10.055   5.697  66.335  1.00  0.00    -0.156 C  
HETATM   23  C   UNL     1      -8.597   6.095  66.379  1.00  0.00    -0.131 C  
HETATM   24  F   UNL     1     -10.242   4.631  65.507  1.00  0.00    -0.203 F  
HETATM   25  C   UNL     1      -7.816   5.799  65.318  1.00  0.00    -0.106 C  
HETATM   26  C   UNL     1      -7.980   6.917  64.318  1.00  0.00    -0.086 C  
HETATM   27  O   UNL     1      -7.855   6.717  63.118  1.00  0.00    -0.108 OA 
ENDROOT
BRANCH   5  28
HETATM   28  C   UNL     1     -11.950   9.002  71.723  1.00  0.00    -0.368 C  
HETATM   29  C   UNL     1     -11.800  10.457  71.295  1.00  0.00    -0.289 C  
HETATM   30  O   UNL     1     -12.664   8.831  72.724  1.00  0.00    -0.331 OA 
HETATM   31 CL   UNL     1     -12.587  10.745  69.745  1.00  0.00    -0.242 Cl 
ENDBRANCH   5  28
TORSDOF 1
ENDMDL
MODEL       47
REMARK 921   NORMALIZED FREE ENERGY PREDICTED BY IDOCK:   -5.33 KCAL/MOL
REMARK 922        TOTAL FREE ENERGY PREDICTED BY IDOCK:   -4.41 KCAL/MOL
REMARK 923 INTER-LIGAND FREE ENERGY PREDICTED BY IDOCK:   -5.93 KCAL/MOL
REMARK 924 INTRA-LIGAND FREE ENERGY PREDICTED BY IDOCK:    1.52 KCAL/MOL
REMARK 927      BINDING AFFINITY PREDICTED BY RF-SCORE:    0.00 PKD
ROOT
HETATM    1  C   UNL     1      -8.522  17.410  69.122  1.00  0.00     0.064 C  
HETATM    2  C   UNL     1      -7.348  16.762  69.563  1.00  0.00     0.078 C  
HETATM    3  C   UNL     1      -7.348  16.902  68.054  1.00  0.00    -0.175 C  
HETATM    4  C   UNL     1      -5.696  16.681  67.820  1.00  0.00    -0.152 C  
HETATM    5  C   UNL     1      -8.855  18.095  67.264  1.00  0.00    -0.251 C  
HETATM    6  O   UNL     1      -9.758  18.877  68.142  1.00  0.00    -0.313 OA 
HETATM    7  C   UNL     1      -8.632  12.625  67.078  1.00  0.00    -0.181 C  
HETATM    8  C   UNL     1      -7.567  18.258  67.662  1.00  0.00    -0.222 C  
HETATM    9  C   UNL     1      -7.605  17.263  65.995  1.00  0.00    -0.226 C  
HETATM   10  C   UNL     1      -6.797  19.505  68.089  1.00  0.00    -0.306 C  
HETATM   11  C   UNL     1      -9.823  13.588  67.505  1.00  0.00    -0.227 C  
HETATM   12  C   UNL     1     -10.949  13.177  66.573  1.00  0.00    -0.303 C  
HETATM   13  H   UNL     1     -10.447  19.423  67.781  1.00  0.00     0.000 HD 
HETATM   14  C   UNL     1      -8.718  15.812  66.083  1.00  0.00    -0.258 C  
HETATM   15  C   UNL     1     -11.801  12.184  66.931  1.00  0.00    -0.295 C  
HETATM   16  O   UNL     1      -9.895  16.168  65.345  1.00  0.00    -0.474 OA 
HETATM   17  C   UNL     1      -9.163  15.037  67.597  1.00  0.00    -0.182 C  
HETATM   18  C   UNL     1      -9.709  16.144  68.659  1.00  0.00    -0.227 C  
HETATM   19  F   UNL     1      -8.010  14.560  68.265  1.00  0.00    -0.113 F  
HETATM   20  H   UNL     1     -10.473  15.414  65.390  1.00  0.00     0.000 HD 
HETATM   21  C   UNL     1     -10.218  15.475  69.947  1.00  0.00    -0.305 C  
HETATM   22  C   UNL     1     -11.093  14.271  69.647  1.00  0.00    -0.175 C  
HETATM   23  C   UNL     1     -10.303  13.202  68.925  1.00  0.00    -0.068 C  
HETATM   24  F   UNL     1     -11.573  13.802  70.833  1.00  0.00    -0.286 F  
HETATM   25  C   UNL     1     -10.587  11.907  69.182  1.00  0.00    -0.085 C  
HETATM   26  C   UNL     1     -11.733  11.516  68.282  1.00  0.00    -0.301 C  
HETATM   27  O   UNL     1     -12.533  10.653  68.614  1.00  0.00    -0.252 OA 
ENDROOT
BRANCH   5  28
HETATM   28  C   UNL     1      -8.887  19.405  66.136  1.00  0.00    -0.283 C  
HETATM   29  C   UNL     1     -10.018  20.420  66.243  1.00  0.00    -0.225 C  
HETATM   30  O   UNL     1      -8.062  19.646  65.240  1.00  0.00    -0.161 OA 
HETATM   31 CL   UNL     1      -9.910  21.330  67.749  1.00  0.00    -0.024 Cl 
ENDBRANCH   5  28
TORSDOF 1
ENDMDL
MODEL       48
REMARK 921   NORMALIZED FREE ENERGY PREDICTED BY IDOCK:   -5.32 KCAL/MOL
REMARK 922        TOTAL FREE ENERGY PREDICTED BY IDOCK:   -4.40 KCAL/MOL
REMARK 923 INTER-LIGAND FREE ENERGY PREDICTED BY IDOCK:   -5.56 KCAL/MOL
REMARK 924 INTRA-LIGAND FREE ENERGY PREDICTED BY IDOCK:    1.16 KCAL/MOL
REMARK 927      BINDING AFFINITY PREDICTED BY RF-SCORE:    0.00 PKD
ROOT
HETATM    1  C   UNL     1      -7.690   8.924  63.467  1.00  0.00    -0.128 C  
HETATM    2  C   UNL     1      -6.635   9.862  63.464  1.00  0.00    -0.124 C  
HETATM    3  C   UNL     1      -6.722   9.158  64.803  1.00  0.00    -0.078 C  
HETATM    4  C   UNL     1      -5.167   9.522  65.335  1.00  0.00    -0.040 C  
HETATM    5  C   UNL     1      -8.022   7.539  64.884  1.00  0.00    -0.132 C  
HETATM    6  O   UNL     1      -8.686   7.023  63.662  1.00  0.00    -0.169 OA 
HETATM    7  C   UNL     1      -8.886  12.488  67.066  1.00  0.00    -0.212 C  
HETATM    8  C   UNL     1      -6.700   7.739  64.642  1.00  0.00    -0.047 C  
HETATM    9  C   UNL     1      -7.057   8.003  66.532  1.00  0.00    -0.075 C  
HETATM   10  C   UNL     1      -5.671   6.883  63.908  1.00  0.00    -0.032 C  
HETATM   11  C   UNL     1      -9.831  11.591  66.154  1.00  0.00    -0.250 C  
HETATM   12  C   UNL     1     -11.082  11.438  67.000  1.00  0.00    -0.364 C  
HETATM   13  H   UNL     1      -9.280   6.283  63.699  1.00  0.00     0.000 HD 
HETATM   14  C   UNL     1      -8.423   9.189  66.817  1.00  0.00    -0.123 C  
HETATM   15  C   UNL     1     -12.082  12.349  66.908  1.00  0.00    -0.097 C  
HETATM   16  O   UNL     1      -9.560   8.404  67.200  1.00  0.00    -0.158 OA 
HETATM   17  C   UNL     1      -8.896  10.406  65.639  1.00  0.00    -0.173 C  
HETATM   18  C   UNL     1      -9.133   9.719  64.182  1.00  0.00    -0.289 C  
HETATM   19  F   UNL     1      -7.810  11.272  65.362  1.00  0.00     0.013 F  
HETATM   20  H   UNL     1     -10.269   9.019  67.348  1.00  0.00     0.000 HD 
HETATM   21  C   UNL     1      -9.664  10.744  63.165  1.00  0.00    -0.394 C  
HETATM   22  C   UNL     1     -10.778  11.593  63.752  1.00  0.00    -0.419 C  
HETATM   23  C   UNL     1     -10.269  12.412  64.917  1.00  0.00    -0.301 C  
HETATM   24  F   UNL     1     -11.250  12.399  62.761  1.00  0.00    -0.273 F  
HETATM   25  C   UNL     1     -10.780  13.647  65.109  1.00  0.00    -0.359 C  
HETATM   26  C   UNL     1     -12.045  13.485  65.914  1.00  0.00    -0.435 C  
HETATM   27  O   UNL     1     -12.971  14.276  65.806  1.00  0.00    -0.436 OA 
ENDROOT
BRANCH   5  28
HETATM   28  C   UNL     1      -7.882   5.910  65.443  1.00  0.00    -0.102 C  
HETATM   29  C   UNL     1      -8.768   5.467  66.602  1.00  0.00    -0.115 C  
HETATM   30  O   UNL     1      -7.148   5.018  64.987  1.00  0.00    -0.060 OA 
HETATM   31 CL   UNL     1     -10.468   5.473  66.136  1.00  0.00    -0.193 Cl 
ENDBRANCH   5  28
TORSDOF 1
ENDMDL
MODEL       49
REMARK 921   NORMALIZED FREE ENERGY PREDICTED BY IDOCK:   -5.28 KCAL/MOL
REMARK 922        TOTAL FREE ENERGY PREDICTED BY IDOCK:   -4.36 KCAL/MOL
REMARK 923 INTER-LIGAND FREE ENERGY PREDICTED BY IDOCK:   -5.60 KCAL/MOL
REMARK 924 INTRA-LIGAND FREE ENERGY PREDICTED BY IDOCK:    1.24 KCAL/MOL
REMARK 927      BINDING AFFINITY PREDICTED BY RF-SCORE:    0.00 PKD
ROOT
HETATM    1  C   UNL     1     -10.879  10.173  67.534  1.00  0.00    -0.349 C  
HETATM    2  C   UNL     1     -10.907  10.382  66.138  1.00  0.00     0.011 C  
HETATM    3  C   UNL     1      -9.488  10.154  66.617  1.00  0.00    -0.211 C  
HETATM    4  C   UNL     1      -8.823   9.750  65.125  1.00  0.00    -0.213 C  
HETATM    5  C   UNL     1      -9.295   9.535  68.591  1.00  0.00    -0.142 C  
HETATM    6  O   UNL     1     -10.483   9.188  69.408  1.00  0.00    -0.211 OA 
HETATM    7  C   UNL     1      -8.178  14.533  66.649  1.00  0.00     0.204 C  
HETATM    8  C   UNL     1      -9.386   8.945  67.371  1.00  0.00    -0.165 C  
HETATM    9  C   UNL     1      -7.641   9.776  67.557  1.00  0.00    -0.091 C  
HETATM   10  C   UNL     1      -9.806   7.535  66.964  1.00  0.00    -0.280 C  
HETATM   11  C   UNL     1      -9.034  14.093  67.915  1.00  0.00    -0.185 C  
HETATM   12  C   UNL     1      -8.353  14.820  69.061  1.00  0.00    -0.144 C  
HETATM   13  H   UNL     1     -10.395   8.905  70.311  1.00  0.00     0.000 HD 
HETATM   14  C   UNL     1      -7.763  11.533  68.057  1.00  0.00    -0.119 C  
HETATM   15  C   UNL     1      -8.743  16.074  69.399  1.00  0.00    -0.153 C  
HETATM   16  O   UNL     1      -7.404  11.578  69.445  1.00  0.00    -0.300 OA 
HETATM   17  C   UNL     1      -9.194  12.513  67.770  1.00  0.00    -0.198 C  
HETATM   18  C   UNL     1     -10.522  11.748  68.320  1.00  0.00    -0.224 C  
HETATM   19  F   UNL     1      -9.473  12.586  66.384  1.00  0.00    -0.223 F  
HETATM   20  H   UNL     1      -7.467  12.490  69.706  1.00  0.00     0.000 HD 
HETATM   21  C   UNL     1     -11.770  12.638  68.189  1.00  0.00    -0.396 C  
HETATM   22  C   UNL     1     -11.503  14.054  68.668  1.00  0.00    -0.302 C  
HETATM   23  C   UNL     1     -10.447  14.718  67.813  1.00  0.00    -0.254 C  
HETATM   24  F   UNL     1     -12.679  14.740  68.607  1.00  0.00    -0.013 F  
HETATM   25  C   UNL     1     -10.552  16.041  67.571  1.00  0.00    -0.313 C  
HETATM   26  C   UNL     1      -9.911  16.760  68.733  1.00  0.00    -0.264 C  
HETATM   27  O   UNL     1     -10.285  17.873  69.074  1.00  0.00    -0.378 OA 
ENDROOT
BRANCH   5  28
HETATM   28  C   UNL     1      -8.437   8.254  69.373  1.00  0.00    -0.123 C  
HETATM   29  C   UNL     1      -7.879   8.506  70.768  1.00  0.00    -0.097 C  
HETATM   30  O   UNL     1      -8.237   7.108  68.938  1.00  0.00    -0.123 OA 
HETATM   31 CL   UNL     1      -9.179   8.744  71.935  1.00  0.00    -0.343 Cl 
ENDBRANCH   5  28
TORSDOF 1
ENDMDL
MODEL       50
REMARK 921   NORMALIZED FREE ENERGY PREDICTED BY IDOCK:   -5.26 KCAL/MOL
REMARK 922        TOTAL FREE ENERGY PREDICTED BY IDOCK:   -4.34 KCAL/MOL
REMARK 923 INTER-LIGAND FREE ENERGY PREDICTED BY IDOCK:   -5.43 KCAL/MOL
REMARK 924 INTRA-LIGAND FREE ENERGY PREDICTED BY IDOCK:    1.09 KCAL/MOL
REMARK 927      BINDING AFFINITY PREDICTED BY RF-SCORE:    0.00 PKD
ROOT
HETATM    1  C   UNL     1      -7.078  10.350  67.352  1.00  0.00    -0.087 C  
HETATM    2  C   UNL     1      -7.448   9.925  68.646  1.00  0.00    -0.075 C  
HETATM    3  C   UNL     1      -8.567   9.668  67.658  1.00  0.00    -0.126 C  
HETATM    4  C   UNL     1      -9.404   8.532  68.575  1.00  0.00    -0.139 C  
HETATM    5  C   UNL     1      -8.082   9.956  65.658  1.00  0.00    -0.128 C  
HETATM    6  O   UNL     1      -6.688  10.234  65.236  1.00  0.00    -0.124 OA 
HETATM    7  C   UNL     1     -11.144  13.282  68.749  1.00  0.00    -0.303 C  
HETATM    8  C   UNL     1      -8.102   8.919  66.535  1.00  0.00    -0.107 C  
HETATM    9  C   UNL     1      -9.923   9.402  66.068  1.00  0.00    -0.352 C  
HETATM   10  C   UNL     1      -7.367   7.580  66.526  1.00  0.00    -0.084 C  
HETATM   11  C   UNL     1      -9.919  13.613  67.791  1.00  0.00    -0.235 C  
HETATM   12  C   UNL     1     -10.503  14.628  66.823  1.00  0.00    -0.277 C  
HETATM   13  H   UNL     1      -6.466  10.366  64.322  1.00  0.00     0.000 HD 
HETATM   14  C   UNL     1     -10.246  11.188  66.307  1.00  0.00    -0.239 C  
HETATM   15  C   UNL     1     -10.460  15.951  67.116  1.00  0.00    -0.313 C  
HETATM   16  O   UNL     1     -10.262  11.770  64.997  1.00  0.00    -0.252 OA 
HETATM   17  C   UNL     1      -9.307  12.192  67.404  1.00  0.00    -0.181 C  
HETATM   18  C   UNL     1      -7.716  12.011  67.113  1.00  0.00    -0.161 C  
HETATM   19  F   UNL     1      -9.403  11.699  68.728  1.00  0.00    -0.189 F  
HETATM   20  H   UNL     1     -10.429  12.697  65.121  1.00  0.00     0.000 HD 
HETATM   21  C   UNL     1      -6.881  12.971  67.979  1.00  0.00    -0.113 C  
HETATM   22  C   UNL     1      -7.459  14.374  67.980  1.00  0.00    -0.140 C  
HETATM   23  C   UNL     1      -8.841  14.383  68.593  1.00  0.00    -0.167 C  
HETATM   24  F   UNL     1      -6.610  15.172  68.687  1.00  0.00    -0.086 F  
HETATM   25  C   UNL     1      -9.219  15.459  69.315  1.00  0.00    -0.259 C  
HETATM   26  C   UNL     1      -9.761  16.480  68.345  1.00  0.00    -0.236 C  
HETATM   27  O   UNL     1      -9.687  17.678  68.578  1.00  0.00    -0.298 OA 
ENDROOT
BRANCH   5  28
HETATM   28  C   UNL     1      -8.282   9.013  64.223  1.00  0.00    -0.164 C  
HETATM   29  C   UNL     1      -9.012   9.641  63.042  1.00  0.00    -0.238 C  
HETATM   30  O   UNL     1      -7.867   7.861  64.016  1.00  0.00    -0.130 OA 
HETATM   31 CL   UNL     1      -8.096  10.994  62.380  1.00  0.00    -0.229 Cl 
ENDBRANCH   5  28
TORSDOF 1
ENDMDL
MODEL       51
REMARK 921   NORMALIZED FREE ENERGY PREDICTED BY IDOCK:   -5.25 KCAL/MOL
REMARK 922        TOTAL FREE ENERGY PREDICTED BY IDOCK:   -4.32 KCAL/MOL
REMARK 923 INTER-LIGAND FREE ENERGY PREDICTED BY IDOCK:   -5.99 KCAL/MOL
REMARK 924 INTRA-LIGAND FREE ENERGY PREDICTED BY IDOCK:    1.67 KCAL/MOL
REMARK 927      BINDING AFFINITY PREDICTED BY RF-SCORE:    0.00 PKD
ROOT
HETATM    1  C   UNL     1     -10.246  10.397  68.679  1.00  0.00    -0.196 C  
HETATM    2  C   UNL     1      -9.136  10.535  69.540  1.00  0.00    -0.063 C  
HETATM    3  C   UNL     1      -8.703  10.620  68.091  1.00  0.00    -0.130 C  
HETATM    4  C   UNL     1      -7.219  11.367  68.356  1.00  0.00    -0.087 C  
HETATM    5  C   UNL     1     -10.243  10.736  66.700  1.00  0.00    -0.233 C  
HETATM    6  O   UNL     1     -11.655  10.889  67.126  1.00  0.00    -0.431 OA 
HETATM    7  C   UNL     1      -7.123   6.348  67.707  1.00  0.00    -0.085 C  
HETATM    8  C   UNL     1      -9.457  11.607  67.385  1.00  0.00    -0.171 C  
HETATM    9  C   UNL     1      -8.403  10.733  66.009  1.00  0.00    -0.163 C  
HETATM   10  C   UNL     1      -9.656  13.079  67.736  1.00  0.00    -0.208 C  
HETATM   11  C   UNL     1      -8.704   6.478  67.594  1.00  0.00    -0.114 C  
HETATM   12  C   UNL     1      -9.054   5.484  66.500  1.00  0.00    -0.138 C  
HETATM   13  H   UNL     1     -12.359  10.942  66.490  1.00  0.00     0.000 HD 
HETATM   14  C   UNL     1      -8.536   8.908  66.093  1.00  0.00    -0.125 C  
HETATM   15  C   UNL     1      -9.315   4.190  66.814  1.00  0.00    -0.190 C  
HETATM   16  O   UNL     1      -9.394   8.522  65.011  1.00  0.00    -0.394 OA 
HETATM   17  C   UNL     1      -8.984   8.047  67.559  1.00  0.00    -0.138 C  
HETATM   18  C   UNL     1     -10.350   8.673  68.186  1.00  0.00    -0.267 C  
HETATM   19  F   UNL     1      -8.056   8.319  68.594  1.00  0.00    -0.111 F  
HETATM   20  H   UNL     1      -9.464   7.575  65.054  1.00  0.00     0.000 HD 
HETATM   21  C   UNL     1     -10.827   7.858  69.401  1.00  0.00    -0.114 C  
HETATM   22  C   UNL     1     -10.775   6.365  69.132  1.00  0.00    -0.284 C  
HETATM   23  C   UNL     1      -9.352   5.916  68.883  1.00  0.00    -0.139 C  
HETATM   24  F   UNL     1     -11.301   5.730  70.217  1.00  0.00    -0.397 F  
HETATM   25  C   UNL     1      -8.978   4.693  69.314  1.00  0.00    -0.140 C  
HETATM   26  C   UNL     1      -9.364   3.704  68.241  1.00  0.00    -0.170 C  
HETATM   27  O   UNL     1      -9.646   2.547  68.518  1.00  0.00    -0.180 OA 
ENDROOT
BRANCH   5  28
HETATM   28  C   UNL     1     -10.579  11.776  65.361  1.00  0.00    -0.277 C  
HETATM   29  C   UNL     1     -11.979  12.368  65.242  1.00  0.00    -0.404 C  
HETATM   30  O   UNL     1      -9.791  12.137  64.472  1.00  0.00    -0.219 OA 
HETATM   31 CL   UNL     1     -12.309  13.480  66.569  1.00  0.00    -0.420 Cl 
ENDBRANCH   5  28
TORSDOF 1
ENDMDL
MODEL       52
REMARK 921   NORMALIZED FREE ENERGY PREDICTED BY IDOCK:   -5.22 KCAL/MOL
REMARK 922        TOTAL FREE ENERGY PREDICTED BY IDOCK:   -4.30 KCAL/MOL
REMARK 923 INTER-LIGAND FREE ENERGY PREDICTED BY IDOCK:   -5.46 KCAL/MOL
REMARK 924 INTRA-LIGAND FREE ENERGY PREDICTED BY IDOCK:    1.16 KCAL/MOL
REMARK 927      BINDING AFFINITY PREDICTED BY RF-SCORE:    0.00 PKD
ROOT
HETATM    1  C   UNL     1     -10.497   5.970  69.975  1.00  0.00    -0.313 C  
HETATM    2  C   UNL     1      -9.470   5.144  70.480  1.00  0.00    -0.229 C  
HETATM    3  C   UNL     1      -9.513   6.461  71.227  1.00  0.00    -0.175 C  
HETATM    4  C   UNL     1      -8.654   5.964  72.586  1.00  0.00    -0.119 C  
HETATM    5  C   UNL     1     -11.151   7.673  70.816  1.00  0.00    -0.264 C  
HETATM    6  O   UNL     1     -12.272   7.191  69.972  1.00  0.00    -0.535 OA 
HETATM    7  C   UNL     1      -6.025   8.467  69.059  1.00  0.00    -0.043 C  
HETATM    8  C   UNL     1     -10.822   6.725  71.732  1.00  0.00    -0.257 C  
HETATM    9  C   UNL     1      -9.828   8.351  72.102  1.00  0.00    -0.372 C  
HETATM   10  C   UNL     1     -11.694   5.839  72.618  1.00  0.00    -0.256 C  
HETATM   11  C   UNL     1      -7.398   8.490  68.257  1.00  0.00    -0.094 C  
HETATM   12  C   UNL     1      -7.405   9.872  67.626  1.00  0.00    -0.090 C  
HETATM   13  H   UNL     1     -13.021   7.745  69.784  1.00  0.00     0.000 HD 
HETATM   14  C   UNL     1      -8.932   8.962  70.627  1.00  0.00    -0.199 C  
HETATM   15  C   UNL     1      -6.843  10.066  66.407  1.00  0.00    -0.093 C  
HETATM   16  O   UNL     1      -9.675  10.092  70.148  1.00  0.00    -0.347 OA 
HETATM   17  C   UNL     1      -8.479   7.922  69.283  1.00  0.00    -0.137 C  
HETATM   18  C   UNL     1      -9.769   7.077  68.763  1.00  0.00    -0.143 C  
HETATM   19  F   UNL     1      -7.629   6.881  69.730  1.00  0.00    -0.092 F  
HETATM   20  H   UNL     1      -9.210  10.409  69.382  1.00  0.00     0.000 HD 
HETATM   21  C   UNL     1      -9.424   6.251  67.511  1.00  0.00    -0.115 C  
HETATM   22  C   UNL     1      -8.641   7.067  66.499  1.00  0.00    -0.129 C  
HETATM   23  C   UNL     1      -7.310   7.497  67.073  1.00  0.00    -0.094 C  
HETATM   24  F   UNL     1      -8.464   6.293  65.391  1.00  0.00    -0.137 F  
HETATM   25  C   UNL     1      -6.245   7.569  66.247  1.00  0.00    -0.041 C  
HETATM   26  C   UNL     1      -6.280   8.928  65.591  1.00  0.00    -0.052 C  
HETATM   27  O   UNL     1      -5.816   9.104  64.474  1.00  0.00    -0.066 OA 
ENDROOT
BRANCH   5  28
HETATM   28  C   UNL     1     -12.304   8.511  71.794  1.00  0.00    -0.338 C  
HETATM   29  C   UNL     1     -12.356  10.031  71.704  1.00  0.00    -0.394 C  
HETATM   30  O   UNL     1     -13.141   8.012  72.564  1.00  0.00    -0.098 OA 
HETATM   31 CL   UNL     1     -12.891  10.551  70.107  1.00  0.00    -0.233 Cl 
ENDBRANCH   5  28
TORSDOF 1
ENDMDL
MODEL       53
REMARK 921   NORMALIZED FREE ENERGY PREDICTED BY IDOCK:   -5.09 KCAL/MOL
REMARK 922        TOTAL FREE ENERGY PREDICTED BY IDOCK:   -4.16 KCAL/MOL
REMARK 923 INTER-LIGAND FREE ENERGY PREDICTED BY IDOCK:   -5.36 KCAL/MOL
REMARK 924 INTRA-LIGAND FREE ENERGY PREDICTED BY IDOCK:    1.20 KCAL/MOL
REMARK 927      BINDING AFFINITY PREDICTED BY RF-SCORE:    0.00 PKD
ROOT
HETATM    1  C   UNL     1      -8.610  12.043  67.933  1.00  0.00    -0.165 C  
HETATM    2  C   UNL     1      -9.336  12.009  69.142  1.00  0.00     0.470 C  
HETATM    3  C   UNL     1     -10.251  11.758  67.961  1.00  0.00    -0.202 C  
HETATM    4  C   UNL     1     -11.516  11.052  68.818  1.00  0.00    -0.372 C  
HETATM    5  C   UNL     1      -9.302  11.476  66.134  1.00  0.00    -0.215 C  
HETATM    6  O   UNL     1      -7.825  11.369  66.043  1.00  0.00    -0.360 OA 
HETATM    7  C   UNL     1     -12.027  15.962  67.700  1.00  0.00     0.505 C  
HETATM    8  C   UNL     1      -9.760  10.694  67.145  1.00  0.00    -0.199 C  
HETATM    9  C   UNL     1     -11.266  11.406  66.149  1.00  0.00    -0.203 C  
HETATM   10  C   UNL     1      -9.393   9.271  67.562  1.00  0.00    -0.148 C  
HETATM   11  C   UNL     1     -10.585  15.815  67.046  1.00  0.00    -0.316 C  
HETATM   12  C   UNL     1     -10.684  16.674  65.797  1.00  0.00    -0.210 C  
HETATM   13  H   UNL     1      -7.391  11.240  65.208  1.00  0.00     0.000 HD 
HETATM   14  C   UNL     1     -11.181  13.227  65.979  1.00  0.00    -0.297 C  
HETATM   15  C   UNL     1     -10.378  17.994  65.854  1.00  0.00    -0.274 C  
HETATM   16  O   UNL     1     -10.777  13.483  64.627  1.00  0.00    -0.373 OA 
HETATM   17  C   UNL     1     -10.276  14.251  67.085  1.00  0.00    -0.254 C  
HETATM   18  C   UNL     1      -8.753  13.697  67.249  1.00  0.00    -0.223 C  
HETATM   19  F   UNL     1     -10.766  14.104  68.406  1.00  0.00    -0.231 F  
HETATM   20  H   UNL     1     -10.733  14.428  64.538  1.00  0.00     0.000 HD 
HETATM   21  C   UNL     1      -7.908  14.646  68.117  1.00  0.00    -0.128 C  
HETATM   22  C   UNL     1      -8.109  16.098  67.723  1.00  0.00    -0.146 C  
HETATM   23  C   UNL     1      -9.544  16.520  67.949  1.00  0.00    -0.233 C  
HETATM   24  F   UNL     1      -7.257  16.853  68.472  1.00  0.00    -0.164 F  
HETATM   25  C   UNL     1      -9.788  17.786  68.349  1.00  0.00    -0.347 C  
HETATM   26  C   UNL     1      -9.844  18.643  67.108  1.00  0.00    -0.314 C  
HETATM   27  O   UNL     1      -9.527  19.823  67.137  1.00  0.00    -0.320 OA 
ENDROOT
BRANCH   5  28
HETATM   28  C   UNL     1      -9.422  10.287  64.886  1.00  0.00    -0.279 C  
HETATM   29  C   UNL     1      -9.924  10.728  63.516  1.00  0.00    -0.344 C  
HETATM   30  O   UNL     1      -9.114   9.086  64.958  1.00  0.00    -0.197 OA 
HETATM   31 CL   UNL     1      -8.788  11.840  62.755  1.00  0.00     0.181 Cl 
ENDBRANCH   5  28
TORSDOF 1
ENDMDL
MODEL       54
REMARK 921   NORMALIZED FREE ENERGY PREDICTED BY IDOCK:   -5.05 KCAL/MOL
REMARK 922        TOTAL FREE ENERGY PREDICTED BY IDOCK:   -4.11 KCAL/MOL
REMARK 923 INTER-LIGAND FREE ENERGY PREDICTED BY IDOCK:   -5.29 KCAL/MOL
REMARK 924 INTRA-LIGAND FREE ENERGY PREDICTED BY IDOCK:    1.17 KCAL/MOL
REMARK 927      BINDING AFFINITY PREDICTED BY RF-SCORE:    0.00 PKD
ROOT
HETATM    1  C   UNL     1     -10.361  11.920  65.536  1.00  0.00    -0.303 C  
HETATM    2  C   UNL     1      -9.159  11.950  64.797  1.00  0.00     0.387 C  
HETATM    3  C   UNL     1      -8.885  11.637  66.254  1.00  0.00    -0.164 C  
HETATM    4  C   UNL     1      -7.351  10.977  66.044  1.00  0.00    -0.025 C  
HETATM    5  C   UNL     1     -10.561  11.259  67.422  1.00  0.00    -0.224 C  
HETATM    6  O   UNL     1     -11.911  11.148  66.818  1.00  0.00    -0.271 OA 
HETATM    7  C   UNL     1      -7.531  15.822  67.499  1.00  0.00    -0.198 C  
HETATM    8  C   UNL     1      -9.670  10.531  66.701  1.00  0.00    -0.232 C  
HETATM    9  C   UNL     1      -8.810  11.191  68.311  1.00  0.00    -0.155 C  
HETATM   10  C   UNL     1      -9.770   9.132  66.097  1.00  0.00    -0.357 C  
HETATM   11  C   UNL     1      -9.108  15.640  67.407  1.00  0.00    -0.203 C  
HETATM   12  C   UNL     1      -9.616  16.433  68.599  1.00  0.00    -0.240 C  
HETATM   13  H   UNL     1     -12.678  10.975  67.352  1.00  0.00     0.000 HD 
HETATM   14  C   UNL     1      -9.007  13.000  68.507  1.00  0.00    -0.048 C  
HETATM   15  C   UNL     1      -9.894  17.754  68.470  1.00  0.00    -0.355 C  
HETATM   16  O   UNL     1      -9.994  13.185  69.531  1.00  0.00     0.010 OA 
HETATM   17  C   UNL     1      -9.326  14.080  67.157  1.00  0.00    -0.242 C  
HETATM   18  C   UNL     1     -10.589  13.536  66.285  1.00  0.00    -0.288 C  
HETATM   19  F   UNL     1      -8.280  14.003  66.205  1.00  0.00     0.214 F  
HETATM   20  H   UNL     1     -10.097  14.124  69.633  1.00  0.00     0.000 HD 
HETATM   21  C   UNL     1     -10.962  14.529  65.170  1.00  0.00    -0.387 C  
HETATM   22  C   UNL     1     -11.001  15.958  65.680  1.00  0.00    -0.203 C  
HETATM   23  C   UNL     1      -9.634  16.392  66.160  1.00  0.00    -0.356 C  
HETATM   24  F   UNL     1     -11.431  16.751  64.658  1.00  0.00    -0.379 F  
HETATM   25  C   UNL     1      -9.264  17.677  65.977  1.00  0.00    -0.049 C  
HETATM   26  C   UNL     1      -9.806  18.467  67.143  1.00  0.00    -0.319 C  
HETATM   27  O   UNL     1     -10.102  19.648  67.025  1.00  0.00    -0.356 OA 
ENDROOT
BRANCH   5  28
HETATM   28  C   UNL     1     -11.000  10.006  68.529  1.00  0.00    -0.209 C  
HETATM   29  C   UNL     1     -11.226  10.380  69.989  1.00  0.00    -0.316 C  
HETATM   30  O   UNL     1     -11.188   8.806  68.270  1.00  0.00     0.203 OA 
HETATM   31 CL   UNL     1     -12.632  11.430  70.161  1.00  0.00    -0.221 Cl 
ENDBRANCH   5  28
TORSDOF 1
ENDMDL
MODEL       55
REMARK 921   NORMALIZED FREE ENERGY PREDICTED BY IDOCK:   -5.02 KCAL/MOL
REMARK 922        TOTAL FREE ENERGY PREDICTED BY IDOCK:   -4.08 KCAL/MOL
REMARK 923 INTER-LIGAND FREE ENERGY PREDICTED BY IDOCK:   -5.17 KCAL/MOL
REMARK 924 INTRA-LIGAND FREE ENERGY PREDICTED BY IDOCK:    1.09 KCAL/MOL
REMARK 927      BINDING AFFINITY PREDICTED BY RF-SCORE:    0.00 PKD
ROOT
HETATM    1  C   UNL     1     -11.280   8.239  69.262  1.00  0.00     0.277 C  
HETATM    2  C   UNL     1     -11.018   7.474  70.418  1.00  0.00    -0.264 C  
HETATM    3  C   UNL     1      -9.977   8.560  70.249  1.00  0.00    -0.196 C  
HETATM    4  C   UNL     1      -9.412   8.563  71.835  1.00  0.00    -0.350 C  
HETATM    5  C   UNL     1     -10.376   9.964  68.770  1.00  0.00    -0.203 C  
HETATM    6  O   UNL     1     -11.674   9.978  68.052  1.00  0.00    -0.645 OA 
HETATM    7  C   UNL     1      -6.680   5.932  68.483  1.00  0.00    -0.057 C  
HETATM    8  C   UNL     1     -10.588   9.843  70.106  1.00  0.00    -0.350 C  
HETATM    9  C   UNL     1      -8.703  10.171  69.780  1.00  0.00    -0.148 C  
HETATM   10  C   UNL     1     -11.597  10.522  71.030  1.00  0.00    -0.318 C  
HETATM   11  C   UNL     1      -7.798   6.373  67.442  1.00  0.00    -0.105 C  
HETATM   12  C   UNL     1      -7.002   6.655  66.180  1.00  0.00    -0.062 C  
HETATM   13  H   UNL     1     -11.857  10.620  67.376  1.00  0.00     0.000 HD 
HETATM   14  C   UNL     1      -7.999   9.000  68.561  1.00  0.00    -0.103 C  
HETATM   15  C   UNL     1      -6.757   5.659  65.293  1.00  0.00    -0.041 C  
HETATM   16  O   UNL     1      -7.850   9.737  67.340  1.00  0.00    -0.098 OA 
HETATM   17  C   UNL     1      -8.703   7.422  68.234  1.00  0.00    -0.122 C  
HETATM   18  C   UNL     1     -10.294   7.567  67.920  1.00  0.00    -0.266 C  
HETATM   19  F   UNL     1      -8.725   6.637  69.413  1.00  0.00    -0.130 F  
HETATM   20  H   UNL     1      -7.485   9.129  66.707  1.00  0.00     0.000 HD 
HETATM   21  C   UNL     1     -10.905   6.214  67.512  1.00  0.00    -0.422 C  
HETATM   22  C   UNL     1     -10.034   5.486  66.504  1.00  0.00    -0.185 C  
HETATM   23  C   UNL     1      -8.687   5.151  67.104  1.00  0.00    -0.103 C  
HETATM   24  F   UNL     1     -10.693   4.353  66.130  1.00  0.00    -0.273 F  
HETATM   25  C   UNL     1      -8.087   3.998  66.739  1.00  0.00    -0.097 C  
HETATM   26  C   UNL     1      -7.331   4.273  65.462  1.00  0.00    -0.076 C  
HETATM   27  O   UNL     1      -7.144   3.393  64.635  1.00  0.00    -0.055 OA 
ENDROOT
BRANCH   5  28
HETATM   28  C   UNL     1     -10.379  11.692  68.719  1.00  0.00    -0.195 C  
HETATM   29  C   UNL     1      -9.533  12.383  67.656  1.00  0.00    -0.190 C  
HETATM   30  O   UNL     1     -11.026  12.465  69.444  1.00  0.00    -0.144 OA 
HETATM   31 CL   UNL     1     -10.146  12.041  66.040  1.00  0.00    -0.247 Cl 
ENDBRANCH   5  28
TORSDOF 1
ENDMDL
MODEL       56
REMARK 921   NORMALIZED FREE ENERGY PREDICTED BY IDOCK:   -4.91 KCAL/MOL
REMARK 922        TOTAL FREE ENERGY PREDICTED BY IDOCK:   -3.96 KCAL/MOL
REMARK 923 INTER-LIGAND FREE ENERGY PREDICTED BY IDOCK:   -5.43 KCAL/MOL
REMARK 924 INTRA-LIGAND FREE ENERGY PREDICTED BY IDOCK:    1.47 KCAL/MOL
REMARK 927      BINDING AFFINITY PREDICTED BY RF-SCORE:    0.00 PKD
ROOT
HETATM    1  C   UNL     1      -9.815   9.262  68.054  1.00  0.00    -0.191 C  
HETATM    2  C   UNL     1     -10.716   9.302  66.969  1.00  0.00    -0.199 C  
HETATM    3  C   UNL     1      -9.396   9.943  66.592  1.00  0.00    -0.196 C  
HETATM    4  C   UNL     1      -9.585   9.854  64.922  1.00  0.00    -0.356 C  
HETATM    5  C   UNL     1      -7.857   9.703  67.968  1.00  0.00    -0.086 C  
HETATM    6  O   UNL     1      -8.014   8.824  69.152  1.00  0.00    -0.105 OA 
HETATM    7  C   UNL     1     -10.706  14.295  67.077  1.00  0.00    -0.290 C  
HETATM    8  C   UNL     1      -8.302   9.063  66.856  1.00  0.00    -0.119 C  
HETATM    9  C   UNL     1      -7.461  10.736  66.344  1.00  0.00    -0.142 C  
HETATM   10  C   UNL     1      -8.100   7.629  66.372  1.00  0.00    -0.113 C  
HETATM   11  C   UNL     1     -10.347  13.561  68.440  1.00  0.00    -0.249 C  
HETATM   12  C   UNL     1      -9.621  14.636  69.230  1.00  0.00    -0.018 C  
HETATM   13  H   UNL     1      -7.311   8.714  69.782  1.00  0.00     0.000 HD 
HETATM   14  C   UNL     1      -8.143  12.162  67.267  1.00  0.00    -0.176 C  
HETATM   15  C   UNL     1     -10.320  15.485  70.025  1.00  0.00    -0.315 C  
HETATM   16  O   UNL     1      -7.154  12.515  68.244  1.00  0.00    -0.087 OA 
HETATM   17  C   UNL     1      -9.741  12.153  67.999  1.00  0.00    -0.203 C  
HETATM   18  C   UNL     1      -9.930  10.828  68.925  1.00  0.00    -0.213 C  
HETATM   19  F   UNL     1     -10.735  11.943  67.012  1.00  0.00    -0.234 F  
HETATM   20  H   UNL     1      -7.508  13.255  68.723  1.00  0.00     0.000 HD 
HETATM   21  C   UNL     1     -11.275  10.859  69.672  1.00  0.00    -0.348 C  
HETATM   22  C   UNL     1     -11.541  12.218  70.294  1.00  0.00     0.004 C  
HETATM   23  C   UNL     1     -11.651  13.283  69.226  1.00  0.00    -0.370 C  
HETATM   24  F   UNL     1     -12.697  12.127  71.009  1.00  0.00    -0.418 F  
HETATM   25  C   UNL     1     -12.520  14.299  69.416  1.00  0.00    -0.112 C  
HETATM   26  C   UNL     1     -11.808  15.347  70.236  1.00  0.00    -0.338 C  
HETATM   27  O   UNL     1     -12.422  16.087  70.990  1.00  0.00    -0.394 OA 
ENDROOT
BRANCH   5  28
HETATM   28  C   UNL     1      -6.212   9.186  67.856  1.00  0.00    -0.051 C  
HETATM   29  C   UNL     1      -5.610   8.435  69.038  1.00  0.00    -0.039 C  
HETATM   30  O   UNL     1      -5.443   9.328  66.892  1.00  0.00    -0.039 OA 
HETATM   31 CL   UNL     1      -6.395   6.873  69.260  1.00  0.00    -0.034 Cl 
ENDBRANCH   5  28
TORSDOF 1
ENDMDL
MODEL       57
REMARK 921   NORMALIZED FREE ENERGY PREDICTED BY IDOCK:   -4.88 KCAL/MOL
REMARK 922        TOTAL FREE ENERGY PREDICTED BY IDOCK:   -3.93 KCAL/MOL
REMARK 923 INTER-LIGAND FREE ENERGY PREDICTED BY IDOCK:   -5.44 KCAL/MOL
REMARK 924 INTRA-LIGAND FREE ENERGY PREDICTED BY IDOCK:    1.50 KCAL/MOL
REMARK 927      BINDING AFFINITY PREDICTED BY RF-SCORE:    0.00 PKD
ROOT
HETATM    1  C   UNL     1      -8.316  16.148  66.831  1.00  0.00    -0.271 C  
HETATM    2  C   UNL     1      -8.938  15.917  65.585  1.00  0.00     0.133 C  
HETATM    3  C   UNL     1      -9.786  16.831  66.446  1.00  0.00    -0.312 C  
HETATM    4  C   UNL     1     -10.730  17.473  65.209  1.00  0.00     0.080 C  
HETATM    5  C   UNL     1      -8.884  17.515  68.189  1.00  0.00    -0.263 C  
HETATM    6  O   UNL     1      -7.453  17.247  68.470  1.00  0.00    -0.220 OA 
HETATM    7  C   UNL     1     -12.781  13.679  67.859  1.00  0.00     0.947 C  
HETATM    8  C   UNL     1      -9.030  17.950  66.911  1.00  0.00    -0.265 C  
HETATM    9  C   UNL     1     -10.728  18.098  67.840  1.00  0.00    -0.331 C  
HETATM   10  C   UNL     1      -8.224  18.956  66.093  1.00  0.00    -0.222 C  
HETATM   11  C   UNL     1     -11.396  13.669  68.641  1.00  0.00    -0.321 C  
HETATM   12  C   UNL     1     -11.815  13.404  70.077  1.00  0.00    -0.364 C  
HETATM   13  H   UNL     1      -7.040  17.560  69.267  1.00  0.00     0.000 HD 
HETATM   14  C   UNL     1     -11.217  16.525  68.640  1.00  0.00    -0.297 C  
HETATM   15  C   UNL     1     -11.928  12.131  70.530  1.00  0.00    -0.308 C  
HETATM   16  O   UNL     1     -10.976  16.700  70.043  1.00  0.00    -0.393 OA 
HETATM   17  C   UNL     1     -10.619  14.958  68.113  1.00  0.00    -0.244 C  
HETATM   18  C   UNL     1      -8.994  14.978  68.012  1.00  0.00    -0.173 C  
HETATM   19  F   UNL     1     -10.976  14.721  66.764  1.00  0.00    -0.299 F  
HETATM   20  H   UNL     1     -11.230  15.883  70.458  1.00  0.00     0.000 HD 
HETATM   21  C   UNL     1      -8.442  13.583  67.670  1.00  0.00    -0.184 C  
HETATM   22  C   UNL     1      -9.099  12.499  68.505  1.00  0.00    -0.061 C  
HETATM   23  C   UNL     1     -10.582  12.424  68.214  1.00  0.00    -0.236 C  
HETATM   24  F   UNL     1      -8.486  11.318  68.208  1.00  0.00    -0.124 F  
HETATM   25  C   UNL     1     -11.184  11.217  68.243  1.00  0.00    -0.343 C  
HETATM   26  C   UNL     1     -11.560  10.940  69.678  1.00  0.00    -0.322 C  
HETATM   27  O   UNL     1     -11.622   9.798  70.109  1.00  0.00    -0.243 OA 
ENDROOT
BRANCH   5  28
HETATM   28  C   UNL     1      -8.692  19.072  68.914  1.00  0.00    -0.253 C  
HETATM   29  C   UNL     1      -7.350  19.408  69.554  1.00  0.00    -0.116 C  
HETATM   30  O   UNL     1      -9.525  19.991  68.954  1.00  0.00    -0.180 OA 
HETATM   31 CL   UNL     1      -6.073  19.488  68.342  1.00  0.00    -0.253 Cl 
ENDBRANCH   5  28
TORSDOF 1
ENDMDL
MODEL       58
REMARK 921   NORMALIZED FREE ENERGY PREDICTED BY IDOCK:   -4.84 KCAL/MOL
REMARK 922        TOTAL FREE ENERGY PREDICTED BY IDOCK:   -3.89 KCAL/MOL
REMARK 923 INTER-LIGAND FREE ENERGY PREDICTED BY IDOCK:   -5.00 KCAL/MOL
REMARK 924 INTRA-LIGAND FREE ENERGY PREDICTED BY IDOCK:    1.11 KCAL/MOL
REMARK 927      BINDING AFFINITY PREDICTED BY RF-SCORE:    0.00 PKD
ROOT
HETATM    1  C   UNL     1      -8.951   8.150  71.204  1.00  0.00    -0.174 C  
HETATM    2  C   UNL     1      -9.783   9.286  71.297  1.00  0.00    -0.299 C  
HETATM    3  C   UNL     1     -10.560   8.094  70.778  1.00  0.00    -0.234 C  
HETATM    4  C   UNL     1     -12.101   8.680  71.119  1.00  0.00    -0.297 C  
HETATM    5  C   UNL     1      -9.568   6.270  70.862  1.00  0.00    -0.176 C  
HETATM    6  O   UNL     1      -8.255   6.139  71.538  1.00  0.00    -0.116 OA 
HETATM    7  C   UNL     1     -10.491   9.240  66.353  1.00  0.00    -0.157 C  
HETATM    8  C   UNL     1     -10.425   6.971  71.650  1.00  0.00    -0.219 C  
HETATM    9  C   UNL     1     -11.386   6.274  70.114  1.00  0.00    -0.476 C  
HETATM   10  C   UNL     1     -10.704   6.895  73.149  1.00  0.00    -0.338 C  
HETATM   11  C   UNL     1      -9.151   8.564  66.879  1.00  0.00    -0.177 C  
HETATM   12  C   UNL     1      -8.740   7.668  65.724  1.00  0.00    -0.151 C  
HETATM   13  H   UNL     1      -7.801   5.305  71.576  1.00  0.00     0.000 HD 
HETATM   14  C   UNL     1     -10.571   6.711  68.533  1.00  0.00    -0.233 C  
HETATM   15  C   UNL     1      -7.951   8.152  64.733  1.00  0.00    -0.147 C  
HETATM   16  O   UNL     1      -9.927   5.515  68.073  1.00  0.00    -0.132 OA 
HETATM   17  C   UNL     1      -9.489   8.086  68.363  1.00  0.00    -0.145 C  
HETATM   18  C   UNL     1      -8.342   8.049  69.517  1.00  0.00    -0.127 C  
HETATM   19  F   UNL     1     -10.165   9.288  68.684  1.00  0.00    -0.181 F  
HETATM   20  H   UNL     1      -9.504   5.742  67.253  1.00  0.00     0.000 HD 
HETATM   21  C   UNL     1      -7.313   9.175  69.314  1.00  0.00    -0.070 C  
HETATM   22  C   UNL     1      -6.874   9.280  67.865  1.00  0.00    -0.072 C  
HETATM   23  C   UNL     1      -8.044   9.642  66.976  1.00  0.00    -0.113 C  
HETATM   24  F   UNL     1      -5.900  10.231  67.795  1.00  0.00    -0.044 F  
HETATM   25  C   UNL     1      -7.820  10.437  65.909  1.00  0.00    -0.148 C  
HETATM   26  C   UNL     1      -7.373   9.546  64.776  1.00  0.00    -0.112 C  
HETATM   27  O   UNL     1      -6.625   9.960  63.901  1.00  0.00    -0.116 OA 
ENDROOT
BRANCH   5  28
HETATM   28  C   UNL     1      -9.982   4.701  71.458  1.00  0.00    -0.195 C  
HETATM   29  C   UNL     1      -9.702   3.495  70.569  1.00  0.00    -0.117 C  
HETATM   30  O   UNL     1     -10.468   4.421  72.565  1.00  0.00    -0.188 OA 
HETATM   31 CL   UNL     1      -7.969   3.273  70.333  1.00  0.00    -0.049 Cl 
ENDBRANCH   5  28
TORSDOF 1
ENDMDL
MODEL       59
REMARK 921   NORMALIZED FREE ENERGY PREDICTED BY IDOCK:   -4.76 KCAL/MOL
REMARK 922        TOTAL FREE ENERGY PREDICTED BY IDOCK:   -3.80 KCAL/MOL
REMARK 923 INTER-LIGAND FREE ENERGY PREDICTED BY IDOCK:   -5.28 KCAL/MOL
REMARK 924 INTRA-LIGAND FREE ENERGY PREDICTED BY IDOCK:    1.48 KCAL/MOL
REMARK 927      BINDING AFFINITY PREDICTED BY RF-SCORE:    0.00 PKD
ROOT
HETATM    1  C   UNL     1     -11.176  13.305  68.688  1.00  0.00    -0.311 C  
HETATM    2  C   UNL     1     -12.410  13.426  68.013  1.00  0.00     0.061 C  
HETATM    3  C   UNL     1     -11.319  12.987  67.059  1.00  0.00    -0.343 C  
HETATM    4  C   UNL     1     -12.323  12.380  65.852  1.00  0.00    -0.028 C  
HETATM    5  C   UNL     1      -9.509  12.471  67.940  1.00  0.00    -0.196 C  
HETATM    6  O   UNL     1      -9.367  12.388  69.413  1.00  0.00     0.130 OA 
HETATM    7  C   UNL     1     -10.548  17.068  65.148  1.00  0.00    -0.032 C  
HETATM    8  C   UNL     1     -10.640  11.830  67.548  1.00  0.00    -0.247 C  
HETATM    9  C   UNL     1      -9.623  12.357  65.981  1.00  0.00    -0.214 C  
HETATM   10  C   UNL     1     -11.236  10.490  67.974  1.00  0.00    -0.361 C  
HETATM   11  C   UNL     1      -9.857  16.864  66.565  1.00  0.00    -0.307 C  
HETATM   12  C   UNL     1      -8.506  17.534  66.389  1.00  0.00    -0.287 C  
HETATM   13  H   UNL     1      -8.539  12.152  69.817  1.00  0.00     0.000 HD 
HETATM   14  C   UNL     1      -9.194  14.137  66.003  1.00  0.00     0.030 C  
HETATM   15  C   UNL     1      -8.361  18.856  66.657  1.00  0.00    -0.304 C  
HETATM   16  O   UNL     1      -7.802  14.208  66.343  1.00  0.00     0.156 OA 
HETATM   17  C   UNL     1     -10.103  15.329  66.923  1.00  0.00    -0.256 C  
HETATM   18  C   UNL     1     -10.274  14.841  68.466  1.00  0.00    -0.232 C  
HETATM   19  F   UNL     1     -11.452  15.360  66.493  1.00  0.00    -0.296 F  
HETATM   20  H   UNL     1      -7.579  15.132  66.355  1.00  0.00     0.000 HD 
HETATM   21  C   UNL     1     -10.960  15.923  69.318  1.00  0.00    -0.293 C  
HETATM   22  C   UNL     1     -10.374  17.299  69.057  1.00  0.00    -0.330 C  
HETATM   23  C   UNL     1     -10.604  17.715  67.621  1.00  0.00    -0.364 C  
HETATM   24  F   UNL     1     -10.970  18.173  69.916  1.00  0.00     0.509 F  
HETATM   25  C   UNL     1     -10.831  19.019  67.356  1.00  0.00    -0.496 C  
HETATM   26  C   UNL     1      -9.486  19.688  67.222  1.00  0.00    -0.341 C  
HETATM   27  O   UNL     1      -9.334  20.868  67.504  1.00  0.00    -0.329 OA 
ENDROOT
BRANCH   5  28
HETATM   28  C   UNL     1      -8.448  11.114  67.804  1.00  0.00    -0.124 C  
HETATM   29  C   UNL     1      -7.766  10.602  69.067  1.00  0.00    -0.130 C  
HETATM   30  O   UNL     1      -8.184  10.465  66.779  1.00  0.00    -0.122 OA 
HETATM   31 CL   UNL     1      -8.946   9.941  70.197  1.00  0.00    -0.221 Cl 
ENDBRANCH   5  28
TORSDOF 1
ENDMDL
MODEL       60
REMARK 921   NORMALIZED FREE ENERGY PREDICTED BY IDOCK:   -4.74 KCAL/MOL
REMARK 922        TOTAL FREE ENERGY PREDICTED BY IDOCK:   -3.79 KCAL/MOL
REMARK 923 INTER-LIGAND FREE ENERGY PREDICTED BY IDOCK:   -5.26 KCAL/MOL
REMARK 924 INTRA-LIGAND FREE ENERGY PREDICTED BY IDOCK:    1.48 KCAL/MOL
REMARK 927      BINDING AFFINITY PREDICTED BY RF-SCORE:    0.00 PKD
ROOT
HETATM    1  C   UNL     1      -9.933   6.302  69.103  1.00  0.00    -0.181 C  
HETATM    2  C   UNL     1     -11.121   6.072  68.377  1.00  0.00    -0.271 C  
HETATM    3  C   UNL     1      -9.923   6.096  67.450  1.00  0.00    -0.166 C  
HETATM    4  C   UNL     1     -10.642   5.301  66.152  1.00  0.00    -0.251 C  
HETATM    5  C   UNL     1      -8.066   6.125  68.382  1.00  0.00    -0.108 C  
HETATM    6  O   UNL     1      -7.941   5.966  69.851  1.00  0.00    -0.100 OA 
HETATM    7  C   UNL     1     -10.490  10.354  65.885  1.00  0.00    -0.196 C  
HETATM    8  C   UNL     1      -8.913   5.186  67.887  1.00  0.00    -0.115 C  
HETATM    9  C   UNL     1      -8.088   6.148  66.417  1.00  0.00    -0.111 C  
HETATM   10  C   UNL     1      -9.045   3.694  68.183  1.00  0.00    -0.197 C  
HETATM   11  C   UNL     1      -9.805  10.265  67.317  1.00  0.00    -0.222 C  
HETATM   12  C   UNL     1      -8.746  11.352  67.260  1.00  0.00    -0.148 C  
HETATM   13  H   UNL     1      -7.092   5.979  70.278  1.00  0.00     0.000 HD 
HETATM   14  C   UNL     1      -8.269   7.962  66.592  1.00  0.00    -0.119 C  
HETATM   15  C   UNL     1      -9.051  12.620  67.631  1.00  0.00    -0.192 C  
HETATM   16  O   UNL     1      -6.987   8.452  67.007  1.00  0.00    -0.072 OA 
HETATM   17  C   UNL     1      -9.541   8.709  67.548  1.00  0.00    -0.157 C  
HETATM   18  C   UNL     1      -9.580   8.061  69.041  1.00  0.00    -0.156 C  
HETATM   19  F   UNL     1     -10.815   8.336  67.053  1.00  0.00    -0.384 F  
HETATM   20  H   UNL     1      -7.080   9.394  67.098  1.00  0.00     0.000 HD 
HETATM   21  C   UNL     1     -10.605   8.783  69.933  1.00  0.00    -0.230 C  
HETATM   22  C   UNL     1     -10.498  10.292  69.804  1.00  0.00    -0.259 C  
HETATM   23  C   UNL     1     -10.816  10.733  68.392  1.00  0.00    -0.276 C  
HETATM   24  F   UNL     1     -11.369  10.847  70.693  1.00  0.00    -0.374 F  
HETATM   25  C   UNL     1     -11.453  11.909  68.212  1.00  0.00    -0.372 C  
HETATM   26  C   UNL     1     -10.400  12.989  68.197  1.00  0.00    -0.240 C  
HETATM   27  O   UNL     1     -10.652  14.125  68.572  1.00  0.00    -0.239 OA 
ENDROOT
BRANCH   5  28
HETATM   28  C   UNL     1      -6.614   5.204  68.202  1.00  0.00    -0.049 C  
HETATM   29  C   UNL     1      -5.833   4.836  69.458  1.00  0.00    -0.017 C  
HETATM   30  O   UNL     1      -6.127   4.766  67.147  1.00  0.00    -0.029 OA 
HETATM   31 CL   UNL     1      -6.757   3.732  70.476  1.00  0.00    -0.032 Cl 
ENDBRANCH   5  28
TORSDOF 1
ENDMDL
MODEL       61
REMARK 921   NORMALIZED FREE ENERGY PREDICTED BY IDOCK:   -4.71 KCAL/MOL
REMARK 922        TOTAL FREE ENERGY PREDICTED BY IDOCK:   -3.76 KCAL/MOL
REMARK 923 INTER-LIGAND FREE ENERGY PREDICTED BY IDOCK:   -4.93 KCAL/MOL
REMARK 924 INTRA-LIGAND FREE ENERGY PREDICTED BY IDOCK:    1.17 KCAL/MOL
REMARK 927      BINDING AFFINITY PREDICTED BY RF-SCORE:    0.00 PKD
ROOT
HETATM    1  C   UNL     1      -7.886   6.924  65.153  1.00  0.00    -0.120 C  
HETATM    2  C   UNL     1      -6.741   7.521  65.722  1.00  0.00    -0.045 C  
HETATM    3  C   UNL     1      -6.794   6.043  66.051  1.00  0.00    -0.061 C  
HETATM    4  C   UNL     1      -5.172   5.857  66.459  1.00  0.00    -0.009 C  
HETATM    5  C   UNL     1      -8.249   4.952  65.046  1.00  0.00    -0.129 C  
HETATM    6  O   UNL     1      -9.060   5.563  63.965  1.00  0.00    -0.336 OA 
HETATM    7  C   UNL     1      -8.401   6.455  70.310  1.00  0.00    -0.126 C  
HETATM    8  C   UNL     1      -6.938   5.256  64.868  1.00  0.00    -0.053 C  
HETATM    9  C   UNL     1      -7.111   3.978  66.318  1.00  0.00    -0.064 C  
HETATM   10  C   UNL     1      -6.068   5.264  63.612  1.00  0.00    -0.022 C  
HETATM   11  C   UNL     1      -9.506   6.587  69.175  1.00  0.00    -0.136 C  
HETATM   12  C   UNL     1     -10.695   5.848  69.764  1.00  0.00    -0.411 C  
HETATM   13  H   UNL     1      -9.726   5.065  63.505  1.00  0.00     0.000 HD 
HETATM   14  C   UNL     1      -8.314   4.529  67.583  1.00  0.00    -0.099 C  
HETATM   15  C   UNL     1     -11.595   6.510  70.532  1.00  0.00    -0.455 C  
HETATM   16  O   UNL     1      -9.494   3.739  67.382  1.00  0.00    -0.186 OA 
HETATM   17  C   UNL     1      -8.748   6.216  67.822  1.00  0.00    -0.112 C  
HETATM   18  C   UNL     1      -9.173   6.895  66.405  1.00  0.00    -0.186 C  
HETATM   19  F   UNL     1      -7.602   6.977  68.159  1.00  0.00    -0.096 F  
HETATM   20  H   UNL     1     -10.119   4.025  68.038  1.00  0.00     0.000 HD 
HETATM   21  C   UNL     1      -9.672   8.337  66.607  1.00  0.00    -0.321 C  
HETATM   22  C   UNL     1     -10.638   8.438  67.775  1.00  0.00    -0.171 C  
HETATM   23  C   UNL     1      -9.952   8.066  69.070  1.00  0.00    -0.186 C  
HETATM   24  F   UNL     1     -11.099   9.719  67.820  1.00  0.00    -0.324 F  
HETATM   25  C   UNL     1     -10.311   8.714  70.199  1.00  0.00    -0.219 C  
HETATM   26  C   UNL     1     -11.517   8.000  70.757  1.00  0.00    -0.263 C  
HETATM   27  O   UNL     1     -12.359   8.597  71.414  1.00  0.00    -0.301 OA 
ENDROOT
BRANCH   5  28
HETATM   28  C   UNL     1      -8.240   3.477  64.145  1.00  0.00    -0.090 C  
HETATM   29  C   UNL     1      -9.410   2.516  64.322  1.00  0.00    -0.130 C  
HETATM   30  O   UNL     1      -7.387   3.102  63.324  1.00  0.00    -0.051 OA 
HETATM   31 CL   UNL     1     -10.905   3.223  63.713  1.00  0.00    -0.231 Cl 
ENDBRANCH   5  28
TORSDOF 1
ENDMDL
MODEL       62
REMARK 921   NORMALIZED FREE ENERGY PREDICTED BY IDOCK:   -4.65 KCAL/MOL
REMARK 922        TOTAL FREE ENERGY PREDICTED BY IDOCK:   -3.69 KCAL/MOL
REMARK 923 INTER-LIGAND FREE ENERGY PREDICTED BY IDOCK:   -4.79 KCAL/MOL
REMARK 924 INTRA-LIGAND FREE ENERGY PREDICTED BY IDOCK:    1.10 KCAL/MOL
REMARK 927      BINDING AFFINITY PREDICTED BY RF-SCORE:    0.00 PKD
ROOT
HETATM    1  C   UNL     1      -9.361   7.255  72.332  1.00  0.00    -0.166 C  
HETATM    2  C   UNL     1     -10.385   8.191  72.593  1.00  0.00    -0.398 C  
HETATM    3  C   UNL     1     -10.775   7.276  71.450  1.00  0.00    -0.247 C  
HETATM    4  C   UNL     1     -12.432   7.563  71.503  1.00  0.00    -0.375 C  
HETATM    5  C   UNL     1      -9.517   5.652  71.131  1.00  0.00    -0.158 C  
HETATM    6  O   UNL     1      -8.413   5.338  72.070  1.00  0.00    -0.123 OA 
HETATM    7  C   UNL     1      -9.812  10.165  68.041  1.00  0.00    -0.169 C  
HETATM    8  C   UNL     1     -10.657   5.903  71.826  1.00  0.00    -0.286 C  
HETATM    9  C   UNL     1     -11.058   5.848  69.927  1.00  0.00    -0.417 C  
HETATM   10  C   UNL     1     -11.284   5.190  73.022  1.00  0.00    -0.390 C  
HETATM   11  C   UNL     1      -8.546   9.421  68.650  1.00  0.00    -0.123 C  
HETATM   12  C   UNL     1      -7.702   9.118  67.425  1.00  0.00    -0.092 C  
HETATM   13  H   UNL     1      -7.838   4.596  71.925  1.00  0.00     0.000 HD 
HETATM   14  C   UNL     1      -9.969   6.957  68.960  1.00  0.00    -0.158 C  
HETATM   15  C   UNL     1      -6.793  10.022  66.983  1.00  0.00    -0.087 C  
HETATM   16  O   UNL     1      -9.021   6.108  68.299  1.00  0.00    -0.116 OA 
HETATM   17  C   UNL     1      -9.151   8.346  69.662  1.00  0.00    -0.153 C  
HETATM   18  C   UNL     1      -8.342   7.906  71.005  1.00  0.00    -0.112 C  
HETATM   19  F   UNL     1     -10.094   9.258  70.195  1.00  0.00    -0.181 F  
HETATM   20  H   UNL     1      -8.456   6.683  67.797  1.00  0.00     0.000 HD 
HETATM   21  C   UNL     1      -7.521   9.079  71.568  1.00  0.00    -0.033 C  
HETATM   22  C   UNL     1      -6.760   9.808  70.474  1.00  0.00    -0.125 C  
HETATM   23  C   UNL     1      -7.716  10.430  69.481  1.00  0.00    -0.159 C  
HETATM   24  F   UNL     1      -5.992  10.762  71.071  1.00  0.00    -0.108 F  
HETATM   25  C   UNL     1      -7.383  11.611  68.918  1.00  0.00    -0.107 C  
HETATM   26  C   UNL     1      -6.511  11.305  67.725  1.00  0.00    -0.060 C  
HETATM   27  O   UNL     1      -5.657  12.094  67.346  1.00  0.00    -0.100 OA 
ENDROOT
BRANCH   5  28
HETATM   28  C   UNL     1      -9.771   3.954  70.930  1.00  0.00    -0.183 C  
HETATM   29  C   UNL     1      -9.136   3.268  69.726  1.00  0.00    -0.130 C  
HETATM   30  O   UNL     1     -10.402   3.193  71.681  1.00  0.00     0.014 OA 
HETATM   31 CL   UNL     1      -7.377   3.291  69.842  1.00  0.00    -0.044 Cl 
ENDBRANCH   5  28
TORSDOF 1
ENDMDL
MODEL       63
REMARK 921   NORMALIZED FREE ENERGY PREDICTED BY IDOCK:   -4.59 KCAL/MOL
REMARK 922        TOTAL FREE ENERGY PREDICTED BY IDOCK:   -3.63 KCAL/MOL
REMARK 923 INTER-LIGAND FREE ENERGY PREDICTED BY IDOCK:   -4.72 KCAL/MOL
REMARK 924 INTRA-LIGAND FREE ENERGY PREDICTED BY IDOCK:    1.09 KCAL/MOL
REMARK 927      BINDING AFFINITY PREDICTED BY RF-SCORE:    0.00 PKD
ROOT
HETATM    1  C   UNL     1     -10.994   6.679  68.752  1.00  0.00    -0.322 C  
HETATM    2  C   UNL     1     -10.868   5.609  69.664  1.00  0.00    -0.365 C  
HETATM    3  C   UNL     1      -9.804   6.657  69.918  1.00  0.00    -0.180 C  
HETATM    4  C   UNL     1      -9.417   6.191  71.488  1.00  0.00    -0.161 C  
HETATM    5  C   UNL     1     -10.026   8.435  68.865  1.00  0.00    -0.187 C  
HETATM    6  O   UNL     1     -11.237   8.701  68.052  1.00  0.00    -0.367 OA 
HETATM    7  C   UNL     1      -6.359   4.501  67.826  1.00  0.00    -0.037 C  
HETATM    8  C   UNL     1     -10.384   7.952  70.083  1.00  0.00    -0.215 C  
HETATM    9  C   UNL     1      -8.471   8.282  70.058  1.00  0.00    -0.123 C  
HETATM   10  C   UNL     1     -11.482   8.383  71.053  1.00  0.00    -0.302 C  
HETATM   11  C   UNL     1      -7.352   5.261  66.844  1.00  0.00    -0.086 C  
HETATM   12  C   UNL     1      -6.419   5.854  65.803  1.00  0.00    -0.043 C  
HETATM   13  H   UNL     1     -11.338   9.514  67.570  1.00  0.00     0.000 HD 
HETATM   14  C   UNL     1      -7.649   7.473  68.636  1.00  0.00    -0.110 C  
HETATM   15  C   UNL     1      -6.088   5.139  64.699  1.00  0.00    -0.022 C  
HETATM   16  O   UNL     1      -7.360   8.517  67.696  1.00  0.00    -0.086 OA 
HETATM   17  C   UNL     1      -8.328   6.081  67.804  1.00  0.00    -0.112 C  
HETATM   18  C   UNL     1      -9.873   6.371  67.383  1.00  0.00    -0.158 C  
HETATM   19  F   UNL     1      -8.486   4.998  68.703  1.00  0.00    -0.088 F  
HETATM   20  H   UNL     1      -6.934   8.098  66.958  1.00  0.00     0.000 HD 
HETATM   21  C   UNL     1     -10.448   5.214  66.548  1.00  0.00    -0.346 C  
HETATM   22  C   UNL     1      -9.479   4.764  65.469  1.00  0.00    -0.163 C  
HETATM   23  C   UNL     1      -8.209   4.220  66.084  1.00  0.00    -0.105 C  
HETATM   24  F   UNL     1     -10.104   3.809  64.724  1.00  0.00    -0.170 F  
HETATM   25  C   UNL     1      -7.584   3.193  65.471  1.00  0.00    -0.077 C  
HETATM   26  C   UNL     1      -6.690   3.785  64.409  1.00  0.00    -0.044 C  
HETATM   27  O   UNL     1      -6.421   3.166  63.389  1.00  0.00    -0.024 OA 
ENDROOT
BRANCH   5  28
HETATM   28  C   UNL     1     -10.007  10.106  69.306  1.00  0.00    -0.219 C  
HETATM   29  C   UNL     1      -9.041  11.033  68.579  1.00  0.00    -0.173 C  
HETATM   30  O   UNL     1     -10.724  10.670  70.149  1.00  0.00    -0.238 OA 
HETATM   31 CL   UNL     1      -9.471  11.183  66.876  1.00  0.00    -0.198 Cl 
ENDBRANCH   5  28
TORSDOF 1
ENDMDL
MODEL       64
REMARK 921   NORMALIZED FREE ENERGY PREDICTED BY IDOCK:   -4.59 KCAL/MOL
REMARK 922        TOTAL FREE ENERGY PREDICTED BY IDOCK:   -3.62 KCAL/MOL
REMARK 923 INTER-LIGAND FREE ENERGY PREDICTED BY IDOCK:   -4.81 KCAL/MOL
REMARK 924 INTRA-LIGAND FREE ENERGY PREDICTED BY IDOCK:    1.18 KCAL/MOL
REMARK 927      BINDING AFFINITY PREDICTED BY RF-SCORE:    0.00 PKD
ROOT
HETATM    1  C   UNL     1      -9.961   8.070  66.644  1.00  0.00    -0.326 C  
HETATM    2  C   UNL     1     -10.198   9.429  66.945  1.00  0.00    -0.318 C  
HETATM    3  C   UNL     1      -8.713   9.126  66.966  1.00  0.00    -0.131 C  
HETATM    4  C   UNL     1      -8.171  10.712  66.811  1.00  0.00    -0.130 C  
HETATM    5  C   UNL     1      -8.169   7.251  66.253  1.00  0.00    -0.123 C  
HETATM    6  O   UNL     1      -9.163   6.350  65.621  1.00  0.00    -0.364 OA 
HETATM    7  C   UNL     1      -8.250   8.813  71.502  1.00  0.00    -0.190 C  
HETATM    8  C   UNL     1      -8.296   8.506  65.749  1.00  0.00    -0.144 C  
HETATM    9  C   UNL     1      -6.728   8.426  66.890  1.00  0.00    -0.062 C  
HETATM   10  C   UNL     1      -8.492   8.999  64.317  1.00  0.00    -0.185 C  
HETATM   11  C   UNL     1      -8.849   7.512  70.811  1.00  0.00    -0.148 C  
HETATM   12  C   UNL     1      -8.181   6.380  71.571  1.00  0.00    -0.117 C  
HETATM   13  H   UNL     1      -8.914   5.493  65.295  1.00  0.00     0.000 HD 
HETATM   14  C   UNL     1      -7.114   7.750  68.547  1.00  0.00    -0.073 C  
HETATM   15  C   UNL     1      -8.755   5.884  72.696  1.00  0.00    -0.122 C  
HETATM   16  O   UNL     1      -6.604   6.410  68.559  1.00  0.00    -0.050 OA 
HETATM   17  C   UNL     1      -8.728   7.789  69.245  1.00  0.00    -0.139 C  
HETATM   18  C   UNL     1      -9.812   7.179  68.195  1.00  0.00    -0.157 C  
HETATM   19  F   UNL     1      -9.181   9.126  69.363  1.00  0.00    -0.142 F  
HETATM   20  H   UNL     1      -6.804   6.058  69.419  1.00  0.00     0.000 HD 
HETATM   21  C   UNL     1     -11.211   7.092  68.830  1.00  0.00    -0.029 C  
HETATM   22  C   UNL     1     -11.157   6.510  70.232  1.00  0.00    -0.335 C  
HETATM   23  C   UNL     1     -10.355   7.404  71.151  1.00  0.00    -0.209 C  
HETATM   24  F   UNL     1     -12.438   6.381  70.676  1.00  0.00    -0.343 F  
HETATM   25  C   UNL     1     -10.734   7.507  72.443  1.00  0.00    -0.311 C  
HETATM   26  C   UNL     1     -10.102   6.356  73.186  1.00  0.00    -0.189 C  
HETATM   27  O   UNL     1     -10.633   5.871  74.175  1.00  0.00    -0.263 OA 
ENDROOT
BRANCH   5  28
HETATM   28  C   UNL     1      -6.998   6.691  65.112  1.00  0.00    -0.051 C  
HETATM   29  C   UNL     1      -6.242   5.406  65.427  1.00  0.00    -0.034 C  
HETATM   30  O   UNL     1      -6.707   7.204  64.019  1.00  0.00    -0.045 OA 
HETATM   31 CL   UNL     1      -7.330   4.019  65.437  1.00  0.00    -0.075 Cl 
ENDBRANCH   5  28
TORSDOF 1
ENDMDL
MODEL       65
REMARK 921   NORMALIZED FREE ENERGY PREDICTED BY IDOCK:   -4.54 KCAL/MOL
REMARK 922        TOTAL FREE ENERGY PREDICTED BY IDOCK:   -3.58 KCAL/MOL
REMARK 923 INTER-LIGAND FREE ENERGY PREDICTED BY IDOCK:   -5.06 KCAL/MOL
REMARK 924 INTRA-LIGAND FREE ENERGY PREDICTED BY IDOCK:    1.48 KCAL/MOL
REMARK 927      BINDING AFFINITY PREDICTED BY RF-SCORE:    0.00 PKD
ROOT
HETATM    1  C   UNL     1      -6.226  16.946  67.683  1.00  0.00    -0.171 C  
HETATM    2  C   UNL     1      -5.859  16.844  66.325  1.00  0.00     0.222 C  
HETATM    3  C   UNL     1      -6.875  17.950  66.523  1.00  0.00    -0.259 C  
HETATM    4  C   UNL     1      -6.578  18.772  65.085  1.00  0.00    -0.173 C  
HETATM    5  C   UNL     1      -7.300  18.435  68.499  1.00  0.00    -0.287 C  
HETATM    6  O   UNL     1      -6.530  17.842  69.619  1.00  0.00    -0.227 OA 
HETATM    7  C   UNL     1     -10.543  15.627  65.093  1.00  0.00    -0.449 C  
HETATM    8  C   UNL     1      -6.449  18.867  67.532  1.00  0.00    -0.199 C  
HETATM    9  C   UNL     1      -8.255  19.432  67.100  1.00  0.00    -0.299 C  
HETATM   10  C   UNL     1      -5.133  19.636  67.620  1.00  0.00    -0.173 C  
HETATM   11  C   UNL     1     -10.101  15.305  66.587  1.00  0.00    -0.268 C  
HETATM   12  C   UNL     1     -11.426  15.176  67.318  1.00  0.00    -0.284 C  
HETATM   13  H   UNL     1      -6.724  18.064  70.523  1.00  0.00     0.000 HD 
HETATM   14  C   UNL     1      -9.440  18.037  67.127  1.00  0.00    -0.264 C  
HETATM   15  C   UNL     1     -12.053  13.975  67.385  1.00  0.00    -0.384 C  
HETATM   16  O   UNL     1     -10.195  18.177  68.338  1.00  0.00    -0.365 OA 
HETATM   17  C   UNL     1      -8.951  16.362  66.909  1.00  0.00    -0.216 C  
HETATM   18  C   UNL     1      -7.730  15.994  67.921  1.00  0.00    -0.149 C  
HETATM   19  F   UNL     1      -8.326  16.189  65.650  1.00  0.00    -0.198 F  
HETATM   20  H   UNL     1     -10.810  17.453  68.352  1.00  0.00     0.000 HD 
HETATM   21  C   UNL     1      -7.367  14.501  67.834  1.00  0.00    -0.166 C  
HETATM   22  C   UNL     1      -8.604  13.621  67.846  1.00  0.00    -0.181 C  
HETATM   23  C   UNL     1      -9.467  13.894  66.634  1.00  0.00    -0.296 C  
HETATM   24  F   UNL     1      -8.188  12.323  67.863  1.00  0.00    -0.126 F  
HETATM   25  C   UNL     1     -10.138  12.864  66.075  1.00  0.00    -0.290 C  
HETATM   26  C   UNL     1     -11.434  12.714  66.832  1.00  0.00    -0.343 C  
HETATM   27  O   UNL     1     -11.985  11.628  66.937  1.00  0.00    -0.567 OA 
ENDROOT
BRANCH   5  28
HETATM   28  C   UNL     1      -7.368  19.917  69.386  1.00  0.00    -0.108 C  
HETATM   29  C   UNL     1      -7.028  19.883  70.872  1.00  0.00     0.520 C  
HETATM   30  O   UNL     1      -7.639  21.046  68.946  1.00  0.00     0.919 OA 
HETATM   31 CL   UNL     1      -5.334  19.467  71.123  1.00  0.00    -0.277 Cl 
ENDBRANCH   5  28
TORSDOF 1
ENDMDL
MODEL       66
REMARK 921   NORMALIZED FREE ENERGY PREDICTED BY IDOCK:   -4.46 KCAL/MOL
REMARK 922        TOTAL FREE ENERGY PREDICTED BY IDOCK:   -3.49 KCAL/MOL
REMARK 923 INTER-LIGAND FREE ENERGY PREDICTED BY IDOCK:   -4.60 KCAL/MOL
REMARK 924 INTRA-LIGAND FREE ENERGY PREDICTED BY IDOCK:    1.11 KCAL/MOL
REMARK 927      BINDING AFFINITY PREDICTED BY RF-SCORE:    0.00 PKD
ROOT
HETATM    1  C   UNL     1     -10.438   7.144  70.133  1.00  0.00    -0.231 C  
HETATM    2  C   UNL     1     -11.583   6.355  70.372  1.00  0.00    -0.440 C  
HETATM    3  C   UNL     1     -10.475   5.997  71.341  1.00  0.00    -0.282 C  
HETATM    4  C   UNL     1     -11.437   5.234  72.492  1.00  0.00    -0.209 C  
HETATM    5  C   UNL     1      -8.827   7.263  71.326  1.00  0.00    -0.135 C  
HETATM    6  O   UNL     1      -8.826   8.516  70.533  1.00  0.00    -0.139 OA 
HETATM    7  C   UNL     1      -9.043   2.216  69.209  1.00  0.00    -0.178 C  
HETATM    8  C   UNL     1      -9.990   7.156  72.020  1.00  0.00    -0.178 C  
HETATM    9  C   UNL     1      -8.781   5.738  72.566  1.00  0.00    -0.124 C  
HETATM   10  C   UNL     1     -10.781   8.187  72.822  1.00  0.00    -0.391 C  
HETATM   11  C   UNL     1      -8.508   3.572  68.573  1.00  0.00    -0.104 C  
HETATM   12  C   UNL     1      -7.075   3.236  68.202  1.00  0.00    -0.050 C  
HETATM   13  H   UNL     1      -8.072   9.095  70.526  1.00  0.00     0.000 HD 
HETATM   14  C   UNL     1      -8.140   4.790  71.137  1.00  0.00    -0.092 C  
HETATM   15  C   UNL     1      -6.792   2.709  66.984  1.00  0.00    -0.044 C  
HETATM   16  O   UNL     1      -6.786   5.221  70.948  1.00  0.00    -0.040 OA 
HETATM   17  C   UNL     1      -8.972   4.710  69.590  1.00  0.00    -0.094 C  
HETATM   18  C   UNL     1      -9.337   6.208  69.067  1.00  0.00    -0.133 C  
HETATM   19  F   UNL     1     -10.264   4.153  69.753  1.00  0.00    -0.273 F  
HETATM   20  H   UNL     1      -6.452   4.729  70.206  1.00  0.00     0.000 HD 
HETATM   21  C   UNL     1      -9.957   6.169  67.659  1.00  0.00    -0.150 C  
HETATM   22  C   UNL     1      -9.185   5.249  66.731  1.00  0.00    -0.126 C  
HETATM   23  C   UNL     1      -9.234   3.822  67.229  1.00  0.00    -0.208 C  
HETATM   24  F   UNL     1      -9.742   5.349  65.491  1.00  0.00    -0.149 F  
HETATM   25  C   UNL     1      -9.275   2.823  66.322  1.00  0.00    -0.086 C  
HETATM   26  C   UNL     1      -7.851   2.522  65.925  1.00  0.00    -0.081 C  
HETATM   27  O   UNL     1      -7.580   2.089  64.814  1.00  0.00    -0.061 OA 
ENDROOT
BRANCH   5  28
HETATM   28  C   UNL     1      -7.933   8.089  72.553  1.00  0.00    -0.131 C  
HETATM   29  C   UNL     1      -6.413   7.978  72.537  1.00  0.00    -0.074 C  
HETATM   30  O   UNL     1      -8.386   8.808  73.459  1.00  0.00    -0.357 OA 
HETATM   31 CL   UNL     1      -5.739   8.757  71.106  1.00  0.00    -0.036 Cl 
ENDBRANCH   5  28
TORSDOF 1
ENDMDL
MODEL       67
REMARK 921   NORMALIZED FREE ENERGY PREDICTED BY IDOCK:   -4.42 KCAL/MOL
REMARK 922        TOTAL FREE ENERGY PREDICTED BY IDOCK:   -3.45 KCAL/MOL
REMARK 923 INTER-LIGAND FREE ENERGY PREDICTED BY IDOCK:   -4.55 KCAL/MOL
REMARK 924 INTRA-LIGAND FREE ENERGY PREDICTED BY IDOCK:    1.10 KCAL/MOL
REMARK 927      BINDING AFFINITY PREDICTED BY RF-SCORE:    0.00 PKD
ROOT
HETATM    1  C   UNL     1      -9.818   5.920  68.552  1.00  0.00    -0.166 C  
HETATM    2  C   UNL     1      -8.800   4.952  68.687  1.00  0.00    -0.116 C  
HETATM    3  C   UNL     1      -8.679   6.009  69.764  1.00  0.00    -0.130 C  
HETATM    4  C   UNL     1      -7.717   5.124  70.824  1.00  0.00    -0.080 C  
HETATM    5  C   UNL     1     -10.268   7.342  69.898  1.00  0.00    -0.211 C  
HETATM    6  O   UNL     1     -11.499   7.153  69.093  1.00  0.00    -0.480 OA 
HETATM    7  C   UNL     1      -5.312   8.421  67.830  1.00  0.00    -0.035 C  
HETATM    8  C   UNL     1      -9.908   6.166  70.474  1.00  0.00    -0.214 C  
HETATM    9  C   UNL     1      -8.776   7.590  71.154  1.00  0.00    -0.136 C  
HETATM   10  C   UNL     1     -10.738   5.097  71.181  1.00  0.00    -0.141 C  
HETATM   11  C   UNL     1      -6.756   8.713  67.234  1.00  0.00    -0.063 C  
HETATM   12  C   UNL     1      -6.739  10.215  67.010  1.00  0.00    -0.078 C  
HETATM   13  H   UNL     1     -12.226   7.763  69.154  1.00  0.00     0.000 HD 
HETATM   14  C   UNL     1      -8.001   8.557  69.806  1.00  0.00    -0.103 C  
HETATM   15  C   UNL     1      -6.296  10.723  65.833  1.00  0.00    -0.109 C  
HETATM   16  O   UNL     1      -8.714   9.800  69.746  1.00  0.00    -0.181 OA 
HETATM   17  C   UNL     1      -7.759   7.919  68.186  1.00  0.00    -0.125 C  
HETATM   18  C   UNL     1      -9.150   7.296  67.611  1.00  0.00    -0.124 C  
HETATM   19  F   UNL     1      -6.937   6.766  68.227  1.00  0.00    -0.067 F  
HETATM   20  H   UNL     1      -8.312  10.302  69.047  1.00  0.00     0.000 HD 
HETATM   21  C   UNL     1      -8.992   6.841  66.150  1.00  0.00    -0.157 C  
HETATM   22  C   UNL     1      -8.267   7.880  65.313  1.00  0.00    -0.145 C  
HETATM   23  C   UNL     1      -6.858   8.088  65.821  1.00  0.00    -0.056 C  
HETATM   24  F   UNL     1      -8.258   7.440  64.024  1.00  0.00    -0.134 F  
HETATM   25  C   UNL     1      -5.882   8.351  64.927  1.00  0.00    -0.048 C  
HETATM   26  C   UNL     1      -5.897   9.839  64.676  1.00  0.00    -0.089 C  
HETATM   27  O   UNL     1      -5.542  10.305  63.603  1.00  0.00    -0.117 OA 
ENDROOT
BRANCH   5  28
HETATM   28  C   UNL     1     -11.255   7.912  71.197  1.00  0.00    -0.261 C  
HETATM   29  C   UNL     1     -11.301   9.412  71.462  1.00  0.00    -0.394 C  
HETATM   30  O   UNL     1     -11.976   7.235  71.947  1.00  0.00    -0.287 OA 
HETATM   31 CL   UNL     1     -12.058  10.268  70.120  1.00  0.00    -0.301 Cl 
ENDBRANCH   5  28
TORSDOF 1
ENDMDL
MODEL       68
REMARK 921   NORMALIZED FREE ENERGY PREDICTED BY IDOCK:   -4.32 KCAL/MOL
REMARK 922        TOTAL FREE ENERGY PREDICTED BY IDOCK:   -3.34 KCAL/MOL
REMARK 923 INTER-LIGAND FREE ENERGY PREDICTED BY IDOCK:   -4.44 KCAL/MOL
REMARK 924 INTRA-LIGAND FREE ENERGY PREDICTED BY IDOCK:    1.10 KCAL/MOL
REMARK 927      BINDING AFFINITY PREDICTED BY RF-SCORE:    0.00 PKD
ROOT
HETATM    1  C   UNL     1      -9.343   6.726  68.452  1.00  0.00    -0.124 C  
HETATM    2  C   UNL     1      -8.226   5.927  68.126  1.00  0.00    -0.109 C  
HETATM    3  C   UNL     1      -8.251   6.233  69.609  1.00  0.00    -0.124 C  
HETATM    4  C   UNL     1      -7.222   4.995  70.099  1.00  0.00    -0.058 C  
HETATM    5  C   UNL     1      -9.982   7.145  70.310  1.00  0.00    -0.187 C  
HETATM    6  O   UNL     1     -11.165   7.326  69.433  1.00  0.00    -0.441 OA 
HETATM    7  C   UNL     1      -5.129   9.572  69.562  1.00  0.00    -0.035 C  
HETATM    8  C   UNL     1      -9.507   5.878  70.189  1.00  0.00    -0.190 C  
HETATM    9  C   UNL     1      -8.559   6.788  71.618  1.00  0.00    -0.125 C  
HETATM   10  C   UNL     1     -10.229   4.534  70.138  1.00  0.00    -0.103 C  
HETATM   11  C   UNL     1      -6.583  10.024  69.102  1.00  0.00    -0.053 C  
HETATM   12  C   UNL     1      -6.729  11.401  69.724  1.00  0.00    -0.076 C  
HETATM   13  H   UNL     1     -11.957   7.743  69.753  1.00  0.00     0.000 HD 
HETATM   14  C   UNL     1      -7.864   8.392  71.073  1.00  0.00    -0.100 C  
HETATM   15  C   UNL     1      -6.317  12.502  69.047  1.00  0.00    -0.092 C  
HETATM   16  O   UNL     1      -8.711   9.405  71.634  1.00  0.00    -0.238 OA 
HETATM   17  C   UNL     1      -7.513   8.761  69.390  1.00  0.00    -0.080 C  
HETATM   18  C   UNL     1      -8.810   8.441  68.459  1.00  0.00    -0.136 C  
HETATM   19  F   UNL     1      -6.568   7.843  68.870  1.00  0.00    -0.046 F  
HETATM   20  H   UNL     1      -8.351  10.238  71.351  1.00  0.00     0.000 HD 
HETATM   21  C   UNL     1      -8.567   8.870  67.001  1.00  0.00    -0.120 C  
HETATM   22  C   UNL     1      -7.943  10.252  66.919  1.00  0.00    -0.112 C  
HETATM   23  C   UNL     1      -6.579  10.262  67.572  1.00  0.00    -0.067 C  
HETATM   24  F   UNL     1      -7.853  10.587  65.601  1.00  0.00    -0.141 F  
HETATM   25  C   UNL     1      -5.617  11.048  67.043  1.00  0.00    -0.066 C  
HETATM   26  C   UNL     1      -5.793  12.426  67.634  1.00  0.00    -0.127 C  
HETATM   27  O   UNL     1      -5.466  13.428  67.014  1.00  0.00    -0.180 OA 
ENDROOT
BRANCH   5  28
HETATM   28  C   UNL     1     -11.059   6.834  71.626  1.00  0.00    -0.246 C  
HETATM   29  C   UNL     1     -11.414   7.989  72.554  1.00  0.00    -0.409 C  
HETATM   30  O   UNL     1     -11.619   5.761  71.902  1.00  0.00    -0.232 OA 
HETATM   31 CL   UNL     1     -12.340   9.223  71.702  1.00  0.00    -0.421 Cl 
ENDBRANCH   5  28
TORSDOF 1
ENDMDL
MODEL       69
REMARK 921   NORMALIZED FREE ENERGY PREDICTED BY IDOCK:   -4.31 KCAL/MOL
REMARK 922        TOTAL FREE ENERGY PREDICTED BY IDOCK:   -3.33 KCAL/MOL
REMARK 923 INTER-LIGAND FREE ENERGY PREDICTED BY IDOCK:   -4.48 KCAL/MOL
REMARK 924 INTRA-LIGAND FREE ENERGY PREDICTED BY IDOCK:    1.15 KCAL/MOL
REMARK 927      BINDING AFFINITY PREDICTED BY RF-SCORE:    0.00 PKD
ROOT
HETATM    1  C   UNL     1     -10.404   7.506  70.910  1.00  0.00    -0.203 C  
HETATM    2  C   UNL     1     -11.253   6.385  70.794  1.00  0.00    -0.386 C  
HETATM    3  C   UNL     1      -9.916   5.985  71.383  1.00  0.00    -0.223 C  
HETATM    4  C   UNL     1     -10.408   4.523  72.056  1.00  0.00    -0.216 C  
HETATM    5  C   UNL     1      -8.657   7.556  71.900  1.00  0.00    -0.107 C  
HETATM    6  O   UNL     1      -9.119   8.963  71.841  1.00  0.00    -0.331 OA 
HETATM    7  C   UNL     1      -8.096   4.259  67.562  1.00  0.00    -0.099 C  
HETATM    8  C   UNL     1      -9.591   6.788  72.518  1.00  0.00    -0.165 C  
HETATM    9  C   UNL     1      -7.994   5.731  72.205  1.00  0.00    -0.107 C  
HETATM   10  C   UNL     1     -10.422   7.034  73.775  1.00  0.00    -0.392 C  
HETATM   11  C   UNL     1      -8.044   5.845  67.657  1.00  0.00    -0.102 C  
HETATM   12  C   UNL     1      -6.680   6.181  67.078  1.00  0.00    -0.061 C  
HETATM   13  H   UNL     1      -8.544   9.682  72.077  1.00  0.00     0.000 HD 
HETATM   14  C   UNL     1      -7.454   5.796  70.457  1.00  0.00    -0.086 C  
HETATM   15  C   UNL     1      -6.539   6.388  65.745  1.00  0.00    -0.047 C  
HETATM   16  O   UNL     1      -6.312   6.662  70.424  1.00  0.00    -0.040 OA 
HETATM   17  C   UNL     1      -8.545   6.183  69.133  1.00  0.00    -0.119 C  
HETATM   18  C   UNL     1      -9.357   7.557  69.452  1.00  0.00    -0.152 C  
HETATM   19  F   UNL     1      -9.604   5.244  69.076  1.00  0.00    -0.142 F  
HETATM   20  H   UNL     1      -6.031   6.696  69.516  1.00  0.00     0.000 HD 
HETATM   21  C   UNL     1     -10.227   7.980  68.256  1.00  0.00    -0.243 C  
HETATM   22  C   UNL     1      -9.467   7.879  66.945  1.00  0.00    -0.191 C  
HETATM   23  C   UNL     1      -9.070   6.446  66.665  1.00  0.00    -0.155 C  
HETATM   24  F   UNL     1     -10.276   8.359  65.959  1.00  0.00    -0.292 F  
HETATM   25  C   UNL     1      -9.059   6.019  65.385  1.00  0.00     0.086 C  
HETATM   26  C   UNL     1      -7.717   6.391  64.803  1.00  0.00    -0.105 C  
HETATM   27  O   UNL     1      -7.587   6.624  63.610  1.00  0.00    -0.087 OA 
ENDROOT
BRANCH   5  28
HETATM   28  C   UNL     1      -7.752   7.957  73.317  1.00  0.00    -0.143 C  
HETATM   29  C   UNL     1      -6.235   8.037  73.204  1.00  0.00    -0.074 C  
HETATM   30  O   UNL     1      -8.199   8.225  74.444  1.00  0.00    -0.254 OA 
HETATM   31 CL   UNL     1      -5.748   9.369  72.157  1.00  0.00    -0.047 Cl 
ENDBRANCH   5  28
TORSDOF 1
ENDMDL
MODEL       70
REMARK 921   NORMALIZED FREE ENERGY PREDICTED BY IDOCK:   -4.24 KCAL/MOL
REMARK 922        TOTAL FREE ENERGY PREDICTED BY IDOCK:   -3.26 KCAL/MOL
REMARK 923 INTER-LIGAND FREE ENERGY PREDICTED BY IDOCK:   -4.41 KCAL/MOL
REMARK 924 INTRA-LIGAND FREE ENERGY PREDICTED BY IDOCK:    1.15 KCAL/MOL
REMARK 927      BINDING AFFINITY PREDICTED BY RF-SCORE:    0.00 PKD
ROOT
HETATM    1  C   UNL     1      -8.132   4.486  67.336  1.00  0.00    -0.101 C  
HETATM    2  C   UNL     1      -9.299   3.722  67.119  1.00  0.00    -0.223 C  
HETATM    3  C   UNL     1      -9.481   5.136  66.605  1.00  0.00    -0.147 C  
HETATM    4  C   UNL     1     -10.785   4.825  65.587  1.00  0.00    -0.188 C  
HETATM    5  C   UNL     1      -7.765   6.307  66.572  1.00  0.00    -0.099 C  
HETATM    6  O   UNL     1      -6.434   5.731  66.879  1.00  0.00    -0.046 OA 
HETATM    7  C   UNL     1     -11.897   6.729  70.143  1.00  0.00    -0.321 C  
HETATM    8  C   UNL     1      -8.431   5.498  65.708  1.00  0.00    -0.134 C  
HETATM    9  C   UNL     1      -9.437   7.139  65.958  1.00  0.00     0.031 C  
HETATM   10  C   UNL     1      -7.964   4.769  64.450  1.00  0.00    -0.100 C  
HETATM   11  C   UNL     1     -10.328   6.663  70.394  1.00  0.00    -0.231 C  
HETATM   12  C   UNL     1     -10.050   7.936  71.174  1.00  0.00    -0.210 C  
HETATM   13  H   UNL     1      -5.649   6.267  66.865  1.00  0.00     0.000 HD 
HETATM   14  C   UNL     1      -9.726   7.509  67.727  1.00  0.00    -0.146 C  
HETATM   15  C   UNL     1     -10.132   7.938  72.527  1.00  0.00    -0.325 C  
HETATM   16  O   UNL     1      -8.824   8.571  68.066  1.00  0.00    -0.140 OA 
HETATM   17  C   UNL     1      -9.704   6.274  68.979  1.00  0.00    -0.130 C  
HETATM   18  C   UNL     1      -8.342   5.388  68.874  1.00  0.00    -0.100 C  
HETATM   19  F   UNL     1     -10.692   5.292  68.721  1.00  0.00    -0.264 F  
HETATM   20  H   UNL     1      -8.975   8.763  68.984  1.00  0.00     0.000 HD 
HETATM   21  C   UNL     1      -8.244   4.381  70.033  1.00  0.00    -0.068 C  
HETATM   22  C   UNL     1      -8.587   5.023  71.366  1.00  0.00    -0.126 C  
HETATM   23  C   UNL     1     -10.020   5.505  71.375  1.00  0.00    -0.241 C  
HETATM   24  F   UNL     1      -8.382   4.091  72.339  1.00  0.00    -0.090 F  
HETATM   25  C   UNL     1     -10.717   5.433  72.529  1.00  0.00    -0.288 C  
HETATM   26  C   UNL     1     -10.405   6.681  73.317  1.00  0.00    -0.253 C  
HETATM   27  O   UNL     1     -10.432   6.682  74.539  1.00  0.00    -0.254 OA 
ENDROOT
BRANCH   5  28
HETATM   28  C   UNL     1      -7.011   7.304  65.378  1.00  0.00    -0.060 C  
HETATM   29  C   UNL     1      -6.863   8.792  65.670  1.00  0.00    -0.075 C  
HETATM   30  O   UNL     1      -6.533   6.943  64.290  1.00  0.00    -0.035 OA 
HETATM   31 CL   UNL     1      -5.762   9.065  67.019  1.00  0.00    -0.045 Cl 
ENDBRANCH   5  28
TORSDOF 1
ENDMDL
MODEL       71
REMARK 921   NORMALIZED FREE ENERGY PREDICTED BY IDOCK:   -4.16 KCAL/MOL
REMARK 922        TOTAL FREE ENERGY PREDICTED BY IDOCK:   -3.18 KCAL/MOL
REMARK 923 INTER-LIGAND FREE ENERGY PREDICTED BY IDOCK:   -4.38 KCAL/MOL
REMARK 924 INTRA-LIGAND FREE ENERGY PREDICTED BY IDOCK:    1.21 KCAL/MOL
REMARK 927      BINDING AFFINITY PREDICTED BY RF-SCORE:    0.00 PKD
ROOT
HETATM    1  C   UNL     1     -10.431   8.473  70.110  1.00  0.00    -0.226 C  
HETATM    2  C   UNL     1     -11.247   7.460  69.564  1.00  0.00    -0.015 C  
HETATM    3  C   UNL     1      -9.813   6.985  69.685  1.00  0.00    -0.166 C  
HETATM    4  C   UNL     1     -10.127   5.334  69.594  1.00  0.00    -0.327 C  
HETATM    5  C   UNL     1      -8.539   8.240  70.743  1.00  0.00    -0.138 C  
HETATM    6  O   UNL     1      -9.054   9.431  71.462  1.00  0.00    -0.275 OA 
HETATM    7  C   UNL     1      -8.637   7.576  65.307  1.00  0.00    -0.023 C  
HETATM    8  C   UNL     1      -9.322   7.163  71.014  1.00  0.00    -0.158 C  
HETATM    9  C   UNL     1      -7.768   6.592  70.000  1.00  0.00    -0.102 C  
HETATM   10  C   UNL     1      -9.926   6.663  72.324  1.00  0.00    -0.179 C  
HETATM   11  C   UNL     1      -8.626   8.907  66.177  1.00  0.00    -0.155 C  
HETATM   12  C   UNL     1      -7.399   9.642  65.666  1.00  0.00    -0.101 C  
HETATM   13  H   UNL     1      -8.471  10.005  71.946  1.00  0.00     0.000 HD 
HETATM   14  C   UNL     1      -7.549   7.567  68.465  1.00  0.00    -0.114 C  
HETATM   15  C   UNL     1      -7.502  10.489  64.612  1.00  0.00     0.049 C  
HETATM   16  O   UNL     1      -6.461   8.467  68.717  1.00  0.00    -0.051 OA 
HETATM   17  C   UNL     1      -8.870   8.418  67.676  1.00  0.00    -0.136 C  
HETATM   18  C   UNL     1      -9.660   9.354  68.748  1.00  0.00    -0.156 C  
HETATM   19  F   UNL     1      -9.888   7.509  67.300  1.00  0.00    -0.168 F  
HETATM   20  H   UNL     1      -6.348   8.973  67.920  1.00  0.00     0.000 HD 
HETATM   21  C   UNL     1     -10.742  10.200  68.055  1.00  0.00    -0.305 C  
HETATM   22  C   UNL     1     -10.223  10.844  66.782  1.00  0.00    -0.231 C  
HETATM   23  C   UNL     1      -9.832   9.789  65.771  1.00  0.00    -0.360 C  
HETATM   24  F   UNL     1     -11.210  11.645  66.290  1.00  0.00    -0.329 F  
HETATM   25  C   UNL     1     -10.031  10.046  64.461  1.00  0.00    -0.151 C  
HETATM   26  C   UNL     1      -8.828  10.812  63.968  1.00  0.00    -0.112 C  
HETATM   27  O   UNL     1      -8.919  11.612  63.048  1.00  0.00    -0.155 OA 
ENDROOT
BRANCH   5  28
HETATM   28  C   UNL     1      -7.413   8.002  72.033  1.00  0.00    -0.090 C  
HETATM   29  C   UNL     1      -5.935   8.246  71.753  1.00  0.00    -0.042 C  
HETATM   30  O   UNL     1      -7.668   7.676  73.203  1.00  0.00    -0.095 OA 
HETATM   31 CL   UNL     1      -5.629   9.946  71.406  1.00  0.00    -0.075 Cl 
ENDBRANCH   5  28
TORSDOF 1
ENDMDL
MODEL       72
REMARK 921   NORMALIZED FREE ENERGY PREDICTED BY IDOCK:   -4.13 KCAL/MOL
REMARK 922        TOTAL FREE ENERGY PREDICTED BY IDOCK:   -3.14 KCAL/MOL
REMARK 923 INTER-LIGAND FREE ENERGY PREDICTED BY IDOCK:   -4.26 KCAL/MOL
REMARK 924 INTRA-LIGAND FREE ENERGY PREDICTED BY IDOCK:    1.12 KCAL/MOL
REMARK 927      BINDING AFFINITY PREDICTED BY RF-SCORE:    0.00 PKD
ROOT
HETATM    1  C   UNL     1     -10.083   8.528  67.184  1.00  0.00    -0.331 C  
HETATM    2  C   UNL     1      -9.483   8.603  65.909  1.00  0.00    -0.243 C  
HETATM    3  C   UNL     1      -8.669   7.720  66.833  1.00  0.00    -0.136 C  
HETATM    4  C   UNL     1      -7.802   6.907  65.642  1.00  0.00    -0.109 C  
HETATM    5  C   UNL     1      -9.563   7.260  68.652  1.00  0.00    -0.141 C  
HETATM    6  O   UNL     1     -10.966   7.643  68.938  1.00  0.00    -0.417 OA 
HETATM    7  C   UNL     1      -5.448  10.790  67.877  1.00  0.00    -0.039 C  
HETATM    8  C   UNL     1      -9.479   6.699  67.417  1.00  0.00    -0.143 C  
HETATM    9  C   UNL     1      -7.769   6.529  68.319  1.00  0.00    -0.105 C  
HETATM   10  C   UNL     1     -10.369   5.676  66.715  1.00  0.00    -0.316 C  
HETATM   11  C   UNL     1      -6.806  10.961  68.686  1.00  0.00    -0.062 C  
HETATM   12  C   UNL     1      -6.332  11.330  70.081  1.00  0.00    -0.120 C  
HETATM   13  H   UNL     1     -11.375   7.432  69.770  1.00  0.00     0.000 HD 
HETATM   14  C   UNL     1      -7.162   8.135  68.956  1.00  0.00    -0.074 C  
HETATM   15  C   UNL     1      -6.128  12.630  70.409  1.00  0.00    -0.016 C  
HETATM   16  O   UNL     1      -7.373   8.106  70.374  1.00  0.00    -0.059 OA 
HETATM   17  C   UNL     1      -7.676   9.682  68.298  1.00  0.00    -0.082 C  
HETATM   18  C   UNL     1      -9.301   9.757  68.235  1.00  0.00    -0.134 C  
HETATM   19  F   UNL     1      -7.343   9.769  66.925  1.00  0.00    -0.088 F  
HETATM   20  H   UNL     1      -7.058   8.940  70.706  1.00  0.00     0.000 HD 
HETATM   21  C   UNL     1      -9.776  11.147  67.776  1.00  0.00    -0.183 C  
HETATM   22  C   UNL     1      -9.029  12.259  68.491  1.00  0.00    -0.070 C  
HETATM   23  C   UNL     1      -7.554  12.212  68.162  1.00  0.00    -0.125 C  
HETATM   24  F   UNL     1      -9.576  13.444  68.097  1.00  0.00    -0.196 F  
HETATM   25  C   UNL     1      -6.878  13.375  68.064  1.00  0.00    -0.132 C  
HETATM   26  C   UNL     1      -6.445  13.758  69.458  1.00  0.00    -0.105 C  
HETATM   27  O   UNL     1      -6.301  14.929  69.778  1.00  0.00    -0.129 OA 
ENDROOT
BRANCH   5  28
HETATM   28  C   UNL     1      -9.831   5.791  69.524  1.00  0.00    -0.178 C  
HETATM   29  C   UNL     1      -9.493   5.763  71.010  1.00  0.00    -0.165 C  
HETATM   30  O   UNL     1     -10.306   4.732  69.085  1.00  0.00    -0.130 OA 
HETATM   31 CL   UNL     1     -10.550   6.842  71.918  1.00  0.00    -0.228 Cl 
ENDBRANCH   5  28
TORSDOF 1
ENDMDL
MODEL       73
REMARK 921   NORMALIZED FREE ENERGY PREDICTED BY IDOCK:   -4.07 KCAL/MOL
REMARK 922        TOTAL FREE ENERGY PREDICTED BY IDOCK:   -3.08 KCAL/MOL
REMARK 923 INTER-LIGAND FREE ENERGY PREDICTED BY IDOCK:   -4.63 KCAL/MOL
REMARK 924 INTRA-LIGAND FREE ENERGY PREDICTED BY IDOCK:    1.55 KCAL/MOL
REMARK 927      BINDING AFFINITY PREDICTED BY RF-SCORE:    0.00 PKD
ROOT
HETATM    1  C   UNL     1      -9.640   5.995  71.074  1.00  0.00    -0.197 C  
HETATM    2  C   UNL     1      -8.286   5.827  71.434  1.00  0.00    -0.126 C  
HETATM    3  C   UNL     1      -8.490   7.146  70.718  1.00  0.00    -0.133 C  
HETATM    4  C   UNL     1      -7.075   7.893  71.240  1.00  0.00    -0.055 C  
HETATM    5  C   UNL     1     -10.468   7.690  70.384  1.00  0.00    -0.220 C  
HETATM    6  O   UNL     1     -11.588   6.907  70.960  1.00  0.00    -0.291 OA 
HETATM    7  C   UNL     1      -6.951   5.825  66.622  1.00  0.00    -0.064 C  
HETATM    8  C   UNL     1      -9.524   7.914  71.335  1.00  0.00    -0.182 C  
HETATM    9  C   UNL     1      -9.075   8.914  69.734  1.00  0.00    -0.151 C  
HETATM   10  C   UNL     1      -9.651   8.332  72.798  1.00  0.00    -0.338 C  
HETATM   11  C   UNL     1      -8.445   5.380  66.938  1.00  0.00    -0.107 C  
HETATM   12  C   UNL     1      -9.151   5.571  65.607  1.00  0.00    -0.131 C  
HETATM   13  H   UNL     1     -12.493   7.155  70.807  1.00  0.00     0.000 HD 
HETATM   14  C   UNL     1      -9.052   7.854  68.241  1.00  0.00    -0.134 C  
HETATM   15  C   UNL     1      -9.182   4.561  64.703  1.00  0.00    -0.145 C  
HETATM   16  O   UNL     1     -10.253   8.158  67.519  1.00  0.00    -0.203 OA 
HETATM   17  C   UNL     1      -8.808   6.114  68.307  1.00  0.00    -0.112 C  
HETATM   18  C   UNL     1      -9.833   5.440  69.377  1.00  0.00    -0.252 C  
HETATM   19  F   UNL     1      -7.556   5.813  68.896  1.00  0.00    -0.081 F  
HETATM   20  H   UNL     1     -10.242   7.608  66.744  1.00  0.00     0.000 HD 
HETATM   21  C   UNL     1      -9.721   3.906  69.363  1.00  0.00    -0.172 C  
HETATM   22  C   UNL     1      -9.694   3.358  67.947  1.00  0.00     0.007 C  
HETATM   23  C   UNL     1      -8.474   3.855  67.204  1.00  0.00    -0.100 C  
HETATM   24  F   UNL     1      -9.691   1.998  68.029  1.00  0.00    -0.254 F  
HETATM   25  C   UNL     1      -7.882   3.032  66.312  1.00  0.00    -0.078 C  
HETATM   26  C   UNL     1      -8.614   3.195  65.003  1.00  0.00    -0.106 C  
HETATM   27  O   UNL     1      -8.687   2.277  64.199  1.00  0.00    -0.089 OA 
ENDROOT
BRANCH   5  28
HETATM   28  C   UNL     1     -11.385   9.128  70.665  1.00  0.00    -0.273 C  
HETATM   29  C   UNL     1     -12.784   8.987  71.251  1.00  0.00    -0.262 C  
HETATM   30  O   UNL     1     -11.025  10.300  70.470  1.00  0.00    -0.307 OA 
HETATM   31 CL   UNL     1     -12.720   8.354  72.895  1.00  0.00    -0.070 Cl 
ENDBRANCH   5  28
TORSDOF 1
ENDMDL
MODEL       74
REMARK 921   NORMALIZED FREE ENERGY PREDICTED BY IDOCK:   -4.05 KCAL/MOL
REMARK 922        TOTAL FREE ENERGY PREDICTED BY IDOCK:   -3.05 KCAL/MOL
REMARK 923 INTER-LIGAND FREE ENERGY PREDICTED BY IDOCK:   -4.14 KCAL/MOL
REMARK 924 INTRA-LIGAND FREE ENERGY PREDICTED BY IDOCK:    1.09 KCAL/MOL
REMARK 927      BINDING AFFINITY PREDICTED BY RF-SCORE:    0.00 PKD
ROOT
HETATM    1  C   UNL     1      -7.813   7.507  70.218  1.00  0.00    -0.094 C  
HETATM    2  C   UNL     1      -8.523   8.587  69.651  1.00  0.00    -0.130 C  
HETATM    3  C   UNL     1      -9.475   7.594  70.284  1.00  0.00    -0.161 C  
HETATM    4  C   UNL     1     -10.800   8.623  70.413  1.00  0.00    -0.250 C  
HETATM    5  C   UNL     1      -8.587   6.100  71.424  1.00  0.00    -0.128 C  
HETATM    6  O   UNL     1      -7.134   6.118  71.718  1.00  0.00    -0.081 OA 
HETATM    7  C   UNL     1     -10.766   5.493  66.436  1.00  0.00    -0.262 C  
HETATM    8  C   UNL     1      -9.118   7.331  71.642  1.00  0.00    -0.143 C  
HETATM    9  C   UNL     1     -10.546   6.071  71.269  1.00  0.00    -0.302 C  
HETATM   10  C   UNL     1      -8.909   8.329  72.778  1.00  0.00    -0.310 C  
HETATM   11  C   UNL     1      -9.359   5.019  67.004  1.00  0.00    -0.133 C  
HETATM   12  C   UNL     1      -9.376   3.520  66.758  1.00  0.00    -0.203 C  
HETATM   13  H   UNL     1      -6.727   5.435  72.239  1.00  0.00     0.000 HD 
HETATM   14  C   UNL     1     -10.258   5.141  69.718  1.00  0.00    -0.287 C  
HETATM   15  C   UNL     1      -8.922   3.017  65.584  1.00  0.00    -0.146 C  
HETATM   16  O   UNL     1      -9.845   3.826  70.113  1.00  0.00    -0.188 OA 
HETATM   17  C   UNL     1      -9.228   5.736  68.423  1.00  0.00    -0.117 C  
HETATM   18  C   UNL     1      -7.777   6.177  69.012  1.00  0.00    -0.096 C  
HETATM   19  F   UNL     1      -9.715   6.973  67.934  1.00  0.00    -0.125 F  
HETATM   20  H   UNL     1      -9.695   3.343  69.308  1.00  0.00     0.000 HD 
HETATM   21  C   UNL     1      -6.818   6.586  67.880  1.00  0.00    -0.074 C  
HETATM   22  C   UNL     1      -6.859   5.601  66.726  1.00  0.00    -0.063 C  
HETATM   23  C   UNL     1      -8.233   5.571  66.096  1.00  0.00    -0.112 C  
HETATM   24  F   UNL     1      -5.917   5.986  65.820  1.00  0.00    -0.024 F  
HETATM   25  C   UNL     1      -8.327   5.382  64.763  1.00  0.00    -0.145 C  
HETATM   26  C   UNL     1      -8.302   3.892  64.522  1.00  0.00    -0.098 C  
HETATM   27  O   UNL     1      -7.853   3.425  63.484  1.00  0.00    -0.073 OA 
ENDROOT
BRANCH   5  28
HETATM   28  C   UNL     1      -8.857   5.477  73.013  1.00  0.00    -0.120 C  
HETATM   29  C   UNL     1      -9.113   3.983  73.168  1.00  0.00    -0.106 C  
HETATM   30  O   UNL     1      -8.840   6.109  74.082  1.00  0.00    -0.122 OA 
HETATM   31 CL   UNL     1      -7.686   3.048  72.725  1.00  0.00    -0.050 Cl 
ENDBRANCH   5  28
TORSDOF 1
ENDMDL
MODEL       75
REMARK 921   NORMALIZED FREE ENERGY PREDICTED BY IDOCK:   -4.00 KCAL/MOL
REMARK 922        TOTAL FREE ENERGY PREDICTED BY IDOCK:   -3.00 KCAL/MOL
REMARK 923 INTER-LIGAND FREE ENERGY PREDICTED BY IDOCK:   -4.47 KCAL/MOL
REMARK 924 INTRA-LIGAND FREE ENERGY PREDICTED BY IDOCK:    1.47 KCAL/MOL
REMARK 927      BINDING AFFINITY PREDICTED BY RF-SCORE:    0.00 PKD
ROOT
HETATM    1  C   UNL     1      -9.895   5.996  66.707  1.00  0.00    -0.198 C  
HETATM    2  C   UNL     1      -9.725   7.392  66.578  1.00  0.00    -0.225 C  
HETATM    3  C   UNL     1      -8.384   6.698  66.696  1.00  0.00    -0.117 C  
HETATM    4  C   UNL     1      -7.444   7.944  66.067  1.00  0.00    -0.078 C  
HETATM    5  C   UNL     1      -8.433   4.623  66.593  1.00  0.00    -0.105 C  
HETATM    6  O   UNL     1      -9.685   3.899  66.262  1.00  0.00    -0.245 OA 
HETATM    7  C   UNL     1      -7.646   7.614  71.113  1.00  0.00    -0.080 C  
HETATM    8  C   UNL     1      -8.255   5.656  65.729  1.00  0.00    -0.122 C  
HETATM    9  C   UNL     1      -6.678   5.471  66.846  1.00  0.00    -0.062 C  
HETATM   10  C   UNL     1      -8.428   5.741  64.214  1.00  0.00     0.001 C  
HETATM   11  C   UNL     1      -8.633   6.395  70.850  1.00  0.00    -0.135 C  
HETATM   12  C   UNL     1      -8.239   5.395  71.923  1.00  0.00    -0.119 C  
HETATM   13  H   UNL     1      -9.708   2.950  66.215  1.00  0.00     0.000 HD 
HETATM   14  C   UNL     1      -7.095   5.451  68.629  1.00  0.00    -0.065 C  
HETATM   15  C   UNL     1      -8.829   5.437  73.143  1.00  0.00    -0.119 C  
HETATM   16  O   UNL     1      -6.970   4.086  69.052  1.00  0.00    -0.045 OA 
HETATM   17  C   UNL     1      -8.572   6.153  69.275  1.00  0.00    -0.119 C  
HETATM   18  C   UNL     1      -9.866   5.597  68.458  1.00  0.00    -0.185 C  
HETATM   19  F   UNL     1      -8.632   7.536  68.977  1.00  0.00    -0.131 F  
HETATM   20  H   UNL     1      -7.186   4.076  69.978  1.00  0.00     0.000 HD 
HETATM   21  C   UNL     1     -11.177   6.104  69.083  1.00  0.00    -0.409 C  
HETATM   22  C   UNL     1     -11.167   5.970  70.596  1.00  0.00    -0.277 C  
HETATM   23  C   UNL     1     -10.078   6.827  71.201  1.00  0.00    -0.198 C  
HETATM   24  F   UNL     1     -12.393   6.349  71.053  1.00  0.00    -0.380 F  
HETATM   25  C   UNL     1     -10.305   7.408  72.398  1.00  0.00    -0.263 C  
HETATM   26  C   UNL     1      -9.951   6.396  73.460  1.00  0.00    -0.204 C  
HETATM   27  O   UNL     1     -10.510   6.396  74.548  1.00  0.00    -0.274 OA 
ENDROOT
BRANCH   5  28
HETATM   28  C   UNL     1      -7.560   3.442  65.682  1.00  0.00    -0.077 C  
HETATM   29  C   UNL     1      -8.312   2.212  65.188  1.00  0.00    -0.085 C  
HETATM   30  O   UNL     1      -6.366   3.485  65.344  1.00  0.00    -0.030 OA 
HETATM   31 CL   UNL     1      -9.536   2.654  63.999  1.00  0.00    -0.121 Cl 
ENDBRANCH   5  28
TORSDOF 1
ENDMDL
MODEL       76
REMARK 921   NORMALIZED FREE ENERGY PREDICTED BY IDOCK:   -3.85 KCAL/MOL
REMARK 922        TOTAL FREE ENERGY PREDICTED BY IDOCK:   -2.84 KCAL/MOL
REMARK 923 INTER-LIGAND FREE ENERGY PREDICTED BY IDOCK:   -3.93 KCAL/MOL
REMARK 924 INTRA-LIGAND FREE ENERGY PREDICTED BY IDOCK:    1.09 KCAL/MOL
REMARK 927      BINDING AFFINITY PREDICTED BY RF-SCORE:    0.00 PKD
ROOT
HETATM    1  C   UNL     1     -10.054   5.513  69.991  1.00  0.00    -0.311 C  
HETATM    2  C   UNL     1      -9.719   4.185  70.333  1.00  0.00    -0.271 C  
HETATM    3  C   UNL     1      -8.527   5.102  70.516  1.00  0.00    -0.113 C  
HETATM    4  C   UNL     1      -7.640   4.097  71.534  1.00  0.00    -0.064 C  
HETATM    5  C   UNL     1      -8.924   7.135  70.346  1.00  0.00    -0.155 C  
HETATM    6  O   UNL     1     -10.312   7.640  70.218  1.00  0.00    -0.207 OA 
HETATM    7  C   UNL     1      -6.365   4.023  66.636  1.00  0.00    -0.036 C  
HETATM    8  C   UNL     1      -8.857   6.217  71.345  1.00  0.00    -0.139 C  
HETATM    9  C   UNL     1      -7.066   6.607  70.707  1.00  0.00    -0.069 C  
HETATM   10  C   UNL     1      -9.462   6.211  72.747  1.00  0.00    -0.151 C  
HETATM   11  C   UNL     1      -7.560   5.057  66.457  1.00  0.00    -0.088 C  
HETATM   12  C   UNL     1      -7.021   6.033  65.426  1.00  0.00    -0.063 C  
HETATM   13  H   UNL     1     -10.494   8.570  70.140  1.00  0.00     0.000 HD 
HETATM   14  C   UNL     1      -6.925   6.423  68.891  1.00  0.00    -0.076 C  
HETATM   15  C   UNL     1      -7.204   5.796  64.104  1.00  0.00    -0.055 C  
HETATM   16  O   UNL     1      -6.890   7.753  68.357  1.00  0.00    -0.063 OA 
HETATM   17  C   UNL     1      -8.013   5.418  67.943  1.00  0.00    -0.096 C  
HETATM   18  C   UNL     1      -9.562   5.785  68.286  1.00  0.00    -0.139 C  
HETATM   19  F   UNL     1      -7.947   4.072  68.379  1.00  0.00    -0.071 F  
HETATM   20  H   UNL     1      -6.817   7.658  67.414  1.00  0.00     0.000 HD 
HETATM   21  C   UNL     1     -10.531   5.003  67.381  1.00  0.00    -0.121 C  
HETATM   22  C   UNL     1     -10.087   5.029  65.929  1.00  0.00    -0.168 C  
HETATM   23  C   UNL     1      -8.748   4.344  65.766  1.00  0.00    -0.120 C  
HETATM   24  F   UNL     1     -11.046   4.400  65.192  1.00  0.00    -0.354 F  
HETATM   25  C   UNL     1      -8.514   3.647  64.635  1.00  0.00    -0.096 C  
HETATM   26  C   UNL     1      -8.017   4.628  63.602  1.00  0.00    -0.091 C  
HETATM   27  O   UNL     1      -8.216   4.448  62.409  1.00  0.00    -0.066 OA 
ENDROOT
BRANCH   5  28
HETATM   28  C   UNL     1      -8.557   8.518  71.316  1.00  0.00    -0.176 C  
HETATM   29  C   UNL     1      -7.820   9.681  70.663  1.00  0.00    -0.049 C  
HETATM   30  O   UNL     1      -8.853   8.701  72.508  1.00  0.00    -0.356 OA 
HETATM   31 CL   UNL     1      -8.816  10.445  69.426  1.00  0.00    -0.167 Cl 
ENDBRANCH   5  28
TORSDOF 1
ENDMDL
MODEL       77
REMARK 921   NORMALIZED FREE ENERGY PREDICTED BY IDOCK:   -3.83 KCAL/MOL
REMARK 922        TOTAL FREE ENERGY PREDICTED BY IDOCK:   -2.83 KCAL/MOL
REMARK 923 INTER-LIGAND FREE ENERGY PREDICTED BY IDOCK:   -5.90 KCAL/MOL
REMARK 924 INTRA-LIGAND FREE ENERGY PREDICTED BY IDOCK:    3.07 KCAL/MOL
REMARK 927      BINDING AFFINITY PREDICTED BY RF-SCORE:    0.00 PKD
ROOT
HETATM    1  C   UNL     1     -11.221  12.022  66.523  1.00  0.00    -0.387 C  
HETATM    2  C   UNL     1     -11.893  11.578  67.681  1.00  0.00    -0.194 C  
HETATM    3  C   UNL     1     -10.959  12.724  68.011  1.00  0.00    -0.266 C  
HETATM    4  C   UNL     1     -11.663  13.157  69.477  1.00  0.00    -0.382 C  
HETATM    5  C   UNL     1     -10.117  13.694  66.378  1.00  0.00    -0.295 C  
HETATM    6  O   UNL     1     -10.540  13.377  64.993  1.00  0.00    -0.319 OA 
HETATM    7  C   UNL     1      -7.554  10.214  69.743  1.00  0.00    -0.175 C  
HETATM    8  C   UNL     1     -11.208  13.851  67.171  1.00  0.00    -0.328 C  
HETATM    9  C   UNL     1      -9.615  14.338  68.166  1.00  0.00    -0.218 C  
HETATM   10  C   UNL     1     -12.527  14.584  66.933  1.00  0.00     0.099 C  
HETATM   11  C   UNL     1      -7.595  10.260  68.154  1.00  0.00    -0.087 C  
HETATM   12  C   UNL     1      -6.127  10.350  67.774  1.00  0.00    -0.052 C  
HETATM   13  H   UNL     1     -10.155  13.821  64.245  1.00  0.00     0.000 HD 
HETATM   14  C   UNL     1      -8.342  13.023  68.117  1.00  0.00    -0.164 C  
HETATM   15  C   UNL     1      -5.401   9.220  67.590  1.00  0.00    -0.037 C  
HETATM   16  O   UNL     1      -7.333  13.478  67.204  1.00  0.00    -0.354 OA 
HETATM   17  C   UNL     1      -8.721  11.334  67.805  1.00  0.00    -0.134 C  
HETATM   18  C   UNL     1      -9.627  11.198  66.460  1.00  0.00    -0.222 C  
HETATM   19  F   UNL     1      -9.613  10.839  68.789  1.00  0.00    -0.158 F  
HETATM   20  H   UNL     1      -6.672  12.796  67.178  1.00  0.00     0.000 HD 
HETATM   21  C   UNL     1      -9.870   9.721  66.101  1.00  0.00    -0.329 C  
HETATM   22  C   UNL     1      -8.594   8.903  66.198  1.00  0.00    -0.140 C  
HETATM   23  C   UNL     1      -8.075   8.889  67.619  1.00  0.00    -0.106 C  
HETATM   24  F   UNL     1      -8.880   7.639  65.774  1.00  0.00    -0.166 F  
HETATM   25  C   UNL     1      -7.471   7.771  68.073  1.00  0.00    -0.108 C  
HETATM   26  C   UNL     1      -6.022   7.846  67.657  1.00  0.00    -0.046 C  
HETATM   27  O   UNL     1      -5.370   6.833  67.445  1.00  0.00    -0.008 OA 
ENDROOT
BRANCH   5  28
HETATM   28  C   UNL     1      -9.966  15.350  65.908  1.00  0.00    -0.346 C  
HETATM   29  C   UNL     1      -9.160  16.284  66.803  1.00  0.00    -0.232 C  
HETATM   30  O   UNL     1     -10.423  15.886  64.885  1.00  0.00    -0.542 OA 
HETATM   31 CL   UNL     1      -7.458  15.827  66.821  1.00  0.00    -0.204 Cl 
ENDBRANCH   5  28
TORSDOF 1
ENDMDL
MODEL       78
REMARK 921   NORMALIZED FREE ENERGY PREDICTED BY IDOCK:   -3.65 KCAL/MOL
REMARK 922        TOTAL FREE ENERGY PREDICTED BY IDOCK:   -2.63 KCAL/MOL
REMARK 923 INTER-LIGAND FREE ENERGY PREDICTED BY IDOCK:   -4.64 KCAL/MOL
REMARK 924 INTRA-LIGAND FREE ENERGY PREDICTED BY IDOCK:    2.02 KCAL/MOL
REMARK 927      BINDING AFFINITY PREDICTED BY RF-SCORE:    0.00 PKD
ROOT
HETATM    1  C   UNL     1     -10.419  12.017  66.705  1.00  0.00    -0.247 C  
HETATM    2  C   UNL     1     -11.109  10.974  67.360  1.00  0.00    -0.370 C  
HETATM    3  C   UNL     1      -9.887  11.389  68.153  1.00  0.00    -0.195 C  
HETATM    4  C   UNL     1     -10.356  10.728  69.628  1.00  0.00    -0.142 C  
HETATM    5  C   UNL     1      -8.925  13.107  67.488  1.00  0.00    -0.197 C  
HETATM    6  O   UNL     1      -9.506  13.946  66.411  1.00  0.00    -0.307 OA 
HETATM    7  C   UNL     1      -7.158   7.963  66.845  1.00  0.00    -0.078 C  
HETATM    8  C   UNL     1      -9.884  12.796  68.398  1.00  0.00    -0.196 C  
HETATM    9  C   UNL     1      -8.158  12.192  69.049  1.00  0.00     0.245 C  
HETATM   10  C   UNL     1     -10.975  13.649  69.042  1.00  0.00    -0.271 C  
HETATM   11  C   UNL     1      -7.288   9.142  65.786  1.00  0.00    -0.090 C  
HETATM   12  C   UNL     1      -5.876   9.273  65.242  1.00  0.00    -0.061 C  
HETATM   13  H   UNL     1      -9.066  14.731  66.107  1.00  0.00     0.000 HD 
HETATM   14  C   UNL     1      -7.282  11.155  67.820  1.00  0.00    -0.091 C  
HETATM   15  C   UNL     1      -5.486   8.535  64.174  1.00  0.00    -0.059 C  
HETATM   16  O   UNL     1      -6.250  11.981  67.264  1.00  0.00    -0.120 OA 
HETATM   17  C   UNL     1      -8.112  10.280  66.540  1.00  0.00    -0.121 C  
HETATM   18  C   UNL     1      -9.106  11.279  65.726  1.00  0.00    -0.216 C  
HETATM   19  F   UNL     1      -9.037   9.360  67.091  1.00  0.00    -0.131 F  
HETATM   20  H   UNL     1      -5.795  11.443  66.626  1.00  0.00     0.000 HD 
HETATM   21  C   UNL     1      -9.751  10.564  64.526  1.00  0.00    -0.375 C  
HETATM   22  C   UNL     1      -8.733   9.760  63.738  1.00  0.00    -0.224 C  
HETATM   23  C   UNL     1      -8.145   8.658  64.591  1.00  0.00    -0.156 C  
HETATM   24  F   UNL     1      -9.368   9.243  62.648  1.00  0.00    -0.256 F  
HETATM   25  C   UNL     1      -7.829   7.486  64.001  1.00  0.00    -0.127 C  
HETATM   26  C   UNL     1      -6.441   7.636  63.427  1.00  0.00    -0.058 C  
HETATM   27  O   UNL     1      -6.094   7.008  62.437  1.00  0.00    -0.043 OA 
ENDROOT
BRANCH   5  28
HETATM   28  C   UNL     1      -8.375  14.553  68.258  1.00  0.00    -0.152 C  
HETATM   29  C   UNL     1      -8.876  15.890  67.724  1.00  0.00    -0.175 C  
HETATM   30  O   UNL     1      -7.622  14.642  69.242  1.00  0.00    -0.147 OA 
HETATM   31 CL   UNL     1     -10.611  16.063  67.980  1.00  0.00    -0.285 Cl 
ENDBRANCH   5  28
TORSDOF 1
ENDMDL
MODEL       79
REMARK 921   NORMALIZED FREE ENERGY PREDICTED BY IDOCK:   -3.34 KCAL/MOL
REMARK 922        TOTAL FREE ENERGY PREDICTED BY IDOCK:   -2.30 KCAL/MOL
REMARK 923 INTER-LIGAND FREE ENERGY PREDICTED BY IDOCK:   -4.58 KCAL/MOL
REMARK 924 INTRA-LIGAND FREE ENERGY PREDICTED BY IDOCK:    2.28 KCAL/MOL
REMARK 927      BINDING AFFINITY PREDICTED BY RF-SCORE:    0.00 PKD
ROOT
HETATM    1  C   UNL     1     -10.873  14.648  67.838  1.00  0.00    -0.261 C  
HETATM    2  C   UNL     1     -10.977  15.168  66.530  1.00  0.00    -0.318 C  
HETATM    3  C   UNL     1      -9.800  14.220  66.637  1.00  0.00    -0.288 C  
HETATM    4  C   UNL     1      -9.617  13.922  64.991  1.00  0.00     0.317 C  
HETATM    5  C   UNL     1      -9.678  13.137  68.406  1.00  0.00    -0.196 C  
HETATM    6  O   UNL     1     -10.766  13.182  69.413  1.00  0.00    -0.437 OA 
HETATM    7  C   UNL     1      -6.531  17.394  67.002  1.00  0.00    -0.204 C  
HETATM    8  C   UNL     1     -10.203  12.956  67.167  1.00  0.00    -0.239 C  
HETATM    9  C   UNL     1      -8.267  12.842  67.070  1.00  0.00    -0.099 C  
HETATM   10  C   UNL     1     -11.306  12.026  66.667  1.00  0.00    -0.399 C  
HETATM   11  C   UNL     1      -7.320  17.104  68.351  1.00  0.00    -0.220 C  
HETATM   12  C   UNL     1      -6.229  17.155  69.406  1.00  0.00    -0.234 C  
HETATM   13  H   UNL     1     -10.711  12.687  70.222  1.00  0.00     0.000 HD 
HETATM   14  C   UNL     1      -7.451  14.293  67.833  1.00  0.00    -0.150 C  
HETATM   15  C   UNL     1      -5.911  18.332  70.000  1.00  0.00    -0.211 C  
HETATM   16  O   UNL     1      -6.939  13.844  69.095  1.00  0.00    -0.111 OA 
HETATM   17  C   UNL     1      -8.248  15.849  68.021  1.00  0.00    -0.148 C  
HETATM   18  C   UNL     1      -9.695  15.660  68.741  1.00  0.00    -0.212 C  
HETATM   19  F   UNL     1      -8.633  16.362  66.759  1.00  0.00    -0.188 F  
HETATM   20  H   UNL     1      -6.516  14.597  69.491  1.00  0.00     0.000 HD 
HETATM   21  C   UNL     1     -10.356  17.020  69.025  1.00  0.00    -0.330 C  
HETATM   22  C   UNL     1      -9.374  18.006  69.630  1.00  0.00     0.763 C  
HETATM   23  C   UNL     1      -8.249  18.303  68.663  1.00  0.00    -0.301 C  
HETATM   24  F   UNL     1     -10.062  19.142  69.936  1.00  0.00    -0.166 F  
HETATM   25  C   UNL     1      -7.727  19.547  68.644  1.00  0.00    -0.390 C  
HETATM   26  C   UNL     1      -6.672  19.605  69.721  1.00  0.00    -0.264 C  
HETATM   27  O   UNL     1      -6.408  20.652  70.295  1.00  0.00    -0.393 OA 
ENDROOT
BRANCH   5  28
HETATM   28  C   UNL     1      -9.460  11.463  68.781  1.00  0.00    -0.119 C  
HETATM   29  C   UNL     1      -8.038  10.916  68.833  1.00  0.00    -0.144 C  
HETATM   30  O   UNL     1     -10.341  10.631  69.049  1.00  0.00    -0.196 OA 
HETATM   31 CL   UNL     1      -7.133  11.636  70.163  1.00  0.00     0.560 Cl 
ENDBRANCH   5  28
TORSDOF 1
ENDMDL
MODEL       80
REMARK 921   NORMALIZED FREE ENERGY PREDICTED BY IDOCK:   -3.25 KCAL/MOL
REMARK 922        TOTAL FREE ENERGY PREDICTED BY IDOCK:   -2.21 KCAL/MOL
REMARK 923 INTER-LIGAND FREE ENERGY PREDICTED BY IDOCK:   -3.30 KCAL/MOL
REMARK 924 INTRA-LIGAND FREE ENERGY PREDICTED BY IDOCK:    1.09 KCAL/MOL
REMARK 927      BINDING AFFINITY PREDICTED BY RF-SCORE:    0.00 PKD
ROOT
HETATM    1  C   UNL     1      -8.619   6.847  66.750  1.00  0.00    -0.120 C  
HETATM    2  C   UNL     1      -7.749   7.006  65.650  1.00  0.00    -0.102 C  
HETATM    3  C   UNL     1      -6.995   7.158  66.955  1.00  0.00    -0.077 C  
HETATM    4  C   UNL     1      -5.450   6.898  66.341  1.00  0.00    -0.022 C  
HETATM    5  C   UNL     1      -8.059   6.658  68.669  1.00  0.00    -0.119 C  
HETATM    6  O   UNL     1      -9.406   6.043  68.587  1.00  0.00    -0.118 OA 
HETATM    7  C   UNL     1      -6.824  11.725  66.997  1.00  0.00    -0.137 C  
HETATM    8  C   UNL     1      -7.213   6.034  67.810  1.00  0.00    -0.076 C  
HETATM    9  C   UNL     1      -6.212   7.285  68.906  1.00  0.00    -0.034 C  
HETATM   10  C   UNL     1      -7.004   4.554  67.501  1.00  0.00    -0.060 C  
HETATM   11  C   UNL     1      -8.211  11.115  67.479  1.00  0.00    -0.119 C  
HETATM   12  C   UNL     1      -8.603  12.020  68.634  1.00  0.00    -0.011 C  
HETATM   13  H   UNL     1      -9.893   5.814  69.370  1.00  0.00     0.000 HD 
HETATM   14  C   UNL     1      -6.937   8.965  68.875  1.00  0.00    -0.065 C  
HETATM   15  C   UNL     1      -9.329  13.142  68.403  1.00  0.00    -0.154 C  
HETATM   16  O   UNL     1      -7.606   9.135  70.132  1.00  0.00    -0.069 OA 
HETATM   17  C   UNL     1      -7.957   9.543  67.564  1.00  0.00    -0.106 C  
HETATM   18  C   UNL     1      -9.155   8.480  67.270  1.00  0.00    -0.152 C  
HETATM   19  F   UNL     1      -7.251   9.507  66.337  1.00  0.00    -0.085 F  
HETATM   20  H   UNL     1      -7.983  10.007  70.115  1.00  0.00     0.000 HD 
HETATM   21  C   UNL     1     -10.130   9.021  66.209  1.00  0.00    -0.311 C  
HETATM   22  C   UNL     1     -10.499  10.470  66.473  1.00  0.00    -0.212 C  
HETATM   23  C   UNL     1      -9.279  11.358  66.385  1.00  0.00    -0.209 C  
HETATM   24  F   UNL     1     -11.433  10.834  65.549  1.00  0.00     0.068 F  
HETATM   25  C   UNL     1      -9.423  12.605  65.889  1.00  0.00    -0.096 C  
HETATM   26  C   UNL     1      -9.853  13.492  67.032  1.00  0.00    -0.251 C  
HETATM   27  O   UNL     1     -10.545  14.482  66.840  1.00  0.00    -0.274 OA 
ENDROOT
BRANCH   5  28
HETATM   28  C   UNL     1      -7.733   5.657  70.040  1.00  0.00    -0.083 C  
HETATM   29  C   UNL     1      -7.884   6.264  71.429  1.00  0.00    -0.104 C  
HETATM   30  O   UNL     1      -7.408   4.458  70.035  1.00  0.00    -0.045 OA 
HETATM   31 CL   UNL     1      -9.566   6.675  71.759  1.00  0.00    -0.159 Cl 
ENDBRANCH   5  28
TORSDOF 1
ENDMDL
MODEL       81
REMARK 921   NORMALIZED FREE ENERGY PREDICTED BY IDOCK:   -2.93 KCAL/MOL
REMARK 922        TOTAL FREE ENERGY PREDICTED BY IDOCK:   -1.87 KCAL/MOL
REMARK 923 INTER-LIGAND FREE ENERGY PREDICTED BY IDOCK:   -2.96 KCAL/MOL
REMARK 924 INTRA-LIGAND FREE ENERGY PREDICTED BY IDOCK:    1.09 KCAL/MOL
REMARK 927      BINDING AFFINITY PREDICTED BY RF-SCORE:    0.00 PKD
ROOT
HETATM    1  C   UNL     1      -9.887   4.598  68.254  1.00  0.00    -0.168 C  
HETATM    2  C   UNL     1     -10.910   5.555  68.420  1.00  0.00    -0.059 C  
HETATM    3  C   UNL     1      -9.837   6.076  67.487  1.00  0.00    -0.138 C  
HETATM    4  C   UNL     1     -10.753   7.289  66.764  1.00  0.00    -0.231 C  
HETATM    5  C   UNL     1      -8.409   4.686  66.896  1.00  0.00    -0.106 C  
HETATM    6  O   UNL     1      -8.543   3.250  67.244  1.00  0.00    -0.098 OA 
HETATM    7  C   UNL     1      -7.675   8.731  70.514  1.00  0.00    -0.089 C  
HETATM    8  C   UNL     1      -9.591   5.158  66.421  1.00  0.00    -0.171 C  
HETATM    9  C   UNL     1      -8.222   6.517  66.209  1.00  0.00    -0.119 C  
HETATM   10  C   UNL     1     -10.592   4.556  65.437  1.00  0.00    -0.195 C  
HETATM   11  C   UNL     1      -7.311   7.187  70.617  1.00  0.00    -0.075 C  
HETATM   12  C   UNL     1      -5.819   7.202  70.896  1.00  0.00    -0.031 C  
HETATM   13  H   UNL     1      -7.890   2.614  66.975  1.00  0.00     0.000 HD 
HETATM   14  C   UNL     1      -7.333   6.852  67.774  1.00  0.00    -0.097 C  
HETATM   15  C   UNL     1      -5.366   7.257  72.173  1.00  0.00    -0.036 C  
HETATM   16  O   UNL     1      -6.052   6.220  67.649  1.00  0.00    -0.019 OA 
HETATM   17  C   UNL     1      -8.023   6.516  69.357  1.00  0.00    -0.114 C  
HETATM   18  C   UNL     1      -8.575   4.985  69.418  1.00  0.00    -0.097 C  
HETATM   19  F   UNL     1      -9.221   7.248  69.539  1.00  0.00    -0.148 F  
HETATM   20  H   UNL     1      -5.591   6.394  68.462  1.00  0.00     0.000 HD 
HETATM   21  C   UNL     1      -9.072   4.631  70.830  1.00  0.00    -0.181 C  
HETATM   22  C   UNL     1      -8.098   5.090  71.901  1.00  0.00    -0.115 C  
HETATM   23  C   UNL     1      -7.963   6.596  71.891  1.00  0.00    -0.102 C  
HETATM   24  F   UNL     1      -8.568   4.653  73.103  1.00  0.00    -0.101 F  
HETATM   25  C   UNL     1      -7.779   7.234  73.066  1.00  0.00    -0.107 C  
HETATM   26  C   UNL     1      -6.299   7.210  73.359  1.00  0.00    -0.065 C  
HETATM   27  O   UNL     1      -5.880   7.214  74.508  1.00  0.00    -0.075 OA 
ENDROOT
BRANCH   5  28
HETATM   28  C   UNL     1      -7.751   4.210  65.370  1.00  0.00    -0.086 C  
HETATM   29  C   UNL     1      -6.236   4.218  65.204  1.00  0.00    -0.027 C  
HETATM   30  O   UNL     1      -8.376   3.823  64.369  1.00  0.00    -0.093 OA 
HETATM   31 CL   UNL     1      -5.481   3.008  66.241  1.00  0.00    -0.016 Cl 
ENDBRANCH   5  28
TORSDOF 1
ENDMDL
MODEL       82
REMARK 921   NORMALIZED FREE ENERGY PREDICTED BY IDOCK:   -2.57 KCAL/MOL
REMARK 922        TOTAL FREE ENERGY PREDICTED BY IDOCK:   -1.49 KCAL/MOL
REMARK 923 INTER-LIGAND FREE ENERGY PREDICTED BY IDOCK:   -2.58 KCAL/MOL
REMARK 924 INTRA-LIGAND FREE ENERGY PREDICTED BY IDOCK:    1.09 KCAL/MOL
REMARK 927      BINDING AFFINITY PREDICTED BY RF-SCORE:    0.00 PKD
ROOT
HETATM    1  C   UNL     1      -6.401   5.010  66.269  1.00  0.00    -0.036 C  
HETATM    2  C   UNL     1      -6.715   3.665  66.555  1.00  0.00    -0.049 C  
HETATM    3  C   UNL     1      -7.886   4.358  65.889  1.00  0.00    -0.095 C  
HETATM    4  C   UNL     1      -8.699   2.971  65.390  1.00  0.00    -0.122 C  
HETATM    5  C   UNL     1      -7.494   6.252  65.130  1.00  0.00    -0.082 C  
HETATM    6  O   UNL     1      -6.117   6.802  65.106  1.00  0.00    -0.034 OA 
HETATM    7  C   UNL     1     -10.337   5.117  69.671  1.00  0.00    -0.316 C  
HETATM    8  C   UNL     1      -7.490   4.977  64.664  1.00  0.00    -0.075 C  
HETATM    9  C   UNL     1      -9.322   5.561  64.926  1.00  0.00     0.312 C  
HETATM   10  C   UNL     1      -6.782   4.345  63.468  1.00  0.00    -0.042 C  
HETATM   11  C   UNL     1      -9.155   6.153  69.435  1.00  0.00    -0.135 C  
HETATM   12  C   UNL     1      -9.766   7.477  69.861  1.00  0.00    -0.171 C  
HETATM   13  H   UNL     1      -5.937   7.668  64.760  1.00  0.00     0.000 HD 
HETATM   14  C   UNL     1      -9.600   6.228  66.609  1.00  0.00    -0.157 C  
HETATM   15  C   UNL     1      -9.683   7.880  71.153  1.00  0.00    -0.182 C  
HETATM   16  O   UNL     1      -9.668   7.653  66.466  1.00  0.00    -0.258 OA 
HETATM   17  C   UNL     1      -8.590   5.805  67.985  1.00  0.00    -0.105 C  
HETATM   18  C   UNL     1      -7.018   6.020  67.619  1.00  0.00    -0.069 C  
HETATM   19  F   UNL     1      -8.630   4.408  68.215  1.00  0.00    -0.092 F  
HETATM   20  H   UNL     1      -9.812   8.000  67.340  1.00  0.00     0.000 HD 
HETATM   21  C   UNL     1      -6.123   5.772  68.846  1.00  0.00    -0.025 C  
HETATM   22  C   UNL     1      -6.675   6.448  70.089  1.00  0.00    -0.050 C  
HETATM   23  C   UNL     1      -8.025   5.874  70.456  1.00  0.00    -0.106 C  
HETATM   24  F   UNL     1      -5.777   6.258  71.096  1.00  0.00    -0.023 F  
HETATM   25  C   UNL     1      -8.347   5.768  71.763  1.00  0.00    -0.120 C  
HETATM   26  C   UNL     1      -8.915   7.099  72.191  1.00  0.00    -0.129 C  
HETATM   27  O   UNL     1      -8.807   7.493  73.344  1.00  0.00    -0.153 OA 
ENDROOT
BRANCH   5  28
HETATM   28  C   UNL     1      -7.781   7.023  63.610  1.00  0.00    -0.111 C  
HETATM   29  C   UNL     1      -8.511   8.361  63.606  1.00  0.00     0.021 C  
HETATM   30  O   UNL     1      -7.431   6.626  62.487  1.00  0.00    -0.061 OA 
HETATM   31 CL   UNL     1      -7.545   9.609  64.391  1.00  0.00    -0.122 Cl 
ENDBRANCH   5  28
TORSDOF 1
ENDMDL
MODEL       83
REMARK 921   NORMALIZED FREE ENERGY PREDICTED BY IDOCK:   -2.27 KCAL/MOL
REMARK 922        TOTAL FREE ENERGY PREDICTED BY IDOCK:   -1.17 KCAL/MOL
REMARK 923 INTER-LIGAND FREE ENERGY PREDICTED BY IDOCK:   -4.76 KCAL/MOL
REMARK 924 INTRA-LIGAND FREE ENERGY PREDICTED BY IDOCK:    3.59 KCAL/MOL
REMARK 927      BINDING AFFINITY PREDICTED BY RF-SCORE:    0.00 PKD
ROOT
HETATM    1  C   UNL     1      -7.422  17.026  68.273  1.00  0.00    -0.207 C  
HETATM    2  C   UNL     1      -6.541  16.832  67.188  1.00  0.00    -0.227 C  
HETATM    3  C   UNL     1      -7.767  17.605  66.749  1.00  0.00    -0.259 C  
HETATM    4  C   UNL     1      -7.118  18.250  65.337  1.00  0.00     0.094 C  
HETATM    5  C   UNL     1      -9.024  18.238  68.279  1.00  0.00    -0.305 C  
HETATM    6  O   UNL     1      -8.645  18.076  69.703  1.00  0.00     0.583 OA 
HETATM    7  C   UNL     1      -9.986  14.114  64.805  1.00  0.00    -0.043 C  
HETATM    8  C   UNL     1      -7.979  18.749  67.577  1.00  0.00    -0.260 C  
HETATM    9  C   UNL     1      -9.549  18.684  66.438  1.00  0.00    -0.338 C  
HETATM   10  C   UNL     1      -7.003  19.877  67.906  1.00  0.00    -0.308 C  
HETATM   11  C   UNL     1     -10.104  14.168  66.389  1.00  0.00    -0.299 C  
HETATM   12  C   UNL     1     -11.547  13.766  66.641  1.00  0.00    -0.392 C  
HETATM   13  H   UNL     1      -9.220  18.365  70.403  1.00  0.00     0.000 HD 
HETATM   14  C   UNL     1     -10.317  17.022  66.415  1.00  0.00    -0.303 C  
HETATM   15  C   UNL     1     -11.874  12.459  66.793  1.00  0.00    -0.385 C  
HETATM   16  O   UNL     1     -11.496  17.116  67.226  1.00  0.00     0.316 OA 
HETATM   17  C   UNL     1      -9.431  15.553  66.803  1.00  0.00    -0.237 C  
HETATM   18  C   UNL     1      -8.654  15.720  68.224  1.00  0.00    -0.170 C  
HETATM   19  F   UNL     1      -8.343  15.384  65.912  1.00  0.00    -0.124 F  
HETATM   20  H   UNL     1     -11.894  16.253  67.214  1.00  0.00     0.000 HD 
HETATM   21  C   UNL     1      -7.971  14.406  68.641  1.00  0.00    -0.145 C  
HETATM   22  C   UNL     1      -8.891  13.212  68.458  1.00  0.00    -0.045 C  
HETATM   23  C   UNL     1      -9.249  13.031  67.000  1.00  0.00    -0.232 C  
HETATM   24  F   UNL     1      -8.244  12.114  68.940  1.00  0.00    -0.101 F  
HETATM   25  C   UNL     1      -9.408  11.777  66.527  1.00  0.00    -0.217 C  
HETATM   26  C   UNL     1     -10.831  11.368  66.816  1.00  0.00    -0.286 C  
HETATM   27  O   UNL     1     -11.129  10.196  67.000  1.00  0.00    -0.167 OA 
ENDROOT
BRANCH   5  28
HETATM   28  C   UNL     1      -9.753  19.750  68.689  1.00  0.00    -0.357 C  
HETATM   29  C   UNL     1      -9.861  20.817  67.606  1.00  0.00    -0.213 C  
HETATM   30  O   UNL     1     -10.242  20.077  69.783  1.00  0.00    -0.176 OA 
HETATM   31 CL   UNL     1     -10.953  20.303  66.321  1.00  0.00     0.041 Cl 
ENDBRANCH   5  28
TORSDOF 1
ENDMDL
MODEL       84
REMARK 921   NORMALIZED FREE ENERGY PREDICTED BY IDOCK:   -2.05 KCAL/MOL
REMARK 922        TOTAL FREE ENERGY PREDICTED BY IDOCK:   -0.94 KCAL/MOL
REMARK 923 INTER-LIGAND FREE ENERGY PREDICTED BY IDOCK:   -4.27 KCAL/MOL
REMARK 924 INTRA-LIGAND FREE ENERGY PREDICTED BY IDOCK:    3.33 KCAL/MOL
REMARK 927      BINDING AFFINITY PREDICTED BY RF-SCORE:    0.00 PKD
ROOT
HETATM    1  C   UNL     1      -7.023   6.720  69.714  1.00  0.00    -0.063 C  
HETATM    2  C   UNL     1      -6.284   7.771  70.299  1.00  0.00    -0.033 C  
HETATM    3  C   UNL     1      -7.756   7.901  70.632  1.00  0.00    -0.090 C  
HETATM    4  C   UNL     1      -7.586   8.929  71.954  1.00  0.00     0.025 C  
HETATM    5  C   UNL     1      -8.943   6.279  70.104  1.00  0.00    -0.149 C  
HETATM    6  O   UNL     1      -8.345   5.024  69.588  1.00  0.00    -0.086 OA 
HETATM    7  C   UNL     1      -8.765  11.119  67.546  1.00  0.00    -0.129 C  
HETATM    8  C   UNL     1      -8.265   6.696  71.204  1.00  0.00    -0.120 C  
HETATM    9  C   UNL     1      -9.836   7.809  70.957  1.00  0.00    -0.186 C  
HETATM   10  C   UNL     1      -7.740   5.925  72.414  1.00  0.00    -0.102 C  
HETATM   11  C   UNL     1      -8.683   9.645  66.956  1.00  0.00    -0.135 C  
HETATM   12  C   UNL     1      -9.828   9.608  65.959  1.00  0.00    -0.345 C  
HETATM   13  H   UNL     1      -8.888   4.282  69.346  1.00  0.00     0.000 HD 
HETATM   14  C   UNL     1      -9.930   8.503  69.266  1.00  0.00    -0.195 C  
HETATM   15  C   UNL     1      -9.624   9.991  64.674  1.00  0.00    -0.363 C  
HETATM   16  O   UNL     1     -10.941   7.751  68.581  1.00  0.00    -0.420 OA 
HETATM   17  C   UNL     1      -8.520   8.703  68.233  1.00  0.00    -0.131 C  
HETATM   18  C   UNL     1      -7.679   7.311  68.151  1.00  0.00    -0.117 C  
HETATM   19  F   UNL     1      -7.575   9.560  68.848  1.00  0.00    -0.071 F  
HETATM   20  H   UNL     1     -10.990   8.112  67.703  1.00  0.00     0.000 HD 
HETATM   21  C   UNL     1      -6.510   7.427  67.157  1.00  0.00    -0.060 C  
HETATM   22  C   UNL     1      -6.939   8.088  65.860  1.00  0.00    -0.057 C  
HETATM   23  C   UNL     1      -7.394   9.509  66.108  1.00  0.00    -0.093 C  
HETATM   24  F   UNL     1      -5.874   8.062  65.010  1.00  0.00    -0.042 F  
HETATM   25  C   UNL     1      -7.140  10.442  65.167  1.00  0.00    -0.080 C  
HETATM   26  C   UNL     1      -8.259  10.373  64.157  1.00  0.00    -0.118 C  
HETATM   27  O   UNL     1      -8.075  10.673  62.986  1.00  0.00    -0.142 OA 
ENDROOT
BRANCH   5  28
HETATM   28  C   UNL     1     -10.118   5.325  70.939  1.00  0.00    -0.226 C  
HETATM   29  C   UNL     1     -11.208   6.047  71.722  1.00  0.00    -0.275 C  
HETATM   30  O   UNL     1     -10.206   4.087  70.957  1.00  0.00    -0.090 OA 
HETATM   31 CL   UNL     1     -12.272   6.946  70.643  1.00  0.00    -0.379 Cl 
ENDBRANCH   5  28
TORSDOF 1
ENDMDL
MODEL       85
REMARK 921   NORMALIZED FREE ENERGY PREDICTED BY IDOCK:   -1.58 KCAL/MOL
REMARK 922        TOTAL FREE ENERGY PREDICTED BY IDOCK:   -0.45 KCAL/MOL
REMARK 923 INTER-LIGAND FREE ENERGY PREDICTED BY IDOCK:   -1.57 KCAL/MOL
REMARK 924 INTRA-LIGAND FREE ENERGY PREDICTED BY IDOCK:    1.13 KCAL/MOL
REMARK 927      BINDING AFFINITY PREDICTED BY RF-SCORE:    0.00 PKD
ROOT
HETATM    1  C   UNL     1     -10.268  10.563  70.428  1.00  0.00     0.349 C  
HETATM    2  C   UNL     1     -11.666  10.503  70.611  1.00  0.00    -0.453 C  
HETATM    3  C   UNL     1     -11.225   9.541  69.527  1.00  0.00    -0.105 C  
HETATM    4  C   UNL     1     -12.597   8.566  69.536  1.00  0.00     2.749 C  
HETATM    5  C   UNL     1      -9.172   9.283  69.335  1.00  0.00    -0.159 C  
HETATM    6  O   UNL     1      -8.227   9.882  70.309  1.00  0.00    -0.243 OA 
HETATM    7  C   UNL     1     -12.399  12.128  65.946  1.00  0.00     0.308 C  
HETATM    8  C   UNL     1     -10.191   8.674  69.995  1.00  0.00    -0.201 C  
HETATM    9  C   UNL     1     -10.325   8.281  68.099  1.00  0.00    -0.253 C  
HETATM   10  C   UNL     1     -10.195   7.772  71.227  1.00  0.00    -0.218 C  
HETATM   11  C   UNL     1     -11.017  12.529  66.622  1.00  0.00    -0.303 C  
HETATM   12  C   UNL     1     -10.137  12.871  65.432  1.00  0.00    -0.265 C  
HETATM   13  H   UNL     1      -7.288   9.764  70.222  1.00  0.00     0.000 HD 
HETATM   14  C   UNL     1     -10.289   9.798  67.075  1.00  0.00    -0.239 C  
HETATM   15  C   UNL     1     -10.114  14.136  64.944  1.00  0.00    -0.280 C  
HETATM   16  O   UNL     1      -8.982   9.851  66.486  1.00  0.00    -0.143 OA 
HETATM   17  C   UNL     1     -10.739  11.381  67.694  1.00  0.00    -0.216 C  
HETATM   18  C   UNL     1      -9.936  11.696  69.075  1.00  0.00    -0.002 C  
HETATM   19  F   UNL     1     -12.079  11.370  68.151  1.00  0.00    -0.349 F  
HETATM   20  H   UNL     1      -8.963  10.639  65.955  1.00  0.00     0.000 HD 
HETATM   21  C   UNL     1     -10.223  13.125  69.571  1.00  0.00     0.724 C  
HETATM   22  C   UNL     1     -10.142  14.137  68.442  1.00  0.00    -0.238 C  
HETATM   23  C   UNL     1     -11.197  13.858  67.396  1.00  0.00    -0.330 C  
HETATM   24  F   UNL     1     -10.312  15.376  68.984  1.00  0.00    -0.208 F  
HETATM   25  C   UNL     1     -11.767  14.903  66.760  1.00  0.00    -0.243 C  
HETATM   26  C   UNL     1     -10.868  15.265  65.603  1.00  0.00    -0.363 C  
HETATM   27  O   UNL     1     -10.805  16.412  65.184  1.00  0.00    -0.512 OA 
ENDROOT
BRANCH   5  28
HETATM   28  C   UNL     1      -8.135   7.903  69.244  1.00  0.00    -0.126 C  
HETATM   29  C   UNL     1      -7.046   7.889  68.178  1.00  0.00    -0.089 C  
HETATM   30  O   UNL     1      -8.148   6.902  69.979  1.00  0.00    -0.120 OA 
HETATM   31 CL   UNL     1      -5.843   9.140  68.488  1.00  0.00    -0.041 Cl 
ENDBRANCH   5  28
TORSDOF 1
ENDMDL
MODEL       86
REMARK 921   NORMALIZED FREE ENERGY PREDICTED BY IDOCK:   -0.77 KCAL/MOL
REMARK 922        TOTAL FREE ENERGY PREDICTED BY IDOCK:    0.42 KCAL/MOL
REMARK 923 INTER-LIGAND FREE ENERGY PREDICTED BY IDOCK:   -1.30 KCAL/MOL
REMARK 924 INTRA-LIGAND FREE ENERGY PREDICTED BY IDOCK:    1.71 KCAL/MOL
REMARK 927      BINDING AFFINITY PREDICTED BY RF-SCORE:    0.00 PKD
ROOT
HETATM    1  C   UNL     1     -11.769  16.889  68.716  1.00  0.00     0.615 C  
HETATM    2  C   UNL     1     -11.994  16.571  67.359  1.00  0.00     1.192 C  
HETATM    3  C   UNL     1     -11.195  15.478  68.040  1.00  0.00    -0.332 C  
HETATM    4  C   UNL     1     -11.496  14.262  66.916  1.00  0.00    -0.377 C  
HETATM    5  C   UNL     1     -11.031  15.640  70.105  1.00  0.00    -0.339 C  
HETATM    6  O   UNL     1     -11.788  16.669  70.859  1.00  0.00    -0.444 OA 
HETATM    7  C   UNL     1      -7.083  16.699  66.459  1.00  0.00    -0.212 C  
HETATM    8  C   UNL     1     -11.852  15.018  69.221  1.00  0.00    -0.344 C  
HETATM    9  C   UNL     1     -10.133  14.117  69.247  1.00  0.00     0.064 C  
HETATM   10  C   UNL     1     -13.280  14.496  69.370  1.00  0.00     1.436 C  
HETATM   11  C   UNL     1      -7.596  17.560  67.694  1.00  0.00    -0.203 C  
HETATM   12  C   UNL     1      -6.337  17.761  68.519  1.00  0.00    -0.187 C  
HETATM   13  H   UNL     1     -11.713  16.744  71.803  1.00  0.00     0.000 HD 
HETATM   14  C   UNL     1      -8.742  15.279  68.986  1.00  0.00    -0.226 C  
HETATM   15  C   UNL     1      -5.530  18.825  68.283  1.00  0.00    -0.190 C  
HETATM   16  O   UNL     1      -8.129  15.462  70.270  1.00  0.00     0.042 OA 
HETATM   17  C   UNL     1      -8.928  16.829  68.177  1.00  0.00    -0.224 C  
HETATM   18  C   UNL     1     -10.156  17.668  68.839  1.00  0.00    -0.351 C  
HETATM   19  F   UNL     1      -9.403  16.642  66.856  1.00  0.00    -0.212 F  
HETATM   20  H   UNL     1      -7.407  16.065  70.135  1.00  0.00     0.000 HD 
HETATM   21  C   UNL     1     -10.259  19.076  68.228  1.00  0.00    -0.460 C  
HETATM   22  C   UNL     1      -8.901  19.746  68.127  1.00  0.00    -0.292 C  
HETATM   23  C   UNL     1      -7.991  18.973  67.198  1.00  0.00    -0.271 C  
HETATM   24  F   UNL     1      -9.097  21.014  67.668  1.00  0.00    -0.374 F  
HETATM   25  C   UNL     1      -7.114  19.659  66.436  1.00  0.00    -0.244 C  
HETATM   26  C   UNL     1      -5.881  19.892  67.275  1.00  0.00    -0.178 C  
HETATM   27  O   UNL     1      -5.171  20.871  67.100  1.00  0.00    -0.171 OA 
ENDROOT
BRANCH   5  28
HETATM   28  C   UNL     1     -11.286  14.550  71.422  1.00  0.00     0.447 C  
HETATM   29  C   UNL     1     -11.172  15.095  72.841  1.00  0.00     0.367 C  
HETATM   30  O   UNL     1     -11.587  13.348  71.356  1.00  0.00     0.739 OA 
HETATM   31 CL   UNL     1     -12.450  16.262  73.174  1.00  0.00    -0.568 Cl 
ENDBRANCH   5  28
TORSDOF 1
ENDMDL
MODEL       87
REMARK 921   NORMALIZED FREE ENERGY PREDICTED BY IDOCK:   -0.67 KCAL/MOL
REMARK 922        TOTAL FREE ENERGY PREDICTED BY IDOCK:    0.52 KCAL/MOL
REMARK 923 INTER-LIGAND FREE ENERGY PREDICTED BY IDOCK:   -4.11 KCAL/MOL
REMARK 924 INTRA-LIGAND FREE ENERGY PREDICTED BY IDOCK:    4.63 KCAL/MOL
REMARK 927      BINDING AFFINITY PREDICTED BY RF-SCORE:    0.00 PKD
ROOT
HETATM    1  C   UNL     1      -7.747  14.887  68.743  1.00  0.00    -0.139 C  
HETATM    2  C   UNL     1      -6.969  15.149  67.595  1.00  0.00    -0.206 C  
HETATM    3  C   UNL     1      -8.430  15.446  67.330  1.00  0.00    -0.200 C  
HETATM    4  C   UNL     1      -8.207  16.428  65.981  1.00  0.00    -0.075 C  
HETATM    5  C   UNL     1      -9.672  15.402  68.996  1.00  0.00    -0.239 C  
HETATM    6  O   UNL     1      -9.119  15.250  70.364  1.00  0.00    -0.109 OA 
HETATM    7  C   UNL     1      -9.401  11.595  65.068  1.00  0.00    -0.052 C  
HETATM    8  C   UNL     1      -8.962  16.337  68.312  1.00  0.00    -0.192 C  
HETATM    9  C   UNL     1     -10.505  15.803  67.262  1.00  0.00    -0.308 C  
HETATM   10  C   UNL     1      -8.439  17.708  68.732  1.00  0.00    -0.213 C  
HETATM   11  C   UNL     1      -9.372  11.439  66.650  1.00  0.00    -0.198 C  
HETATM   12  C   UNL     1     -10.535  10.502  66.925  1.00  0.00    -0.303 C  
HETATM   13  H   UNL     1      -9.687  15.230  71.126  1.00  0.00     0.000 HD 
HETATM   14  C   UNL     1     -10.609  13.986  67.062  1.00  0.00    -0.279 C  
HETATM   15  C   UNL     1     -10.343   9.160  66.922  1.00  0.00    -0.321 C  
HETATM   16  O   UNL     1     -11.654  13.548  67.942  1.00  0.00    -0.300 OA 
HETATM   17  C   UNL     1      -9.214  12.926  67.204  1.00  0.00    -0.225 C  
HETATM   18  C   UNL     1      -8.414  13.227  68.590  1.00  0.00     0.017 C  
HETATM   19  F   UNL     1      -8.234  13.269  66.241  1.00  0.00     0.208 F  
HETATM   20  H   UNL     1     -11.708  12.605  67.839  1.00  0.00     0.000 HD 
HETATM   21  C   UNL     1      -7.260  12.230  68.793  1.00  0.00    -0.098 C  
HETATM   22  C   UNL     1      -7.693  10.803  68.505  1.00  0.00    -0.118 C  
HETATM   23  C   UNL     1      -8.103  10.650  67.058  1.00  0.00    -0.120 C  
HETATM   24  F   UNL     1      -6.644   9.985  68.801  1.00  0.00    -0.048 F  
HETATM   25  C   UNL     1      -7.839   9.484  66.433  1.00  0.00    -0.097 C  
HETATM   26  C   UNL     1      -8.977   8.543  66.744  1.00  0.00    -0.146 C  
HETATM   27  O   UNL     1      -8.806   7.333  66.788  1.00  0.00    -0.123 OA 
ENDROOT
BRANCH   5  28
HETATM   28  C   UNL     1     -10.859  16.480  69.642  1.00  0.00    -0.322 C  
HETATM   29  C   UNL     1     -10.554  17.974  69.637  1.00  0.00     0.765 C  
HETATM   30  O   UNL     1     -11.975  16.185  70.097  1.00  0.00    -0.254 OA 
HETATM   31 CL   UNL     1     -10.459  18.594  67.990  1.00  0.00    -0.408 Cl 
ENDBRANCH   5  28
TORSDOF 1
ENDMDL
MODEL       88
REMARK 921   NORMALIZED FREE ENERGY PREDICTED BY IDOCK:   -0.66 KCAL/MOL
REMARK 922        TOTAL FREE ENERGY PREDICTED BY IDOCK:    0.53 KCAL/MOL
REMARK 923 INTER-LIGAND FREE ENERGY PREDICTED BY IDOCK:   -3.04 KCAL/MOL
REMARK 924 INTRA-LIGAND FREE ENERGY PREDICTED BY IDOCK:    3.58 KCAL/MOL
REMARK 927      BINDING AFFINITY PREDICTED BY RF-SCORE:    0.00 PKD
ROOT
HETATM    1  C   UNL     1      -9.230   9.384  70.298  1.00  0.00    -0.285 C  
HETATM    2  C   UNL     1      -7.993   9.582  70.949  1.00  0.00    -0.000 C  
HETATM    3  C   UNL     1      -7.799   9.483  69.449  1.00  0.00    -0.097 C  
HETATM    4  C   UNL     1      -6.279  10.203  69.383  1.00  0.00    -0.046 C  
HETATM    5  C   UNL     1      -9.542   9.491  68.316  1.00  0.00    -0.138 C  
HETATM    6  O   UNL     1     -10.863   9.742  68.940  1.00  0.00    -0.224 OA 
HETATM    7  C   UNL     1      -6.372   5.142  69.337  1.00  0.00    -0.034 C  
HETATM    8  C   UNL     1      -8.641  10.407  68.758  1.00  0.00    -0.141 C  
HETATM    9  C   UNL     1      -7.838   9.342  67.348  1.00  0.00    -0.099 C  
HETATM   10  C   UNL     1      -8.757  11.917  68.957  1.00  0.00     0.296 C  
HETATM   11  C   UNL     1      -7.948   5.314  69.461  1.00  0.00    -0.088 C  
HETATM   12  C   UNL     1      -8.486   4.212  68.565  1.00  0.00    -0.105 C  
HETATM   13  H   UNL     1     -11.660   9.745  68.422  1.00  0.00     0.000 HD 
HETATM   14  C   UNL     1      -7.985   7.546  67.671  1.00  0.00    -0.117 C  
HETATM   15  C   UNL     1      -8.714   2.974  69.069  1.00  0.00    -0.133 C  
HETATM   16  O   UNL     1      -9.014   7.066  66.794  1.00  0.00    -0.123 OA 
HETATM   17  C   UNL     1      -8.204   6.878  69.282  1.00  0.00    -0.125 C  
HETATM   18  C   UNL     1      -9.440   7.620  70.039  1.00  0.00    -0.161 C  
HETATM   19  F   UNL     1      -7.117   7.235  70.116  1.00  0.00    -0.059 F  
HETATM   20  H   UNL     1      -9.091   6.134  66.961  1.00  0.00     0.000 HD 
HETATM   21  C   UNL     1      -9.727   6.969  71.403  1.00  0.00    -0.169 C  
HETATM   22  C   UNL     1      -9.744   5.454  71.311  1.00  0.00    -0.162 C  
HETATM   23  C   UNL     1      -8.388   4.929  70.895  1.00  0.00    -0.108 C  
HETATM   24  F   UNL     1     -10.098   4.969  72.534  1.00  0.00    -0.188 F  
HETATM   25  C   UNL     1      -7.968   3.752  71.405  1.00  0.00    -0.064 C  
HETATM   26  C   UNL     1      -8.539   2.659  70.535  1.00  0.00    -0.056 C  
HETATM   27  O   UNL     1      -8.791   1.553  70.990  1.00  0.00    -0.051 OA 
ENDROOT
BRANCH   5  28
HETATM   28  C   UNL     1     -10.073  10.380  66.933  1.00  0.00    -0.219 C  
HETATM   29  C   UNL     1      -9.019  11.018  66.036  1.00  0.00    -0.197 C  
HETATM   30  O   UNL     1     -11.243  10.545  66.548  1.00  0.00    -0.033 OA 
HETATM   31 CL   UNL     1      -8.040   9.788  65.238  1.00  0.00    -0.121 Cl 
ENDBRANCH   5  28
TORSDOF 1
ENDMDL
MODEL       89
REMARK 921   NORMALIZED FREE ENERGY PREDICTED BY IDOCK:   -0.23 KCAL/MOL
REMARK 922        TOTAL FREE ENERGY PREDICTED BY IDOCK:    0.99 KCAL/MOL
REMARK 923 INTER-LIGAND FREE ENERGY PREDICTED BY IDOCK:   -0.20 KCAL/MOL
REMARK 924 INTRA-LIGAND FREE ENERGY PREDICTED BY IDOCK:    1.19 KCAL/MOL
REMARK 927      BINDING AFFINITY PREDICTED BY RF-SCORE:    0.00 PKD
ROOT
HETATM    1  C   UNL     1     -12.335  12.723  65.747  1.00  0.00    -0.388 C  
HETATM    2  C   UNL     1     -13.199  13.769  65.358  1.00  0.00    -0.028 C  
HETATM    3  C   UNL     1     -11.764  14.098  64.999  1.00  0.00    -0.376 C  
HETATM    4  C   UNL     1     -12.098  15.290  63.859  1.00  0.00     0.135 C  
HETATM    5  C   UNL     1     -10.403  12.544  65.229  1.00  0.00    -0.287 C  
HETATM    6  O   UNL     1     -10.852  11.172  65.565  1.00  0.00    -0.228 OA 
HETATM    7  C   UNL     1     -10.918  16.900  68.510  1.00  0.00    -0.290 C  
HETATM    8  C   UNL     1     -11.172  13.050  64.230  1.00  0.00    -0.411 C  
HETATM    9  C   UNL     1      -9.704  14.268  64.593  1.00  0.00     0.722 C  
HETATM   10  C   UNL     1     -11.679  12.422  62.934  1.00  0.00     0.202 C  
HETATM   11  C   UNL     1     -10.829  15.353  68.867  1.00  0.00    -0.251 C  
HETATM   12  C   UNL     1      -9.638  15.284  69.807  1.00  0.00    -0.140 C  
HETATM   13  H   UNL     1     -10.229  10.461  65.670  1.00  0.00     0.000 HD 
HETATM   14  C   UNL     1      -9.594  14.706  66.368  1.00  0.00    -0.301 C  
HETATM   15  C   UNL     1      -9.814  15.445  71.142  1.00  0.00     1.552 C  
HETATM   16  O   UNL     1      -8.483  13.967  66.892  1.00  0.00    -0.369 OA 
HETATM   17  C   UNL     1     -10.963  14.602  67.466  1.00  0.00    -0.298 C  
HETATM   18  C   UNL     1     -11.662  13.136  67.360  1.00  0.00    -0.419 C  
HETATM   19  F   UNL     1     -12.015  15.441  67.024  1.00  0.00    -0.149 F  
HETATM   20  H   UNL     1      -8.425  14.194  67.813  1.00  0.00     0.000 HD 
HETATM   21  C   UNL     1     -12.786  12.980  68.399  1.00  0.00     1.671 C  
HETATM   22  C   UNL     1     -12.359  13.479  69.768  1.00  0.00    -0.190 C  
HETATM   23  C   UNL     1     -12.055  14.959  69.727  1.00  0.00    -0.357 C  
HETATM   24  F   UNL     1     -13.374  13.216  70.639  1.00  0.00    -0.042 F  
HETATM   25  C   UNL     1     -12.351  15.709  70.810  1.00  0.00    -0.466 C  
HETATM   26  C   UNL     1     -11.182  15.603  71.758  1.00  0.00    -0.240 C  
HETATM   27  O   UNL     1     -11.336  15.703  72.967  1.00  0.00    -0.199 OA 
ENDROOT
BRANCH   5  28
HETATM   28  C   UNL     1      -9.184  11.852  64.217  1.00  0.00     0.340 C  
HETATM   29  C   UNL     1      -7.873  11.419  64.861  1.00  0.00     0.999 C  
HETATM   30  O   UNL     1      -9.256  11.630  62.998  1.00  0.00    -0.268 OA 
HETATM   31 CL   UNL     1      -8.130  10.076  65.974  1.00  0.00    -0.120 Cl 
ENDBRANCH   5  28
TORSDOF 1
ENDMDL
MODEL       90
REMARK 921   NORMALIZED FREE ENERGY PREDICTED BY IDOCK:   -0.08 KCAL/MOL
REMARK 922        TOTAL FREE ENERGY PREDICTED BY IDOCK:    1.15 KCAL/MOL
REMARK 923 INTER-LIGAND FREE ENERGY PREDICTED BY IDOCK:   -1.86 KCAL/MOL
REMARK 924 INTRA-LIGAND FREE ENERGY PREDICTED BY IDOCK:    3.01 KCAL/MOL
REMARK 927      BINDING AFFINITY PREDICTED BY RF-SCORE:    0.00 PKD
ROOT
HETATM    1  C   UNL     1      -9.543  19.245  68.059  1.00  0.00    -0.413 C  
HETATM    2  C   UNL     1      -9.443  19.185  69.465  1.00  0.00     0.113 C  
HETATM    3  C   UNL     1      -8.120  18.827  68.819  1.00  0.00    -0.330 C  
HETATM    4  C   UNL     1      -7.148  19.085  70.168  1.00  0.00     0.530 C  
HETATM    5  C   UNL     1      -8.005  19.155  66.770  1.00  0.00    -0.269 C  
HETATM    6  O   UNL     1      -9.095  19.844  66.038  1.00  0.00    -0.416 OA 
HETATM    7  C   UNL     1      -8.479  14.290  69.242  1.00  0.00     0.243 C  
HETATM    8  C   UNL     1      -7.703  19.840  67.903  1.00  0.00    -0.330 C  
HETATM    9  C   UNL     1      -6.416  18.409  67.654  1.00  0.00    -0.199 C  
HETATM   10  C   UNL     1      -7.529  21.336  68.157  1.00  0.00     0.742 C  
HETATM   11  C   UNL     1      -9.294  14.903  68.022  1.00  0.00    -0.193 C  
HETATM   12  C   UNL     1      -9.090  13.878  66.921  1.00  0.00    -0.257 C  
HETATM   13  H   UNL     1      -9.043  19.994  65.101  1.00  0.00     0.000 HD 
HETATM   14  C   UNL     1      -7.228  16.786  67.409  1.00  0.00    -0.160 C  
HETATM   15  C   UNL     1      -9.946  12.834  66.796  1.00  0.00    -0.237 C  
HETATM   16  O   UNL     1      -7.112  16.489  66.011  1.00  0.00     0.065 OA 
HETATM   17  C   UNL     1      -8.857  16.436  67.969  1.00  0.00    -0.184 C  
HETATM   18  C   UNL     1      -9.889  17.588  67.459  1.00  0.00    -0.293 C  
HETATM   19  F   UNL     1      -8.941  16.594  69.374  1.00  0.00    -0.218 F  
HETATM   20  H   UNL     1      -7.533  15.647  65.883  1.00  0.00     0.000 HD 
HETATM   21  C   UNL     1     -11.340  17.240  67.835  1.00  0.00     0.297 C  
HETATM   22  C   UNL     1     -11.667  15.790  67.525  1.00  0.00     0.153 C  
HETATM   23  C   UNL     1     -10.807  14.859  68.350  1.00  0.00    -0.252 C  
HETATM   24  F   UNL     1     -12.989  15.597  67.797  1.00  0.00     1.176 F  
HETATM   25  C   UNL     1     -11.341  13.696  68.778  1.00  0.00    -0.326 C  
HETATM   26  C   UNL     1     -11.173  12.692  67.664  1.00  0.00    -0.283 C  
HETATM   27  O   UNL     1     -11.964  11.772  67.515  1.00  0.00    -0.607 OA 
ENDROOT
BRANCH   5  28
HETATM   28  C   UNL     1      -6.868  19.952  65.740  1.00  0.00    -0.282 C  
HETATM   29  C   UNL     1      -5.465  19.367  65.626  1.00  0.00    -0.156 C  
HETATM   30  O   UNL     1      -7.065  20.956  65.038  1.00  0.00    -0.006 OA 
HETATM   31 CL   UNL     1      -5.503  17.783  64.852  1.00  0.00     0.235 Cl 
ENDBRANCH   5  28
TORSDOF 1
ENDMDL
MODEL       91
REMARK 921   NORMALIZED FREE ENERGY PREDICTED BY IDOCK:    0.73 KCAL/MOL
REMARK 922        TOTAL FREE ENERGY PREDICTED BY IDOCK:    2.01 KCAL/MOL
REMARK 923 INTER-LIGAND FREE ENERGY PREDICTED BY IDOCK:    0.08 KCAL/MOL
REMARK 924 INTRA-LIGAND FREE ENERGY PREDICTED BY IDOCK:    1.92 KCAL/MOL
REMARK 927      BINDING AFFINITY PREDICTED BY RF-SCORE:    0.00 PKD
ROOT
HETATM    1  C   UNL     1     -12.214  15.274  68.771  1.00  0.00    -0.084 C  
HETATM    2  C   UNL     1     -12.633  14.305  69.708  1.00  0.00    -0.152 C  
HETATM    3  C   UNL     1     -11.198  14.717  69.969  1.00  0.00    -0.274 C  
HETATM    4  C   UNL     1     -11.106  14.172  71.558  1.00  0.00     1.615 C  
HETATM    5  C   UNL     1     -10.519  16.347  68.873  1.00  0.00    -0.285 C  
HETATM    6  O   UNL     1     -11.439  17.139  68.022  1.00  0.00     0.037 OA 
HETATM    7  C   UNL     1      -9.196  11.101  68.017  1.00  0.00    -0.159 C  
HETATM    8  C   UNL     1     -11.083  16.135  70.090  1.00  0.00    -0.373 C  
HETATM    9  C   UNL     1      -9.248  15.501  70.111  1.00  0.00     0.430 C  
HETATM   10  C   UNL     1     -11.848  17.073  71.021  1.00  0.00     1.584 C  
HETATM   11  C   UNL     1      -9.684  12.215  66.993  1.00  0.00    -0.208 C  
HETATM   12  C   UNL     1      -8.567  12.251  65.964  1.00  0.00     0.330 C  
HETATM   13  H   UNL     1     -11.129  17.884  67.520  1.00  0.00     0.000 HD 
HETATM   14  C   UNL     1      -8.900  14.351  68.729  1.00  0.00    -0.131 C  
HETATM   15  C   UNL     1      -8.608  11.430  64.886  1.00  0.00     0.374 C  
HETATM   16  O   UNL     1      -8.130  15.096  67.775  1.00  0.00    -0.130 OA 
HETATM   17  C   UNL     1     -10.156  13.433  67.908  1.00  0.00    -0.238 C  
HETATM   18  C   UNL     1     -11.363  14.420  67.440  1.00  0.00    -0.353 C  
HETATM   19  F   UNL     1     -10.830  12.590  68.825  1.00  0.00    -0.236 F  
HETATM   20  H   UNL     1      -7.949  14.499  67.058  1.00  0.00     0.000 HD 
HETATM   21  C   UNL     1     -12.414  13.658  66.614  1.00  0.00    -0.291 C  
HETATM   22  C   UNL     1     -11.769  12.763  65.571  1.00  0.00    -0.395 C  
HETATM   23  C   UNL     1     -10.927  11.693  66.232  1.00  0.00    -0.338 C  
HETATM   24  F   UNL     1     -12.767  12.206  64.829  1.00  0.00    -0.484 F  
HETATM   25  C   UNL     1     -10.868  10.473  65.657  1.00  0.00     0.054 C  
HETATM   26  C   UNL     1      -9.785  10.527  64.608  1.00  0.00    -0.309 C  
HETATM   27  O   UNL     1      -9.835   9.823  63.609  1.00  0.00     0.142 OA 
ENDROOT
BRANCH   5  28
HETATM   28  C   UNL     1      -9.701  17.814  69.279  1.00  0.00     0.009 C  
HETATM   29  C   UNL     1      -8.180  17.840  69.192  1.00  0.00     0.096 C  
HETATM   30  O   UNL     1     -10.214  18.893  69.617  1.00  0.00     0.056 OA 
HETATM   31 CL   UNL     1      -7.640  17.654  67.524  1.00  0.00    -0.204 Cl 
ENDBRANCH   5  28
TORSDOF 1
ENDMDL
MODEL       92
REMARK 921   NORMALIZED FREE ENERGY PREDICTED BY IDOCK:    1.75 KCAL/MOL
REMARK 922        TOTAL FREE ENERGY PREDICTED BY IDOCK:    3.09 KCAL/MOL
REMARK 923 INTER-LIGAND FREE ENERGY PREDICTED BY IDOCK:   -0.25 KCAL/MOL
REMARK 924 INTRA-LIGAND FREE ENERGY PREDICTED BY IDOCK:    3.34 KCAL/MOL
REMARK 927      BINDING AFFINITY PREDICTED BY RF-SCORE:    0.00 PKD
ROOT
HETATM    1  C   UNL     1     -10.617   9.013  70.488  1.00  0.00    -0.274 C  
HETATM    2  C   UNL     1     -11.060   8.355  69.321  1.00  0.00     0.142 C  
HETATM    3  C   UNL     1      -9.899   7.611  69.946  1.00  0.00    -0.184 C  
HETATM    4  C   UNL     1     -10.154   6.135  69.180  1.00  0.00    -0.212 C  
HETATM    5  C   UNL     1      -9.318   8.272  71.829  1.00  0.00    -0.202 C  
HETATM    6  O   UNL     1     -10.104   9.294  72.562  1.00  0.00     0.319 OA 
HETATM    7  C   UNL     1      -6.643   9.150  67.131  1.00  0.00    -0.061 C  
HETATM    8  C   UNL     1     -10.150   7.325  71.323  1.00  0.00    -0.195 C  
HETATM    9  C   UNL     1      -8.308   6.778  71.048  1.00  0.00    -0.127 C  
HETATM   10  C   UNL     1     -11.347   6.605  71.939  1.00  0.00    -0.318 C  
HETATM   11  C   UNL     1      -7.050  10.167  68.284  1.00  0.00    -0.075 C  
HETATM   12  C   UNL     1      -5.720  10.774  68.693  1.00  0.00    -0.040 C  
HETATM   13  H   UNL     1      -9.838   9.597  73.423  1.00  0.00     0.000 HD 
HETATM   14  C   UNL     1      -7.318   8.077  70.221  1.00  0.00    -0.060 C  
HETATM   15  C   UNL     1      -5.255  11.881  68.063  1.00  0.00    -0.050 C  
HETATM   16  O   UNL     1      -6.493   8.659  71.240  1.00  0.00    -0.050 OA 
HETATM   17  C   UNL     1      -8.034   9.340  69.229  1.00  0.00    -0.098 C  
HETATM   18  C   UNL     1      -9.242  10.075  70.035  1.00  0.00    -0.146 C  
HETATM   19  F   UNL     1      -8.736   8.772  68.138  1.00  0.00    -0.130 F  
HETATM   20  H   UNL     1      -5.979   9.333  70.812  1.00  0.00     0.000 HD 
HETATM   21  C   UNL     1      -9.803  11.263  69.233  1.00  0.00     0.067 C  
HETATM   22  C   UNL     1      -8.694  12.123  68.653  1.00  0.00     0.007 C  
HETATM   23  C   UNL     1      -7.863  11.332  67.668  1.00  0.00    -0.116 C  
HETATM   24  F   UNL     1      -9.276  13.195  68.046  1.00  0.00    -0.181 F  
HETATM   25  C   UNL     1      -7.361  11.970  66.589  1.00  0.00     0.126 C  
HETATM   26  C   UNL     1      -6.060  12.606  67.013  1.00  0.00     0.208 C  
HETATM   27  O   UNL     1      -5.653  13.630  66.482  1.00  0.00     1.513 OA 
ENDROOT
BRANCH   5  28
HETATM   28  C   UNL     1      -9.012   7.488  73.339  1.00  0.00    -0.203 C  
HETATM   29  C   UNL     1      -8.126   6.248  73.341  1.00  0.00    -0.111 C  
HETATM   30  O   UNL     1      -9.413   7.835  74.462  1.00  0.00     0.264 OA 
HETATM   31 CL   UNL     1      -6.473   6.653  72.879  1.00  0.00    -0.065 Cl 
ENDBRANCH   5  28
TORSDOF 1
ENDMDL
MODEL       93
REMARK 921   NORMALIZED FREE ENERGY PREDICTED BY IDOCK:    2.50 KCAL/MOL
REMARK 922        TOTAL FREE ENERGY PREDICTED BY IDOCK:    3.87 KCAL/MOL
REMARK 923 INTER-LIGAND FREE ENERGY PREDICTED BY IDOCK:    2.28 KCAL/MOL
REMARK 924 INTRA-LIGAND FREE ENERGY PREDICTED BY IDOCK:    1.60 KCAL/MOL
REMARK 927      BINDING AFFINITY PREDICTED BY RF-SCORE:    0.00 PKD
ROOT
HETATM    1  C   UNL     1      -9.571  15.609  67.068  1.00  0.00    -0.233 C  
HETATM    2  C   UNL     1     -10.722  16.046  66.378  1.00  0.00    -0.232 C  
HETATM    3  C   UNL     1     -10.430  16.950  67.558  1.00  0.00    -0.328 C  
HETATM    4  C   UNL     1     -11.342  18.269  67.047  1.00  0.00     0.775 C  
HETATM    5  C   UNL     1      -8.607  16.631  68.503  1.00  0.00    -0.234 C  
HETATM    6  O   UNL     1      -7.605  15.690  67.946  1.00  0.00    -0.119 OA 
HETATM    7  C   UNL     1     -13.533  15.192  70.417  1.00  0.00     0.020 C  
HETATM    8  C   UNL     1      -9.086  17.433  67.518  1.00  0.00    -0.232 C  
HETATM    9  C   UNL     1      -9.764  18.043  69.231  1.00  0.00     0.008 C  
HETATM   10  C   UNL     1      -8.375  18.166  66.382  1.00  0.00    -0.272 C  
HETATM   11  C   UNL     1     -12.191  14.346  70.301  1.00  0.00    -0.397 C  
HETATM   12  C   UNL     1     -11.945  13.894  71.730  1.00  0.00     0.276 C  
HETATM   13  H   UNL     1      -6.772  15.544  68.378  1.00  0.00     0.000 HD 
HETATM   14  C   UNL     1     -10.559  16.693  70.179  1.00  0.00    -0.018 C  
HETATM   15  C   UNL     1     -12.482  12.732  72.178  1.00  0.00     0.354 C  
HETATM   16  O   UNL     1      -9.632  16.332  71.212  1.00  0.00     2.856 OA 
HETATM   17  C   UNL     1     -11.214  15.249  69.421  1.00  0.00    -0.285 C  
HETATM   18  C   UNL     1     -10.107  14.576  68.436  1.00  0.00    -0.241 C  
HETATM   19  F   UNL     1     -12.231  15.594  68.498  1.00  0.00    -0.313 F  
HETATM   20  H   UNL     1     -10.044  15.631  71.704  1.00  0.00     0.000 HD 
HETATM   21  C   UNL     1     -10.615  13.245  67.855  1.00  0.00    -0.246 C  
HETATM   22  C   UNL     1     -11.254  12.374  68.922  1.00  0.00    -0.280 C  
HETATM   23  C   UNL     1     -12.477  13.050  69.503  1.00  0.00     0.103 C  
HETATM   24  F   UNL     1     -11.586  11.186  68.344  1.00  0.00    -0.293 F  
HETATM   25  C   UNL     1     -13.524  12.283  69.870  1.00  0.00     2.483 C  
HETATM   26  C   UNL     1     -13.255  11.803  71.275  1.00  0.00     0.014 C  
HETATM   27  O   UNL     1     -13.697  10.735  71.675  1.00  0.00    -0.066 OA 
ENDROOT
BRANCH   5  28
HETATM   28  C   UNL     1      -7.306  17.661  68.989  1.00  0.00    -0.194 C  
HETATM   29  C   UNL     1      -5.931  17.036  69.197  1.00  0.00    -0.185 C  
HETATM   30  O   UNL     1      -7.345  18.889  69.166  1.00  0.00    -0.303 OA 
HETATM   31 CL   UNL     1      -5.276  16.430  67.677  1.00  0.00    -0.140 Cl 
ENDBRANCH   5  28
TORSDOF 1
ENDMDL
MODEL       94
REMARK 921   NORMALIZED FREE ENERGY PREDICTED BY IDOCK:    3.00 KCAL/MOL
REMARK 922        TOTAL FREE ENERGY PREDICTED BY IDOCK:    4.40 KCAL/MOL
REMARK 923 INTER-LIGAND FREE ENERGY PREDICTED BY IDOCK:    2.94 KCAL/MOL
REMARK 924 INTRA-LIGAND FREE ENERGY PREDICTED BY IDOCK:    1.47 KCAL/MOL
REMARK 927      BINDING AFFINITY PREDICTED BY RF-SCORE:    0.00 PKD
ROOT
HETATM    1  C   UNL     1     -11.960  11.080  67.359  1.00  0.00     0.583 C  
HETATM    2  C   UNL     1     -12.588  11.475  68.559  1.00  0.00     1.060 C  
HETATM    3  C   UNL     1     -11.168  11.998  68.502  1.00  0.00    -0.306 C  
HETATM    4  C   UNL     1     -11.336  13.202  69.666  1.00  0.00    -0.182 C  
HETATM    5  C   UNL     1     -10.198  11.764  66.678  1.00  0.00    -0.210 C  
HETATM    6  O   UNL     1     -10.919  11.266  65.482  1.00  0.00    -0.229 OA 
HETATM    7  C   UNL     1      -9.282   8.846  71.222  1.00  0.00    -0.328 C  
HETATM    8  C   UNL     1     -10.934  12.725  67.295  1.00  0.00    -0.294 C  
HETATM    9  C   UNL     1      -9.187  12.613  68.134  1.00  0.00    -0.209 C  
HETATM   10  C   UNL     1     -11.721  13.905  66.731  1.00  0.00    -0.423 C  
HETATM   11  C   UNL     1      -9.523   8.364  69.726  1.00  0.00    -0.162 C  
HETATM   12  C   UNL     1      -8.283   7.541  69.425  1.00  0.00    -0.130 C  
HETATM   13  H   UNL     1     -10.476  11.159  64.648  1.00  0.00     0.000 HD 
HETATM   14  C   UNL     1      -8.773  10.904  68.641  1.00  0.00    -0.154 C  
HETATM   15  C   UNL     1      -8.261   6.215  69.708  1.00  0.00    -0.123 C  
HETATM   16  O   UNL     1      -7.817  10.425  67.685  1.00  0.00    -0.104 OA 
HETATM   17  C   UNL     1      -9.992   9.674  68.946  1.00  0.00    -0.178 C  
HETATM   18  C   UNL     1     -11.027   9.582  67.693  1.00  0.00    -0.150 C  
HETATM   19  F   UNL     1     -10.858  10.085  69.989  1.00  0.00    -0.242 F  
HETATM   20  H   UNL     1      -7.602   9.537  67.948  1.00  0.00     0.000 HD 
HETATM   21  C   UNL     1     -12.030   8.430  67.884  1.00  0.00     3.628 C  
HETATM   22  C   UNL     1     -11.342   7.158  68.346  1.00  0.00     0.337 C  
HETATM   23  C   UNL     1     -10.700   7.359  69.701  1.00  0.00    -0.245 C  
HETATM   24  F   UNL     1     -12.283   6.173  68.396  1.00  0.00     0.774 F  
HETATM   25  C   UNL     1     -10.684   6.323  70.566  1.00  0.00    -0.327 C  
HETATM   26  C   UNL     1      -9.472   5.486  70.236  1.00  0.00    -0.165 C  
HETATM   27  O   UNL     1      -9.458   4.281  70.445  1.00  0.00    -0.140 OA 
ENDROOT
BRANCH   5  28
HETATM   28  C   UNL     1      -9.304  12.823  65.646  1.00  0.00     0.161 C  
HETATM   29  C   UNL     1      -9.458  12.661  64.138  1.00  0.00     0.513 C  
HETATM   30  O   UNL     1      -8.549  13.748  65.988  1.00  0.00     0.542 OA 
HETATM   31 CL   UNL     1     -11.096  13.062  63.625  1.00  0.00    -0.363 Cl 
ENDBRANCH   5  28
TORSDOF 1
ENDMDL
MODEL       95
REMARK 921   NORMALIZED FREE ENERGY PREDICTED BY IDOCK:    3.06 KCAL/MOL
REMARK 922        TOTAL FREE ENERGY PREDICTED BY IDOCK:    4.46 KCAL/MOL
REMARK 923 INTER-LIGAND FREE ENERGY PREDICTED BY IDOCK:    3.23 KCAL/MOL
REMARK 924 INTRA-LIGAND FREE ENERGY PREDICTED BY IDOCK:    1.23 KCAL/MOL
REMARK 927      BINDING AFFINITY PREDICTED BY RF-SCORE:    0.00 PKD
ROOT
HETATM    1  C   UNL     1     -10.901  14.441  70.678  1.00  0.00     0.461 C  
HETATM    2  C   UNL     1     -11.947  15.268  71.140  1.00  0.00    -0.400 C  
HETATM    3  C   UNL     1     -12.368  14.517  69.893  1.00  0.00    -0.347 C  
HETATM    4  C   UNL     1     -14.030  14.699  70.087  1.00  0.00     1.572 C  
HETATM    5  C   UNL     1     -11.060  13.034  69.253  1.00  0.00    -0.136 C  
HETATM    6  O   UNL     1      -9.883  12.644  70.066  1.00  0.00     1.445 OA 
HETATM    7  C   UNL     1     -11.770  17.941  66.925  1.00  0.00     2.068 C  
HETATM    8  C   UNL     1     -12.162  13.112  70.043  1.00  0.00    -0.323 C  
HETATM    9  C   UNL     1     -12.685  13.324  68.186  1.00  0.00     1.112 C  
HETATM   10  C   UNL     1     -12.674  12.190  71.148  1.00  0.00    -0.351 C  
HETATM   11  C   UNL     1     -10.433  17.186  67.336  1.00  0.00    -0.334 C  
HETATM   12  C   UNL     1      -9.659  17.121  66.031  1.00  0.00    -0.190 C  
HETATM   13  H   UNL     1      -9.285  11.966  69.773  1.00  0.00     0.000 HD 
HETATM   14  C   UNL     1     -11.716  14.628  67.341  1.00  0.00    -0.390 C  
HETATM   15  C   UNL     1      -8.824  18.132  65.684  1.00  0.00     0.693 C  
HETATM   16  O   UNL     1     -10.775  13.944  66.502  1.00  0.00    -0.276 OA 
HETATM   17  C   UNL     1     -10.918  15.937  68.202  1.00  0.00    -0.335 C  
HETATM   18  C   UNL     1     -10.003  15.344  69.411  1.00  0.00    -0.272 C  
HETATM   19  F   UNL     1     -11.867  16.702  68.924  1.00  0.00    -0.196 F  
HETATM   20  H   UNL     1     -10.271  14.620  66.063  1.00  0.00     0.000 HD 
HETATM   21  C   UNL     1      -9.202  16.462  70.101  1.00  0.00     1.267 C  
HETATM   22  C   UNL     1      -8.551  17.391  69.091  1.00  0.00     0.065 C  
HETATM   23  C   UNL     1      -9.598  18.102  68.264  1.00  0.00    -0.324 C  
HETATM   24  F   UNL     1      -7.790  18.285  69.783  1.00  0.00     0.240 F  
HETATM   25  C   UNL     1      -9.359  19.371  67.874  1.00  0.00    -0.397 C  
HETATM   26  C   UNL     1      -8.554  19.301  66.599  1.00  0.00    -0.322 C  
HETATM   27  O   UNL     1      -7.765  20.186  66.298  1.00  0.00    -0.292 OA 
ENDROOT
BRANCH   5  28
HETATM   28  C   UNL     1     -11.247  11.376  68.805  1.00  0.00    -0.247 C  
HETATM   29  C   UNL     1     -10.354  10.822  67.701  1.00  0.00    -0.201 C  
HETATM   30  O   UNL     1     -12.022  10.544  69.304  1.00  0.00    -0.230 OA 
HETATM   31 CL   UNL     1      -8.665  10.802  68.206  1.00  0.00    -0.130 Cl 
ENDBRANCH   5  28
TORSDOF 1
ENDMDL
MODEL       96
REMARK 921   NORMALIZED FREE ENERGY PREDICTED BY IDOCK:    3.97 KCAL/MOL
REMARK 922        TOTAL FREE ENERGY PREDICTED BY IDOCK:    5.44 KCAL/MOL
REMARK 923 INTER-LIGAND FREE ENERGY PREDICTED BY IDOCK:   -0.01 KCAL/MOL
REMARK 924 INTRA-LIGAND FREE ENERGY PREDICTED BY IDOCK:    5.44 KCAL/MOL
REMARK 927      BINDING AFFINITY PREDICTED BY RF-SCORE:    0.00 PKD
ROOT
HETATM    1  C   UNL     1      -7.142  12.560  68.855  1.00  0.00    -0.073 C  
HETATM    2  C   UNL     1      -6.800  12.140  67.552  1.00  0.00    -0.127 C  
HETATM    3  C   UNL     1      -8.166  12.795  67.563  1.00  0.00    -0.179 C  
HETATM    4  C   UNL     1      -8.258  13.122  65.915  1.00  0.00     1.796 C  
HETATM    5  C   UNL     1      -8.696  13.738  69.338  1.00  0.00     0.796 C  
HETATM    6  O   UNL     1      -7.724  13.889  70.448  1.00  0.00     0.689 OA 
HETATM    7  C   UNL     1     -10.649   8.957  67.513  1.00  0.00    -0.307 C  
HETATM    8  C   UNL     1      -8.112  14.090  68.163  1.00  0.00    -0.151 C  
HETATM    9  C   UNL     1     -10.005  13.773  67.873  1.00  0.00    -0.240 C  
HETATM   10  C   UNL     1      -7.207  15.266  67.802  1.00  0.00    -0.184 C  
HETATM   11  C   UNL     1     -10.076   9.351  68.943  1.00  0.00    -0.201 C  
HETATM   12  C   UNL     1     -11.221   9.007  69.879  1.00  0.00    -0.092 C  
HETATM   13  H   UNL     1      -7.966  14.320  71.260  1.00  0.00     0.000 HD 
HETATM   14  C   UNL     1     -10.538  12.142  68.512  1.00  0.00    -0.233 C  
HETATM   15  C   UNL     1     -11.317   7.763  70.408  1.00  0.00    -0.219 C  
HETATM   16  O   UNL     1     -11.254  12.404  69.726  1.00  0.00    -0.476 OA 
HETATM   17  C   UNL     1      -9.431  10.796  68.740  1.00  0.00    -0.182 C  
HETATM   18  C   UNL     1      -8.137  11.269  69.608  1.00  0.00     0.572 C  
HETATM   19  F   UNL     1      -8.823  10.442  67.511  1.00  0.00    -0.132 F  
HETATM   20  H   UNL     1     -11.531  11.558  70.058  1.00  0.00     0.000 HD 
HETATM   21  C   UNL     1      -7.214  10.079  69.924  1.00  0.00    -0.145 C  
HETATM   22  C   UNL     1      -8.000   8.870  70.400  1.00  0.00    -0.117 C  
HETATM   23  C   UNL     1      -8.932   8.377  69.317  1.00  0.00    -0.150 C  
HETATM   24  F   UNL     1      -7.103   7.904  70.746  1.00  0.00    -0.050 F  
HETATM   25  C   UNL     1      -9.154   7.050  69.213  1.00  0.00    -0.137 C  
HETATM   26  C   UNL     1     -10.265   6.707  70.175  1.00  0.00    -0.187 C  
HETATM   27  O   UNL     1     -10.336   5.601  70.693  1.00  0.00    -0.220 OA 
ENDROOT
BRANCH   5  28
HETATM   28  C   UNL     1      -9.322  15.300  69.730  1.00  0.00    -0.075 C  
HETATM   29  C   UNL     1      -8.393  16.502  69.606  1.00  0.00     0.494 C  
HETATM   30  O   UNL     1     -10.479  15.580  70.084  1.00  0.00    -0.302 OA 
HETATM   31 CL   UNL     1      -7.941  16.779  67.925  1.00  0.00    -0.176 Cl 
ENDBRANCH   5  28
TORSDOF 1
ENDMDL
MODEL       97
REMARK 921   NORMALIZED FREE ENERGY PREDICTED BY IDOCK:    6.06 KCAL/MOL
REMARK 922        TOTAL FREE ENERGY PREDICTED BY IDOCK:    7.65 KCAL/MOL
REMARK 923 INTER-LIGAND FREE ENERGY PREDICTED BY IDOCK:    4.02 KCAL/MOL
REMARK 924 INTRA-LIGAND FREE ENERGY PREDICTED BY IDOCK:    3.63 KCAL/MOL
REMARK 927      BINDING AFFINITY PREDICTED BY RF-SCORE:    0.00 PKD
ROOT
HETATM    1  C   UNL     1      -8.335  14.118  69.772  1.00  0.00     0.909 C  
HETATM    2  C   UNL     1      -7.960  12.760  69.697  1.00  0.00     1.392 C  
HETATM    3  C   UNL     1      -7.206  13.581  68.671  1.00  0.00    -0.107 C  
HETATM    4  C   UNL     1      -5.961  12.484  68.393  1.00  0.00    -0.057 C  
HETATM    5  C   UNL     1      -7.414  15.642  68.843  1.00  0.00    -0.162 C  
HETATM    6  O   UNL     1      -8.122  16.250  69.995  1.00  0.00     0.569 OA 
HETATM    7  C   UNL     1      -9.759  12.465  65.047  1.00  0.00    -0.042 C  
HETATM    8  C   UNL     1      -6.548  14.692  69.282  1.00  0.00    -0.128 C  
HETATM    9  C   UNL     1      -6.290  14.969  67.378  1.00  0.00     0.027 C  
HETATM   10  C   UNL     1      -5.570  14.687  70.454  1.00  0.00    -0.139 C  
HETATM   11  C   UNL     1     -10.393  13.588  65.978  1.00  0.00    -0.303 C  
HETATM   12  C   UNL     1     -11.011  14.553  64.981  1.00  0.00    -0.408 C  
HETATM   13  H   UNL     1      -8.217  17.193  70.074  1.00  0.00     0.000 HD 
HETATM   14  C   UNL     1      -7.857  14.830  66.441  1.00  0.00     1.049 C  
HETATM   15  C   UNL     1     -12.287  14.370  64.558  1.00  0.00    -0.440 C  
HETATM   16  O   UNL     1      -8.237  16.170  66.101  1.00  0.00    -0.299 OA 
HETATM   17  C   UNL     1      -9.250  13.936  67.034  1.00  0.00    -0.250 C  
HETATM   18  C   UNL     1      -9.619  14.405  68.549  1.00  0.00    -0.217 C  
HETATM   19  F   UNL     1      -8.913  12.576  67.241  1.00  0.00    -0.164 F  
HETATM   20  H   UNL     1      -9.051  16.098  65.614  1.00  0.00     0.000 HD 
HETATM   21  C   UNL     1     -10.907  13.724  69.043  1.00  0.00    -0.247 C  
HETATM   22  C   UNL     1     -12.001  13.760  67.991  1.00  0.00    -0.355 C  
HETATM   23  C   UNL     1     -11.585  12.985  66.760  1.00  0.00    -0.420 C  
HETATM   24  F   UNL     1     -13.126  13.226  68.544  1.00  0.00     0.823 F  
HETATM   25  C   UNL     1     -12.530  12.307  66.076  1.00  0.00     0.498 C  
HETATM   26  C   UNL     1     -13.170  13.281  65.116  1.00  0.00     0.275 C  
HETATM   27  O   UNL     1     -14.333  13.151  64.763  1.00  0.00     2.651 OA 
ENDROOT
BRANCH   5  28
HETATM   28  C   UNL     1      -6.302  16.965  68.883  1.00  0.00    -0.179 C  
HETATM   29  C   UNL     1      -6.001  17.613  70.229  1.00  0.00    -0.027 C  
HETATM   30  O   UNL     1      -5.675  17.450  67.927  1.00  0.00    -0.128 OA 
HETATM   31 CL   UNL     1      -5.162  16.491  71.298  1.00  0.00    -0.099 Cl 
ENDBRANCH   5  28
TORSDOF 1
ENDMDL
MODEL       98
REMARK 921   NORMALIZED FREE ENERGY PREDICTED BY IDOCK:    7.28 KCAL/MOL
REMARK 922        TOTAL FREE ENERGY PREDICTED BY IDOCK:    8.94 KCAL/MOL
REMARK 923 INTER-LIGAND FREE ENERGY PREDICTED BY IDOCK:    4.36 KCAL/MOL
REMARK 924 INTRA-LIGAND FREE ENERGY PREDICTED BY IDOCK:    4.57 KCAL/MOL
REMARK 927      BINDING AFFINITY PREDICTED BY RF-SCORE:    0.00 PKD
ROOT
HETATM    1  C   UNL     1     -11.599  11.302  68.432  1.00  0.00    -0.378 C  
HETATM    2  C   UNL     1     -11.971  10.619  69.610  1.00  0.00    -0.340 C  
HETATM    3  C   UNL     1     -10.820  11.566  69.881  1.00  0.00     0.177 C  
HETATM    4  C   UNL     1     -11.001  11.649  71.552  1.00  0.00     4.565 C  
HETATM    5  C   UNL     1     -10.343  12.866  68.332  1.00  0.00    -0.244 C  
HETATM    6  O   UNL     1     -11.188  12.957  67.116  1.00  0.00    -0.265 OA 
HETATM    7  C   UNL     1      -7.480   8.445  69.833  1.00  0.00    -0.064 C  
HETATM    8  C   UNL     1     -11.126  12.890  69.441  1.00  0.00    -0.131 C  
HETATM    9  C   UNL     1      -9.260  12.979  69.967  1.00  0.00     3.371 C  
HETATM   10  C   UNL     1     -12.331  13.754  69.804  1.00  0.00    -0.311 C  
HETATM   11  C   UNL     1      -7.966   8.911  68.392  1.00  0.00    -0.105 C  
HETATM   12  C   UNL     1      -6.672   8.989  67.601  1.00  0.00    -0.065 C  
HETATM   13  H   UNL     1     -10.971  13.552  66.407  1.00  0.00     0.000 HD 
HETATM   14  C   UNL     1      -8.267  11.633  69.222  1.00  0.00     0.374 C  
HETATM   15  C   UNL     1      -6.208   7.896  66.945  1.00  0.00    -0.054 C  
HETATM   16  O   UNL     1      -7.506  12.237  68.168  1.00  0.00    -0.095 OA 
HETATM   17  C   UNL     1      -8.970  10.118  68.670  1.00  0.00    -0.136 C  
HETATM   18  C   UNL     1     -10.233  10.407  67.684  1.00  0.00    -0.240 C  
HETATM   19  F   UNL     1      -9.607   9.450  69.744  1.00  0.00    -0.160 F  
HETATM   20  H   UNL     1      -6.990  11.538  67.780  1.00  0.00     0.000 HD 
HETATM   21  C   UNL     1     -10.787   9.099  67.094  1.00  0.00    -0.094 C  
HETATM   22  C   UNL     1      -9.676   8.192  66.596  1.00  0.00    -0.248 C  
HETATM   23  C   UNL     1      -8.780   7.767  67.738  1.00  0.00    -0.123 C  
HETATM   24  F   UNL     1     -10.257   7.110  66.007  1.00  0.00    -0.034 F  
HETATM   25  C   UNL     1      -8.247   6.528  67.712  1.00  0.00    -0.115 C  
HETATM   26  C   UNL     1      -6.983   6.603  66.890  1.00  0.00    -0.067 C  
HETATM   27  O   UNL     1      -6.580   5.637  66.259  1.00  0.00    -0.052 OA 
ENDROOT
BRANCH   5  28
HETATM   28  C   UNL     1     -10.086  14.572  68.228  1.00  0.00    -0.232 C  
HETATM   29  C   UNL     1     -11.278  15.462  67.893  1.00  0.00    -0.329 C  
HETATM   30  O   UNL     1      -9.026  15.187  68.427  1.00  0.00    -0.172 OA 
HETATM   31 CL   UNL     1     -12.478  15.423  69.184  1.00  0.00    -0.068 Cl 
ENDBRANCH   5  28
TORSDOF 1
ENDMDL
MODEL       99
REMARK 921   NORMALIZED FREE ENERGY PREDICTED BY IDOCK:   10.01 KCAL/MOL
REMARK 922        TOTAL FREE ENERGY PREDICTED BY IDOCK:   11.83 KCAL/MOL
REMARK 923 INTER-LIGAND FREE ENERGY PREDICTED BY IDOCK:    6.53 KCAL/MOL
REMARK 924 INTRA-LIGAND FREE ENERGY PREDICTED BY IDOCK:    5.30 KCAL/MOL
REMARK 927      BINDING AFFINITY PREDICTED BY RF-SCORE:    0.00 PKD
ROOT
HETATM    1  C   UNL     1      -9.487  17.348  65.729  1.00  0.00     0.112 C  
HETATM    2  C   UNL     1     -10.106  18.588  65.997  1.00  0.00    -0.309 C  
HETATM    3  C   UNL     1      -8.855  18.421  66.835  1.00  0.00    -0.281 C  
HETATM    4  C   UNL     1      -8.633  20.046  67.212  1.00  0.00    -0.399 C  
HETATM    5  C   UNL     1      -7.661  16.790  66.352  1.00  0.00    -0.310 C  
HETATM    6  O   UNL     1      -7.946  15.955  65.160  1.00  0.00     2.179 OA 
HETATM    7  C   UNL     1     -10.925  17.219  70.729  1.00  0.00     1.131 C  
HETATM    8  C   UNL     1      -7.726  18.106  66.020  1.00  0.00    -0.204 C  
HETATM    9  C   UNL     1      -7.069  17.932  67.838  1.00  0.00    -0.210 C  
HETATM   10  C   UNL     1      -7.188  18.865  64.809  1.00  0.00     1.369 C  
HETATM   11  C   UNL     1     -10.780  16.042  69.670  1.00  0.00    -0.316 C  
HETATM   12  C   UNL     1     -10.442  14.840  70.536  1.00  0.00     0.285 C  
HETATM   13  H   UNL     1      -7.400  15.209  64.939  1.00  0.00     0.000 HD 
HETATM   14  C   UNL     1      -8.168  16.895  68.873  1.00  0.00    -0.218 C  
HETATM   15  C   UNL     1     -11.434  14.074  71.054  1.00  0.00     0.320 C  
HETATM   16  O   UNL     1      -7.504  15.632  69.018  1.00  0.00    -0.152 OA 
HETATM   17  C   UNL     1      -9.870  16.646  68.509  1.00  0.00    -0.252 C  
HETATM   18  C   UNL     1     -10.053  16.172  66.962  1.00  0.00    -0.270 C  
HETATM   19  F   UNL     1     -10.559  17.884  68.501  1.00  0.00    -0.347 F  
HETATM   20  H   UNL     1      -8.075  15.094  69.555  1.00  0.00     0.000 HD 
HETATM   21  C   UNL     1     -11.523  15.832  66.656  1.00  0.00     0.225 C  
HETATM   22  C   UNL     1     -12.142  14.980  67.751  1.00  0.00     0.044 C  
HETATM   23  C   UNL     1     -12.170  15.732  69.062  1.00  0.00    -0.050 C  
HETATM   24  F   UNL     1     -13.402  14.649  67.354  1.00  0.00     1.371 F  
HETATM   25  C   UNL     1     -13.211  15.531  69.898  1.00  0.00     0.520 C  
HETATM   26  C   UNL     1     -12.888  14.312  70.727  1.00  0.00    -0.337 C  
HETATM   27  O   UNL     1     -13.773  13.589  71.161  1.00  0.00    -0.036 OA 
ENDROOT
BRANCH   5  28
HETATM   28  C   UNL     1      -5.974  16.584  66.040  1.00  0.00     1.508 C  
HETATM   29  C   UNL     1      -5.357  17.348  64.874  1.00  0.00     1.352 C  
HETATM   30  O   UNL     1      -5.169  15.893  66.684  1.00  0.00     0.006 OA 
HETATM   31 CL   UNL     1      -5.392  19.085  65.168  1.00  0.00    -0.199 Cl 
ENDBRANCH   5  28
TORSDOF 1
ENDMDL
MODEL      100
REMARK 921   NORMALIZED FREE ENERGY PREDICTED BY IDOCK:   13.30 KCAL/MOL
REMARK 922        TOTAL FREE ENERGY PREDICTED BY IDOCK:   15.31 KCAL/MOL
REMARK 923 INTER-LIGAND FREE ENERGY PREDICTED BY IDOCK:   11.44 KCAL/MOL
REMARK 924 INTRA-LIGAND FREE ENERGY PREDICTED BY IDOCK:    3.87 KCAL/MOL
REMARK 927      BINDING AFFINITY PREDICTED BY RF-SCORE:    0.00 PKD
ROOT
HETATM    1  C   UNL     1      -9.344  15.459  70.353  1.00  0.00     0.778 C  
HETATM    2  C   UNL     1      -9.170  16.427  71.365  1.00  0.00     5.825 C  
HETATM    3  C   UNL     1     -10.521  16.586  70.699  1.00  0.00     0.669 C  
HETATM    4  C   UNL     1     -11.252  17.491  71.915  1.00  0.00     1.893 C  
HETATM    5  C   UNL     1     -11.065  15.062  69.395  1.00  0.00    -0.278 C  
HETATM    6  O   UNL     1     -10.245  13.832  69.265  1.00  0.00    -0.432 OA 
HETATM    7  C   UNL     1      -9.416  20.089  67.978  1.00  0.00    -0.427 C  
HETATM    8  C   UNL     1     -11.249  15.357  70.708  1.00  0.00    -0.378 C  
HETATM    9  C   UNL     1     -12.331  16.548  69.622  1.00  0.00     1.231 C  
HETATM   10  C   UNL     1     -11.593  14.468  71.900  1.00  0.00     0.123 C  
HETATM   11  C   UNL     1      -8.944  18.668  67.445  1.00  0.00    -0.284 C  
HETATM   12  C   UNL     1      -9.195  18.760  65.950  1.00  0.00     0.176 C  
HETATM   13  H   UNL     1     -10.494  13.135  68.668  1.00  0.00     0.000 HD 
HETATM   14  C   UNL     1     -11.346  17.386  68.325  1.00  0.00     0.388 C  
HETATM   15  C   UNL     1      -8.231  19.242  65.126  1.00  0.00     1.512 C  
HETATM   16  O   UNL     1     -11.676  16.734  67.091  1.00  0.00     0.677 OA 
HETATM   17  C   UNL     1      -9.607  17.616  68.444  1.00  0.00    -0.310 C  
HETATM   18  C   UNL     1      -8.873  16.204  68.789  1.00  0.00    -0.233 C  
HETATM   19  F   UNL     1      -9.287  18.381  69.592  1.00  0.00     0.128 F  
HETATM   20  H   UNL     1     -11.165  17.169  66.418  1.00  0.00     0.000 HD 
HETATM   21  C   UNL     1      -7.342  16.358  68.777  1.00  0.00    -0.203 C  
HETATM   22  C   UNL     1      -6.865  17.142  67.568  1.00  0.00    -0.141 C  
HETATM   23  C   UNL     1      -7.408  18.554  67.598  1.00  0.00    -0.223 C  
HETATM   24  F   UNL     1      -5.502  17.146  67.588  1.00  0.00    -0.102 F  
HETATM   25  C   UNL     1      -6.635  19.552  67.120  1.00  0.00    -0.209 C  
HETATM   26  C   UNL     1      -6.857  19.612  65.628  1.00  0.00    -0.289 C  
HETATM   27  O   UNL     1      -5.979  20.003  64.872  1.00  0.00    -0.206 OA 
ENDROOT
BRANCH   5  28
HETATM   28  C   UNL     1     -12.480  14.087  69.205  1.00  0.00    -0.010 C  
HETATM   29  C   UNL     1     -13.482  14.041  70.352  1.00  0.00     0.535 C  
HETATM   30  O   UNL     1     -12.807  13.422  68.210  1.00  0.00     0.794 OA 
HETATM   31 CL   UNL     1     -14.239  15.615  70.594  1.00  0.00     0.438 Cl 
ENDBRANCH   5  28
TORSDOF 1
ENDMDL
MODEL      101
REMARK 921   NORMALIZED FREE ENERGY PREDICTED BY IDOCK:   21.73 KCAL/MOL
REMARK 922        TOTAL FREE ENERGY PREDICTED BY IDOCK:   24.23 KCAL/MOL
REMARK 923 INTER-LIGAND FREE ENERGY PREDICTED BY IDOCK:   22.75 KCAL/MOL
REMARK 924 INTRA-LIGAND FREE ENERGY PREDICTED BY IDOCK:    1.48 KCAL/MOL
REMARK 927      BINDING AFFINITY PREDICTED BY RF-SCORE:    0.00 PKD
ROOT
HETATM    1  C   UNL     1      -9.784   5.094  67.138  1.00  0.00    -0.171 C  
HETATM    2  C   UNL     1     -10.915   5.004  67.977  1.00  0.00     0.789 C  
HETATM    3  C   UNL     1     -11.006   6.225  67.085  1.00  0.00    -0.453 C  
HETATM    4  C   UNL     1     -12.663   6.476  67.236  1.00  0.00     8.302 C  
HETATM    5  C   UNL     1      -9.575   6.348  65.582  1.00  0.00     0.419 C  
HETATM    6  O   UNL     1      -8.641   5.227  65.316  1.00  0.00    -0.142 OA 
HETATM    7  C   UNL     1      -9.684   9.308  70.189  1.00  0.00    -0.252 C  
HETATM    8  C   UNL     1     -10.841   5.873  65.710  1.00  0.00     0.919 C  
HETATM    9  C   UNL     1     -10.878   7.814  65.708  1.00  0.00     3.265 C  
HETATM   10  C   UNL     1     -11.613   4.837  64.897  1.00  0.00     1.217 C  
HETATM   11  C   UNL     1      -8.492   8.493  69.523  1.00  0.00    -0.127 C  
HETATM   12  C   UNL     1      -7.413   9.547  69.343  1.00  0.00    -0.088 C  
HETATM   13  H   UNL     1      -7.986   5.283  64.630  1.00  0.00     0.000 HD 
HETATM   14  C   UNL     1      -9.729   8.527  66.942  1.00  0.00    -0.221 C  
HETATM   15  C   UNL     1      -6.520   9.783  70.335  1.00  0.00    -0.101 C  
HETATM   16  O   UNL     1      -8.605   9.022  66.201  1.00  0.00    -0.124 OA 
HETATM   17  C   UNL     1      -9.178   7.644  68.360  1.00  0.00    -0.140 C  
HETATM   18  C   UNL     1      -8.597   6.187  67.927  1.00  0.00    -0.114 C  
HETATM   19  F   UNL     1     -10.280   7.273  69.168  1.00  0.00    -0.175 F  
HETATM   20  H   UNL     1      -8.008   9.393  66.842  1.00  0.00     0.000 HD 
HETATM   21  C   UNL     1      -7.999   5.446  69.136  1.00  0.00    -0.094 C  
HETATM   22  C   UNL     1      -7.115   6.356  69.971  1.00  0.00    -0.071 C  
HETATM   23  C   UNL     1      -7.922   7.493  70.558  1.00  0.00    -0.098 C  
HETATM   24  F   UNL     1      -6.556   5.599  70.956  1.00  0.00    -0.040 F  
HETATM   25  C   UNL     1      -7.594   7.949  71.785  1.00  0.00    -0.092 C  
HETATM   26  C   UNL     1      -6.493   8.965  71.603  1.00  0.00    -0.076 C  
HETATM   27  O   UNL     1      -5.655   9.154  72.474  1.00  0.00    -0.078 OA 
ENDROOT
BRANCH   5  28
HETATM   28  C   UNL     1      -9.639   6.642  63.880  1.00  0.00     3.095 C  
HETATM   29  C   UNL     1      -8.700   5.852  62.976  1.00  0.00     0.259 C  
HETATM   30  O   UNL     1     -10.397   7.420  63.280  1.00  0.00     7.255 OA 
HETATM   31 CL   UNL     1      -9.101   4.136  62.994  1.00  0.00    -0.116 Cl 
ENDBRANCH   5  28
TORSDOF 1
ENDMDL
MODEL      102
REMARK 921   NORMALIZED FREE ENERGY PREDICTED BY IDOCK:   23.47 KCAL/MOL
REMARK 922        TOTAL FREE ENERGY PREDICTED BY IDOCK:   26.07 KCAL/MOL
REMARK 923 INTER-LIGAND FREE ENERGY PREDICTED BY IDOCK:   24.91 KCAL/MOL
REMARK 924 INTRA-LIGAND FREE ENERGY PREDICTED BY IDOCK:    1.16 KCAL/MOL
REMARK 927      BINDING AFFINITY PREDICTED BY RF-SCORE:    0.00 PKD
ROOT
HETATM    1  C   UNL     1     -11.113  15.946  68.667  1.00  0.00    -0.337 C  
HETATM    2  C   UNL     1     -11.930  15.631  67.560  1.00  0.00     0.393 C  
HETATM    3  C   UNL     1     -10.753  14.680  67.646  1.00  0.00    -0.271 C  
HETATM    4  C   UNL     1     -11.393  13.462  66.677  1.00  0.00    -0.350 C  
HETATM    5  C   UNL     1      -9.617  14.812  69.381  1.00  0.00    -0.003 C  
HETATM    6  O   UNL     1     -10.042  15.668  70.515  1.00  0.00    -0.183 OA 
HETATM    7  C   UNL     1      -8.177  16.659  64.430  1.00  0.00     8.939 C  
HETATM    8  C   UNL     1     -10.670  14.077  68.938  1.00  0.00    -0.265 C  
HETATM    9  C   UNL     1      -9.053  13.498  68.033  1.00  0.00    -0.201 C  
HETATM   10  C   UNL     1     -11.748  13.305  69.695  1.00  0.00    -0.369 C  
HETATM   11  C   UNL     1      -8.130  17.381  65.847  1.00  0.00    -0.050 C  
HETATM   12  C   UNL     1      -6.671  17.780  65.982  1.00  0.00    -0.316 C  
HETATM   13  H   UNL     1      -9.522  15.729  71.309  1.00  0.00     0.000 HD 
HETATM   14  C   UNL     1      -8.153  14.896  67.267  1.00  0.00    -0.208 C  
HETATM   15  C   UNL     1      -6.246  18.977  65.507  1.00  0.00    -0.280 C  
HETATM   16  O   UNL     1      -7.020  15.150  68.109  1.00  0.00    -0.107 OA 
HETATM   17  C   UNL     1      -8.931  16.410  66.826  1.00  0.00    -0.236 C  
HETATM   18  C   UNL     1      -9.778  16.997  68.086  1.00  0.00    -0.268 C  
HETATM   19  F   UNL     1      -9.964  16.178  65.885  1.00  0.00    -0.292 F  
HETATM   20  H   UNL     1      -6.553  15.876  67.712  1.00  0.00     0.000 HD 
HETATM   21  C   UNL     1     -10.369  18.381  67.762  1.00  0.00    -0.428 C  
HETATM   22  C   UNL     1      -9.347  19.285  67.095  1.00  0.00    -0.315 C  
HETATM   23  C   UNL     1      -8.915  18.713  65.763  1.00  0.00     0.446 C  
HETATM   24  F   UNL     1      -9.922  20.510  66.933  1.00  0.00    -0.553 F  
HETATM   25  C   UNL     1      -8.635  19.566  64.756  1.00  0.00     3.027 C  
HETATM   26  C   UNL     1      -7.196  19.991  64.919  1.00  0.00     0.228 C  
HETATM   27  O   UNL     1      -6.812  21.086  64.534  1.00  0.00    -0.126 OA 
ENDROOT
BRANCH   5  28
HETATM   28  C   UNL     1      -9.032  13.658  70.527  1.00  0.00     4.670 C  
HETATM   29  C   UNL     1      -7.524  13.501  70.686  1.00  0.00     2.758 C  
HETATM   30  O   UNL     1      -9.706  12.939  71.282  1.00  0.00     8.639 OA 
HETATM   31 CL   UNL     1      -6.803  14.966  71.349  1.00  0.00     0.968 Cl 
ENDBRANCH   5  28
TORSDOF 1
ENDMDL
MODEL      103
REMARK 921   NORMALIZED FREE ENERGY PREDICTED BY IDOCK:   26.02 KCAL/MOL
REMARK 922        TOTAL FREE ENERGY PREDICTED BY IDOCK:   28.77 KCAL/MOL
REMARK 923 INTER-LIGAND FREE ENERGY PREDICTED BY IDOCK:   25.09 KCAL/MOL
REMARK 924 INTRA-LIGAND FREE ENERGY PREDICTED BY IDOCK:    3.68 KCAL/MOL
REMARK 927      BINDING AFFINITY PREDICTED BY RF-SCORE:    0.00 PKD
ROOT
HETATM    1  C   UNL     1     -11.069  10.655  67.551  1.00  0.00    -0.367 C  
HETATM    2  C   UNL     1     -10.716  11.548  66.517  1.00  0.00    -0.318 C  
HETATM    3  C   UNL     1      -9.974  10.236  66.368  1.00  0.00    -0.287 C  
HETATM    4  C   UNL     1      -9.558  10.410  64.746  1.00  0.00    -0.352 C  
HETATM    5  C   UNL     1     -10.595   8.705  67.628  1.00  0.00    -0.203 C  
HETATM    6  O   UNL     1     -11.792   8.856  68.490  1.00  0.00     0.727 OA 
HETATM    7  C   UNL     1      -5.988  11.626  68.122  1.00  0.00    -0.046 C  
HETATM    8  C   UNL     1     -10.876   9.129  66.369  1.00  0.00     0.400 C  
HETATM    9  C   UNL     1      -9.116   8.313  66.394  1.00  0.00    -0.226 C  
HETATM   10  C   UNL     1     -12.095   8.899  65.478  1.00  0.00    11.360 C  
HETATM   11  C   UNL     1      -7.094  11.265  69.206  1.00  0.00    -0.112 C  
HETATM   12  C   UNL     1      -6.296  10.565  70.292  1.00  0.00    -0.137 C  
HETATM   13  H   UNL     1     -12.076   8.156  69.067  1.00  0.00     0.000 HD 
HETATM   14  C   UNL     1      -8.042   9.027  67.695  1.00  0.00    -0.109 C  
HETATM   15  C   UNL     1      -5.736  11.285  71.296  1.00  0.00     0.208 C  
HETATM   16  O   UNL     1      -7.987   8.053  68.745  1.00  0.00    -0.115 OA 
HETATM   17  C   UNL     1      -8.295  10.631  68.369  1.00  0.00    -0.127 C  
HETATM   18  C   UNL     1      -9.840  10.805  68.852  1.00  0.00    -0.209 C  
HETATM   19  F   UNL     1      -8.212  11.613  67.352  1.00  0.00    -0.129 F  
HETATM   20  H   UNL     1      -7.430   8.424  69.421  1.00  0.00     0.000 HD 
HETATM   21  C   UNL     1     -10.054  12.157  69.555  1.00  0.00     0.786 C  
HETATM   22  C   UNL     1      -8.949  12.451  70.554  1.00  0.00     6.768 C  
HETATM   23  C   UNL     1      -7.613  12.571  69.854  1.00  0.00     1.505 C  
HETATM   24  F   UNL     1      -9.268  13.611  71.194  1.00  0.00     4.965 F  
HETATM   25  C   UNL     1      -6.714  13.458  70.330  1.00  0.00     0.443 C  
HETATM   26  C   UNL     1      -5.952  12.772  71.436  1.00  0.00     0.751 C  
HETATM   27  O   UNL     1      -5.482  13.405  72.370  1.00  0.00    -0.401 OA 
ENDROOT
BRANCH   5  28
HETATM   28  C   UNL     1     -11.031   7.050  67.386  1.00  0.00    -0.266 C  
HETATM   29  C   UNL     1     -10.761   6.424  66.023  1.00  0.00     0.884 C  
HETATM   30  O   UNL     1     -11.526   6.273  68.219  1.00  0.00    -0.177 OA 
HETATM   31 CL   UNL     1      -9.030   6.322  65.707  1.00  0.00    -0.127 Cl 
ENDBRANCH   5  28
TORSDOF 1
ENDMDL
MODEL      104
REMARK 921   NORMALIZED FREE ENERGY PREDICTED BY IDOCK:   32.24 KCAL/MOL
REMARK 922        TOTAL FREE ENERGY PREDICTED BY IDOCK:   35.35 KCAL/MOL
REMARK 923 INTER-LIGAND FREE ENERGY PREDICTED BY IDOCK:   33.36 KCAL/MOL
REMARK 924 INTRA-LIGAND FREE ENERGY PREDICTED BY IDOCK:    1.99 KCAL/MOL
REMARK 927      BINDING AFFINITY PREDICTED BY RF-SCORE:    0.00 PKD
ROOT
HETATM    1  C   UNL     1      -8.834  13.363  68.796  1.00  0.00     0.122 C  
HETATM    2  C   UNL     1     -10.145  12.844  68.873  1.00  0.00     0.043 C  
HETATM    3  C   UNL     1      -9.618  12.759  67.455  1.00  0.00    -0.192 C  
HETATM    4  C   UNL     1     -10.703  11.602  66.894  1.00  0.00    -0.295 C  
HETATM    5  C   UNL     1      -7.601  13.201  67.219  1.00  0.00    -0.080 C  
HETATM    6  O   UNL     1      -6.720  13.422  68.391  1.00  0.00    -0.079 OA 
HETATM    7  C   UNL     1     -11.801  16.422  65.808  1.00  0.00     1.402 C  
HETATM    8  C   UNL     1      -8.357  12.090  67.412  1.00  0.00    -0.171 C  
HETATM    9  C   UNL     1      -8.618  12.739  65.602  1.00  0.00     1.225 C  
HETATM   10  C   UNL     1      -7.996  10.711  67.960  1.00  0.00    -0.107 C  
HETATM   11  C   UNL     1     -10.485  16.758  66.636  1.00  0.00    -0.258 C  
HETATM   12  C   UNL     1      -9.863  17.897  65.848  1.00  0.00    -0.063 C  
HETATM   13  H   UNL     1      -5.797  13.624  68.283  1.00  0.00     0.000 HD 
HETATM   14  C   UNL     1      -9.072  14.512  65.563  1.00  0.00     0.769 C  
HETATM   15  C   UNL     1     -10.204  19.180  66.123  1.00  0.00    -0.535 C  
HETATM   16  O   UNL     1      -7.897  15.215  65.137  1.00  0.00     4.044 OA 
HETATM   17  C   UNL     1      -9.813  15.341  66.926  1.00  0.00    -0.235 C  
HETATM   18  C   UNL     1      -8.951  15.080  68.282  1.00  0.00    -0.174 C  
HETATM   19  F   UNL     1     -11.046  14.732  67.262  1.00  0.00    -0.294 F  
HETATM   20  H   UNL     1      -8.132  16.136  65.117  1.00  0.00     0.000 HD 
HETATM   21  C   UNL     1      -9.512  15.893  69.461  1.00  0.00    -0.219 C  
HETATM   22  C   UNL     1      -9.812  17.326  69.063  1.00  0.00    -0.237 C  
HETATM   23  C   UNL     1     -10.887  17.372  67.999  1.00  0.00    -0.281 C  
HETATM   24  F   UNL     1     -10.210  17.993  70.183  1.00  0.00     0.246 F  
HETATM   25  C   UNL     1     -11.764  18.398  68.012  1.00  0.00     1.908 C  
HETATM   26  C   UNL     1     -11.124  19.541  67.263  1.00  0.00    -0.166 C  
HETATM   27  O   UNL     1     -11.390  20.703  67.533  1.00  0.00     1.322 OA 
ENDROOT
BRANCH   5  28
HETATM   28  C   UNL     1      -6.281  12.414  66.428  1.00  0.00     1.302 C  
HETATM   29  C   UNL     1      -5.984  12.785  64.980  1.00  0.00     8.547 C  
HETATM   30  O   UNL     1      -5.502  11.580  66.915  1.00  0.00    -0.096 OA 
HETATM   31 CL   UNL     1      -5.447  14.459  64.854  1.00  0.00    15.908 Cl 
ENDBRANCH   5  28
TORSDOF 1
ENDMDL
MODEL      105
REMARK 921   NORMALIZED FREE ENERGY PREDICTED BY IDOCK:   34.76 KCAL/MOL
REMARK 922        TOTAL FREE ENERGY PREDICTED BY IDOCK:   38.03 KCAL/MOL
REMARK 923 INTER-LIGAND FREE ENERGY PREDICTED BY IDOCK:   34.50 KCAL/MOL
REMARK 924 INTRA-LIGAND FREE ENERGY PREDICTED BY IDOCK:    3.52 KCAL/MOL
REMARK 927      BINDING AFFINITY PREDICTED BY RF-SCORE:    0.00 PKD
ROOT
HETATM    1  C   UNL     1     -10.146  14.162  70.943  1.00  0.00     2.881 C  
HETATM    2  C   UNL     1      -8.783  13.816  71.062  1.00  0.00     6.645 C  
HETATM    3  C   UNL     1      -8.940  15.122  70.311  1.00  0.00     0.765 C  
HETATM    4  C   UNL     1      -7.364  15.677  70.519  1.00  0.00     1.071 C  
HETATM    5  C   UNL     1     -10.854  15.931  70.307  1.00  0.00    -0.340 C  
HETATM    6  O   UNL     1     -11.941  15.340  71.124  1.00  0.00    -0.288 OA 
HETATM    7  C   UNL     1      -8.390  13.437  66.098  1.00  0.00     1.107 C  
HETATM    8  C   UNL     1      -9.727  16.053  71.055  1.00  0.00     2.237 C  
HETATM    9  C   UNL     1      -9.457  16.917  69.338  1.00  0.00     0.068 C  
HETATM   10  C   UNL     1      -9.519  16.541  72.486  1.00  0.00    10.502 C  
HETATM   11  C   UNL     1      -9.843  13.223  66.708  1.00  0.00    -0.264 C  
HETATM   12  C   UNL     1     -10.755  13.462  65.517  1.00  0.00    -0.301 C  
HETATM   13  H   UNL     1     -12.816  15.709  71.122  1.00  0.00     0.000 HD 
HETATM   14  C   UNL     1      -9.858  15.808  67.937  1.00  0.00    -0.217 C  
HETATM   15  C   UNL     1     -11.091  12.433  64.700  1.00  0.00    -0.348 C  
HETATM   16  O   UNL     1     -11.122  16.253  67.425  1.00  0.00    -0.232 OA 
HETATM   17  C   UNL     1      -9.841  14.055  68.069  1.00  0.00    -0.228 C  
HETATM   18  C   UNL     1     -10.727  13.576  69.348  1.00  0.00     0.052 C  
HETATM   19  F   UNL     1      -8.552  13.600  68.440  1.00  0.00    -0.159 F  
HETATM   20  H   UNL     1     -11.330  15.677  66.698  1.00  0.00     0.000 HD 
HETATM   21  C   UNL     1     -10.826  12.042  69.413  1.00  0.00    -0.059 C  
HETATM   22  C   UNL     1     -11.139  11.442  68.054  1.00  0.00    -0.257 C  
HETATM   23  C   UNL     1     -10.025  11.730  67.072  1.00  0.00    -0.224 C  
HETATM   24  F   UNL     1     -11.303  10.099  68.222  1.00  0.00    -0.304 F  
HETATM   25  C   UNL     1      -9.728  10.797  66.143  1.00  0.00    -0.253 C  
HETATM   26  C   UNL     1     -10.665  11.013  64.979  1.00  0.00    -0.194 C  
HETATM   27  O   UNL     1     -11.010  10.084  64.263  1.00  0.00     1.515 OA 
ENDROOT
BRANCH   5  28
HETATM   28  C   UNL     1     -11.501  17.495  70.655  1.00  0.00     2.482 C  
HETATM   29  C   UNL     1     -10.628  18.714  70.380  1.00  0.00     2.055 C  
HETATM   30  O   UNL     1     -12.633  17.761  71.089  1.00  0.00     7.142 OA 
HETATM   31 CL   UNL     1     -10.328  18.898  68.653  1.00  0.00    -0.350 Cl 
ENDBRANCH   5  28
TORSDOF 1
ENDMDL
MODEL      106
REMARK 921   NORMALIZED FREE ENERGY PREDICTED BY IDOCK:   34.79 KCAL/MOL
REMARK 922        TOTAL FREE ENERGY PREDICTED BY IDOCK:   38.05 KCAL/MOL
REMARK 923 INTER-LIGAND FREE ENERGY PREDICTED BY IDOCK:   35.48 KCAL/MOL
REMARK 924 INTRA-LIGAND FREE ENERGY PREDICTED BY IDOCK:    2.58 KCAL/MOL
REMARK 927      BINDING AFFINITY PREDICTED BY RF-SCORE:    0.00 PKD
ROOT
HETATM    1  C   UNL     1      -9.216  17.760  65.163  1.00  0.00     2.340 C  
HETATM    2  C   UNL     1      -9.372  16.782  64.158  1.00  0.00     7.468 C  
HETATM    3  C   UNL     1     -10.594  16.830  65.052  1.00  0.00    -0.060 C  
HETATM    4  C   UNL     1     -11.657  16.056  64.002  1.00  0.00     0.193 C  
HETATM    5  C   UNL     1     -10.660  18.414  66.396  1.00  0.00    -0.309 C  
HETATM    6  O   UNL     1      -9.652  19.501  66.354  1.00  0.00    -0.348 OA 
HETATM    7  C   UNL     1      -9.580  13.185  67.617  1.00  0.00    -0.210 C  
HETATM    8  C   UNL     1     -11.115  18.157  65.142  1.00  0.00     0.996 C  
HETATM    9  C   UNL     1     -12.159  17.144  66.426  1.00  0.00     3.391 C  
HETATM   10  C   UNL     1     -11.523  19.095  64.009  1.00  0.00     7.619 C  
HETATM   11  C   UNL     1      -8.809  14.514  68.028  1.00  0.00    -0.175 C  
HETATM   12  C   UNL     1      -8.805  14.454  69.545  1.00  0.00     0.432 C  
HETATM   13  H   UNL     1      -9.682  20.225  66.969  1.00  0.00     0.000 HD 
HETATM   14  C   UNL     1     -11.103  16.157  67.550  1.00  0.00    -0.175 C  
HETATM   15  C   UNL     1      -7.797  13.825  70.199  1.00  0.00     1.711 C  
HETATM   16  O   UNL     1     -11.107  16.846  68.808  1.00  0.00    -0.278 OA 
HETATM   17  C   UNL     1      -9.468  15.661  67.136  1.00  0.00    -0.217 C  
HETATM   18  C   UNL     1      -8.598  16.943  66.637  1.00  0.00    -0.281 C  
HETATM   19  F   UNL     1      -9.475  14.861  65.967  1.00  0.00    -0.283 F  
HETATM   20  H   UNL     1     -10.558  16.333  69.391  1.00  0.00     0.000 HD 
HETATM   21  C   UNL     1      -7.130  16.554  66.385  1.00  0.00    -0.023 C  
HETATM   22  C   UNL     1      -6.575  15.699  67.510  1.00  0.00    -0.182 C  
HETATM   23  C   UNL     1      -7.324  14.389  67.607  1.00  0.00    -0.197 C  
HETATM   24  F   UNL     1      -5.254  15.484  67.253  1.00  0.00    -0.077 F  
HETATM   25  C   UNL     1      -6.642  13.281  67.965  1.00  0.00    -0.129 C  
HETATM   26  C   UNL     1      -6.605  13.248  69.474  1.00  0.00    -0.040 C  
HETATM   27  O   UNL     1      -5.679  12.723  70.074  1.00  0.00    -0.110 OA 
ENDROOT
BRANCH   5  28
HETATM   28  C   UNL     1     -11.854  19.595  66.807  1.00  0.00     1.803 C  
HETATM   29  C   UNL     1     -11.547  21.060  66.520  1.00  0.00     4.932 C  
HETATM   30  O   UNL     1     -12.977  19.391  67.296  1.00  0.00     4.181 OA 
HETATM   31 CL   UNL     1     -11.429  21.352  64.786  1.00  0.00     3.504 Cl 
ENDBRANCH   5  28
TORSDOF 1
ENDMDL
MODEL      107
REMARK 921   NORMALIZED FREE ENERGY PREDICTED BY IDOCK:   38.58 KCAL/MOL
REMARK 922        TOTAL FREE ENERGY PREDICTED BY IDOCK:   42.07 KCAL/MOL
REMARK 923 INTER-LIGAND FREE ENERGY PREDICTED BY IDOCK:   36.93 KCAL/MOL
REMARK 924 INTRA-LIGAND FREE ENERGY PREDICTED BY IDOCK:    5.13 KCAL/MOL
REMARK 927      BINDING AFFINITY PREDICTED BY RF-SCORE:    0.00 PKD
ROOT
HETATM    1  C   UNL     1      -9.627  11.978  70.555  1.00  0.00     5.376 C  
HETATM    2  C   UNL     1     -10.133  11.094  71.532  1.00  0.00     6.891 C  
HETATM    3  C   UNL     1     -11.018  11.097  70.302  1.00  0.00     0.156 C  
HETATM    4  C   UNL     1     -11.803   9.639  70.601  1.00  0.00    -0.331 C  
HETATM    5  C   UNL     1     -10.261  12.112  68.654  1.00  0.00    -0.174 C  
HETATM    6  O   UNL     1      -8.879  12.649  68.650  1.00  0.00    -0.365 OA 
HETATM    7  C   UNL     1     -14.283  13.841  71.946  1.00  0.00    -0.349 C  
HETATM    8  C   UNL     1     -10.259  10.836  69.120  1.00  0.00    -0.229 C  
HETATM    9  C   UNL     1     -12.032  11.281  68.465  1.00  0.00    -0.288 C  
HETATM   10  C   UNL     1      -9.329   9.661  68.830  1.00  0.00    -0.148 C  
HETATM   11  C   UNL     1     -12.985  14.600  71.428  1.00  0.00    -0.404 C  
HETATM   12  C   UNL     1     -13.555  15.830  70.744  1.00  0.00     0.342 C  
HETATM   13  H   UNL     1      -8.532  13.114  67.896  1.00  0.00     0.000 HD 
HETATM   14  C   UNL     1     -12.671  12.831  69.201  1.00  0.00     0.923 C  
HETATM   15  C   UNL     1     -13.773  16.965  71.455  1.00  0.00     6.342 C  
HETATM   16  O   UNL     1     -12.562  13.831  68.179  1.00  0.00    -0.262 OA 
HETATM   17  C   UNL     1     -12.099  13.468  70.736  1.00  0.00    -0.271 C  
HETATM   18  C   UNL     1     -10.473  13.551  70.743  1.00  0.00     3.300 C  
HETATM   19  F   UNL     1     -12.332  12.535  71.776  1.00  0.00    -0.210 F  
HETATM   20  H   UNL     1     -12.894  14.636  68.561  1.00  0.00     0.000 HD 
HETATM   21  C   UNL     1      -9.957  14.218  72.030  1.00  0.00     5.660 C  
HETATM   22  C   UNL     1     -10.744  15.472  72.367  1.00  0.00     1.200 C  
HETATM   23  C   UNL     1     -12.192  15.136  72.645  1.00  0.00    -0.482 C  
HETATM   24  F   UNL     1     -10.161  16.046  73.457  1.00  0.00     3.762 F  
HETATM   25  C   UNL     1     -12.851  15.850  73.582  1.00  0.00    -0.717 C  
HETATM   26  C   UNL     1     -13.380  17.091  72.907  1.00  0.00     2.603 C  
HETATM   27  O   UNL     1     -13.538  18.132  73.528  1.00  0.00     5.503 OA 
ENDROOT
BRANCH   5  28
HETATM   28  C   UNL     1     -10.067  11.719  66.982  1.00  0.00    -0.209 C  
HETATM   29  C   UNL     1      -9.290  10.458  66.624  1.00  0.00    -0.158 C  
HETATM   30  O   UNL     1     -10.521  12.338  66.006  1.00  0.00    -0.243 OA 
HETATM   31 CL   UNL     1     -10.141   9.014  67.170  1.00  0.00    -0.283 Cl 
ENDBRANCH   5  28
TORSDOF 1
ENDMDL
MODEL      108
REMARK 921   NORMALIZED FREE ENERGY PREDICTED BY IDOCK:   39.62 KCAL/MOL
REMARK 922        TOTAL FREE ENERGY PREDICTED BY IDOCK:   43.17 KCAL/MOL
REMARK 923 INTER-LIGAND FREE ENERGY PREDICTED BY IDOCK:   38.87 KCAL/MOL
REMARK 924 INTRA-LIGAND FREE ENERGY PREDICTED BY IDOCK:    4.30 KCAL/MOL
REMARK 927      BINDING AFFINITY PREDICTED BY RF-SCORE:    0.00 PKD
ROOT
HETATM    1  C   UNL     1     -10.588   4.110  67.355  1.00  0.00     1.050 C  
HETATM    2  C   UNL     1     -11.941   3.826  67.639  1.00  0.00    13.668 C  
HETATM    3  C   UNL     1     -11.823   5.075  66.790  1.00  0.00     4.151 C  
HETATM    4  C   UNL     1     -13.409   5.101  66.228  1.00  0.00    14.109 C  
HETATM    5  C   UNL     1      -9.929   5.468  66.030  1.00  0.00    -0.035 C  
HETATM    6  O   UNL     1      -8.821   4.495  66.184  1.00  0.00    -0.116 OA 
HETATM    7  C   UNL     1     -12.368   8.117  70.158  1.00  0.00     0.837 C  
HETATM    8  C   UNL     1     -11.052   4.828  65.613  1.00  0.00     0.155 C  
HETATM    9  C   UNL     1     -11.358   6.744  65.593  1.00  0.00     4.304 C  
HETATM   10  C   UNL     1     -11.259   3.750  64.552  1.00  0.00     0.447 C  
HETATM   11  C   UNL     1     -10.905   7.502  70.057  1.00  0.00    -0.260 C  
HETATM   12  C   UNL     1     -10.010   8.695  70.346  1.00  0.00    -0.212 C  
HETATM   13  H   UNL     1      -7.954   4.675  65.837  1.00  0.00     0.000 HD 
HETATM   14  C   UNL     1     -10.943   7.527  67.195  1.00  0.00    -0.093 C  
HETATM   15  C   UNL     1      -9.656   8.986  71.622  1.00  0.00    -0.319 C  
HETATM   16  O   UNL     1      -9.695   8.205  66.996  1.00  0.00    -0.176 OA 
HETATM   17  C   UNL     1     -10.915   6.642  68.714  1.00  0.00    -0.260 C  
HETATM   18  C   UNL     1     -10.007   5.299  68.568  1.00  0.00    -0.227 C  
HETATM   19  F   UNL     1     -12.189   6.085  68.984  1.00  0.00     0.444 F  
HETATM   20  H   UNL     1      -9.479   8.611  67.828  1.00  0.00     0.000 HD 
HETATM   21  C   UNL     1      -9.869   4.572  69.918  1.00  0.00    -0.298 C  
HETATM   22  C   UNL     1      -9.554   5.538  71.046  1.00  0.00    -0.170 C  
HETATM   23  C   UNL     1     -10.683   6.525  71.237  1.00  0.00    -0.280 C  
HETATM   24  F   UNL     1      -9.355   4.803  72.177  1.00  0.00    -0.141 F  
HETATM   25  C   UNL     1     -10.965   6.948  72.487  1.00  0.00    -0.294 C  
HETATM   26  C   UNL     1     -10.045   8.106  72.785  1.00  0.00    -0.297 C  
HETATM   27  O   UNL     1      -9.683   8.351  73.927  1.00  0.00     0.597 OA 
ENDROOT
BRANCH   5  28
HETATM   28  C   UNL     1      -9.318   5.851  64.459  1.00  0.00     0.888 C  
HETATM   29  C   UNL     1      -8.778   4.714  63.599  1.00  0.00    -0.136 C  
HETATM   30  O   UNL     1      -9.288   6.966  63.915  1.00  0.00     1.695 OA 
HETATM   31 CL   UNL     1     -10.066   3.596  63.150  1.00  0.00    -0.160 Cl 
ENDBRANCH   5  28
TORSDOF 1
ENDMDL
MODEL      109
REMARK 921   NORMALIZED FREE ENERGY PREDICTED BY IDOCK:   41.55 KCAL/MOL
REMARK 922        TOTAL FREE ENERGY PREDICTED BY IDOCK:   45.21 KCAL/MOL
REMARK 923 INTER-LIGAND FREE ENERGY PREDICTED BY IDOCK:   43.48 KCAL/MOL
REMARK 924 INTRA-LIGAND FREE ENERGY PREDICTED BY IDOCK:    1.72 KCAL/MOL
REMARK 927      BINDING AFFINITY PREDICTED BY RF-SCORE:    0.00 PKD
ROOT
HETATM    1  C   UNL     1      -8.818  11.626  68.222  1.00  0.00    -0.167 C  
HETATM    2  C   UNL     1     -10.094  11.205  68.651  1.00  0.00    -0.208 C  
HETATM    3  C   UNL     1      -9.750  12.557  69.242  1.00  0.00     0.697 C  
HETATM    4  C   UNL     1     -11.317  13.019  69.644  1.00  0.00    -0.176 C  
HETATM    5  C   UNL     1      -8.040  13.460  68.480  1.00  0.00    -0.105 C  
HETATM    6  O   UNL     1      -7.315  12.881  67.324  1.00  0.00    -0.255 OA 
HETATM    7  C   UNL     1      -8.520  11.078  73.389  1.00  0.00    16.292 C  
HETATM    8  C   UNL     1      -9.374  13.485  68.223  1.00  0.00    -0.205 C  
HETATM    9  C   UNL     1      -9.020  14.426  69.884  1.00  0.00     0.941 C  
HETATM   10  C   UNL     1     -10.150  13.883  66.970  1.00  0.00    -0.256 C  
HETATM   11  C   UNL     1      -7.403  10.905  72.271  1.00  0.00     6.999 C  
HETATM   12  C   UNL     1      -6.121  11.254  73.007  1.00  0.00     2.977 C  
HETATM   13  H   UNL     1      -6.533  13.294  66.975  1.00  0.00     0.000 HD 
HETATM   14  C   UNL     1      -8.037  13.416  71.053  1.00  0.00     6.797 C  
HETATM   15  C   UNL     1      -5.428  10.290  73.661  1.00  0.00     0.457 C  
HETATM   16  O   UNL     1      -6.707  13.952  71.021  1.00  0.00    -0.300 OA 
HETATM   17  C   UNL     1      -7.985  11.660  70.992  1.00  0.00     6.793 C  
HETATM   18  C   UNL     1      -7.629  11.158  69.484  1.00  0.00     0.058 C  
HETATM   19  F   UNL     1      -9.283  11.121  71.162  1.00  0.00     3.616 F  
HETATM   20  H   UNL     1      -6.197  13.428  71.628  1.00  0.00     0.000 HD 
HETATM   21  C   UNL     1      -7.459   9.630  69.434  1.00  0.00    -0.093 C  
HETATM   22  C   UNL     1      -6.607   9.121  70.583  1.00  0.00    -0.071 C  
HETATM   23  C   UNL     1      -7.274   9.405  71.910  1.00  0.00     0.520 C  
HETATM   24  F   UNL     1      -6.430   7.781  70.406  1.00  0.00    -0.036 F  
HETATM   25  C   UNL     1      -7.127   8.511  72.910  1.00  0.00    -0.060 C  
HETATM   26  C   UNL     1      -5.832   8.837  73.613  1.00  0.00    -0.106 C  
HETATM   27  O   UNL     1      -5.175   7.967  74.167  1.00  0.00    -0.055 OA 
ENDROOT
BRANCH   5  28
HETATM   28  C   UNL     1      -7.685  15.034  67.860  1.00  0.00    -0.134 C  
HETATM   29  C   UNL     1      -7.005  16.037  68.785  1.00  0.00    -0.139 C  
HETATM   30  O   UNL     1      -7.895  15.455  66.711  1.00  0.00    -0.201 OA 
HETATM   31 CL   UNL     1      -5.375  15.509  69.199  1.00  0.00    -0.096 Cl 
ENDBRANCH   5  28
TORSDOF 1
ENDMDL
MODEL      110
REMARK 921   NORMALIZED FREE ENERGY PREDICTED BY IDOCK:   42.24 KCAL/MOL
REMARK 922        TOTAL FREE ENERGY PREDICTED BY IDOCK:   45.94 KCAL/MOL
REMARK 923 INTER-LIGAND FREE ENERGY PREDICTED BY IDOCK:   41.66 KCAL/MOL
REMARK 924 INTRA-LIGAND FREE ENERGY PREDICTED BY IDOCK:    4.28 KCAL/MOL
REMARK 927      BINDING AFFINITY PREDICTED BY RF-SCORE:    0.00 PKD
ROOT
HETATM    1  C   UNL     1      -9.198  19.148  66.997  1.00  0.00    -0.336 C  
HETATM    2  C   UNL     1      -8.320  19.402  68.073  1.00  0.00    -0.354 C  
HETATM    3  C   UNL     1      -7.651  18.531  67.029  1.00  0.00    -0.234 C  
HETATM    4  C   UNL     1      -6.061  18.813  67.506  1.00  0.00    -0.179 C  
HETATM    5  C   UNL     1      -8.692  18.308  65.244  1.00  0.00     1.998 C  
HETATM    6  O   UNL     1      -9.924  19.087  64.970  1.00  0.00     0.733 OA 
HETATM    7  C   UNL     1      -8.183  14.534  69.181  1.00  0.00    -0.017 C  
HETATM    8  C   UNL     1      -7.726  19.129  65.734  1.00  0.00    -0.098 C  
HETATM    9  C   UNL     1      -6.973  17.370  65.408  1.00  0.00     0.960 C  
HETATM   10  C   UNL     1      -7.281  20.525  65.306  1.00  0.00    -0.035 C  
HETATM   11  C   UNL     1      -9.478  15.045  68.412  1.00  0.00    -0.201 C  
HETATM   12  C   UNL     1     -10.050  13.770  67.816  1.00  0.00    -0.245 C  
HETATM   13  H   UNL     1     -10.400  18.985  64.154  1.00  0.00     0.000 HD 
HETATM   14  C   UNL     1      -7.946  16.042  66.211  1.00  0.00    -0.014 C  
HETATM   15  C   UNL     1     -10.929  13.021  68.525  1.00  0.00    -0.290 C  
HETATM   16  O   UNL     1      -8.682  15.398  65.162  1.00  0.00     0.794 OA 
HETATM   17  C   UNL     1      -8.990  16.326  67.597  1.00  0.00    -0.192 C  
HETATM   18  C   UNL     1      -9.999  17.569  67.300  1.00  0.00    -0.312 C  
HETATM   19  F   UNL     1      -8.239  16.834  68.685  1.00  0.00    -0.207 F  
HETATM   20  H   UNL     1      -9.187  14.709  65.578  1.00  0.00     0.000 HD 
HETATM   21  C   UNL     1     -11.003  17.757  68.451  1.00  0.00     0.073 C  
HETATM   22  C   UNL     1     -11.600  16.434  68.896  1.00  0.00    -0.147 C  
HETATM   23  C   UNL     1     -10.527  15.521  69.447  1.00  0.00    -0.253 C  
HETATM   24  F   UNL     1     -12.541  16.703  69.845  1.00  0.00     0.608 F  
HETATM   25  C   UNL     1     -10.842  14.701  70.472  1.00  0.00     0.117 C  
HETATM   26  C   UNL     1     -11.447  13.454  69.875  1.00  0.00    -0.111 C  
HETATM   27  O   UNL     1     -12.275  12.795  70.489  1.00  0.00    -0.368 OA 
ENDROOT
BRANCH   5  28
HETATM   28  C   UNL     1      -8.269  18.470  63.576  1.00  0.00    14.577 C  
HETATM   29  C   UNL     1      -7.224  19.511  63.195  1.00  0.00     5.012 C  
HETATM   30  O   UNL     1      -8.703  17.804  62.622  1.00  0.00    20.714 OA 
HETATM   31 CL   UNL     1      -5.645  19.093  63.859  1.00  0.00    -0.336 Cl 
ENDBRANCH   5  28
TORSDOF 1
ENDMDL
MODEL      111
REMARK 921   NORMALIZED FREE ENERGY PREDICTED BY IDOCK:   55.92 KCAL/MOL
REMARK 922        TOTAL FREE ENERGY PREDICTED BY IDOCK:   60.41 KCAL/MOL
REMARK 923 INTER-LIGAND FREE ENERGY PREDICTED BY IDOCK:   55.01 KCAL/MOL
REMARK 924 INTRA-LIGAND FREE ENERGY PREDICTED BY IDOCK:    5.41 KCAL/MOL
REMARK 927      BINDING AFFINITY PREDICTED BY RF-SCORE:    0.00 PKD
ROOT
HETATM    1  C   UNL     1     -10.750  14.941  66.418  1.00  0.00    -0.316 C  
HETATM    2  C   UNL     1     -10.005  15.843  65.628  1.00  0.00    -0.368 C  
HETATM    3  C   UNL     1      -9.146  14.672  66.058  1.00  0.00    -0.022 C  
HETATM    4  C   UNL     1      -7.941  14.854  64.897  1.00  0.00     8.573 C  
HETATM    5  C   UNL     1     -10.157  13.104  66.973  1.00  0.00    -0.241 C  
HETATM    6  O   UNL     1     -11.638  13.081  67.043  1.00  0.00    -0.321 OA 
HETATM    7  C   UNL     1      -6.960  16.782  69.473  1.00  0.00    -0.089 C  
HETATM    8  C   UNL     1      -9.759  13.428  65.716  1.00  0.00    -0.147 C  
HETATM    9  C   UNL     1      -8.210  12.925  66.772  1.00  0.00     0.084 C  
HETATM   10  C   UNL     1     -10.259  12.961  64.351  1.00  0.00    -0.342 C  
HETATM   11  C   UNL     1      -8.422  16.278  69.840  1.00  0.00     0.812 C  
HETATM   12  C   UNL     1      -8.263  15.764  71.260  1.00  0.00     4.433 C  
HETATM   13  H   UNL     1     -12.101  12.364  67.462  1.00  0.00     0.000 HD 
HETATM   14  C   UNL     1      -8.114  13.858  68.344  1.00  0.00    -0.145 C  
HETATM   15  C   UNL     1      -8.433  16.605  72.311  1.00  0.00    13.885 C  
HETATM   16  O   UNL     1      -8.518  12.946  69.374  1.00  0.00     0.147 OA 
HETATM   17  C   UNL     1      -8.887  15.420  68.579  1.00  0.00    -0.183 C  
HETATM   18  C   UNL     1     -10.454  15.345  68.143  1.00  0.00    -0.247 C  
HETATM   19  F   UNL     1      -8.387  16.363  67.649  1.00  0.00    -0.159 F  
HETATM   20  H   UNL     1      -8.468  13.431  70.190  1.00  0.00     0.000 HD 
HETATM   21  C   UNL     1     -11.180  16.666  68.453  1.00  0.00    -0.239 C  
HETATM   22  C   UNL     1     -10.841  17.180  69.841  1.00  0.00     0.324 C  
HETATM   23  C   UNL     1      -9.367  17.500  69.948  1.00  0.00     1.324 C  
HETATM   24  F   UNL     1     -11.597  18.292  70.066  1.00  0.00     2.561 F  
HETATM   25  C   UNL     1      -8.988  18.544  70.715  1.00  0.00     4.538 C  
HETATM   26  C   UNL     1      -8.871  18.037  72.131  1.00  0.00    15.145 C  
HETATM   27  O   UNL     1      -9.066  18.776  73.087  1.00  0.00     6.784 OA 
ENDROOT
BRANCH   5  28
HETATM   28  C   UNL     1     -10.184  11.391  66.743  1.00  0.00    -0.223 C  
HETATM   29  C   UNL     1     -10.746  10.849  65.434  1.00  0.00    -0.119 C  
HETATM   30  O   UNL     1      -9.764  10.521  67.522  1.00  0.00    -0.162 OA 
HETATM   31 CL   UNL     1      -9.730  11.313  64.070  1.00  0.00    -0.280 Cl 
ENDBRANCH   5  28
TORSDOF 1
ENDMDL
MODEL      112
REMARK 921   NORMALIZED FREE ENERGY PREDICTED BY IDOCK:   60.48 KCAL/MOL
REMARK 922        TOTAL FREE ENERGY PREDICTED BY IDOCK:   65.25 KCAL/MOL
REMARK 923 INTER-LIGAND FREE ENERGY PREDICTED BY IDOCK:   61.57 KCAL/MOL
REMARK 924 INTRA-LIGAND FREE ENERGY PREDICTED BY IDOCK:    3.68 KCAL/MOL
REMARK 927      BINDING AFFINITY PREDICTED BY RF-SCORE:    0.00 PKD
ROOT
HETATM    1  C   UNL     1     -12.707  16.706  70.941  1.00  0.00     2.650 C  
HETATM    2  C   UNL     1     -13.142  15.571  70.224  1.00  0.00    -0.033 C  
HETATM    3  C   UNL     1     -11.735  15.367  70.747  1.00  0.00    -0.385 C  
HETATM    4  C   UNL     1     -11.704  13.689  70.624  1.00  0.00    -0.104 C  
HETATM    5  C   UNL     1     -11.052  16.813  72.074  1.00  0.00     1.086 C  
HETATM    6  O   UNL     1     -11.954  17.873  72.588  1.00  0.00     1.515 OA 
HETATM    7  C   UNL     1      -9.533  16.258  66.841  1.00  0.00    -0.245 C  
HETATM    8  C   UNL     1     -11.668  15.605  72.153  1.00  0.00    -0.576 C  
HETATM    9  C   UNL     1      -9.819  15.352  71.620  1.00  0.00     2.603 C  
HETATM   10  C   UNL     1     -12.505  14.974  73.263  1.00  0.00    -0.570 C  
HETATM   11  C   UNL     1     -10.005  17.549  67.640  1.00  0.00    -0.309 C  
HETATM   12  C   UNL     1      -8.841  18.509  67.461  1.00  0.00    -0.276 C  
HETATM   13  H   UNL     1     -11.642  18.535  73.194  1.00  0.00     0.000 HD 
HETATM   14  C   UNL     1      -9.370  16.383  70.175  1.00  0.00     1.161 C  
HETATM   15  C   UNL     1      -8.805  19.344  66.394  1.00  0.00    -0.385 C  
HETATM   16  O   UNL     1      -8.577  17.463  70.686  1.00  0.00     3.822 OA 
HETATM   17  C   UNL     1     -10.556  16.992  69.029  1.00  0.00    -0.314 C  
HETATM   18  C   UNL     1     -11.768  17.743  69.815  1.00  0.00     3.870 C  
HETATM   19  F   UNL     1     -11.248  15.919  68.417  1.00  0.00    -0.296 F  
HETATM   20  H   UNL     1      -8.344  17.998  69.936  1.00  0.00     0.000 HD 
HETATM   21  C   UNL     1     -12.755  18.389  68.827  1.00  0.00     9.263 C  
HETATM   22  C   UNL     1     -12.033  19.144  67.725  1.00  0.00     2.624 C  
HETATM   23  C   UNL     1     -11.193  18.202  66.892  1.00  0.00     0.557 C  
HETATM   24  F   UNL     1     -12.977  19.759  66.958  1.00  0.00     2.452 F  
HETATM   25  C   UNL     1     -11.070  18.445  65.571  1.00  0.00     0.576 C  
HETATM   26  C   UNL     1      -9.940  19.430  65.402  1.00  0.00     0.609 C  
HETATM   27  O   UNL     1      -9.920  20.219  64.468  1.00  0.00     1.306 OA 
ENDROOT
BRANCH   5  28
HETATM   28  C   UNL     1     -10.299  16.760  73.629  1.00  0.00     7.537 C  
HETATM   29  C   UNL     1      -9.813  15.413  74.149  1.00  0.00    10.109 C  
HETATM   30  O   UNL     1     -10.071  17.717  74.387  1.00  0.00     5.727 OA 
HETATM   31 CL   UNL     1      -8.491  14.794  73.160  1.00  0.00     7.596 Cl 
ENDBRANCH   5  28
TORSDOF 1
ENDMDL
MODEL      113
REMARK 921   NORMALIZED FREE ENERGY PREDICTED BY IDOCK:   62.85 KCAL/MOL
REMARK 922        TOTAL FREE ENERGY PREDICTED BY IDOCK:   67.76 KCAL/MOL
REMARK 923 INTER-LIGAND FREE ENERGY PREDICTED BY IDOCK:   64.31 KCAL/MOL
REMARK 924 INTRA-LIGAND FREE ENERGY PREDICTED BY IDOCK:    3.45 KCAL/MOL
REMARK 927      BINDING AFFINITY PREDICTED BY RF-SCORE:    0.00 PKD
ROOT
HETATM    1  C   UNL     1      -9.352  15.792  70.592  1.00  0.00     1.573 C  
HETATM    2  C   UNL     1      -8.262  16.518  71.119  1.00  0.00     6.002 C  
HETATM    3  C   UNL     1      -9.572  17.045  71.667  1.00  0.00     7.282 C  
HETATM    4  C   UNL     1      -8.936  17.847  73.003  1.00  0.00    14.282 C  
HETATM    5  C   UNL     1     -11.253  15.902  71.232  1.00  0.00    -0.264 C  
HETATM    6  O   UNL     1     -11.134  14.581  70.568  1.00  0.00    -0.484 OA 
HETATM    7  C   UNL     1      -9.919  20.692  68.934  1.00  0.00     0.343 C  
HETATM    8  C   UNL     1     -10.350  15.994  72.243  1.00  0.00     3.203 C  
HETATM    9  C   UNL     1     -11.524  17.540  72.284  1.00  0.00     1.759 C  
HETATM   10  C   UNL     1      -9.943  14.993  73.321  1.00  0.00     6.013 C  
HETATM   11  C   UNL     1     -10.363  19.322  68.262  1.00  0.00    -0.478 C  
HETATM   12  C   UNL     1     -11.577  19.719  67.440  1.00  0.00     0.921 C  
HETATM   13  H   UNL     1     -11.902  14.059  70.369  1.00  0.00     0.000 HD 
HETATM   14  C   UNL     1     -11.608  18.387  70.664  1.00  0.00     6.024 C  
HETATM   15  C   UNL     1     -11.425  20.144  66.162  1.00  0.00     1.116 C  
HETATM   16  O   UNL     1     -12.876  18.035  70.094  1.00  0.00    10.636 OA 
HETATM   17  C   UNL     1     -10.342  18.258  69.450  1.00  0.00     0.291 C  
HETATM   18  C   UNL     1      -9.982  16.694  69.173  1.00  0.00    -0.263 C  
HETATM   19  F   UNL     1      -9.113  18.736  69.966  1.00  0.00     0.630 F  
HETATM   20  H   UNL     1     -12.919  18.475  69.253  1.00  0.00     0.000 HD 
HETATM   21  C   UNL     1      -8.964  16.553  68.029  1.00  0.00    -0.204 C  
HETATM   22  C   UNL     1      -9.325  17.430  66.844  1.00  0.00    -0.263 C  
HETATM   23  C   UNL     1      -9.292  18.892  67.230  1.00  0.00    -0.324 C  
HETATM   24  F   UNL     1      -8.431  17.171  65.848  1.00  0.00    -0.284 F  
HETATM   25  C   UNL     1      -8.881  19.792  66.312  1.00  0.00    -0.417 C  
HETATM   26  C   UNL     1     -10.082  20.153  65.473  1.00  0.00    -0.035 C  
HETATM   27  O   UNL     1      -9.960  20.494  64.305  1.00  0.00     1.941 OA 
ENDROOT
BRANCH   5  28
HETATM   28  C   UNL     1     -12.552  15.264  72.176  1.00  0.00    -0.351 C  
HETATM   29  C   UNL     1     -13.116  16.123  73.301  1.00  0.00    -0.476 C  
HETATM   30  O   UNL     1     -13.121  14.170  72.030  1.00  0.00    -0.342 OA 
HETATM   31 CL   UNL     1     -13.899  17.567  72.661  1.00  0.00     6.478 Cl 
ENDBRANCH   5  28
TORSDOF 1
ENDMDL
MODEL      114
REMARK 921   NORMALIZED FREE ENERGY PREDICTED BY IDOCK:   72.58 KCAL/MOL
REMARK 922        TOTAL FREE ENERGY PREDICTED BY IDOCK:   78.05 KCAL/MOL
REMARK 923 INTER-LIGAND FREE ENERGY PREDICTED BY IDOCK:   74.97 KCAL/MOL
REMARK 924 INTRA-LIGAND FREE ENERGY PREDICTED BY IDOCK:    3.07 KCAL/MOL
REMARK 927      BINDING AFFINITY PREDICTED BY RF-SCORE:    0.00 PKD
ROOT
HETATM    1  C   UNL     1      -9.018  15.890  67.665  1.00  0.00    -0.193 C  
HETATM    2  C   UNL     1      -8.088  14.995  68.235  1.00  0.00    -0.133 C  
HETATM    3  C   UNL     1      -7.688  15.353  66.818  1.00  0.00    -0.045 C  
HETATM    4  C   UNL     1      -6.073  14.891  66.930  1.00  0.00     1.318 C  
HETATM    5  C   UNL     1      -8.778  16.888  65.938  1.00  0.00    -0.023 C  
HETATM    6  O   UNL     1      -9.765  17.675  66.717  1.00  0.00    -0.276 OA 
HETATM    7  C   UNL     1      -9.223  11.548  64.804  1.00  0.00     0.020 C  
HETATM    8  C   UNL     1      -7.623  16.769  66.643  1.00  0.00    -0.311 C  
HETATM    9  C   UNL     1      -7.366  16.052  64.857  1.00  0.00     8.379 C  
HETATM   10  C   UNL     1      -6.832  17.790  67.456  1.00  0.00    -0.189 C  
HETATM   11  C   UNL     1     -10.349  12.626  65.118  1.00  0.00    -0.312 C  
HETATM   12  C   UNL     1     -11.246  12.554  63.895  1.00  0.00    -0.496 C  
HETATM   13  H   UNL     1     -10.264  18.376  66.314  1.00  0.00     0.000 HD 
HETATM   14  C   UNL     1      -8.642  14.814  64.420  1.00  0.00     8.012 C  
HETATM   15  C   UNL     1     -12.281  11.679  63.859  1.00  0.00    -0.274 C  
HETATM   16  O   UNL     1      -9.538  15.469  63.512  1.00  0.00     5.169 OA 
HETATM   17  C   UNL     1      -9.553  13.912  65.623  1.00  0.00    -0.035 C  
HETATM   18  C   UNL     1     -10.202  14.927  66.718  1.00  0.00    -0.259 C  
HETATM   19  F   UNL     1      -8.678  13.152  66.437  1.00  0.00    -0.135 F  
HETATM   20  H   UNL     1     -10.201  14.827  63.284  1.00  0.00     0.000 HD 
HETATM   21  C   UNL     1     -11.103  14.172  67.711  1.00  0.00    -0.292 C  
HETATM   22  C   UNL     1     -12.021  13.192  67.002  1.00  0.00    -0.355 C  
HETATM   23  C   UNL     1     -11.219  12.122  66.296  1.00  0.00    -0.382 C  
HETATM   24  F   UNL     1     -12.843  12.642  67.940  1.00  0.00     0.517 F  
HETATM   25  C   UNL     1     -11.723  10.871  66.237  1.00  0.00     1.037 C  
HETATM   26  C   UNL     1     -12.645  10.817  65.044  1.00  0.00     4.796 C  
HETATM   27  O   UNL     1     -13.608  10.064  65.020  1.00  0.00    11.484 OA 
ENDROOT
BRANCH   5  28
HETATM   28  C   UNL     1      -8.354  18.335  65.094  1.00  0.00     2.375 C  
HETATM   29  C   UNL     1      -7.588  18.207  63.783  1.00  0.00    10.443 C  
HETATM   30  O   UNL     1      -8.629  19.502  65.417  1.00  0.00    -0.105 OA 
HETATM   31 CL   UNL     1      -8.574  17.425  62.549  1.00  0.00    25.238 Cl 
ENDBRANCH   5  28
TORSDOF 1
ENDMDL
MODEL      115
REMARK 921   NORMALIZED FREE ENERGY PREDICTED BY IDOCK:   83.10 KCAL/MOL
REMARK 922        TOTAL FREE ENERGY PREDICTED BY IDOCK:   89.19 KCAL/MOL
REMARK 923 INTER-LIGAND FREE ENERGY PREDICTED BY IDOCK:   87.16 KCAL/MOL
REMARK 924 INTRA-LIGAND FREE ENERGY PREDICTED BY IDOCK:    2.03 KCAL/MOL
REMARK 927      BINDING AFFINITY PREDICTED BY RF-SCORE:    0.00 PKD
ROOT
HETATM    1  C   UNL     1     -11.625  13.225  66.541  1.00  0.00    -0.392 C  
HETATM    2  C   UNL     1     -11.802  14.599  66.813  1.00  0.00    -0.334 C  
HETATM    3  C   UNL     1     -10.377  14.317  66.384  1.00  0.00    -0.287 C  
HETATM    4  C   UNL     1      -9.966  15.895  65.965  1.00  0.00    -0.360 C  
HETATM    5  C   UNL     1     -10.019  12.403  65.658  1.00  0.00    -0.244 C  
HETATM    6  O   UNL     1     -11.129  11.447  65.431  1.00  0.00    -0.231 OA 
HETATM    7  C   UNL     1      -8.504  14.337  70.554  1.00  0.00     2.563 C  
HETATM    8  C   UNL     1     -10.341  13.617  65.140  1.00  0.00    -0.381 C  
HETATM    9  C   UNL     1      -8.493  13.639  65.731  1.00  0.00     1.797 C  
HETATM   10  C   UNL     1     -10.993  14.003  63.815  1.00  0.00     0.710 C  
HETATM   11  C   UNL     1      -9.243  12.983  70.171  1.00  0.00     3.964 C  
HETATM   12  C   UNL     1      -8.332  11.916  70.754  1.00  0.00     6.906 C  
HETATM   13  H   UNL     1     -10.966  10.571  65.099  1.00  0.00     0.000 HD 
HETATM   14  C   UNL     1      -8.316  13.079  67.466  1.00  0.00    -0.184 C  
HETATM   15  C   UNL     1      -8.506  11.496  72.031  1.00  0.00    15.245 C  
HETATM   16  O   UNL     1      -7.781  11.750  67.402  1.00  0.00    -0.133 OA 
HETATM   17  C   UNL     1      -9.629  13.148  68.633  1.00  0.00    -0.029 C  
HETATM   18  C   UNL     1     -10.966  12.450  68.020  1.00  0.00    -0.262 C  
HETATM   19  F   UNL     1     -10.069  14.484  68.802  1.00  0.00    -0.217 F  
HETATM   20  H   UNL     1      -7.689  11.458  68.302  1.00  0.00     0.000 HD 
HETATM   21  C   UNL     1     -12.091  12.391  69.068  1.00  0.00    -0.185 C  
HETATM   22  C   UNL     1     -11.580  11.913  70.415  1.00  0.00     0.033 C  
HETATM   23  C   UNL     1     -10.562  12.880  70.976  1.00  0.00     4.935 C  
HETATM   24  F   UNL     1     -12.652  11.800  71.249  1.00  0.00    -0.442 F  
HETATM   25  C   UNL     1     -10.520  13.071  72.311  1.00  0.00    11.246 C  
HETATM   26  C   UNL     1      -9.647  11.984  72.889  1.00  0.00    23.735 C  
HETATM   27  O   UNL     1      -9.824  11.566  74.025  1.00  0.00    18.172 OA 
ENDROOT
BRANCH   5  28
HETATM   28  C   UNL     1      -9.247  11.777  64.245  1.00  0.00     0.256 C  
HETATM   29  C   UNL     1      -7.755  11.472  64.313  1.00  0.00     1.783 C  
HETATM   30  O   UNL     1      -9.777  11.509  63.154  1.00  0.00    -0.366 OA 
HETATM   31 CL   UNL     1      -7.431  10.151  65.435  1.00  0.00    -0.139 Cl 
ENDBRANCH   5  28
TORSDOF 1
ENDMDL
