MODEL        1
REMARK 921   NORMALIZED FREE ENERGY PREDICTED BY IDOCK:   -8.18 KCAL/MOL
REMARK 922        TOTAL FREE ENERGY PREDICTED BY IDOCK:  -12.03 KCAL/MOL
REMARK 923 INTER-LIGAND FREE ENERGY PREDICTED BY IDOCK:  -10.57 KCAL/MOL
REMARK 924 INTRA-LIGAND FREE ENERGY PREDICTED BY IDOCK:   -1.46 KCAL/MOL
REMARK 927      BINDING AFFINITY PREDICTED BY RF-SCORE:    0.00 PKD
ROOT
HETATM    1  O   UNL     1     -11.914  14.948  67.497  1.00  0.00    -0.456 OA 
HETATM    2  C   UNL     1     -11.041  13.784  67.394  1.00  0.00    -0.296 C  
HETATM    3  H   UNL     1     -11.647  15.500  66.772  1.00  0.00     0.000 HD 
HETATM    4  C   UNL     1      -9.589  14.436  67.585  1.00  0.00    -0.214 C  
HETATM    5  C   UNL     1     -11.356  13.200  65.985  1.00  0.00    -0.337 A  
HETATM    6  C   UNL     1     -11.478  12.882  68.582  1.00  0.00    -0.346 A  
HETATM    7  C   UNL     1      -9.504  15.179  68.955  1.00  0.00    -0.213 C  
HETATM    8  C   UNL     1     -12.390  13.749  65.186  1.00  0.00    -0.476 A  
HETATM    9  C   UNL     1     -11.320  11.488  68.603  1.00  0.00    -0.330 A  
HETATM   10  C   UNL     1     -12.783  13.185  63.967  1.00  0.00    -0.131 A  
HETATM   11  C   UNL     1     -11.736  10.722  69.703  1.00  0.00    -0.395 A  
HETATM   12  C   UNL     1      -8.204  15.936  69.150  1.00  0.00    -0.240 C  
HETATM   13  C   UNL     1     -12.305  11.328  70.816  1.00  0.00    -0.495 A  
HETATM   14  C   UNL     1     -12.138  12.054  63.490  1.00  0.00    -0.628 A  
HETATM   15  N   UNL     1      -7.326  15.770  67.922  1.00  0.00    -0.128 N  
HETATM   16  C   UNL     1     -12.475  12.705  70.833  1.00  0.00    -0.368 A  
HETATM   17  C   UNL     1     -10.690  12.086  65.441  1.00  0.00    -0.330 A  
HETATM   18  C   UNL     1      -8.052  16.271  66.678  1.00  0.00    -0.288 C  
HETATM   19  C   UNL     1      -7.040  14.268  67.740  1.00  0.00    -0.177 C  
HETATM   20  C   UNL     1     -11.083  11.516  64.217  1.00  0.00    -0.385 A  
HETATM   21  C   UNL     1     -12.071  13.462  69.732  1.00  0.00    -0.374 A  
HETATM   22  C   UNL     1      -9.344  15.499  66.478  1.00  0.00    -0.311 C  
HETATM   23  C   UNL     1      -8.368  13.491  67.566  1.00  0.00    -0.185 C  
ENDROOT
BRANCH  15  24
HETATM   24  C   UNL     1      -5.988  16.543  68.114  1.00  0.00    -0.116 C  
BRANCH  24  25
HETATM   25  C   UNL     1      -6.061  17.626  69.211  1.00  0.00    -0.233 C  
BRANCH  25  26
HETATM   26  O   UNL     1      -6.172  18.917  68.629  1.00  0.00    -0.215 OA 
BRANCH  26  27
HETATM   27  C   UNL     1      -7.275  19.638  69.194  1.00  0.00    -0.327 C  
BRANCH  27  28
HETATM   28  C   UNL     1      -8.412  19.568  68.221  1.00  0.00    -0.376 A  
HETATM   29  C   UNL     1      -9.670  19.107  68.633  1.00  0.00    -0.478 A  
HETATM   30  C   UNL     1     -10.716  19.002  67.718  1.00  0.00    -0.441 A  
HETATM   31  C   UNL     1     -10.512  19.353  66.383  1.00  0.00    -0.581 A  
HETATM   32  C   UNL     1      -9.265  19.810  65.963  1.00  0.00    -0.338 A  
HETATM   33  C   UNL     1      -8.217  19.914  66.875  1.00  0.00    -0.358 A  
ENDBRANCH  27  28
ENDBRANCH  26  27
ENDBRANCH  25  26
ENDBRANCH  24  25
ENDBRANCH  15  24
TORSDOF 5
ENDMDL
MODEL        2
REMARK 921   NORMALIZED FREE ENERGY PREDICTED BY IDOCK:   -7.06 KCAL/MOL
REMARK 922        TOTAL FREE ENERGY PREDICTED BY IDOCK:  -10.59 KCAL/MOL
REMARK 923 INTER-LIGAND FREE ENERGY PREDICTED BY IDOCK:  -10.18 KCAL/MOL
REMARK 924 INTRA-LIGAND FREE ENERGY PREDICTED BY IDOCK:   -0.41 KCAL/MOL
REMARK 927      BINDING AFFINITY PREDICTED BY RF-SCORE:    0.00 PKD
ROOT
HETATM    1  O   UNL     1     -12.119  11.904  66.890  1.00  0.00    -0.599 OA 
HETATM    2  C   UNL     1     -10.782  11.960  67.471  1.00  0.00    -0.225 C  
HETATM    3  H   UNL     1     -12.044  12.420  66.095  1.00  0.00     0.000 HD 
HETATM    4  C   UNL     1     -10.599  13.530  67.740  1.00  0.00    -0.252 C  
HETATM    5  C   UNL     1      -9.867  11.336  66.376  1.00  0.00    -0.243 A  
HETATM    6  C   UNL     1     -10.904  11.117  68.771  1.00  0.00    -0.256 A  
HETATM    7  C   UNL     1     -11.728  14.054  68.682  1.00  0.00    -0.389 C  
HETATM    8  C   UNL     1     -10.423  10.777  65.198  1.00  0.00    -0.299 A  
HETATM    9  C   UNL     1      -9.824  10.457  69.377  1.00  0.00    -0.235 A  
HETATM   10  C   UNL     1      -9.651  10.105  64.243  1.00  0.00    -0.354 A  
HETATM   11  C   UNL     1      -9.994   9.706  70.551  1.00  0.00    -0.318 A  
HETATM   12  C   UNL     1     -11.700  15.558  68.876  1.00  0.00    -0.370 C  
HETATM   13  C   UNL     1     -11.240   9.608  71.159  1.00  0.00    -0.454 A  
HETATM   14  C   UNL     1      -8.283   9.984  64.425  1.00  0.00    -0.165 A  
HETATM   15  N   UNL     1     -10.562  16.158  68.070  1.00  0.00    -0.293 N  
HETATM   16  C   UNL     1     -12.330  10.250  70.590  1.00  0.00    -0.416 A  
HETATM   17  C   UNL     1      -8.469  11.240  66.496  1.00  0.00    -0.171 A  
HETATM   18  C   UNL     1     -10.719  15.815  66.592  1.00  0.00    -0.287 C  
HETATM   19  C   UNL     1      -9.244  15.537  68.570  1.00  0.00    -0.197 C  
HETATM   20  C   UNL     1      -7.690  10.564  65.540  1.00  0.00    -0.127 A  
HETATM   21  C   UNL     1     -12.161  10.985  69.416  1.00  0.00    -0.389 A  
HETATM   22  C   UNL     1     -10.730  14.308  66.402  1.00  0.00    -0.297 C  
HETATM   23  C   UNL     1      -9.282  13.999  68.395  1.00  0.00    -0.196 C  
ENDROOT
BRANCH  15  24
HETATM   24  C   UNL     1     -10.526  17.703  68.264  1.00  0.00    -0.375 C  
BRANCH  24  25
HETATM   25  C   UNL     1     -10.531  18.485  66.934  1.00  0.00    -0.396 C  
BRANCH  25  26
HETATM   26  O   UNL     1      -9.784  19.686  67.061  1.00  0.00    -0.322 OA 
BRANCH  26  27
HETATM   27  C   UNL     1      -8.488  19.546  66.465  1.00  0.00    -0.342 C  
BRANCH  27  28
HETATM   28  C   UNL     1      -7.469  19.954  67.485  1.00  0.00    -0.314 A  
HETATM   29  C   UNL     1      -6.553  20.977  67.203  1.00  0.00    -0.424 A  
HETATM   30  C   UNL     1      -5.579  21.326  68.136  1.00  0.00    -0.337 A  
HETATM   31  C   UNL     1      -5.509  20.654  69.356  1.00  0.00    -0.389 A  
HETATM   32  C   UNL     1      -6.412  19.634  69.645  1.00  0.00    -0.371 A  
HETATM   33  C   UNL     1      -7.387  19.281  68.714  1.00  0.00    -0.381 A  
ENDBRANCH  27  28
ENDBRANCH  26  27
ENDBRANCH  25  26
ENDBRANCH  24  25
ENDBRANCH  15  24
TORSDOF 5
ENDMDL
MODEL        3
REMARK 921   NORMALIZED FREE ENERGY PREDICTED BY IDOCK:   -6.87 KCAL/MOL
REMARK 922        TOTAL FREE ENERGY PREDICTED BY IDOCK:  -10.34 KCAL/MOL
REMARK 923 INTER-LIGAND FREE ENERGY PREDICTED BY IDOCK:   -8.93 KCAL/MOL
REMARK 924 INTRA-LIGAND FREE ENERGY PREDICTED BY IDOCK:   -1.41 KCAL/MOL
REMARK 927      BINDING AFFINITY PREDICTED BY RF-SCORE:    0.00 PKD
ROOT
HETATM    1  O   UNL     1      -9.486  14.051  69.068  1.00  0.00    -0.396 OA 
HETATM    2  C   UNL     1     -10.607  14.883  68.647  1.00  0.00    -0.251 C  
HETATM    3  H   UNL     1      -8.840  14.172  68.383  1.00  0.00     0.000 HD 
HETATM    4  C   UNL     1     -11.017  14.210  67.251  1.00  0.00    -0.304 C  
HETATM    5  C   UNL     1     -10.004  16.318  68.571  1.00  0.00    -0.234 A  
HETATM    6  C   UNL     1     -11.664  14.683  69.768  1.00  0.00    -0.361 A  
HETATM    7  C   UNL     1     -11.381  12.707  67.459  1.00  0.00    -0.361 C  
HETATM    8  C   UNL     1      -8.672  16.568  68.987  1.00  0.00    -0.215 A  
HETATM    9  C   UNL     1     -12.651  15.628  70.088  1.00  0.00    -0.243 A  
HETATM   10  C   UNL     1      -8.128  17.856  69.045  1.00  0.00    -0.051 A  
HETATM   11  C   UNL     1     -13.580  15.394  71.114  1.00  0.00    -0.536 A  
HETATM   12  C   UNL     1     -11.652  11.968  66.163  1.00  0.00    -0.304 C  
HETATM   13  C   UNL     1     -13.558  14.207  71.836  1.00  0.00    -0.504 A  
HETATM   14  C   UNL     1      -8.897  18.946  68.668  1.00  0.00    -0.374 A  
HETATM   15  N   UNL     1     -11.477  12.913  64.988  1.00  0.00    -0.305 N  
HETATM   16  C   UNL     1     -12.598  13.249  71.546  1.00  0.00    -0.311 A  
HETATM   17  C   UNL     1     -10.733  17.443  68.145  1.00  0.00    -0.343 A  
HETATM   18  C   UNL     1     -10.069  13.498  64.982  1.00  0.00    -0.256 C  
HETATM   19  C   UNL     1     -12.479  14.071  65.154  1.00  0.00    -0.452 C  
HETATM   20  C   UNL     1     -10.190  18.739  68.203  1.00  0.00    -0.433 A  
HETATM   21  C   UNL     1     -11.668  13.489  70.534  1.00  0.00    -0.144 A  
HETATM   22  C   UNL     1      -9.809  14.252  66.275  1.00  0.00    -0.323 C  
HETATM   23  C   UNL     1     -12.219  14.811  66.489  1.00  0.00    -0.026 C  
ENDROOT
BRANCH  15  24
HETATM   24  C   UNL     1     -11.754  12.162  63.652  1.00  0.00    -0.498 C  
BRANCH  24  25
HETATM   25  C   UNL     1     -10.477  11.600  62.992  1.00  0.00    -0.197 C  
BRANCH  25  26
HETATM   26  O   UNL     1     -10.147  10.335  63.548  1.00  0.00    -0.136 OA 
BRANCH  26  27
HETATM   27  C   UNL     1      -8.793  10.323  64.019  1.00  0.00    -0.221 C  
BRANCH  27  28
HETATM   28  C   UNL     1      -8.825  10.077  65.496  1.00  0.00    -0.189 A  
HETATM   29  C   UNL     1      -9.617   9.049  66.027  1.00  0.00    -0.342 A  
HETATM   30  C   UNL     1      -9.679   8.848  67.404  1.00  0.00    -0.227 A  
HETATM   31  C   UNL     1      -8.955   9.675  68.263  1.00  0.00    -0.123 A  
HETATM   32  C   UNL     1      -8.168  10.701  67.747  1.00  0.00    -0.111 A  
HETATM   33  C   UNL     1      -8.104  10.906  66.370  1.00  0.00    -0.164 A  
ENDBRANCH  27  28
ENDBRANCH  26  27
ENDBRANCH  25  26
ENDBRANCH  24  25
ENDBRANCH  15  24
TORSDOF 5
ENDMDL
MODEL        4
REMARK 921   NORMALIZED FREE ENERGY PREDICTED BY IDOCK:   -6.86 KCAL/MOL
REMARK 922        TOTAL FREE ENERGY PREDICTED BY IDOCK:  -10.33 KCAL/MOL
REMARK 923 INTER-LIGAND FREE ENERGY PREDICTED BY IDOCK:   -9.56 KCAL/MOL
REMARK 924 INTRA-LIGAND FREE ENERGY PREDICTED BY IDOCK:   -0.78 KCAL/MOL
REMARK 927      BINDING AFFINITY PREDICTED BY RF-SCORE:    0.00 PKD
ROOT
HETATM    1  O   UNL     1     -11.280   8.730  67.635  1.00  0.00    -0.407 OA 
HETATM    2  C   UNL     1     -10.042   9.314  68.137  1.00  0.00    -0.187 C  
HETATM    3  H   UNL     1     -11.254   8.905  66.701  1.00  0.00     0.000 HD 
HETATM    4  C   UNL     1     -10.229  10.864  67.769  1.00  0.00    -0.209 C  
HETATM    5  C   UNL     1      -8.924   8.552  67.364  1.00  0.00    -0.144 A  
HETATM    6  C   UNL     1     -10.084   9.029  69.664  1.00  0.00    -0.202 A  
HETATM    7  C   UNL     1     -11.520  11.428  68.441  1.00  0.00    -0.367 C  
HETATM    8  C   UNL     1      -9.244   7.472  66.503  1.00  0.00    -0.217 A  
HETATM    9  C   UNL     1      -8.941   8.922  70.470  1.00  0.00    -0.224 A  
HETATM   10  C   UNL     1      -8.267   6.687  65.880  1.00  0.00    -0.132 A  
HETATM   11  C   UNL     1      -9.040   8.659  71.846  1.00  0.00    -0.326 A  
HETATM   12  C   UNL     1     -11.838  12.853  68.031  1.00  0.00    -0.343 C  
HETATM   13  C   UNL     1     -10.280   8.512  72.454  1.00  0.00    -0.369 A  
HETATM   14  C   UNL     1      -6.925   6.968  66.084  1.00  0.00    -0.065 A  
HETATM   15  N   UNL     1     -10.794  13.347  67.045  1.00  0.00    -0.271 N  
HETATM   16  C   UNL     1     -11.433   8.614  71.689  1.00  0.00    -0.375 A  
HETATM   17  C   UNL     1      -7.553   8.839  67.500  1.00  0.00    -0.093 A  
HETATM   18  C   UNL     1     -10.749  12.440  65.820  1.00  0.00    -0.267 C  
HETATM   19  C   UNL     1      -9.420  13.291  67.737  1.00  0.00    -0.208 C  
HETATM   20  C   UNL     1      -6.568   8.051  66.878  1.00  0.00    -0.057 A  
HETATM   21  C   UNL     1     -11.331   8.863  70.319  1.00  0.00    -0.179 A  
HETATM   22  C   UNL     1     -10.414  11.017  66.234  1.00  0.00    -0.310 C  
HETATM   23  C   UNL     1      -9.105  11.840  68.178  1.00  0.00    -0.185 C  
ENDROOT
BRANCH  15  24
HETATM   24  C   UNL     1     -11.113  14.812  66.620  1.00  0.00    -0.333 C  
BRANCH  24  25
HETATM   25  C   UNL     1     -10.502  15.867  67.564  1.00  0.00    -0.298 C  
BRANCH  25  26
HETATM   26  O   UNL     1     -11.431  16.222  68.579  1.00  0.00    -0.371 OA 
BRANCH  26  27
HETATM   27  C   UNL     1     -10.855  16.049  69.880  1.00  0.00    -0.351 C  
BRANCH  27  28
HETATM   28  C   UNL     1     -11.976  15.827  70.850  1.00  0.00    -0.453 A  
HETATM   29  C   UNL     1     -11.838  16.204  72.193  1.00  0.00    -0.626 A  
HETATM   30  C   UNL     1     -12.864  15.959  73.102  1.00  0.00    -0.643 A  
HETATM   31  C   UNL     1     -14.035  15.330  72.679  1.00  0.00    -0.555 A  
HETATM   32  C   UNL     1     -14.181  14.948  71.348  1.00  0.00    -0.558 A  
HETATM   33  C   UNL     1     -13.156  15.191  70.436  1.00  0.00    -0.232 A  
ENDBRANCH  27  28
ENDBRANCH  26  27
ENDBRANCH  25  26
ENDBRANCH  24  25
ENDBRANCH  15  24
TORSDOF 5
ENDMDL
MODEL        5
REMARK 921   NORMALIZED FREE ENERGY PREDICTED BY IDOCK:   -6.64 KCAL/MOL
REMARK 922        TOTAL FREE ENERGY PREDICTED BY IDOCK:  -10.04 KCAL/MOL
REMARK 923 INTER-LIGAND FREE ENERGY PREDICTED BY IDOCK:   -9.22 KCAL/MOL
REMARK 924 INTRA-LIGAND FREE ENERGY PREDICTED BY IDOCK:   -0.82 KCAL/MOL
REMARK 927      BINDING AFFINITY PREDICTED BY RF-SCORE:    0.00 PKD
ROOT
HETATM    1  O   UNL     1      -7.826   9.035  68.658  1.00  0.00    -0.098 OA 
HETATM    2  C   UNL     1      -9.276   8.891  68.604  1.00  0.00    -0.137 C  
HETATM    3  H   UNL     1      -7.691   9.790  69.218  1.00  0.00     0.000 HD 
HETATM    4  C   UNL     1      -9.726  10.277  67.935  1.00  0.00    -0.165 C  
HETATM    5  C   UNL     1      -9.689   8.677  70.091  1.00  0.00    -0.182 A  
HETATM    6  C   UNL     1      -9.497   7.657  67.687  1.00  0.00    -0.165 A  
HETATM    7  C   UNL     1      -9.049  10.449  66.539  1.00  0.00    -0.175 C  
HETATM    8  C   UNL     1      -8.707   8.551  71.107  1.00  0.00    -0.215 A  
HETATM    9  C   UNL     1     -10.630   6.830  67.748  1.00  0.00    -0.307 A  
HETATM   10  C   UNL     1      -9.028   8.244  72.434  1.00  0.00    -0.297 A  
HETATM   11  C   UNL     1     -10.775   5.726  66.895  1.00  0.00    -0.381 A  
HETATM   12  C   UNL     1      -9.321  11.797  65.900  1.00  0.00    -0.202 C  
HETATM   13  C   UNL     1      -9.803   5.426  65.949  1.00  0.00    -0.072 A  
HETATM   14  C   UNL     1     -10.353   8.069  72.800  1.00  0.00    -0.408 A  
HETATM   15  N   UNL     1     -10.187  12.636  66.824  1.00  0.00    -0.235 N  
HETATM   16  C   UNL     1      -8.670   6.222  65.857  1.00  0.00    -0.154 A  
HETATM   17  C   UNL     1     -11.025   8.547  70.514  1.00  0.00    -0.263 A  
HETATM   18  C   UNL     1      -9.503  12.815  68.175  1.00  0.00    -0.219 C  
HETATM   19  C   UNL     1     -11.511  11.883  67.050  1.00  0.00    -0.316 C  
HETATM   20  C   UNL     1     -11.350   8.237  71.847  1.00  0.00    -0.372 A  
HETATM   21  C   UNL     1      -8.523   7.312  66.715  1.00  0.00    -0.121 A  
HETATM   22  C   UNL     1      -9.248  11.463  68.817  1.00  0.00    -0.108 C  
HETATM   23  C   UNL     1     -11.233  10.496  67.679  1.00  0.00    -0.338 C  
ENDROOT
BRANCH  15  24
HETATM   24  C   UNL     1     -10.471  14.023  66.175  1.00  0.00    -0.297 C  
BRANCH  24  25
HETATM   25  C   UNL     1     -10.546  15.172  67.202  1.00  0.00    -0.295 C  
BRANCH  25  26
HETATM   26  O   UNL     1     -11.778  15.128  67.908  1.00  0.00    -0.338 OA 
BRANCH  26  27
HETATM   27  C   UNL     1     -11.659  15.775  69.182  1.00  0.00    -0.392 C  
BRANCH  27  28
HETATM   28  C   UNL     1     -12.345  14.914  70.198  1.00  0.00    -0.376 A  
HETATM   29  C   UNL     1     -13.215  15.482  71.138  1.00  0.00    -0.576 A  
HETATM   30  C   UNL     1     -13.820  14.686  72.109  1.00  0.00    -0.569 A  
HETATM   31  C   UNL     1     -13.557  13.317  72.151  1.00  0.00    -0.655 A  
HETATM   32  C   UNL     1     -12.692  12.742  71.223  1.00  0.00    -0.364 A  
HETATM   33  C   UNL     1     -12.085  13.536  70.252  1.00  0.00    -0.425 A  
ENDBRANCH  27  28
ENDBRANCH  26  27
ENDBRANCH  25  26
ENDBRANCH  24  25
ENDBRANCH  15  24
TORSDOF 5
ENDMDL
MODEL        6
REMARK 921   NORMALIZED FREE ENERGY PREDICTED BY IDOCK:   -6.56 KCAL/MOL
REMARK 922        TOTAL FREE ENERGY PREDICTED BY IDOCK:   -9.94 KCAL/MOL
REMARK 923 INTER-LIGAND FREE ENERGY PREDICTED BY IDOCK:   -8.58 KCAL/MOL
REMARK 924 INTRA-LIGAND FREE ENERGY PREDICTED BY IDOCK:   -1.36 KCAL/MOL
REMARK 927      BINDING AFFINITY PREDICTED BY RF-SCORE:    0.00 PKD
ROOT
HETATM    1  O   UNL     1      -8.898  11.876  67.150  1.00  0.00    -0.167 OA 
HETATM    2  C   UNL     1      -9.899  12.812  67.649  1.00  0.00    -0.214 C  
HETATM    3  H   UNL     1      -8.350  11.701  67.906  1.00  0.00     0.000 HD 
HETATM    4  C   UNL     1      -8.998  14.062  68.090  1.00  0.00    -0.183 C  
HETATM    5  C   UNL     1     -10.607  12.031  68.796  1.00  0.00    -0.237 A  
HETATM    6  C   UNL     1     -10.795  13.097  66.412  1.00  0.00    -0.299 A  
HETATM    7  C   UNL     1      -8.176  14.594  66.875  1.00  0.00    -0.110 C  
HETATM    8  C   UNL     1     -10.288  10.674  69.055  1.00  0.00    -0.237 A  
HETATM    9  C   UNL     1     -12.138  13.494  66.495  1.00  0.00    -0.460 A  
HETATM   10  C   UNL     1     -10.978   9.902  69.997  1.00  0.00    -0.338 A  
HETATM   11  C   UNL     1     -12.901  13.737  65.342  1.00  0.00    -0.455 A  
HETATM   12  C   UNL     1      -7.198  15.693  67.244  1.00  0.00    -0.217 C  
HETATM   13  C   UNL     1     -12.340  13.604  64.078  1.00  0.00    -0.382 A  
HETATM   14  C   UNL     1     -12.006  10.470  70.733  1.00  0.00    -0.472 A  
HETATM   15  N   UNL     1      -7.279  15.971  68.735  1.00  0.00    -0.146 N  
HETATM   16  C   UNL     1     -11.014  13.215  63.956  1.00  0.00    -0.377 A  
HETATM   17  C   UNL     1     -11.618  12.585  69.602  1.00  0.00    -0.323 A  
HETATM   18  C   UNL     1      -6.980  14.704  69.529  1.00  0.00    -0.165 C  
HETATM   19  C   UNL     1      -8.718  16.414  69.059  1.00  0.00    -0.233 C  
HETATM   20  C   UNL     1     -12.315  11.812  70.549  1.00  0.00    -0.387 A  
HETATM   21  C   UNL     1     -10.261  12.963  65.104  1.00  0.00    -0.288 A  
HETATM   22  C   UNL     1      -7.972  13.612  69.167  1.00  0.00     0.287 C  
HETATM   23  C   UNL     1      -9.720  15.303  68.660  1.00  0.00    -0.212 C  
ENDROOT
BRANCH  15  24
HETATM   24  C   UNL     1      -6.279  17.100  69.123  1.00  0.00    -0.212 C  
BRANCH  24  25
HETATM   25  C   UNL     1      -5.774  17.910  67.911  1.00  0.00    -0.156 C  
BRANCH  25  26
HETATM   26  O   UNL     1      -6.028  19.295  68.099  1.00  0.00    -0.211 OA 
BRANCH  26  27
HETATM   27  C   UNL     1      -6.693  19.851  66.958  1.00  0.00    -0.208 C  
BRANCH  27  28
HETATM   28  C   UNL     1      -8.161  19.596  67.116  1.00  0.00    -0.323 A  
HETATM   29  C   UNL     1      -8.847  20.069  68.243  1.00  0.00    -0.201 A  
HETATM   30  C   UNL     1     -10.202  19.795  68.409  1.00  0.00    -0.568 A  
HETATM   31  C   UNL     1     -10.884  19.041  67.454  1.00  0.00    -0.496 A  
HETATM   32  C   UNL     1     -10.212  18.563  66.331  1.00  0.00    -0.449 A  
HETATM   33  C   UNL     1      -8.856  18.835  66.162  1.00  0.00    -0.143 A  
ENDBRANCH  27  28
ENDBRANCH  26  27
ENDBRANCH  25  26
ENDBRANCH  24  25
ENDBRANCH  15  24
TORSDOF 5
ENDMDL
MODEL        7
REMARK 921   NORMALIZED FREE ENERGY PREDICTED BY IDOCK:   -6.54 KCAL/MOL
REMARK 922        TOTAL FREE ENERGY PREDICTED BY IDOCK:   -9.92 KCAL/MOL
REMARK 923 INTER-LIGAND FREE ENERGY PREDICTED BY IDOCK:   -9.05 KCAL/MOL
REMARK 924 INTRA-LIGAND FREE ENERGY PREDICTED BY IDOCK:   -0.87 KCAL/MOL
REMARK 927      BINDING AFFINITY PREDICTED BY RF-SCORE:    0.00 PKD
ROOT
HETATM    1  O   UNL     1     -12.532  14.922  67.567  1.00  0.00    -0.404 OA 
HETATM    2  C   UNL     1     -11.341  14.843  68.405  1.00  0.00    -0.303 C  
HETATM    3  H   UNL     1     -13.068  14.194  67.862  1.00  0.00     0.000 HD 
HETATM    4  C   UNL     1     -10.747  13.407  68.011  1.00  0.00    -0.261 C  
HETATM    5  C   UNL     1     -11.891  14.988  69.856  1.00  0.00    -0.362 A  
HETATM    6  C   UNL     1     -10.465  16.032  67.923  1.00  0.00    -0.292 A  
HETATM    7  C   UNL     1     -10.456  13.344  66.479  1.00  0.00    -0.283 C  
HETATM    8  C   UNL     1     -13.262  15.259  70.090  1.00  0.00     0.078 A  
HETATM    9  C   UNL     1      -9.512  16.677  68.727  1.00  0.00    -0.258 A  
HETATM   10  C   UNL     1     -13.776  15.510  71.367  1.00  0.00    -0.532 A  
HETATM   11  C   UNL     1      -8.750  17.749  68.238  1.00  0.00    -0.277 A  
HETATM   12  C   UNL     1     -10.016  11.971  66.006  1.00  0.00    -0.234 C  
HETATM   13  C   UNL     1      -8.907  18.196  66.932  1.00  0.00    -0.273 A  
HETATM   14  C   UNL     1     -12.934  15.481  72.467  1.00  0.00    -0.520 A  
HETATM   15  N   UNL     1      -9.994  11.008  67.179  1.00  0.00    -0.184 N  
HETATM   16  C   UNL     1      -9.837  17.581  66.107  1.00  0.00    -0.256 A  
HETATM   17  C   UNL     1     -11.079  14.912  71.003  1.00  0.00    -0.126 A  
HETATM   18  C   UNL     1     -11.371  10.931  67.830  1.00  0.00    -0.308 C  
HETATM   19  C   UNL     1      -8.999  11.550  68.222  1.00  0.00    -0.177 C  
HETATM   20  C   UNL     1     -11.592  15.166  72.288  1.00  0.00    -0.473 A  
HETATM   21  C   UNL     1     -10.603  16.523  66.599  1.00  0.00    -0.216 A  
HETATM   22  C   UNL     1     -11.799  12.305  68.316  1.00  0.00    -0.367 C  
HETATM   23  C   UNL     1      -9.433  12.962  68.688  1.00  0.00    -0.002 C  
ENDROOT
BRANCH  15  24
HETATM   24  C   UNL     1      -9.543   9.596  66.703  1.00  0.00    -0.187 C  
BRANCH  24  25
HETATM   25  C   UNL     1      -8.944   8.734  67.833  1.00  0.00    -0.140 C  
BRANCH  25  26
HETATM   26  O   UNL     1      -9.965   7.995  68.489  1.00  0.00    -0.180 OA 
BRANCH  26  27
HETATM   27  C   UNL     1      -9.682   7.866  69.888  1.00  0.00    -0.176 C  
BRANCH  27  28
HETATM   28  C   UNL     1     -10.894   8.320  70.644  1.00  0.00    -0.254 A  
HETATM   29  C   UNL     1     -11.853   7.391  71.070  1.00  0.00    -0.336 A  
HETATM   30  C   UNL     1     -13.000   7.819  71.735  1.00  0.00    -0.351 A  
HETATM   31  C   UNL     1     -13.201   9.178  71.976  1.00  0.00    -0.505 A  
HETATM   32  C   UNL     1     -12.255  10.110  71.554  1.00  0.00    -0.473 A  
HETATM   33  C   UNL     1     -11.108   9.686  70.887  1.00  0.00    -0.422 A  
ENDBRANCH  27  28
ENDBRANCH  26  27
ENDBRANCH  25  26
ENDBRANCH  24  25
ENDBRANCH  15  24
TORSDOF 5
ENDMDL
MODEL        8
REMARK 921   NORMALIZED FREE ENERGY PREDICTED BY IDOCK:   -6.47 KCAL/MOL
REMARK 922        TOTAL FREE ENERGY PREDICTED BY IDOCK:   -9.82 KCAL/MOL
REMARK 923 INTER-LIGAND FREE ENERGY PREDICTED BY IDOCK:   -9.26 KCAL/MOL
REMARK 924 INTRA-LIGAND FREE ENERGY PREDICTED BY IDOCK:   -0.56 KCAL/MOL
REMARK 927      BINDING AFFINITY PREDICTED BY RF-SCORE:    0.00 PKD
ROOT
HETATM    1  O   UNL     1     -11.940  14.457  67.332  1.00  0.00    -0.430 OA 
HETATM    2  C   UNL     1     -10.923  13.414  67.278  1.00  0.00    -0.272 C  
HETATM    3  H   UNL     1     -11.723  15.027  66.604  1.00  0.00     0.000 HD 
HETATM    4  C   UNL     1      -9.573  14.251  67.498  1.00  0.00    -0.216 C  
HETATM    5  C   UNL     1     -11.115  12.771  65.872  1.00  0.00    -0.318 A  
HETATM    6  C   UNL     1     -11.277  12.482  68.470  1.00  0.00    -0.322 A  
HETATM    7  C   UNL     1      -9.627  15.020  68.855  1.00  0.00    -0.221 C  
HETATM    8  C   UNL     1     -12.185  13.170  65.032  1.00  0.00    -0.488 A  
HETATM    9  C   UNL     1     -10.944  11.120  68.523  1.00  0.00    -0.267 A  
HETATM   10  C   UNL     1     -12.464  12.541  63.813  1.00  0.00    -0.552 A  
HETATM   11  C   UNL     1     -11.293  10.326  69.626  1.00  0.00    -0.315 A  
HETATM   12  C   UNL     1      -8.441  15.941  69.073  1.00  0.00    -0.242 C  
HETATM   13  C   UNL     1     -11.970  10.871  70.710  1.00  0.00    -0.449 A  
HETATM   14  C   UNL     1     -11.664  11.495  63.379  1.00  0.00    -0.194 A  
HETATM   15  N   UNL     1      -7.511  15.869  67.875  1.00  0.00    -0.125 N  
HETATM   16  C   UNL     1     -12.314  12.215  70.694  1.00  0.00    -0.385 A  
HETATM   17  C   UNL     1     -10.295  11.744  65.370  1.00  0.00    -0.311 A  
HETATM   18  C   UNL     1      -8.255  16.253  66.600  1.00  0.00    -0.281 C  
HETATM   19  C   UNL     1      -7.029  14.414  67.731  1.00  0.00    -0.176 C  
HETATM   20  C   UNL     1     -10.573  11.109  64.147  1.00  0.00    -0.436 A  
HETATM   21  C   UNL     1     -11.977  13.000  69.591  1.00  0.00    -0.367 A  
HETATM   22  C   UNL     1      -9.431  15.318  66.378  1.00  0.00    -0.326 C  
HETATM   23  C   UNL     1      -8.241  13.470  67.534  1.00  0.00    -0.186 C  
ENDROOT
BRANCH  15  24
HETATM   24  C   UNL     1      -6.290  16.812  68.090  1.00  0.00    -0.139 C  
BRANCH  24  25
HETATM   25  C   UNL     1      -6.689  18.238  68.521  1.00  0.00    -0.238 C  
BRANCH  25  26
HETATM   26  O   UNL     1      -6.110  19.200  67.650  1.00  0.00    -0.203 OA 
BRANCH  26  27
HETATM   27  C   UNL     1      -7.103  19.766  66.784  1.00  0.00    -0.219 C  
BRANCH  27  28
HETATM   28  C   UNL     1      -6.509  19.864  65.412  1.00  0.00    -0.297 A  
HETATM   29  C   UNL     1      -5.830  18.773  64.853  1.00  0.00    -0.302 A  
HETATM   30  C   UNL     1      -5.242  18.880  63.594  1.00  0.00    -0.240 A  
HETATM   31  C   UNL     1      -5.323  20.078  62.886  1.00  0.00    -0.290 A  
HETATM   32  C   UNL     1      -5.993  21.170  63.433  1.00  0.00    -0.342 A  
HETATM   33  C   UNL     1      -6.582  21.067  64.692  1.00  0.00    -0.111 A  
ENDBRANCH  27  28
ENDBRANCH  26  27
ENDBRANCH  25  26
ENDBRANCH  24  25
ENDBRANCH  15  24
TORSDOF 5
ENDMDL
MODEL        9
REMARK 921   NORMALIZED FREE ENERGY PREDICTED BY IDOCK:   -6.38 KCAL/MOL
REMARK 922        TOTAL FREE ENERGY PREDICTED BY IDOCK:   -9.71 KCAL/MOL
REMARK 923 INTER-LIGAND FREE ENERGY PREDICTED BY IDOCK:   -9.28 KCAL/MOL
REMARK 924 INTRA-LIGAND FREE ENERGY PREDICTED BY IDOCK:   -0.43 KCAL/MOL
REMARK 927      BINDING AFFINITY PREDICTED BY RF-SCORE:    0.00 PKD
ROOT
HETATM    1  O   UNL     1     -11.282   8.617  67.686  1.00  0.00    -0.380 OA 
HETATM    2  C   UNL     1     -10.041   9.268  68.091  1.00  0.00    -0.187 C  
HETATM    3  H   UNL     1     -11.326   8.771  66.749  1.00  0.00     0.000 HD 
HETATM    4  C   UNL     1     -10.324  10.798  67.705  1.00  0.00    -0.236 C  
HETATM    5  C   UNL     1      -8.944   8.538  67.261  1.00  0.00    -0.141 A  
HETATM    6  C   UNL     1      -9.969   9.016  69.623  1.00  0.00    -0.196 A  
HETATM    7  C   UNL     1     -11.592  11.320  68.450  1.00  0.00    -0.378 C  
HETATM    8  C   UNL     1      -9.270   7.425  66.446  1.00  0.00    -0.203 A  
HETATM    9  C   UNL     1      -8.771   8.979  70.353  1.00  0.00    -0.224 A  
HETATM   10  C   UNL     1      -8.301   6.670  65.775  1.00  0.00    -0.143 A  
HETATM   11  C   UNL     1      -8.767   8.746  71.737  1.00  0.00    -0.223 A  
HETATM   12  C   UNL     1     -12.001  12.720  68.034  1.00  0.00    -0.264 C  
HETATM   13  C   UNL     1      -9.956   8.558  72.430  1.00  0.00    -0.365 A  
HETATM   14  C   UNL     1      -6.963   7.015  65.881  1.00  0.00    -0.064 A  
HETATM   15  N   UNL     1     -11.050  13.237  66.970  1.00  0.00    -0.276 N  
HETATM   16  C   UNL     1     -11.160   8.590  71.742  1.00  0.00    -0.378 A  
HETATM   17  C   UNL     1      -7.581   8.889  67.298  1.00  0.00    -0.089 A  
HETATM   18  C   UNL     1     -11.044  12.303  65.764  1.00  0.00    -0.323 C  
HETATM   19  C   UNL     1      -9.631  13.258  67.568  1.00  0.00    -0.218 C  
HETATM   20  C   UNL     1      -6.605   8.131  66.627  1.00  0.00    -0.056 A  
HETATM   21  C   UNL     1     -11.161   8.811  70.364  1.00  0.00    -0.261 A  
HETATM   22  C   UNL     1     -10.617  10.907  66.183  1.00  0.00    -0.270 C  
HETATM   23  C   UNL     1      -9.221  11.833  68.017  1.00  0.00    -0.181 C  
ENDROOT
BRANCH  15  24
HETATM   24  C   UNL     1     -11.463  14.675  66.537  1.00  0.00    -0.351 C  
BRANCH  24  25
HETATM   25  C   UNL     1     -11.038  15.023  65.095  1.00  0.00    -0.401 C  
BRANCH  25  26
HETATM   26  O   UNL     1     -10.559  16.359  65.027  1.00  0.00    -0.651 OA 
BRANCH  26  27
HETATM   27  C   UNL     1      -9.486  16.563  65.956  1.00  0.00    -0.282 C  
BRANCH  27  28
HETATM   28  C   UNL     1      -9.777  17.817  66.722  1.00  0.00    -0.309 A  
HETATM   29  C   UNL     1     -10.176  18.981  66.051  1.00  0.00    -0.462 A  
HETATM   30  C   UNL     1     -10.406  20.159  66.759  1.00  0.00    -0.505 A  
HETATM   31  C   UNL     1     -10.234  20.185  68.143  1.00  0.00    -0.479 A  
HETATM   32  C   UNL     1      -9.835  19.034  68.820  1.00  0.00    -0.485 A  
HETATM   33  C   UNL     1      -9.603  17.856  68.114  1.00  0.00    -0.306 A  
ENDBRANCH  27  28
ENDBRANCH  26  27
ENDBRANCH  25  26
ENDBRANCH  24  25
ENDBRANCH  15  24
TORSDOF 5
ENDMDL
MODEL       10
REMARK 921   NORMALIZED FREE ENERGY PREDICTED BY IDOCK:   -6.36 KCAL/MOL
REMARK 922        TOTAL FREE ENERGY PREDICTED BY IDOCK:   -9.68 KCAL/MOL
REMARK 923 INTER-LIGAND FREE ENERGY PREDICTED BY IDOCK:   -9.07 KCAL/MOL
REMARK 924 INTRA-LIGAND FREE ENERGY PREDICTED BY IDOCK:   -0.61 KCAL/MOL
REMARK 927      BINDING AFFINITY PREDICTED BY RF-SCORE:    0.00 PKD
ROOT
HETATM    1  O   UNL     1     -11.209   7.679  68.751  1.00  0.00    -0.406 OA 
HETATM    2  C   UNL     1      -9.927   8.336  68.973  1.00  0.00    -0.189 C  
HETATM    3  H   UNL     1     -11.344   7.751  67.813  1.00  0.00     0.000 HD 
HETATM    4  C   UNL     1     -10.227   9.832  68.481  1.00  0.00    -0.209 C  
HETATM    5  C   UNL     1      -8.926   7.513  68.107  1.00  0.00    -0.129 A  
HETATM    6  C   UNL     1      -9.705   8.219  70.506  1.00  0.00    -0.185 A  
HETATM    7  C   UNL     1     -11.408  10.444  69.297  1.00  0.00    -0.296 C  
HETATM    8  C   UNL     1      -9.345   6.340  67.431  1.00  0.00    -0.117 A  
HETATM    9  C   UNL     1      -8.442   8.220  71.116  1.00  0.00    -0.164 A  
HETATM   10  C   UNL     1      -8.458   5.509  66.738  1.00  0.00    -0.111 A  
HETATM   11  C   UNL     1      -8.302   8.108  72.508  1.00  0.00    -0.230 A  
HETATM   12  C   UNL     1     -11.839  11.811  68.800  1.00  0.00    -0.320 C  
HETATM   13  C   UNL     1      -9.419   8.007  73.328  1.00  0.00    -0.336 A  
HETATM   14  C   UNL     1      -7.111   5.834  66.682  1.00  0.00    -0.069 A  
HETATM   15  N   UNL     1     -10.992  12.212  67.606  1.00  0.00    -0.231 N  
HETATM   16  C   UNL     1     -10.685   8.005  72.762  1.00  0.00    -0.431 A  
HETATM   17  C   UNL     1      -7.562   7.837  67.980  1.00  0.00    -0.120 A  
HETATM   18  C   UNL     1     -11.117  11.177  66.493  1.00  0.00    -0.167 C  
HETATM   19  C   UNL     1      -9.520  12.256  68.058  1.00  0.00    -0.206 C  
HETATM   20  C   UNL     1      -6.667   7.003  67.287  1.00  0.00    -0.067 A  
HETATM   21  C   UNL     1     -10.820   8.104  71.376  1.00  0.00    -0.281 A  
HETATM   22  C   UNL     1     -10.669   9.814  66.992  1.00  0.00    -0.236 C  
HETATM   23  C   UNL     1      -9.086  10.867  68.590  1.00  0.00    -0.175 C  
ENDROOT
BRANCH  15  24
HETATM   24  C   UNL     1     -11.428  13.615  67.089  1.00  0.00    -0.342 C  
BRANCH  24  25
HETATM   25  C   UNL     1     -10.652  14.775  67.746  1.00  0.00    -0.257 C  
BRANCH  25  26
HETATM   26  O   UNL     1     -11.495  15.495  68.636  1.00  0.00    -0.322 OA 
BRANCH  26  27
HETATM   27  C   UNL     1     -10.861  15.670  69.909  1.00  0.00    -0.318 C  
BRANCH  27  28
HETATM   28  C   UNL     1     -11.928  15.632  70.960  1.00  0.00    -0.445 A  
HETATM   29  C   UNL     1     -11.621  15.932  72.294  1.00  0.00    -0.501 A  
HETATM   30  C   UNL     1     -12.605  15.856  73.277  1.00  0.00    -0.640 A  
HETATM   31  C   UNL     1     -13.903  15.473  72.937  1.00  0.00    -0.536 A  
HETATM   32  C   UNL     1     -14.218  15.170  71.615  1.00  0.00    -0.664 A  
HETATM   33  C   UNL     1     -13.236  15.245  70.629  1.00  0.00    -0.370 A  
ENDBRANCH  27  28
ENDBRANCH  26  27
ENDBRANCH  25  26
ENDBRANCH  24  25
ENDBRANCH  15  24
TORSDOF 5
ENDMDL
MODEL       11
REMARK 921   NORMALIZED FREE ENERGY PREDICTED BY IDOCK:   -6.35 KCAL/MOL
REMARK 922        TOTAL FREE ENERGY PREDICTED BY IDOCK:   -9.67 KCAL/MOL
REMARK 923 INTER-LIGAND FREE ENERGY PREDICTED BY IDOCK:   -9.07 KCAL/MOL
REMARK 924 INTRA-LIGAND FREE ENERGY PREDICTED BY IDOCK:   -0.61 KCAL/MOL
REMARK 927      BINDING AFFINITY PREDICTED BY RF-SCORE:    0.00 PKD
ROOT
HETATM    1  O   UNL     1     -11.733   6.769  69.217  1.00  0.00    -0.618 OA 
HETATM    2  C   UNL     1     -10.312   7.014  69.433  1.00  0.00    -0.207 C  
HETATM    3  H   UNL     1     -11.868   6.994  68.303  1.00  0.00     0.000 HD 
HETATM    4  C   UNL     1     -10.192   8.585  69.135  1.00  0.00    -0.218 C  
HETATM    5  C   UNL     1      -9.607   6.064  68.419  1.00  0.00    -0.130 A  
HETATM    6  C   UNL     1     -10.091   6.646  70.926  1.00  0.00    -0.208 A  
HETATM    7  C   UNL     1     -11.131   9.390  70.087  1.00  0.00    -0.277 C  
HETATM    8  C   UNL     1     -10.357   5.147  67.640  1.00  0.00    -0.173 A  
HETATM    9  C   UNL     1      -8.861   6.222  71.453  1.00  0.00    -0.139 A  
HETATM   10  C   UNL     1      -9.758   4.199  66.803  1.00  0.00    -0.234 A  
HETATM   11  C   UNL     1      -8.721   5.900  72.812  1.00  0.00    -0.125 A  
HETATM   12  C   UNL     1     -11.174  10.874  69.777  1.00  0.00    -0.281 C  
HETATM   13  C   UNL     1      -9.798   6.007  73.683  1.00  0.00    -0.180 A  
HETATM   14  C   UNL     1      -8.377   4.144  66.702  1.00  0.00    -0.101 A  
HETATM   15  N   UNL     1     -10.281  11.174  68.586  1.00  0.00    -0.198 N  
HETATM   16  C   UNL     1     -11.029   6.426  73.199  1.00  0.00    -0.249 A  
HETATM   17  C   UNL     1      -8.211   6.013  68.245  1.00  0.00    -0.110 A  
HETATM   18  C   UNL     1     -10.723  10.364  67.372  1.00  0.00    -0.283 C  
HETATM   19  C   UNL     1      -8.845  10.753  68.949  1.00  0.00    -0.150 C  
HETATM   20  C   UNL     1      -7.606   5.059  67.407  1.00  0.00    -0.091 A  
HETATM   21  C   UNL     1     -11.168   6.733  71.844  1.00  0.00    -0.294 A  
HETATM   22  C   UNL     1     -10.662   8.878  67.683  1.00  0.00    -0.221 C  
HETATM   23  C   UNL     1      -8.804   9.243  69.290  1.00  0.00    -0.146 C  
ENDROOT
BRANCH  15  24
HETATM   24  C   UNL     1     -10.319  12.697  68.261  1.00  0.00    -0.241 C  
BRANCH  24  25
HETATM   25  C   UNL     1     -11.685  13.171  67.721  1.00  0.00    -0.358 C  
BRANCH  25  26
HETATM   26  O   UNL     1     -12.267  14.117  68.607  1.00  0.00    -0.313 OA 
BRANCH  26  27
HETATM   27  C   UNL     1     -11.267  14.719  69.438  1.00  0.00    -0.284 C  
BRANCH  27  28
HETATM   28  C   UNL     1     -11.858  14.904  70.803  1.00  0.00    -0.368 A  
HETATM   29  C   UNL     1     -12.762  13.966  71.317  1.00  0.00    -0.444 A  
HETATM   30  C   UNL     1     -13.343  14.160  72.568  1.00  0.00    -0.616 A  
HETATM   31  C   UNL     1     -13.029  15.297  73.314  1.00  0.00    -0.645 A  
HETATM   32  C   UNL     1     -12.134  16.237  72.811  1.00  0.00    -0.637 A  
HETATM   33  C   UNL     1     -11.552  16.046  71.559  1.00  0.00    -0.529 A  
ENDBRANCH  27  28
ENDBRANCH  26  27
ENDBRANCH  25  26
ENDBRANCH  24  25
ENDBRANCH  15  24
TORSDOF 5
ENDMDL
MODEL       12
REMARK 921   NORMALIZED FREE ENERGY PREDICTED BY IDOCK:   -6.31 KCAL/MOL
REMARK 922        TOTAL FREE ENERGY PREDICTED BY IDOCK:   -9.61 KCAL/MOL
REMARK 923 INTER-LIGAND FREE ENERGY PREDICTED BY IDOCK:   -8.89 KCAL/MOL
REMARK 924 INTRA-LIGAND FREE ENERGY PREDICTED BY IDOCK:   -0.73 KCAL/MOL
REMARK 927      BINDING AFFINITY PREDICTED BY RF-SCORE:    0.00 PKD
ROOT
HETATM    1  O   UNL     1      -8.595   9.957  70.902  1.00  0.00    -0.339 OA 
HETATM    2  C   UNL     1      -9.211   9.226  69.801  1.00  0.00    -0.181 C  
HETATM    3  H   UNL     1      -9.330  10.356  71.352  1.00  0.00     0.000 HD 
HETATM    4  C   UNL     1      -9.912  10.402  68.967  1.00  0.00    -0.224 C  
HETATM    5  C   UNL     1     -10.166   8.216  70.506  1.00  0.00    -0.207 A  
HETATM    6  C   UNL     1      -8.009   8.573  69.064  1.00  0.00    -0.113 A  
HETATM    7  C   UNL     1      -8.851  11.455  68.519  1.00  0.00    -0.151 C  
HETATM    8  C   UNL     1     -10.188   8.103  71.919  1.00  0.00    -0.289 A  
HETATM    9  C   UNL     1      -8.104   7.400  68.301  1.00  0.00    -0.125 A  
HETATM   10  C   UNL     1     -10.943   7.133  72.588  1.00  0.00    -0.325 A  
HETATM   11  C   UNL     1      -6.981   6.853  67.659  1.00  0.00    -0.083 A  
HETATM   12  C   UNL     1      -9.456  12.668  67.839  1.00  0.00    -0.204 C  
HETATM   13  C   UNL     1      -5.740   7.470  67.749  1.00  0.00    -0.035 A  
HETATM   14  C   UNL     1     -11.724   6.247  71.863  1.00  0.00    -0.370 A  
HETATM   15  N   UNL     1     -10.967  12.528  67.792  1.00  0.00    -0.225 N  
HETATM   16  C   UNL     1      -5.608   8.633  68.494  1.00  0.00    -0.038 A  
HETATM   17  C   UNL     1     -11.014   7.335  69.810  1.00  0.00    -0.235 A  
HETATM   18  C   UNL     1     -11.530  12.372  69.200  1.00  0.00    -0.302 C  
HETATM   19  C   UNL     1     -11.304  11.254  66.995  1.00  0.00    -0.187 C  
HETATM   20  C   UNL     1     -11.773   6.358  70.479  1.00  0.00    -0.385 A  
HETATM   21  C   UNL     1      -6.723   9.168  69.141  1.00  0.00    -0.050 A  
HETATM   22  C   UNL     1     -10.933  11.146  69.871  1.00  0.00    -0.162 C  
HETATM   23  C   UNL     1     -10.665  10.017  67.675  1.00  0.00    -0.340 C  
ENDROOT
BRANCH  15  24
HETATM   24  C   UNL     1     -11.597  13.770  67.094  1.00  0.00    -0.364 C  
BRANCH  24  25
HETATM   25  C   UNL     1     -10.926  15.100  67.494  1.00  0.00    -0.310 C  
BRANCH  25  26
HETATM   26  O   UNL     1     -11.701  15.771  68.478  1.00  0.00    -0.383 OA 
BRANCH  26  27
HETATM   27  C   UNL     1     -10.960  15.921  69.696  1.00  0.00    -0.319 C  
BRANCH  27  28
HETATM   28  C   UNL     1     -11.885  15.611  70.834  1.00  0.00    -0.428 A  
HETATM   29  C   UNL     1     -11.432  15.689  72.158  1.00  0.00    -0.479 A  
HETATM   30  C   UNL     1     -12.280  15.361  73.213  1.00  0.00    -0.589 A  
HETATM   31  C   UNL     1     -13.587  14.947  72.954  1.00  0.00    -0.493 A  
HETATM   32  C   UNL     1     -14.047  14.863  71.643  1.00  0.00    -0.601 A  
HETATM   33  C   UNL     1     -13.200  15.190  70.585  1.00  0.00    -0.354 A  
ENDBRANCH  27  28
ENDBRANCH  26  27
ENDBRANCH  25  26
ENDBRANCH  24  25
ENDBRANCH  15  24
TORSDOF 5
ENDMDL
MODEL       13
REMARK 921   NORMALIZED FREE ENERGY PREDICTED BY IDOCK:   -6.20 KCAL/MOL
REMARK 922        TOTAL FREE ENERGY PREDICTED BY IDOCK:   -9.47 KCAL/MOL
REMARK 923 INTER-LIGAND FREE ENERGY PREDICTED BY IDOCK:   -8.65 KCAL/MOL
REMARK 924 INTRA-LIGAND FREE ENERGY PREDICTED BY IDOCK:   -0.82 KCAL/MOL
REMARK 927      BINDING AFFINITY PREDICTED BY RF-SCORE:    0.00 PKD
ROOT
HETATM    1  O   UNL     1     -12.390  11.559  68.150  1.00  0.00    -0.473 OA 
HETATM    2  C   UNL     1     -11.186  12.326  67.852  1.00  0.00    -0.274 C  
HETATM    3  H   UNL     1     -12.243  11.237  69.032  1.00  0.00     0.000 HD 
HETATM    4  C   UNL     1     -10.043  11.206  67.944  1.00  0.00    -0.195 C  
HETATM    5  C   UNL     1     -11.160  13.431  68.950  1.00  0.00    -0.307 A  
HETATM    6  C   UNL     1     -11.425  12.853  66.409  1.00  0.00    -0.389 A  
HETATM    7  C   UNL     1     -10.332  10.052  66.933  1.00  0.00    -0.297 C  
HETATM    8  C   UNL     1     -12.233  13.569  69.867  1.00  0.00    -0.356 A  
HETATM    9  C   UNL     1     -10.834  14.018  65.895  1.00  0.00    -0.288 A  
HETATM   10  C   UNL     1     -12.306  14.615  70.793  1.00  0.00    -0.398 A  
HETATM   11  C   UNL     1     -11.089  14.447  64.584  1.00  0.00    -0.363 A  
HETATM   12  C   UNL     1      -9.365   8.890  67.055  1.00  0.00    -0.152 C  
HETATM   13  C   UNL     1     -11.926  13.720  63.747  1.00  0.00    -0.365 A  
HETATM   14  C   UNL     1     -11.291  15.557  70.850  1.00  0.00    -0.406 A  
HETATM   15  N   UNL     1      -8.366   9.168  68.164  1.00  0.00    -0.120 N  
HETATM   16  C   UNL     1     -12.526  12.562  64.220  1.00  0.00    -0.520 A  
HETATM   17  C   UNL     1     -10.124  14.375  69.077  1.00  0.00    -0.161 A  
HETATM   18  C   UNL     1      -9.090   9.398  69.486  1.00  0.00    -0.165 C  
HETATM   19  C   UNL     1      -7.600  10.454  67.804  1.00  0.00    -0.089 C  
HETATM   20  C   UNL     1     -10.195  15.429  70.005  1.00  0.00    -0.265 A  
HETATM   21  C   UNL     1     -12.281  12.144  65.528  1.00  0.00    -0.096 A  
HETATM   22  C   UNL     1     -10.044  10.574  69.363  1.00  0.00    -0.233 C  
HETATM   23  C   UNL     1      -8.588  11.637  67.655  1.00  0.00    -0.142 C  
ENDROOT
BRANCH  15  24
HETATM   24  C   UNL     1      -7.369   7.978  68.295  1.00  0.00    -0.095 C  
BRANCH  24  25
HETATM   25  C   UNL     1      -7.952   6.637  67.802  1.00  0.00    -0.112 C  
BRANCH  25  26
HETATM   26  O   UNL     1      -8.097   5.730  68.886  1.00  0.00    -0.100 OA 
BRANCH  26  27
HETATM   27  C   UNL     1      -9.318   4.989  68.771  1.00  0.00    -0.130 C  
BRANCH  27  28
HETATM   28  C   UNL     1     -10.241   5.457  69.855  1.00  0.00    -0.351 A  
HETATM   29  C   UNL     1     -11.257   6.380  69.573  1.00  0.00    -0.477 A  
HETATM   30  C   UNL     1     -12.087   6.846  70.590  1.00  0.00    -0.363 A  
HETATM   31  C   UNL     1     -11.906   6.397  71.898  1.00  0.00    -0.380 A  
HETATM   32  C   UNL     1     -10.897   5.482  72.191  1.00  0.00    -0.293 A  
HETATM   33  C   UNL     1     -10.064   5.015  71.176  1.00  0.00    -0.293 A  
ENDBRANCH  27  28
ENDBRANCH  26  27
ENDBRANCH  25  26
ENDBRANCH  24  25
ENDBRANCH  15  24
TORSDOF 5
ENDMDL
MODEL       14
REMARK 921   NORMALIZED FREE ENERGY PREDICTED BY IDOCK:   -6.12 KCAL/MOL
REMARK 922        TOTAL FREE ENERGY PREDICTED BY IDOCK:   -9.37 KCAL/MOL
REMARK 923 INTER-LIGAND FREE ENERGY PREDICTED BY IDOCK:   -8.62 KCAL/MOL
REMARK 924 INTRA-LIGAND FREE ENERGY PREDICTED BY IDOCK:   -0.75 KCAL/MOL
REMARK 927      BINDING AFFINITY PREDICTED BY RF-SCORE:    0.00 PKD
ROOT
HETATM    1  O   UNL     1      -8.034  10.897  65.385  1.00  0.00    -0.331 OA 
HETATM    2  C   UNL     1      -9.087  11.322  66.301  1.00  0.00    -0.199 C  
HETATM    3  H   UNL     1      -8.426  10.176  64.905  1.00  0.00     0.000 HD 
HETATM    4  C   UNL     1      -9.310  10.006  67.189  1.00  0.00    -0.173 C  
HETATM    5  C   UNL     1     -10.262  11.729  65.362  1.00  0.00    -0.301 A  
HETATM    6  C   UNL     1      -8.446  12.500  67.086  1.00  0.00    -0.186 A  
HETATM    7  C   UNL     1      -7.979   9.594  67.892  1.00  0.00    -0.098 C  
HETATM    8  C   UNL     1     -10.098  11.736  63.954  1.00  0.00    -0.399 A  
HETATM    9  C   UNL     1      -9.184  13.538  67.676  1.00  0.00    -0.214 A  
HETATM   10  C   UNL     1     -11.086  12.203  63.080  1.00  0.00    -0.257 A  
HETATM   11  C   UNL     1      -8.551  14.580  68.372  1.00  0.00    -0.172 A  
HETATM   12  C   UNL     1      -8.078   8.282  68.646  1.00  0.00    -0.120 C  
HETATM   13  C   UNL     1      -7.169  14.605  68.510  1.00  0.00    -0.118 A  
HETATM   14  C   UNL     1     -12.290  12.667  63.587  1.00  0.00    -0.584 A  
HETATM   15  N   UNL     1      -9.475   7.707  68.493  1.00  0.00    -0.146 N  
HETATM   16  C   UNL     1      -6.406  13.594  67.943  1.00  0.00    -0.159 A  
HETATM   17  C   UNL     1     -11.518  12.156  65.833  1.00  0.00    -0.418 A  
HETATM   18  C   UNL     1      -9.806   7.501  67.018  1.00  0.00    -0.214 C  
HETATM   19  C   UNL     1     -10.475   8.724  69.073  1.00  0.00    -0.203 C  
HETATM   20  C   UNL     1     -12.512  12.628  64.958  1.00  0.00    -0.556 A  
HETATM   21  C   UNL     1      -7.038  12.567  67.241  1.00  0.00    -0.114 A  
HETATM   22  C   UNL     1      -9.723   8.821  66.273  1.00  0.00    -0.342 C  
HETATM   23  C   UNL     1     -10.358  10.073  68.321  1.00  0.00    -0.224 C  
ENDROOT
BRANCH  15  24
HETATM   24  C   UNL     1      -9.585   6.358  69.264  1.00  0.00    -0.137 C  
BRANCH  24  25
HETATM   25  C   UNL     1      -9.044   6.435  70.707  1.00  0.00    -0.151 C  
BRANCH  25  26
HETATM   26  O   UNL     1     -10.024   5.981  71.629  1.00  0.00    -0.176 OA 
BRANCH  26  27
HETATM   27  C   UNL     1     -10.299   6.985  72.616  1.00  0.00    -0.209 C  
BRANCH  27  28
HETATM   28  C   UNL     1     -11.669   7.529  72.344  1.00  0.00    -0.335 A  
HETATM   29  C   UNL     1     -12.708   6.673  71.954  1.00  0.00    -0.260 A  
HETATM   30  C   UNL     1     -13.969   7.186  71.661  1.00  0.00    -0.438 A  
HETATM   31  C   UNL     1     -14.202   8.558  71.750  1.00  0.00    -0.525 A  
HETATM   32  C   UNL     1     -13.176   9.418  72.134  1.00  0.00    -0.541 A  
HETATM   33  C   UNL     1     -11.913   8.909  72.426  1.00  0.00    -0.320 A  
ENDBRANCH  27  28
ENDBRANCH  26  27
ENDBRANCH  25  26
ENDBRANCH  24  25
ENDBRANCH  15  24
TORSDOF 5
ENDMDL
MODEL       15
REMARK 921   NORMALIZED FREE ENERGY PREDICTED BY IDOCK:   -6.10 KCAL/MOL
REMARK 922        TOTAL FREE ENERGY PREDICTED BY IDOCK:   -9.35 KCAL/MOL
REMARK 923 INTER-LIGAND FREE ENERGY PREDICTED BY IDOCK:   -8.93 KCAL/MOL
REMARK 924 INTRA-LIGAND FREE ENERGY PREDICTED BY IDOCK:   -0.42 KCAL/MOL
REMARK 927      BINDING AFFINITY PREDICTED BY RF-SCORE:    0.00 PKD
ROOT
HETATM    1  O   UNL     1     -11.259   7.817  68.535  1.00  0.00    -0.357 OA 
HETATM    2  C   UNL     1     -10.026   8.489  68.929  1.00  0.00    -0.190 C  
HETATM    3  H   UNL     1     -11.307   7.960  67.597  1.00  0.00     0.000 HD 
HETATM    4  C   UNL     1     -10.329  10.011  68.526  1.00  0.00    -0.217 C  
HETATM    5  C   UNL     1      -8.921   7.763  68.105  1.00  0.00    -0.127 A  
HETATM    6  C   UNL     1      -9.947   8.256  70.464  1.00  0.00    -0.198 A  
HETATM    7  C   UNL     1     -11.602  10.525  69.269  1.00  0.00    -0.308 C  
HETATM    8  C   UNL     1      -9.234   6.637  67.304  1.00  0.00    -0.129 A  
HETATM    9  C   UNL     1      -8.747   8.243  71.191  1.00  0.00    -0.176 A  
HETATM   10  C   UNL     1      -8.257   5.887  66.639  1.00  0.00    -0.106 A  
HETATM   11  C   UNL     1      -8.737   8.025  72.578  1.00  0.00    -0.232 A  
HETATM   12  C   UNL     1     -12.031  11.914  68.838  1.00  0.00    -0.254 C  
HETATM   13  C   UNL     1      -9.922   7.830  73.276  1.00  0.00    -0.370 A  
HETATM   14  C   UNL     1      -6.923   6.251  66.739  1.00  0.00    -0.068 A  
HETATM   15  N   UNL     1     -11.089  12.431  67.765  1.00  0.00    -0.233 N  
HETATM   16  C   UNL     1     -11.128   7.839  72.591  1.00  0.00    -0.433 A  
HETATM   17  C   UNL     1      -7.563   8.133  68.135  1.00  0.00    -0.105 A  
HETATM   18  C   UNL     1     -11.073  11.484  66.570  1.00  0.00    -0.282 C  
HETATM   19  C   UNL     1      -9.669  12.478  68.360  1.00  0.00    -0.189 C  
HETATM   20  C   UNL     1      -6.579   7.380  67.471  1.00  0.00    -0.061 A  
HETATM   21  C   UNL     1     -11.134   8.043  71.210  1.00  0.00    -0.279 A  
HETATM   22  C   UNL     1     -10.627  10.098  67.004  1.00  0.00    -0.290 C  
HETATM   23  C   UNL     1      -9.240  11.064  68.824  1.00  0.00    -0.167 C  
ENDROOT
BRANCH  15  24
HETATM   24  C   UNL     1     -11.521  13.858  67.316  1.00  0.00    -0.344 C  
BRANCH  24  25
HETATM   25  C   UNL     1     -10.888  14.295  65.979  1.00  0.00    -0.303 C  
BRANCH  25  26
HETATM   26  O   UNL     1     -10.460  15.648  66.051  1.00  0.00    -0.300 OA 
BRANCH  26  27
HETATM   27  C   UNL     1     -10.515  16.129  67.400  1.00  0.00    -0.310 C  
BRANCH  27  28
HETATM   28  C   UNL     1     -10.315  17.614  67.365  1.00  0.00    -0.360 A  
HETATM   29  C   UNL     1     -10.128  18.333  68.553  1.00  0.00    -0.419 A  
HETATM   30  C   UNL     1      -9.984  19.718  68.522  1.00  0.00    -0.538 A  
HETATM   31  C   UNL     1     -10.031  20.397  67.305  1.00  0.00    -0.564 A  
HETATM   32  C   UNL     1     -10.220  19.693  66.118  1.00  0.00    -0.604 A  
HETATM   33  C   UNL     1     -10.365  18.307  66.145  1.00  0.00    -0.414 A  
ENDBRANCH  27  28
ENDBRANCH  26  27
ENDBRANCH  25  26
ENDBRANCH  24  25
ENDBRANCH  15  24
TORSDOF 5
ENDMDL
MODEL       16
REMARK 921   NORMALIZED FREE ENERGY PREDICTED BY IDOCK:   -6.09 KCAL/MOL
REMARK 922        TOTAL FREE ENERGY PREDICTED BY IDOCK:   -9.34 KCAL/MOL
REMARK 923 INTER-LIGAND FREE ENERGY PREDICTED BY IDOCK:   -8.68 KCAL/MOL
REMARK 924 INTRA-LIGAND FREE ENERGY PREDICTED BY IDOCK:   -0.66 KCAL/MOL
REMARK 927      BINDING AFFINITY PREDICTED BY RF-SCORE:    0.00 PKD
ROOT
HETATM    1  O   UNL     1     -10.544   5.561  70.837  1.00  0.00    -0.247 OA 
HETATM    2  C   UNL     1     -10.335   6.982  71.093  1.00  0.00    -0.206 C  
HETATM    3  H   UNL     1      -9.679   5.239  70.613  1.00  0.00     0.000 HD 
HETATM    4  C   UNL     1      -9.803   7.504  69.674  1.00  0.00    -0.180 C  
HETATM    5  C   UNL     1      -9.310   7.007  72.266  1.00  0.00    -0.150 A  
HETATM    6  C   UNL     1     -11.750   7.509  71.459  1.00  0.00    -0.309 A  
HETATM    7  C   UNL     1     -10.852   7.204  68.558  1.00  0.00    -0.141 C  
HETATM    8  C   UNL     1      -8.894   5.805  72.893  1.00  0.00    -0.124 A  
HETATM    9  C   UNL     1     -11.981   8.635  72.264  1.00  0.00    -0.438 A  
HETATM   10  C   UNL     1      -8.067   5.788  74.022  1.00  0.00    -0.109 A  
HETATM   11  C   UNL     1     -13.283   9.064  72.563  1.00  0.00    -0.467 A  
HETATM   12  C   UNL     1     -10.364   7.549  67.164  1.00  0.00    -0.313 C  
HETATM   13  C   UNL     1     -14.388   8.391  72.056  1.00  0.00    -0.555 A  
HETATM   14  C   UNL     1      -7.607   6.982  74.556  1.00  0.00    -0.132 A  
HETATM   15  N   UNL     1      -8.948   8.091  67.237  1.00  0.00    -0.136 N  
HETATM   16  C   UNL     1     -14.199   7.275  71.254  1.00  0.00    -0.368 A  
HETATM   17  C   UNL     1      -8.777   8.193  72.805  1.00  0.00    -0.281 A  
HETATM   18  C   UNL     1      -8.020   7.071  67.889  1.00  0.00    -0.115 C  
HETATM   19  C   UNL     1      -8.966   9.355  68.117  1.00  0.00    -0.128 C  
HETATM   20  C   UNL     1      -7.947   8.180  73.940  1.00  0.00    -0.277 A  
HETATM   21  C   UNL     1     -12.903   6.843  70.968  1.00  0.00    -0.220 A  
HETATM   22  C   UNL     1      -8.505   6.742  69.290  1.00  0.00    -0.129 C  
HETATM   23  C   UNL     1      -9.489   9.009  69.534  1.00  0.00    -0.164 C  
ENDROOT
BRANCH  15  24
HETATM   24  C   UNL     1      -8.439   8.449  65.809  1.00  0.00    -0.156 C  
BRANCH  24  25
HETATM   25  C   UNL     1      -7.723   9.814  65.742  1.00  0.00    -0.110 C  
BRANCH  25  26
HETATM   26  O   UNL     1      -8.215  10.578  64.649  1.00  0.00    -0.158 OA 
BRANCH  26  27
HETATM   27  C   UNL     1      -9.516  10.125  64.255  1.00  0.00    -0.305 C  
BRANCH  27  28
HETATM   28  C   UNL     1     -10.486  11.237  64.516  1.00  0.00    -0.396 A  
HETATM   29  C   UNL     1     -10.827  11.587  65.829  1.00  0.00    -0.319 A  
HETATM   30  C   UNL     1     -11.761  12.592  66.070  1.00  0.00    -0.470 A  
HETATM   31  C   UNL     1     -12.365  13.253  65.001  1.00  0.00    -0.499 A  
HETATM   32  C   UNL     1     -12.036  12.911  63.692  1.00  0.00    -0.611 A  
HETATM   33  C   UNL     1     -11.104  11.905  63.447  1.00  0.00    -0.463 A  
ENDBRANCH  27  28
ENDBRANCH  26  27
ENDBRANCH  25  26
ENDBRANCH  24  25
ENDBRANCH  15  24
TORSDOF 5
ENDMDL
MODEL       17
REMARK 921   NORMALIZED FREE ENERGY PREDICTED BY IDOCK:   -6.03 KCAL/MOL
REMARK 922        TOTAL FREE ENERGY PREDICTED BY IDOCK:   -9.25 KCAL/MOL
REMARK 923 INTER-LIGAND FREE ENERGY PREDICTED BY IDOCK:   -8.16 KCAL/MOL
REMARK 924 INTRA-LIGAND FREE ENERGY PREDICTED BY IDOCK:   -1.09 KCAL/MOL
REMARK 927      BINDING AFFINITY PREDICTED BY RF-SCORE:    0.00 PKD
ROOT
HETATM    1  O   UNL     1     -11.391   8.375  68.955  1.00  0.00    -0.294 OA 
HETATM    2  C   UNL     1     -10.082   9.017  68.952  1.00  0.00    -0.196 C  
HETATM    3  H   UNL     1     -11.740   8.561  68.092  1.00  0.00     0.000 HD 
HETATM    4  C   UNL     1     -10.465  10.559  68.733  1.00  0.00    -0.216 C  
HETATM    5  C   UNL     1      -9.323   8.322  67.781  1.00  0.00    -0.153 A  
HETATM    6  C   UNL     1      -9.510   8.713  70.364  1.00  0.00    -0.192 A  
HETATM    7  C   UNL     1     -11.413  11.048  69.873  1.00  0.00    -0.400 C  
HETATM    8  C   UNL     1      -9.907   7.237  67.081  1.00  0.00    -0.242 A  
HETATM    9  C   UNL     1      -8.139   8.657  70.657  1.00  0.00    -0.127 A  
HETATM   10  C   UNL     1      -9.219   6.511  66.103  1.00  0.00    -0.126 A  
HETATM   11  C   UNL     1      -7.681   8.375  71.953  1.00  0.00    -0.157 A  
HETATM   12  C   UNL     1     -11.928  12.459  69.664  1.00  0.00    -0.274 C  
HETATM   13  C   UNL     1      -8.576   8.157  72.993  1.00  0.00    -0.284 A  
HETATM   14  C   UNL     1      -7.918   6.859  65.774  1.00  0.00    -0.116 A  
HETATM   15  N   UNL     1     -11.376  13.018  68.364  1.00  0.00    -0.270 N  
HETATM   16  C   UNL     1      -9.939   8.207  72.742  1.00  0.00    -0.361 A  
HETATM   17  C   UNL     1      -8.022   8.679  67.380  1.00  0.00    -0.102 A  
HETATM   18  C   UNL     1     -11.774  12.127  67.191  1.00  0.00    -0.302 C  
HETATM   19  C   UNL     1      -9.839  13.025  68.462  1.00  0.00    -0.151 C  
HETATM   20  C   UNL     1      -7.327   7.950  66.399  1.00  0.00    -0.086 A  
HETATM   21  C   UNL     1     -10.393   8.475  71.449  1.00  0.00    -0.307 A  
HETATM   22  C   UNL     1     -11.243  10.719  67.398  1.00  0.00    -0.315 C  
HETATM   23  C   UNL     1      -9.315  11.588  68.700  1.00  0.00    -0.142 C  
ENDROOT
BRANCH  15  24
HETATM   24  C   UNL     1     -11.899  14.468  68.141  1.00  0.00    -0.313 C  
BRANCH  24  25
HETATM   25  C   UNL     1     -10.865  15.391  67.463  1.00  0.00    -0.305 C  
BRANCH  25  26
HETATM   26  O   UNL     1     -11.268  15.697  66.135  1.00  0.00    -0.200 OA 
BRANCH  26  27
HETATM   27  C   UNL     1     -10.258  15.310  65.195  1.00  0.00    -0.339 C  
BRANCH  27  28
HETATM   28  C   UNL     1     -10.674  14.004  64.588  1.00  0.00    -0.416 A  
HETATM   29  C   UNL     1      -9.808  12.903  64.612  1.00  0.00    -0.040 A  
HETATM   30  C   UNL     1     -10.179  11.702  64.011  1.00  0.00    -0.391 A  
HETATM   31  C   UNL     1     -11.417  11.593  63.377  1.00  0.00    -0.360 A  
HETATM   32  C   UNL     1     -12.284  12.683  63.345  1.00  0.00    -0.610 A  
HETATM   33  C   UNL     1     -11.915  13.885  63.944  1.00  0.00    -0.372 A  
ENDBRANCH  27  28
ENDBRANCH  26  27
ENDBRANCH  25  26
ENDBRANCH  24  25
ENDBRANCH  15  24
TORSDOF 5
ENDMDL
MODEL       18
REMARK 921   NORMALIZED FREE ENERGY PREDICTED BY IDOCK:   -6.02 KCAL/MOL
REMARK 922        TOTAL FREE ENERGY PREDICTED BY IDOCK:   -9.24 KCAL/MOL
REMARK 923 INTER-LIGAND FREE ENERGY PREDICTED BY IDOCK:   -8.83 KCAL/MOL
REMARK 924 INTRA-LIGAND FREE ENERGY PREDICTED BY IDOCK:   -0.41 KCAL/MOL
REMARK 927      BINDING AFFINITY PREDICTED BY RF-SCORE:    0.00 PKD
ROOT
HETATM    1  O   UNL     1     -11.401   9.611  67.456  1.00  0.00    -0.385 OA 
HETATM    2  C   UNL     1     -10.124  10.061  67.996  1.00  0.00    -0.167 C  
HETATM    3  H   UNL     1     -11.372   9.879  66.545  1.00  0.00     0.000 HD 
HETATM    4  C   UNL     1     -10.214  11.649  67.791  1.00  0.00    -0.202 C  
HETATM    5  C   UNL     1      -9.064   9.313  67.133  1.00  0.00    -0.149 A  
HETATM    6  C   UNL     1     -10.171   9.623  69.486  1.00  0.00    -0.233 A  
HETATM    7  C   UNL     1     -11.460  12.222  68.537  1.00  0.00    -0.349 C  
HETATM    8  C   UNL     1      -9.460   8.350  66.171  1.00  0.00    -0.263 A  
HETATM    9  C   UNL     1      -9.030   9.361  70.260  1.00  0.00    -0.277 A  
HETATM   10  C   UNL     1      -8.541   7.574  65.456  1.00  0.00    -0.102 A  
HETATM   11  C   UNL     1      -9.134   8.966  71.603  1.00  0.00    -0.280 A  
HETATM   12  C   UNL     1     -11.689  13.699  68.281  1.00  0.00    -0.363 C  
HETATM   13  C   UNL     1     -10.376   8.835  72.212  1.00  0.00    -0.320 A  
HETATM   14  C   UNL     1      -7.182   7.747  65.667  1.00  0.00    -0.068 A  
HETATM   15  N   UNL     1     -10.624  14.225  67.334  1.00  0.00    -0.274 N  
HETATM   16  C   UNL     1     -11.526   9.088  71.479  1.00  0.00    -0.407 A  
HETATM   17  C   UNL     1      -7.676   9.498  67.277  1.00  0.00    -0.091 A  
HETATM   18  C   UNL     1     -10.648  13.447  66.022  1.00  0.00    -0.287 C  
HETATM   19  C   UNL     1      -9.250  14.011  67.995  1.00  0.00    -0.201 C  
HETATM   20  C   UNL     1      -6.750   8.718  66.562  1.00  0.00    -0.071 A  
HETATM   21  C   UNL     1     -11.420   9.470  70.140  1.00  0.00    -0.205 A  
HETATM   22  C   UNL     1     -10.402  11.971  66.283  1.00  0.00    -0.253 C  
HETATM   23  C   UNL     1      -9.026  12.506  68.281  1.00  0.00    -0.178 C  
ENDROOT
BRANCH  15  24
HETATM   24  C   UNL     1     -10.852  15.742  67.065  1.00  0.00    -0.273 C  
BRANCH  24  25
HETATM   25  C   UNL     1     -10.138  16.250  65.795  1.00  0.00    -0.347 C  
BRANCH  25  26
HETATM   26  O   UNL     1     -10.252  17.662  65.692  1.00  0.00    -0.593 OA 
BRANCH  26  27
HETATM   27  C   UNL     1     -10.427  18.255  66.986  1.00  0.00    -0.385 C  
BRANCH  27  28
HETATM   28  C   UNL     1      -9.142  18.929  67.357  1.00  0.00    -0.303 A  
HETATM   29  C   UNL     1      -8.420  18.510  68.483  1.00  0.00    -0.354 A  
HETATM   30  C   UNL     1      -7.247  19.165  68.851  1.00  0.00    -0.376 A  
HETATM   31  C   UNL     1      -6.787  20.247  68.101  1.00  0.00    -0.324 A  
HETATM   32  C   UNL     1      -7.498  20.673  66.981  1.00  0.00    -0.350 A  
HETATM   33  C   UNL     1      -8.672  20.021  66.611  1.00  0.00    -0.397 A  
ENDBRANCH  27  28
ENDBRANCH  26  27
ENDBRANCH  25  26
ENDBRANCH  24  25
ENDBRANCH  15  24
TORSDOF 5
ENDMDL
MODEL       19
REMARK 921   NORMALIZED FREE ENERGY PREDICTED BY IDOCK:   -6.02 KCAL/MOL
REMARK 922        TOTAL FREE ENERGY PREDICTED BY IDOCK:   -9.24 KCAL/MOL
REMARK 923 INTER-LIGAND FREE ENERGY PREDICTED BY IDOCK:   -8.80 KCAL/MOL
REMARK 924 INTRA-LIGAND FREE ENERGY PREDICTED BY IDOCK:   -0.44 KCAL/MOL
REMARK 927      BINDING AFFINITY PREDICTED BY RF-SCORE:    0.00 PKD
ROOT
HETATM    1  O   UNL     1      -8.610  10.202  70.568  1.00  0.00    -0.344 OA 
HETATM    2  C   UNL     1      -9.114   9.427  69.440  1.00  0.00    -0.161 C  
HETATM    3  H   UNL     1      -9.393  10.567  70.963  1.00  0.00     0.000 HD 
HETATM    4  C   UNL     1      -9.818  10.557  68.545  1.00  0.00    -0.175 C  
HETATM    5  C   UNL     1     -10.060   8.377  70.096  1.00  0.00    -0.193 A  
HETATM    6  C   UNL     1      -7.834   8.831  68.792  1.00  0.00    -0.101 A  
HETATM    7  C   UNL     1      -8.786  11.659  68.152  1.00  0.00    -0.159 C  
HETATM    8  C   UNL     1     -10.168   8.278  71.506  1.00  0.00    -0.277 A  
HETATM    9  C   UNL     1      -7.818   7.646  68.041  1.00  0.00    -0.121 A  
HETATM   10  C   UNL     1     -10.915   7.278  72.138  1.00  0.00    -0.274 A  
HETATM   11  C   UNL     1      -6.629   7.153  67.481  1.00  0.00    -0.059 A  
HETATM   12  C   UNL     1      -9.407  12.831  67.417  1.00  0.00    -0.193 C  
HETATM   13  C   UNL     1      -5.430   7.835  67.643  1.00  0.00    -0.032 A  
HETATM   14  C   UNL     1     -11.600   6.344  71.376  1.00  0.00    -0.368 A  
HETATM   15  N   UNL     1     -10.902  12.611  67.274  1.00  0.00    -0.243 N  
HETATM   16  C   UNL     1      -5.407   9.011  68.378  1.00  0.00    -0.038 A  
HETATM   17  C   UNL     1     -10.814   7.445  69.358  1.00  0.00    -0.184 A  
HETATM   18  C   UNL     1     -11.548  12.441  68.645  1.00  0.00    -0.319 C  
HETATM   19  C   UNL     1     -11.119  11.313  66.475  1.00  0.00    -0.216 C  
HETATM   20  C   UNL     1     -11.563   6.437  69.990  1.00  0.00    -0.446 A  
HETATM   21  C   UNL     1      -6.588   9.493  68.944  1.00  0.00    -0.047 A  
HETATM   22  C   UNL     1     -10.934  11.256  69.370  1.00  0.00    -0.282 C  
HETATM   23  C   UNL     1     -10.464  10.119  67.213  1.00  0.00    -0.313 C  
ENDROOT
BRANCH  15  24
HETATM   24  C   UNL     1     -11.548  13.811  66.519  1.00  0.00    -0.365 C  
BRANCH  24  25
HETATM   25  C   UNL     1     -10.570  14.531  65.568  1.00  0.00    -0.351 C  
BRANCH  25  26
HETATM   26  O   UNL     1     -10.644  15.938  65.752  1.00  0.00    -0.332 OA 
BRANCH  26  27
HETATM   27  C   UNL     1     -10.597  16.273  67.145  1.00  0.00    -0.291 C  
BRANCH  27  28
HETATM   28  C   UNL     1     -10.344  17.746  67.253  1.00  0.00    -0.364 A  
HETATM   29  C   UNL     1     -10.362  18.554  66.108  1.00  0.00    -0.457 A  
HETATM   30  C   UNL     1     -10.085  19.916  66.203  1.00  0.00    -0.611 A  
HETATM   31  C   UNL     1      -9.782  20.481  67.442  1.00  0.00    -0.587 A  
HETATM   32  C   UNL     1      -9.759  19.687  68.586  1.00  0.00    -0.486 A  
HETATM   33  C   UNL     1     -10.034  18.324  68.494  1.00  0.00    -0.413 A  
ENDBRANCH  27  28
ENDBRANCH  26  27
ENDBRANCH  25  26
ENDBRANCH  24  25
ENDBRANCH  15  24
TORSDOF 5
ENDMDL
MODEL       20
REMARK 921   NORMALIZED FREE ENERGY PREDICTED BY IDOCK:   -5.97 KCAL/MOL
REMARK 922        TOTAL FREE ENERGY PREDICTED BY IDOCK:   -9.17 KCAL/MOL
REMARK 923 INTER-LIGAND FREE ENERGY PREDICTED BY IDOCK:   -8.59 KCAL/MOL
REMARK 924 INTRA-LIGAND FREE ENERGY PREDICTED BY IDOCK:   -0.58 KCAL/MOL
REMARK 927      BINDING AFFINITY PREDICTED BY RF-SCORE:    0.00 PKD
ROOT
HETATM    1  O   UNL     1      -8.429  10.153  69.933  1.00  0.00    -0.298 OA 
HETATM    2  C   UNL     1      -8.911   9.622  68.664  1.00  0.00    -0.128 C  
HETATM    3  H   UNL     1      -9.222  10.308  70.433  1.00  0.00     0.000 HD 
HETATM    4  C   UNL     1      -9.793  10.838  68.105  1.00  0.00    -0.171 C  
HETATM    5  C   UNL     1      -9.688   8.332  69.065  1.00  0.00    -0.167 A  
HETATM    6  C   UNL     1      -7.614   9.368  67.846  1.00  0.00    -0.087 A  
HETATM    7  C   UNL     1      -8.920  12.124  67.968  1.00  0.00    -0.189 C  
HETATM    8  C   UNL     1      -9.696   7.877  70.408  1.00  0.00    -0.179 A  
HETATM    9  C   UNL     1      -7.510   8.416  66.821  1.00  0.00    -0.083 A  
HETATM   10  C   UNL     1     -10.283   6.666  70.792  1.00  0.00    -0.221 A  
HETATM   11  C   UNL     1      -6.310   8.229  66.118  1.00  0.00    -0.049 A  
HETATM   12  C   UNL     1      -9.715  13.353  67.571  1.00  0.00    -0.224 C  
HETATM   13  C   UNL     1      -5.188   8.995  66.408  1.00  0.00    -0.033 A  
HETATM   14  C   UNL     1     -10.903   5.869  69.842  1.00  0.00    -0.439 A  
HETATM   15  N   UNL     1     -11.182  12.988  67.426  1.00  0.00    -0.276 N  
HETATM   16  C   UNL     1      -5.254   9.949  67.413  1.00  0.00    -0.035 A  
HETATM   17  C   UNL     1     -10.375   7.522  68.142  1.00  0.00    -0.244 A  
HETATM   18  C   UNL     1     -11.717  12.407  68.730  1.00  0.00    -0.332 C  
HETATM   19  C   UNL     1     -11.299  11.909  66.334  1.00  0.00    -0.339 C  
HETATM   20  C   UNL     1     -10.964   6.304  68.524  1.00  0.00    -0.421 A  
HETATM   21  C   UNL     1      -6.445  10.124  68.120  1.00  0.00    -0.057 A  
HETATM   22  C   UNL     1     -10.928  11.167  69.114  1.00  0.00    -0.295 C  
HETATM   23  C   UNL     1     -10.467  10.663  66.726  1.00  0.00    -0.303 C  
ENDROOT
BRANCH  15  24
HETATM   24  C   UNL     1     -12.006  14.245  67.018  1.00  0.00    -0.433 C  
BRANCH  24  25
HETATM   25  C   UNL     1     -11.481  15.551  67.651  1.00  0.00    -0.209 C  
BRANCH  25  26
HETATM   26  O   UNL     1     -12.278  15.916  68.769  1.00  0.00    -0.190 OA 
BRANCH  26  27
HETATM   27  C   UNL     1     -11.455  16.334  69.866  1.00  0.00    -0.196 C  
BRANCH  27  28
HETATM   28  C   UNL     1     -12.035  15.754  71.120  1.00  0.00    -0.469 A  
HETATM   29  C   UNL     1     -12.861  14.623  71.062  1.00  0.00    -0.414 A  
HETATM   30  C   UNL     1     -13.435  14.110  72.223  1.00  0.00    -0.578 A  
HETATM   31  C   UNL     1     -13.191  14.725  73.451  1.00  0.00    -0.325 A  
HETATM   32  C   UNL     1     -12.374  15.850  73.520  1.00  0.00    -0.660 A  
HETATM   33  C   UNL     1     -11.800  16.367  72.360  1.00  0.00    -0.548 A  
ENDBRANCH  27  28
ENDBRANCH  26  27
ENDBRANCH  25  26
ENDBRANCH  24  25
ENDBRANCH  15  24
TORSDOF 5
ENDMDL
MODEL       21
REMARK 921   NORMALIZED FREE ENERGY PREDICTED BY IDOCK:   -5.96 KCAL/MOL
REMARK 922        TOTAL FREE ENERGY PREDICTED BY IDOCK:   -9.17 KCAL/MOL
REMARK 923 INTER-LIGAND FREE ENERGY PREDICTED BY IDOCK:   -8.74 KCAL/MOL
REMARK 924 INTRA-LIGAND FREE ENERGY PREDICTED BY IDOCK:   -0.43 KCAL/MOL
REMARK 927      BINDING AFFINITY PREDICTED BY RF-SCORE:    0.00 PKD
ROOT
HETATM    1  O   UNL     1      -7.885   8.818  68.873  1.00  0.00    -0.100 OA 
HETATM    2  C   UNL     1      -9.330   8.725  68.701  1.00  0.00    -0.141 C  
HETATM    3  H   UNL     1      -7.769   9.574  69.436  1.00  0.00     0.000 HD 
HETATM    4  C   UNL     1      -9.672  10.118  67.983  1.00  0.00    -0.161 C  
HETATM    5  C   UNL     1      -9.872   8.544  70.150  1.00  0.00    -0.184 A  
HETATM    6  C   UNL     1      -9.520   7.488  67.780  1.00  0.00    -0.157 A  
HETATM    7  C   UNL     1      -8.877  10.248  66.647  1.00  0.00    -0.148 C  
HETATM    8  C   UNL     1      -8.983   8.396  71.245  1.00  0.00    -0.224 A  
HETATM    9  C   UNL     1     -10.683   6.704  67.755  1.00  0.00    -0.352 A  
HETATM   10  C   UNL     1      -9.423   8.117  72.543  1.00  0.00    -0.339 A  
HETATM   11  C   UNL     1     -10.798   5.595  66.902  1.00  0.00    -0.287 A  
HETATM   12  C   UNL     1      -9.046  11.598  65.975  1.00  0.00    -0.182 C  
HETATM   13  C   UNL     1      -9.762   5.249  66.043  1.00  0.00    -0.159 A  
HETATM   14  C   UNL     1     -10.779   7.994  72.800  1.00  0.00    -0.431 A  
HETATM   15  N   UNL     1      -9.953  12.478  66.816  1.00  0.00    -0.223 N  
HETATM   16  C   UNL     1      -8.598   6.002  66.038  1.00  0.00    -0.147 A  
HETATM   17  C   UNL     1     -11.242   8.468  70.462  1.00  0.00    -0.262 A  
HETATM   18  C   UNL     1      -9.377  12.650  68.218  1.00  0.00    -0.195 C  
HETATM   19  C   UNL     1     -11.318  11.776  66.939  1.00  0.00    -0.320 C  
HETATM   20  C   UNL     1     -11.688   8.185  71.766  1.00  0.00    -0.343 A  
HETATM   21  C   UNL     1      -8.482   7.097  66.895  1.00  0.00    -0.123 A  
HETATM   22  C   UNL     1      -9.226  11.297  68.892  1.00  0.00    -0.076 C  
HETATM   23  C   UNL     1     -11.144  10.387  67.602  1.00  0.00    -0.361 C  
ENDROOT
BRANCH  15  24
HETATM   24  C   UNL     1     -10.132  13.867  66.133  1.00  0.00    -0.308 C  
BRANCH  24  25
HETATM   25  C   UNL     1     -11.583  14.390  66.187  1.00  0.00    -0.369 C  
BRANCH  25  26
HETATM   26  O   UNL     1     -11.642  15.616  66.902  1.00  0.00    -0.032 OA 
BRANCH  26  27
HETATM   27  C   UNL     1     -10.344  15.989  67.382  1.00  0.00    -0.294 C  
BRANCH  27  28
HETATM   28  C   UNL     1     -10.275  17.486  67.396  1.00  0.00    -0.337 A  
HETATM   29  C   UNL     1     -10.395  18.213  66.204  1.00  0.00    -0.394 A  
HETATM   30  C   UNL     1     -10.288  19.602  66.213  1.00  0.00    -0.619 A  
HETATM   31  C   UNL     1     -10.056  20.276  67.412  1.00  0.00    -0.534 A  
HETATM   32  C   UNL     1      -9.932  19.563  68.602  1.00  0.00    -0.538 A  
HETATM   33  C   UNL     1     -10.037  18.174  68.597  1.00  0.00    -0.406 A  
ENDBRANCH  27  28
ENDBRANCH  26  27
ENDBRANCH  25  26
ENDBRANCH  24  25
ENDBRANCH  15  24
TORSDOF 5
ENDMDL
MODEL       22
REMARK 921   NORMALIZED FREE ENERGY PREDICTED BY IDOCK:   -5.95 KCAL/MOL
REMARK 922        TOTAL FREE ENERGY PREDICTED BY IDOCK:   -9.15 KCAL/MOL
REMARK 923 INTER-LIGAND FREE ENERGY PREDICTED BY IDOCK:   -8.94 KCAL/MOL
REMARK 924 INTRA-LIGAND FREE ENERGY PREDICTED BY IDOCK:   -0.21 KCAL/MOL
REMARK 927      BINDING AFFINITY PREDICTED BY RF-SCORE:    0.00 PKD
ROOT
HETATM    1  O   UNL     1      -7.656  11.599  65.987  1.00  0.00    -0.358 OA 
HETATM    2  C   UNL     1      -8.674  10.664  65.523  1.00  0.00    -0.188 C  
HETATM    3  H   UNL     1      -6.975  11.039  66.341  1.00  0.00     0.000 HD 
HETATM    4  C   UNL     1      -9.094   9.923  66.881  1.00  0.00    -0.162 C  
HETATM    5  C   UNL     1      -7.933   9.796  64.462  1.00  0.00    -0.144 A  
HETATM    6  C   UNL     1      -9.789  11.580  64.945  1.00  0.00    -0.289 A  
HETATM    7  C   UNL     1      -9.609  10.960  67.928  1.00  0.00    -0.175 C  
HETATM    8  C   UNL     1      -6.601  10.094  64.083  1.00  0.00    -0.113 A  
HETATM    9  C   UNL     1     -10.692  11.179  63.949  1.00  0.00    -0.407 A  
HETATM   10  C   UNL     1      -5.937   9.415  63.055  1.00  0.00    -0.090 A  
HETATM   11  C   UNL     1     -11.678  12.051  63.463  1.00  0.00    -0.566 A  
HETATM   12  C   UNL     1      -9.900  10.350  69.286  1.00  0.00    -0.225 C  
HETATM   13  C   UNL     1     -11.799  13.340  63.967  1.00  0.00    -0.512 A  
HETATM   14  C   UNL     1      -6.582   8.392  62.377  1.00  0.00    -0.091 A  
HETATM   15  N   UNL     1      -9.589   8.864  69.257  1.00  0.00    -0.160 N  
HETATM   16  C   UNL     1     -10.926  13.771  64.955  1.00  0.00    -0.378 A  
HETATM   17  C   UNL     1      -8.533   8.716  63.789  1.00  0.00    -0.066 A  
HETATM   18  C   UNL     1      -8.131   8.634  68.872  1.00  0.00    -0.118 C  
HETATM   19  C   UNL     1     -10.479   8.211  68.184  1.00  0.00    -0.170 C  
HETATM   20  C   UNL     1      -7.870   8.032  62.754  1.00  0.00    -0.140 A  
HETATM   21  C   UNL     1      -9.938  12.906  65.428  1.00  0.00    -0.208 A  
HETATM   22  C   UNL     1      -7.850   9.231  67.504  1.00  0.00    -0.096 C  
HETATM   23  C   UNL     1     -10.201   8.850  66.801  1.00  0.00    -0.348 C  
ENDROOT
BRANCH  15  24
HETATM   24  C   UNL     1      -9.885   8.230  70.649  1.00  0.00    -0.182 C  
BRANCH  24  25
HETATM   25  C   UNL     1     -11.363   8.356  71.074  1.00  0.00    -0.266 C  
BRANCH  25  26
HETATM   26  O   UNL     1     -11.579   9.580  71.763  1.00  0.00    -0.385 OA 
BRANCH  26  27
HETATM   27  C   UNL     1     -12.901  10.077  71.517  1.00  0.00    -0.432 C  
BRANCH  27  28
HETATM   28  C   UNL     1     -12.826  11.573  71.475  1.00  0.00    -0.485 A  
HETATM   29  C   UNL     1     -13.504  12.344  72.429  1.00  0.00    -0.294 A  
HETATM   30  C   UNL     1     -13.468  13.735  72.365  1.00  0.00    -0.672 A  
HETATM   31  C   UNL     1     -12.759  14.367  71.343  1.00  0.00    -0.413 A  
HETATM   32  C   UNL     1     -12.084  13.611  70.389  1.00  0.00    -0.421 A  
HETATM   33  C   UNL     1     -12.119  12.219  70.450  1.00  0.00    -0.385 A  
ENDBRANCH  27  28
ENDBRANCH  26  27
ENDBRANCH  25  26
ENDBRANCH  24  25
ENDBRANCH  15  24
TORSDOF 5
ENDMDL
MODEL       23
REMARK 921   NORMALIZED FREE ENERGY PREDICTED BY IDOCK:   -5.95 KCAL/MOL
REMARK 922        TOTAL FREE ENERGY PREDICTED BY IDOCK:   -9.15 KCAL/MOL
REMARK 923 INTER-LIGAND FREE ENERGY PREDICTED BY IDOCK:   -8.48 KCAL/MOL
REMARK 924 INTRA-LIGAND FREE ENERGY PREDICTED BY IDOCK:   -0.67 KCAL/MOL
REMARK 927      BINDING AFFINITY PREDICTED BY RF-SCORE:    0.00 PKD
ROOT
HETATM    1  O   UNL     1      -9.561  10.031  70.891  1.00  0.00    -0.241 OA 
HETATM    2  C   UNL     1      -9.967   8.650  70.658  1.00  0.00    -0.192 C  
HETATM    3  H   UNL     1     -10.137  10.537  70.329  1.00  0.00     0.000 HD 
HETATM    4  C   UNL     1      -9.661   8.469  69.095  1.00  0.00    -0.167 C  
HETATM    5  C   UNL     1     -11.468   8.623  71.075  1.00  0.00    -0.324 A  
HETATM    6  C   UNL     1      -9.025   7.823  71.576  1.00  0.00    -0.156 A  
HETATM    7  C   UNL     1      -8.153   8.750  68.802  1.00  0.00    -0.115 C  
HETATM    8  C   UNL     1     -12.083   9.763  71.652  1.00  0.00    -0.475 A  
HETATM    9  C   UNL     1      -9.349   6.559  72.092  1.00  0.00    -0.142 A  
HETATM   10  C   UNL     1     -13.392   9.747  72.145  1.00  0.00    -0.527 A  
HETATM   11  C   UNL     1      -8.458   5.858  72.919  1.00  0.00    -0.121 A  
HETATM   12  C   UNL     1      -7.813   8.729  67.324  1.00  0.00    -0.097 C  
HETATM   13  C   UNL     1      -7.217   6.392  73.241  1.00  0.00    -0.086 A  
HETATM   14  C   UNL     1     -14.146   8.587  72.062  1.00  0.00    -0.516 A  
HETATM   15  N   UNL     1      -9.066   8.448  66.514  1.00  0.00    -0.164 N  
HETATM   16  C   UNL     1      -6.861   7.638  72.748  1.00  0.00    -0.072 A  
HETATM   17  C   UNL     1     -12.284   7.482  70.959  1.00  0.00    -0.288 A  
HETATM   18  C   UNL     1     -10.132   9.501  66.800  1.00  0.00    -0.245 C  
HETATM   19  C   UNL     1      -9.617   7.076  66.948  1.00  0.00    -0.168 C  
HETATM   20  C   UNL     1     -13.600   7.462  71.455  1.00  0.00    -0.454 A  
HETATM   21  C   UNL     1      -7.753   8.338  71.935  1.00  0.00    -0.143 A  
HETATM   22  C   UNL     1     -10.480   9.506  68.278  1.00  0.00    -0.265 C  
HETATM   23  C   UNL     1      -9.941   7.089  68.462  1.00  0.00    -0.158 C  
ENDROOT
BRANCH  15  24
HETATM   24  C   UNL     1      -8.726   8.424  64.995  1.00  0.00    -0.056 C  
BRANCH  24  25
HETATM   25  C   UNL     1      -8.514   9.830  64.395  1.00  0.00    -0.179 C  
BRANCH  25  26
HETATM   26  O   UNL     1      -9.552  10.139  63.475  1.00  0.00    -0.293 OA 
BRANCH  26  27
HETATM   27  C   UNL     1      -9.545  11.535  63.150  1.00  0.00    -0.360 C  
BRANCH  27  28
HETATM   28  C   UNL     1     -10.577  12.208  64.003  1.00  0.00    -0.429 A  
HETATM   29  C   UNL     1     -10.193  12.942  65.133  1.00  0.00    -0.288 A  
HETATM   30  C   UNL     1     -11.155  13.532  65.950  1.00  0.00    -0.292 A  
HETATM   31  C   UNL     1     -12.510  13.390  65.646  1.00  0.00    -0.519 A  
HETATM   32  C   UNL     1     -12.902  12.660  64.527  1.00  0.00    -0.356 A  
HETATM   33  C   UNL     1     -11.942  12.068  63.709  1.00  0.00    -0.588 A  
ENDBRANCH  27  28
ENDBRANCH  26  27
ENDBRANCH  25  26
ENDBRANCH  24  25
ENDBRANCH  15  24
TORSDOF 5
ENDMDL
MODEL       24
REMARK 921   NORMALIZED FREE ENERGY PREDICTED BY IDOCK:   -5.93 KCAL/MOL
REMARK 922        TOTAL FREE ENERGY PREDICTED BY IDOCK:   -9.12 KCAL/MOL
REMARK 923 INTER-LIGAND FREE ENERGY PREDICTED BY IDOCK:   -8.44 KCAL/MOL
REMARK 924 INTRA-LIGAND FREE ENERGY PREDICTED BY IDOCK:   -0.68 KCAL/MOL
REMARK 927      BINDING AFFINITY PREDICTED BY RF-SCORE:    0.00 PKD
ROOT
HETATM    1  O   UNL     1     -12.495  15.125  67.572  1.00  0.00    -0.202 OA 
HETATM    2  C   UNL     1     -11.291  15.221  68.389  1.00  0.00    -0.329 C  
HETATM    3  H   UNL     1     -12.895  14.309  67.850  1.00  0.00     0.000 HD 
HETATM    4  C   UNL     1     -10.473  13.919  67.937  1.00  0.00    -0.242 C  
HETATM    5  C   UNL     1     -11.827  15.227  69.852  1.00  0.00    -0.363 A  
HETATM    6  C   UNL     1     -10.636  16.555  67.934  1.00  0.00    -0.329 A  
HETATM    7  C   UNL     1     -10.207  13.953  66.399  1.00  0.00    -0.292 C  
HETATM    8  C   UNL     1     -13.220  15.256  70.115  1.00  0.00     0.078 A  
HETATM    9  C   UNL     1      -9.789  17.326  68.745  1.00  0.00    -0.306 A  
HETATM   10  C   UNL     1     -13.742  15.377  71.408  1.00  0.00    -0.591 A  
HETATM   11  C   UNL     1      -9.227  18.525  68.281  1.00  0.00    -0.342 A  
HETATM   12  C   UNL     1      -9.554  12.689  65.873  1.00  0.00    -0.153 C  
HETATM   13  C   UNL     1      -9.483  18.980  66.994  1.00  0.00    -0.358 A  
HETATM   14  C   UNL     1     -12.884  15.456  72.493  1.00  0.00    -0.491 A  
HETATM   15  N   UNL     1      -9.346  11.708  67.013  1.00  0.00    -0.177 N  
HETATM   16  C   UNL     1     -10.314  18.244  66.163  1.00  0.00    -0.414 A  
HETATM   17  C   UNL     1     -10.991  15.253  70.984  1.00  0.00    -0.274 A  
HETATM   18  C   UNL     1     -10.677  11.380  67.681  1.00  0.00    -0.216 C  
HETATM   19  C   UNL     1      -8.435  12.377  68.058  1.00  0.00    -0.176 C  
HETATM   20  C   UNL     1     -11.512  15.377  72.284  1.00  0.00    -0.506 A  
HETATM   21  C   UNL     1     -10.882  17.057  66.630  1.00  0.00     0.034 A  
HETATM   22  C   UNL     1     -11.319  12.647  68.220  1.00  0.00    -0.337 C  
HETATM   23  C   UNL     1      -9.089  13.680  68.578  1.00  0.00    -0.112 C  
ENDROOT
BRANCH  15  24
HETATM   24  C   UNL     1      -8.675  10.406  66.481  1.00  0.00    -0.136 C  
BRANCH  24  25
HETATM   25  C   UNL     1      -7.720   9.753  67.502  1.00  0.00    -0.095 C  
BRANCH  25  26
HETATM   26  O   UNL     1      -8.370   8.686  68.179  1.00  0.00    -0.124 OA 
BRANCH  26  27
HETATM   27  C   UNL     1      -8.613   9.026  69.550  1.00  0.00    -0.138 C  
BRANCH  27  28
HETATM   28  C   UNL     1      -9.772   8.204  70.026  1.00  0.00    -0.172 A  
HETATM   29  C   UNL     1     -10.483   8.578  71.174  1.00  0.00    -0.278 A  
HETATM   30  C   UNL     1     -11.534   7.790  71.639  1.00  0.00    -0.299 A  
HETATM   31  C   UNL     1     -11.879   6.619  70.965  1.00  0.00    -0.427 A  
HETATM   32  C   UNL     1     -11.176   6.236  69.825  1.00  0.00    -0.499 A  
HETATM   33  C   UNL     1     -10.125   7.021  69.357  1.00  0.00    -0.175 A  
ENDBRANCH  27  28
ENDBRANCH  26  27
ENDBRANCH  25  26
ENDBRANCH  24  25
ENDBRANCH  15  24
TORSDOF 5
ENDMDL
MODEL       25
REMARK 921   NORMALIZED FREE ENERGY PREDICTED BY IDOCK:   -5.90 KCAL/MOL
REMARK 922        TOTAL FREE ENERGY PREDICTED BY IDOCK:   -9.09 KCAL/MOL
REMARK 923 INTER-LIGAND FREE ENERGY PREDICTED BY IDOCK:   -7.25 KCAL/MOL
REMARK 924 INTRA-LIGAND FREE ENERGY PREDICTED BY IDOCK:   -1.84 KCAL/MOL
REMARK 927      BINDING AFFINITY PREDICTED BY RF-SCORE:    0.00 PKD
ROOT
HETATM    1  O   UNL     1      -8.416  11.265  69.431  1.00  0.00    -0.374 OA 
HETATM    2  C   UNL     1      -9.655  10.867  68.773  1.00  0.00    -0.189 C  
HETATM    3  H   UNL     1      -7.912  11.679  68.740  1.00  0.00     0.000 HD 
HETATM    4  C   UNL     1      -9.129   9.842  67.658  1.00  0.00    -0.140 C  
HETATM    5  C   UNL     1     -10.252  12.208  68.250  1.00  0.00    -0.209 A  
HETATM    6  C   UNL     1     -10.478  10.189  69.903  1.00  0.00    -0.322 A  
HETATM    7  C   UNL     1      -8.355   8.663  68.328  1.00  0.00    -0.127 C  
HETATM    8  C   UNL     1      -9.638  13.447  68.562  1.00  0.00    -0.141 A  
HETATM    9  C   UNL     1     -11.880  10.118  69.913  1.00  0.00    -0.206 A  
HETATM   10  C   UNL     1     -10.201  14.679  68.212  1.00  0.00    -0.227 A  
HETATM   11  C   UNL     1     -12.571   9.494  70.963  1.00  0.00    -0.331 A  
HETATM   12  C   UNL     1      -7.711   7.721  67.330  1.00  0.00    -0.113 C  
HETATM   13  C   UNL     1     -11.883   8.912  72.021  1.00  0.00    -0.438 A  
HETATM   14  C   UNL     1     -11.398  14.716  67.515  1.00  0.00    -0.361 A  
HETATM   15  N   UNL     1      -7.991   8.202  65.917  1.00  0.00    -0.097 N  
HETATM   16  C   UNL     1     -10.497   8.960  72.043  1.00  0.00    -0.383 A  
HETATM   17  C   UNL     1     -11.436  12.287  67.494  1.00  0.00    -0.414 A  
HETATM   18  C   UNL     1      -7.466   9.620  65.725  1.00  0.00    -0.100 C  
HETATM   19  C   UNL     1      -9.518   8.223  65.715  1.00  0.00     0.029 C  
HETATM   20  C   UNL     1     -12.006  13.524  67.142  1.00  0.00    -0.426 A  
HETATM   21  C   UNL     1      -9.813   9.592  71.004  1.00  0.00    -0.236 A  
HETATM   22  C   UNL     1      -8.126  10.563  66.716  1.00  0.00    -0.123 C  
HETATM   23  C   UNL     1     -10.179   9.166  66.750  1.00  0.00    -0.331 C  
ENDROOT
BRANCH  15  24
HETATM   24  C   UNL     1      -7.334   7.239  64.885  1.00  0.00    -0.080 C  
BRANCH  24  25
HETATM   25  C   UNL     1      -8.185   5.985  64.593  1.00  0.00    -0.108 C  
BRANCH  25  26
HETATM   26  O   UNL     1      -8.095   5.063  65.671  1.00  0.00    -0.109 OA 
BRANCH  26  27
HETATM   27  C   UNL     1      -9.383   4.519  65.986  1.00  0.00    -0.157 C  
BRANCH  27  28
HETATM   28  C   UNL     1      -9.732   4.948  67.378  1.00  0.00    -0.195 A  
HETATM   29  C   UNL     1     -10.806   5.819  67.605  1.00  0.00    -0.264 A  
HETATM   30  C   UNL     1     -11.103   6.250  68.895  1.00  0.00    -0.434 A  
HETATM   31  C   UNL     1     -10.326   5.818  69.971  1.00  0.00    -0.328 A  
HETATM   32  C   UNL     1      -9.255   4.955  69.757  1.00  0.00    -0.175 A  
HETATM   33  C   UNL     1      -8.954   4.523  68.467  1.00  0.00    -0.145 A  
ENDBRANCH  27  28
ENDBRANCH  26  27
ENDBRANCH  25  26
ENDBRANCH  24  25
ENDBRANCH  15  24
TORSDOF 5
ENDMDL
MODEL       26
REMARK 921   NORMALIZED FREE ENERGY PREDICTED BY IDOCK:   -5.85 KCAL/MOL
REMARK 922        TOTAL FREE ENERGY PREDICTED BY IDOCK:   -9.02 KCAL/MOL
REMARK 923 INTER-LIGAND FREE ENERGY PREDICTED BY IDOCK:   -8.13 KCAL/MOL
REMARK 924 INTRA-LIGAND FREE ENERGY PREDICTED BY IDOCK:   -0.90 KCAL/MOL
REMARK 927      BINDING AFFINITY PREDICTED BY RF-SCORE:    0.00 PKD
ROOT
HETATM    1  O   UNL     1     -10.719  13.308  69.010  1.00  0.00    -0.362 OA 
HETATM    2  C   UNL     1      -9.831  13.063  67.879  1.00  0.00    -0.224 C  
HETATM    3  H   UNL     1     -10.214  13.023  69.763  1.00  0.00     0.000 HD 
HETATM    4  C   UNL     1      -9.628  11.474  67.951  1.00  0.00    -0.178 C  
HETATM    5  C   UNL     1      -8.577  13.933  68.188  1.00  0.00    -0.180 A  
HETATM    6  C   UNL     1     -10.656  13.529  66.647  1.00  0.00    -0.280 A  
HETATM    7  C   UNL     1     -11.006  10.746  67.852  1.00  0.00    -0.344 C  
HETATM    8  C   UNL     1      -8.554  14.803  69.307  1.00  0.00    -0.036 A  
HETATM    9  C   UNL     1     -10.083  13.974  65.446  1.00  0.00    -0.343 A  
HETATM   10  C   UNL     1      -7.497  15.685  69.557  1.00  0.00    -0.192 A  
HETATM   11  C   UNL     1     -10.879  14.386  64.366  1.00  0.00    -0.126 A  
HETATM   12  C   UNL     1     -10.910   9.245  68.046  1.00  0.00    -0.106 C  
HETATM   13  C   UNL     1     -12.265  14.351  64.450  1.00  0.00    -0.481 A  
HETATM   14  C   UNL     1      -6.408  15.717  68.700  1.00  0.00    -0.103 A  
HETATM   15  N   UNL     1      -9.465   8.854  68.304  1.00  0.00    -0.139 N  
HETATM   16  C   UNL     1     -12.867  13.914  65.621  1.00  0.00    -0.467 A  
HETATM   17  C   UNL     1      -7.429  13.956  67.373  1.00  0.00    -0.147 A  
HETATM   18  C   UNL     1      -8.928   9.585  69.530  1.00  0.00    -0.181 C  
HETATM   19  C   UNL     1      -8.630   9.283  67.084  1.00  0.00    -0.128 C  
HETATM   20  C   UNL     1      -6.366  14.843  67.620  1.00  0.00    -0.147 A  
HETATM   21  C   UNL     1     -12.074  13.517  66.698  1.00  0.00    -0.447 A  
HETATM   22  C   UNL     1      -9.011  11.087  69.323  1.00  0.00     0.083 C  
HETATM   23  C   UNL     1      -8.747  10.812  66.869  1.00  0.00    -0.141 C  
ENDROOT
BRANCH  15  24
HETATM   24  C   UNL     1      -9.357   7.313  68.504  1.00  0.00    -0.141 C  
BRANCH  24  25
HETATM   25  C   UNL     1     -10.724   6.598  68.480  1.00  0.00    -0.256 C  
BRANCH  25  26
HETATM   26  O   UNL     1     -10.938   5.896  69.697  1.00  0.00    -0.347 OA 
BRANCH  26  27
HETATM   27  C   UNL     1     -10.603   6.715  70.824  1.00  0.00    -0.226 C  
BRANCH  27  28
HETATM   28  C   UNL     1     -11.845   7.436  71.251  1.00  0.00    -0.330 A  
HETATM   29  C   UNL     1     -13.083   6.778  71.247  1.00  0.00    -0.170 A  
HETATM   30  C   UNL     1     -14.244   7.461  71.604  1.00  0.00    -0.583 A  
HETATM   31  C   UNL     1     -14.179   8.807  71.963  1.00  0.00    -0.493 A  
HETATM   32  C   UNL     1     -12.954   9.471  71.967  1.00  0.00    -0.514 A  
HETATM   33  C   UNL     1     -11.792   8.791  71.610  1.00  0.00    -0.399 A  
ENDBRANCH  27  28
ENDBRANCH  26  27
ENDBRANCH  25  26
ENDBRANCH  24  25
ENDBRANCH  15  24
TORSDOF 5
ENDMDL
MODEL       27
REMARK 921   NORMALIZED FREE ENERGY PREDICTED BY IDOCK:   -5.84 KCAL/MOL
REMARK 922        TOTAL FREE ENERGY PREDICTED BY IDOCK:   -9.02 KCAL/MOL
REMARK 923 INTER-LIGAND FREE ENERGY PREDICTED BY IDOCK:   -8.61 KCAL/MOL
REMARK 924 INTRA-LIGAND FREE ENERGY PREDICTED BY IDOCK:   -0.40 KCAL/MOL
REMARK 927      BINDING AFFINITY PREDICTED BY RF-SCORE:    0.00 PKD
ROOT
HETATM    1  O   UNL     1      -8.469  10.776  66.247  1.00  0.00    -0.150 OA 
HETATM    2  C   UNL     1      -9.491  11.625  66.849  1.00  0.00    -0.185 C  
HETATM    3  H   UNL     1      -8.934   9.978  66.027  1.00  0.00     0.000 HD 
HETATM    4  C   UNL     1      -9.931  10.764  68.128  1.00  0.00    -0.176 C  
HETATM    5  C   UNL     1     -10.558  11.785  65.724  1.00  0.00    -0.312 A  
HETATM    6  C   UNL     1      -8.730  12.931  67.210  1.00  0.00    -0.204 A  
HETATM    7  C   UNL     1      -8.701  10.496  69.050  1.00  0.00    -0.160 C  
HETATM    8  C   UNL     1     -10.333  11.252  64.430  1.00  0.00    -0.388 A  
HETATM    9  C   UNL     1      -9.343  14.188  67.316  1.00  0.00    -0.225 A  
HETATM   10  C   UNL     1     -11.210  11.471  63.360  1.00  0.00    -0.342 A  
HETATM   11  C   UNL     1      -8.604  15.335  67.644  1.00  0.00    -0.178 A  
HETATM   12  C   UNL     1      -9.011   9.574  70.214  1.00  0.00    -0.248 C  
HETATM   13  C   UNL     1      -7.239  15.256  67.888  1.00  0.00    -0.158 A  
HETATM   14  C   UNL     1     -12.359  12.220  63.554  1.00  0.00    -0.670 A  
HETATM   15  N   UNL     1     -10.465   9.143  70.153  1.00  0.00    -0.206 N  
HETATM   16  C   UNL     1      -6.598  14.029  67.795  1.00  0.00    -0.188 A  
HETATM   17  C   UNL     1     -11.762  12.492  65.893  1.00  0.00    -0.480 A  
HETATM   18  C   UNL     1     -10.758   8.445  68.829  1.00  0.00    -0.051 C  
HETATM   19  C   UNL     1     -11.341  10.408  70.234  1.00  0.00    -0.328 C  
HETATM   20  C   UNL     1     -12.644  12.715  64.821  1.00  0.00    -0.530 A  
HETATM   21  C   UNL     1      -7.334  12.892  67.457  1.00  0.00    -0.154 A  
HETATM   22  C   UNL     1     -10.462   9.379  67.668  1.00  0.00    -0.328 C  
HETATM   23  C   UNL     1     -11.008  11.361  69.060  1.00  0.00    -0.288 C  
ENDROOT
BRANCH  15  24
HETATM   24  C   UNL     1     -10.793   8.197  71.345  1.00  0.00    -0.234 C  
BRANCH  24  25
HETATM   25  C   UNL     1     -12.209   7.589  71.270  1.00  0.00    -0.329 C  
BRANCH  25  26
HETATM   26  O   UNL     1     -12.269   6.378  72.012  1.00  0.00    -0.341 OA 
BRANCH  26  27
HETATM   27  C   UNL     1     -11.066   6.182  72.766  1.00  0.00    -0.259 C  
BRANCH  27  28
HETATM   28  C   UNL     1     -10.729   4.722  72.715  1.00  0.00    -0.282 A  
HETATM   29  C   UNL     1     -11.061   3.881  73.785  1.00  0.00    -0.291 A  
HETATM   30  C   UNL     1     -10.710   2.533  73.756  1.00  0.00    -0.265 A  
HETATM   31  C   UNL     1     -10.019   2.016  72.660  1.00  0.00    -0.197 A  
HETATM   32  C   UNL     1      -9.681   2.844  71.593  1.00  0.00    -0.226 A  
HETATM   33  C   UNL     1     -10.030   4.193  71.619  1.00  0.00    -0.240 A  
ENDBRANCH  27  28
ENDBRANCH  26  27
ENDBRANCH  25  26
ENDBRANCH  24  25
ENDBRANCH  15  24
TORSDOF 5
ENDMDL
MODEL       28
REMARK 921   NORMALIZED FREE ENERGY PREDICTED BY IDOCK:   -5.82 KCAL/MOL
REMARK 922        TOTAL FREE ENERGY PREDICTED BY IDOCK:   -8.99 KCAL/MOL
REMARK 923 INTER-LIGAND FREE ENERGY PREDICTED BY IDOCK:   -8.10 KCAL/MOL
REMARK 924 INTRA-LIGAND FREE ENERGY PREDICTED BY IDOCK:   -0.90 KCAL/MOL
REMARK 927      BINDING AFFINITY PREDICTED BY RF-SCORE:    0.00 PKD
ROOT
HETATM    1  O   UNL     1     -12.020  11.460  68.073  1.00  0.00    -0.613 OA 
HETATM    2  C   UNL     1     -11.008  12.468  67.778  1.00  0.00    -0.234 C  
HETATM    3  H   UNL     1     -11.783  11.144  68.937  1.00  0.00     0.000 HD 
HETATM    4  C   UNL     1      -9.658  11.604  67.798  1.00  0.00    -0.178 C  
HETATM    5  C   UNL     1     -11.175  13.515  68.920  1.00  0.00    -0.316 A  
HETATM    6  C   UNL     1     -11.394  12.985  66.364  1.00  0.00    -0.355 A  
HETATM    7  C   UNL     1      -9.735  10.452  66.748  1.00  0.00    -0.224 C  
HETATM    8  C   UNL     1     -12.225  13.396  69.866  1.00  0.00    -0.337 A  
HETATM    9  C   UNL     1     -11.071  14.263  65.885  1.00  0.00    -0.310 A  
HETATM   10  C   UNL     1     -12.481  14.372  70.836  1.00  0.00    -0.424 A  
HETATM   11  C   UNL     1     -11.449  14.677  64.598  1.00  0.00    -0.389 A  
HETATM   12  C   UNL     1      -8.548   9.510  66.799  1.00  0.00    -0.127 C  
HETATM   13  C   UNL     1     -12.145  13.823  63.752  1.00  0.00    -0.385 A  
HETATM   14  C   UNL     1     -11.680  15.500  70.907  1.00  0.00    -0.413 A  
HETATM   15  N   UNL     1      -7.593   9.948  67.895  1.00  0.00    -0.089 N  
HETATM   16  C   UNL     1     -12.480  12.551  64.191  1.00  0.00    -0.518 A  
HETATM   17  C   UNL     1     -10.351  14.647  69.061  1.00  0.00    -0.237 A  
HETATM   18  C   UNL     1      -8.308   9.978  69.242  1.00  0.00    -0.154 C  
HETATM   19  C   UNL     1      -7.119  11.377  67.571  1.00  0.00    -0.106 C  
HETATM   20  C   UNL     1     -10.607  15.630  70.033  1.00  0.00    -0.342 A  
HETATM   21  C   UNL     1     -12.114  12.146  65.475  1.00  0.00    -0.209 A  
HETATM   22  C   UNL     1      -9.485  10.936  69.190  1.00  0.00    -0.107 C  
HETATM   23  C   UNL     1      -8.332  12.336  67.493  1.00  0.00    -0.170 C  
ENDROOT
BRANCH  15  24
HETATM   24  C   UNL     1      -6.371   8.985  67.955  1.00  0.00    -0.055 C  
BRANCH  24  25
HETATM   25  C   UNL     1      -6.417   8.015  69.154  1.00  0.00    -0.036 C  
BRANCH  25  26
HETATM   26  O   UNL     1      -6.993   6.775  68.768  1.00  0.00    -0.073 OA 
BRANCH  26  27
HETATM   27  C   UNL     1      -7.473   6.058  69.913  1.00  0.00    -0.080 C  
BRANCH  27  28
HETATM   28  C   UNL     1      -8.950   6.293  70.012  1.00  0.00    -0.149 A  
HETATM   29  C   UNL     1      -9.524   6.693  71.226  1.00  0.00    -0.166 A  
HETATM   30  C   UNL     1     -10.902   6.871  71.329  1.00  0.00    -0.263 A  
HETATM   31  C   UNL     1     -11.719   6.645  70.220  1.00  0.00    -0.432 A  
HETATM   32  C   UNL     1     -11.159   6.244  69.010  1.00  0.00    -0.446 A  
HETATM   33  C   UNL     1      -9.781   6.064  68.904  1.00  0.00    -0.159 A  
ENDBRANCH  27  28
ENDBRANCH  26  27
ENDBRANCH  25  26
ENDBRANCH  24  25
ENDBRANCH  15  24
TORSDOF 5
ENDMDL
MODEL       29
REMARK 921   NORMALIZED FREE ENERGY PREDICTED BY IDOCK:   -5.80 KCAL/MOL
REMARK 922        TOTAL FREE ENERGY PREDICTED BY IDOCK:   -8.96 KCAL/MOL
REMARK 923 INTER-LIGAND FREE ENERGY PREDICTED BY IDOCK:   -8.43 KCAL/MOL
REMARK 924 INTRA-LIGAND FREE ENERGY PREDICTED BY IDOCK:   -0.53 KCAL/MOL
REMARK 927      BINDING AFFINITY PREDICTED BY RF-SCORE:    0.00 PKD
ROOT
HETATM    1  O   UNL     1      -8.454  10.826  66.349  1.00  0.00    -0.146 OA 
HETATM    2  C   UNL     1      -9.442  11.707  66.961  1.00  0.00    -0.182 C  
HETATM    3  H   UNL     1      -8.948  10.042  66.136  1.00  0.00     0.000 HD 
HETATM    4  C   UNL     1      -9.893  10.864  68.247  1.00  0.00    -0.179 C  
HETATM    5  C   UNL     1     -10.516  11.900  65.849  1.00  0.00    -0.296 A  
HETATM    6  C   UNL     1      -8.635  12.989  67.310  1.00  0.00    -0.206 A  
HETATM    7  C   UNL     1      -8.661  10.558  69.155  1.00  0.00    -0.157 C  
HETATM    8  C   UNL     1     -10.325  11.358  64.553  1.00  0.00    -0.369 A  
HETATM    9  C   UNL     1      -9.206  14.266  67.421  1.00  0.00    -0.200 A  
HETATM   10  C   UNL     1     -11.207  11.603  63.495  1.00  0.00    -0.462 A  
HETATM   11  C   UNL     1      -8.426  15.389  67.737  1.00  0.00    -0.157 A  
HETATM   12  C   UNL     1      -8.986   9.648  70.325  1.00  0.00    -0.219 C  
HETATM   13  C   UNL     1      -7.061  15.266  67.965  1.00  0.00    -0.139 A  
HETATM   14  C   UNL     1     -12.330  12.389  63.701  1.00  0.00    -0.647 A  
HETATM   15  N   UNL     1     -10.454   9.264  70.282  1.00  0.00    -0.211 N  
HETATM   16  C   UNL     1      -6.462  14.019  67.867  1.00  0.00    -0.170 A  
HETATM   17  C   UNL     1     -11.695  12.646  66.032  1.00  0.00    -0.470 A  
HETATM   18  C   UNL     1     -10.785   8.574  68.964  1.00  0.00    -0.092 C  
HETATM   19  C   UNL     1     -11.288  10.556  70.371  1.00  0.00    -0.328 C  
HETATM   20  C   UNL     1     -12.583  12.895  64.970  1.00  0.00    -0.538 A  
HETATM   21  C   UNL     1      -7.237  12.906  67.541  1.00  0.00    -0.149 A  
HETATM   22  C   UNL     1     -10.474   9.495  67.797  1.00  0.00    -0.309 C  
HETATM   23  C   UNL     1     -10.939  11.497  69.191  1.00  0.00    -0.276 C  
ENDROOT
BRANCH  15  24
HETATM   24  C   UNL     1     -10.797   8.331  71.481  1.00  0.00    -0.249 C  
BRANCH  24  25
HETATM   25  C   UNL     1     -12.097   7.526  71.275  1.00  0.00    -0.323 C  
BRANCH  25  26
HETATM   26  O   UNL     1     -11.856   6.138  71.456  1.00  0.00    -0.276 OA 
BRANCH  26  27
HETATM   27  C   UNL     1     -10.452   5.876  71.573  1.00  0.00    -0.233 C  
BRANCH  27  28
HETATM   28  C   UNL     1     -10.082   4.883  70.514  1.00  0.00    -0.312 A  
HETATM   29  C   UNL     1      -9.719   3.575  70.862  1.00  0.00    -0.213 A  
HETATM   30  C   UNL     1      -9.335   2.665  69.880  1.00  0.00    -0.191 A  
HETATM   31  C   UNL     1      -9.305   3.056  68.541  1.00  0.00    -0.243 A  
HETATM   32  C   UNL     1      -9.661   4.354  68.184  1.00  0.00    -0.200 A  
HETATM   33  C   UNL     1     -10.044   5.267  69.164  1.00  0.00    -0.289 A  
ENDBRANCH  27  28
ENDBRANCH  26  27
ENDBRANCH  25  26
ENDBRANCH  24  25
ENDBRANCH  15  24
TORSDOF 5
ENDMDL
MODEL       30
REMARK 921   NORMALIZED FREE ENERGY PREDICTED BY IDOCK:   -5.78 KCAL/MOL
REMARK 922        TOTAL FREE ENERGY PREDICTED BY IDOCK:   -8.94 KCAL/MOL
REMARK 923 INTER-LIGAND FREE ENERGY PREDICTED BY IDOCK:   -8.46 KCAL/MOL
REMARK 924 INTRA-LIGAND FREE ENERGY PREDICTED BY IDOCK:   -0.48 KCAL/MOL
REMARK 927      BINDING AFFINITY PREDICTED BY RF-SCORE:    0.00 PKD
ROOT
HETATM    1  O   UNL     1      -7.824   7.549  68.954  1.00  0.00    -0.118 OA 
HETATM    2  C   UNL     1      -9.240   7.562  68.604  1.00  0.00    -0.144 C  
HETATM    3  H   UNL     1      -7.756   8.185  69.656  1.00  0.00     0.000 HD 
HETATM    4  C   UNL     1      -9.451   9.076  68.120  1.00  0.00    -0.155 C  
HETATM    5  C   UNL     1      -9.959   7.153  69.923  1.00  0.00    -0.184 A  
HETATM    6  C   UNL     1      -9.352   6.522  67.455  1.00  0.00    -0.124 A  
HETATM    7  C   UNL     1      -8.495   9.403  66.930  1.00  0.00    -0.128 C  
HETATM    8  C   UNL     1      -9.215   6.766  71.066  1.00  0.00    -0.156 A  
HETATM    9  C   UNL     1     -10.526   5.814  67.153  1.00  0.00    -0.337 A  
HETATM   10  C   UNL     1      -9.818   6.281  72.232  1.00  0.00    -0.175 A  
HETATM   11  C   UNL     1     -10.567   4.883  66.104  1.00  0.00    -0.322 A  
HETATM   12  C   UNL     1      -8.541  10.858  66.503  1.00  0.00    -0.156 C  
HETATM   13  C   UNL     1      -9.446   4.644  65.320  1.00  0.00    -0.165 A  
HETATM   14  C   UNL     1     -11.199   6.184  72.305  1.00  0.00    -0.334 A  
HETATM   15  N   UNL     1      -9.518  11.619  67.382  1.00  0.00    -0.166 N  
HETATM   16  C   UNL     1      -8.268   5.326  65.587  1.00  0.00    -0.121 A  
HETATM   17  C   UNL     1     -11.359   7.091  70.057  1.00  0.00    -0.293 A  
HETATM   18  C   UNL     1      -9.113  11.507  68.848  1.00  0.00     0.027 C  
HETATM   19  C   UNL     1     -10.908  10.976  67.216  1.00  0.00    -0.281 C  
HETATM   20  C   UNL     1     -11.968   6.603  71.226  1.00  0.00    -0.409 A  
HETATM   21  C   UNL     1      -8.226   6.243  66.639  1.00  0.00    -0.111 A  
HETATM   22  C   UNL     1      -9.085  10.049  69.274  1.00  0.00    -0.208 C  
HETATM   23  C   UNL     1     -10.857   9.484  67.628  1.00  0.00    -0.253 C  
ENDROOT
BRANCH  15  24
HETATM   24  C   UNL     1      -9.572  13.114  66.950  1.00  0.00    -0.248 C  
BRANCH  24  25
HETATM   25  C   UNL     1     -10.955  13.763  67.170  1.00  0.00    -0.290 C  
BRANCH  25  26
HETATM   26  O   UNL     1     -11.068  14.250  68.500  1.00  0.00    -0.239 OA 
BRANCH  26  27
HETATM   27  C   UNL     1     -12.158  13.616  69.183  1.00  0.00    -0.319 C  
BRANCH  27  28
HETATM   28  C   UNL     1     -12.313  14.285  70.515  1.00  0.00    -0.430 A  
HETATM   29  C   UNL     1     -13.134  13.721  71.501  1.00  0.00    -0.435 A  
HETATM   30  C   UNL     1     -13.310  14.365  72.723  1.00  0.00    -0.606 A  
HETATM   31  C   UNL     1     -12.671  15.580  72.970  1.00  0.00    -0.563 A  
HETATM   32  C   UNL     1     -11.855  16.151  71.996  1.00  0.00    -0.615 A  
HETATM   33  C   UNL     1     -11.678  15.510  70.772  1.00  0.00    -0.397 A  
ENDBRANCH  27  28
ENDBRANCH  26  27
ENDBRANCH  25  26
ENDBRANCH  24  25
ENDBRANCH  15  24
TORSDOF 5
ENDMDL
MODEL       31
REMARK 921   NORMALIZED FREE ENERGY PREDICTED BY IDOCK:   -5.75 KCAL/MOL
REMARK 922        TOTAL FREE ENERGY PREDICTED BY IDOCK:   -8.90 KCAL/MOL
REMARK 923 INTER-LIGAND FREE ENERGY PREDICTED BY IDOCK:   -7.67 KCAL/MOL
REMARK 924 INTRA-LIGAND FREE ENERGY PREDICTED BY IDOCK:   -1.23 KCAL/MOL
REMARK 927      BINDING AFFINITY PREDICTED BY RF-SCORE:    0.00 PKD
ROOT
HETATM    1  O   UNL     1      -8.450  10.766  66.307  1.00  0.00    -0.150 OA 
HETATM    2  C   UNL     1      -9.444  11.654  66.898  1.00  0.00    -0.185 C  
HETATM    3  H   UNL     1      -8.947   9.993  66.066  1.00  0.00     0.000 HD 
HETATM    4  C   UNL     1      -9.952  10.799  68.155  1.00  0.00    -0.176 C  
HETATM    5  C   UNL     1     -10.477  11.879  65.754  1.00  0.00    -0.295 A  
HETATM    6  C   UNL     1      -8.630  12.917  67.294  1.00  0.00    -0.205 A  
HETATM    7  C   UNL     1      -8.757  10.460  69.100  1.00  0.00    -0.173 C  
HETATM    8  C   UNL     1     -10.249  11.354  64.457  1.00  0.00    -0.352 A  
HETATM    9  C   UNL     1      -9.185  14.201  67.405  1.00  0.00    -0.204 A  
HETATM   10  C   UNL     1     -11.090  11.627  63.372  1.00  0.00    -0.422 A  
HETATM   11  C   UNL     1      -8.400  15.307  67.765  1.00  0.00    -0.161 A  
HETATM   12  C   UNL     1      -9.135   9.539  70.244  1.00  0.00    -0.253 C  
HETATM   13  C   UNL     1      -7.046  15.160  68.037  1.00  0.00    -0.139 A  
HETATM   14  C   UNL     1     -12.208  12.428  63.552  1.00  0.00    -0.661 A  
HETATM   15  N   UNL     1     -10.607   9.179  70.146  1.00  0.00    -0.217 N  
HETATM   16  C   UNL     1      -6.462  13.905  67.941  1.00  0.00    -0.168 A  
HETATM   17  C   UNL     1     -11.650  12.641  65.907  1.00  0.00    -0.443 A  
HETATM   18  C   UNL     1     -10.903   8.513  68.806  1.00  0.00     0.043 C  
HETATM   19  C   UNL     1     -11.423  10.482  70.226  1.00  0.00    -0.333 C  
HETATM   20  C   UNL     1     -12.496  12.920  64.819  1.00  0.00    -0.517 A  
HETATM   21  C   UNL     1      -7.243  12.809  67.571  1.00  0.00    -0.154 A  
HETATM   22  C   UNL     1     -10.538   9.446  67.665  1.00  0.00    -0.333 C  
HETATM   23  C   UNL     1     -11.020  11.434  69.073  1.00  0.00    -0.288 C  
ENDROOT
BRANCH  15  24
HETATM   24  C   UNL     1     -11.005   8.233  71.317  1.00  0.00    -0.243 C  
BRANCH  24  25
HETATM   25  C   UNL     1     -11.224   6.771  70.873  1.00  0.00    -0.292 C  
BRANCH  25  26
HETATM   26  O   UNL     1     -10.043   6.008  71.075  1.00  0.00    -0.182 OA 
BRANCH  26  27
HETATM   27  C   UNL     1      -9.982   4.911  70.154  1.00  0.00    -0.255 C  
BRANCH  27  28
HETATM   28  C   UNL     1      -9.459   5.437  68.851  1.00  0.00    -0.174 A  
HETATM   29  C   UNL     1     -10.181   5.239  67.666  1.00  0.00    -0.223 A  
HETATM   30  C   UNL     1      -9.674   5.691  66.450  1.00  0.00    -0.180 A  
HETATM   31  C   UNL     1      -8.439   6.340  66.406  1.00  0.00    -0.125 A  
HETATM   32  C   UNL     1      -7.713   6.538  67.578  1.00  0.00    -0.106 A  
HETATM   33  C   UNL     1      -8.216   6.087  68.796  1.00  0.00    -0.104 A  
ENDBRANCH  27  28
ENDBRANCH  26  27
ENDBRANCH  25  26
ENDBRANCH  24  25
ENDBRANCH  15  24
TORSDOF 5
ENDMDL
MODEL       32
REMARK 921   NORMALIZED FREE ENERGY PREDICTED BY IDOCK:   -5.75 KCAL/MOL
REMARK 922        TOTAL FREE ENERGY PREDICTED BY IDOCK:   -8.90 KCAL/MOL
REMARK 923 INTER-LIGAND FREE ENERGY PREDICTED BY IDOCK:   -7.18 KCAL/MOL
REMARK 924 INTRA-LIGAND FREE ENERGY PREDICTED BY IDOCK:   -1.71 KCAL/MOL
REMARK 927      BINDING AFFINITY PREDICTED BY RF-SCORE:    0.00 PKD
ROOT
HETATM    1  O   UNL     1      -8.300  12.354  66.585  1.00  0.00    -0.368 OA 
HETATM    2  C   UNL     1      -9.192  11.291  66.137  1.00  0.00    -0.206 C  
HETATM    3  H   UNL     1      -7.681  11.910  67.152  1.00  0.00     0.000 HD 
HETATM    4  C   UNL     1      -9.833  10.787  67.517  1.00  0.00    -0.197 C  
HETATM    5  C   UNL     1      -8.248  10.289  65.408  1.00  0.00    -0.156 A  
HETATM    6  C   UNL     1     -10.205  12.018  65.209  1.00  0.00    -0.304 A  
HETATM    7  C   UNL     1     -10.557  11.965  68.241  1.00  0.00    -0.236 C  
HETATM    8  C   UNL     1      -6.876  10.591  65.216  1.00  0.00    -0.050 A  
HETATM    9  C   UNL     1     -10.900  11.387  64.166  1.00  0.00    -0.431 A  
HETATM   10  C   UNL     1      -6.019   9.775  64.469  1.00  0.00    -0.094 A  
HETATM   11  C   UNL     1     -11.803  12.096  63.358  1.00  0.00    -0.553 A  
HETATM   12  C   UNL     1     -11.075  11.599  69.618  1.00  0.00    -0.108 C  
HETATM   13  C   UNL     1     -12.047  13.446  63.579  1.00  0.00    -0.497 A  
HETATM   14  C   UNL     1      -6.503   8.609  63.897  1.00  0.00    -0.076 A  
HETATM   15  N   UNL     1     -10.726  10.154  69.928  1.00  0.00    -0.275 N  
HETATM   16  C   UNL     1     -11.380  14.102  64.602  1.00  0.00    -0.374 A  
HETATM   17  C   UNL     1      -8.686   9.069  64.859  1.00  0.00    -0.200 A  
HETATM   18  C   UNL     1      -9.218   9.944  69.854  1.00  0.00    -0.212 C  
HETATM   19  C   UNL     1     -11.389   9.263  68.861  1.00  0.00     0.331 C  
HETATM   20  C   UNL     1      -7.829   8.248  64.105  1.00  0.00    -0.145 A  
HETATM   21  C   UNL     1     -10.474  13.398  65.397  1.00  0.00    -0.310 A  
HETATM   22  C   UNL     1      -8.707  10.296  68.468  1.00  0.00    -0.130 C  
HETATM   23  C   UNL     1     -10.880   9.653  67.452  1.00  0.00    -0.242 C  
ENDROOT
BRANCH  15  24
HETATM   24  C   UNL     1     -11.256   9.768  71.342  1.00  0.00    -0.298 C  
BRANCH  24  25
HETATM   25  C   UNL     1     -10.475   8.605  71.988  1.00  0.00    -0.352 C  
BRANCH  25  26
HETATM   26  O   UNL     1     -11.069   7.359  71.648  1.00  0.00    -0.233 OA 
BRANCH  26  27
HETATM   27  C   UNL     1     -10.065   6.381  71.350  1.00  0.00    -0.189 C  
BRANCH  27  28
HETATM   28  C   UNL     1      -9.899   6.335  69.861  1.00  0.00    -0.198 A  
HETATM   29  C   UNL     1     -10.961   5.927  69.042  1.00  0.00    -0.359 A  
HETATM   30  C   UNL     1     -10.793   5.844  67.661  1.00  0.00    -0.331 A  
HETATM   31  C   UNL     1      -9.561   6.163  67.088  1.00  0.00    -0.139 A  
HETATM   32  C   UNL     1      -8.499   6.567  67.894  1.00  0.00    -0.118 A  
HETATM   33  C   UNL     1      -8.664   6.649  69.275  1.00  0.00    -0.131 A  
ENDBRANCH  27  28
ENDBRANCH  26  27
ENDBRANCH  25  26
ENDBRANCH  24  25
ENDBRANCH  15  24
TORSDOF 5
ENDMDL
MODEL       33
REMARK 921   NORMALIZED FREE ENERGY PREDICTED BY IDOCK:   -5.74 KCAL/MOL
REMARK 922        TOTAL FREE ENERGY PREDICTED BY IDOCK:   -8.88 KCAL/MOL
REMARK 923 INTER-LIGAND FREE ENERGY PREDICTED BY IDOCK:   -8.59 KCAL/MOL
REMARK 924 INTRA-LIGAND FREE ENERGY PREDICTED BY IDOCK:   -0.29 KCAL/MOL
REMARK 927      BINDING AFFINITY PREDICTED BY RF-SCORE:    0.00 PKD
ROOT
HETATM    1  O   UNL     1     -11.147   7.709  68.095  1.00  0.00    -0.446 OA 
HETATM    2  C   UNL     1      -9.962   8.299  68.706  1.00  0.00    -0.183 C  
HETATM    3  H   UNL     1     -10.988   7.790  67.162  1.00  0.00     0.000 HD 
HETATM    4  C   UNL     1     -10.026   9.809  68.172  1.00  0.00    -0.179 C  
HETATM    5  C   UNL     1      -8.787   7.427  68.170  1.00  0.00    -0.127 A  
HETATM    6  C   UNL     1     -10.222   8.168  70.232  1.00  0.00    -0.200 A  
HETATM    7  C   UNL     1     -11.368  10.480  68.603  1.00  0.00    -0.315 C  
HETATM    8  C   UNL     1      -9.038   6.278  67.378  1.00  0.00    -0.111 A  
HETATM    9  C   UNL     1      -9.204   8.103  71.196  1.00  0.00    -0.185 A  
HETATM   10  C   UNL     1      -8.024   5.403  66.973  1.00  0.00    -0.101 A  
HETATM   11  C   UNL     1      -9.499   7.982  72.563  1.00  0.00    -0.297 A  
HETATM   12  C   UNL     1     -11.561  11.868  68.022  1.00  0.00    -0.332 C  
HETATM   13  C   UNL     1     -10.815   7.937  73.005  1.00  0.00    -0.408 A  
HETATM   14  C   UNL     1      -6.710   5.658  67.332  1.00  0.00    -0.059 A  
HETATM   15  N   UNL     1     -10.373  12.226  67.147  1.00  0.00    -0.217 N  
HETATM   16  C   UNL     1     -11.849   8.001  72.081  1.00  0.00    -0.401 A  
HETATM   17  C   UNL     1      -7.435   7.680  68.467  1.00  0.00    -0.104 A  
HETATM   18  C   UNL     1     -10.206  11.201  66.031  1.00  0.00    -0.250 C  
HETATM   19  C   UNL     1      -9.108  12.194  68.025  1.00  0.00    -0.190 C  
HETATM   20  C   UNL     1      -6.414   6.802  68.063  1.00  0.00    -0.053 A  
HETATM   21  C   UNL     1     -11.552   8.109  70.722  1.00  0.00    -0.249 A  
HETATM   22  C   UNL     1      -9.996   9.816  66.619  1.00  0.00    -0.292 C  
HETATM   23  C   UNL     1      -8.923  10.784  68.639  1.00  0.00    -0.162 C  
ENDROOT
BRANCH  15  24
HETATM   24  C   UNL     1     -10.563  13.651  66.547  1.00  0.00    -0.282 C  
BRANCH  24  25
HETATM   25  C   UNL     1     -11.339  14.606  67.477  1.00  0.00    -0.348 C  
BRANCH  25  26
HETATM   26  O   UNL     1     -10.937  15.951  67.255  1.00  0.00    -0.310 OA 
BRANCH  26  27
HETATM   27  C   UNL     1     -10.411  16.531  68.456  1.00  0.00    -0.289 C  
BRANCH  27  28
HETATM   28  C   UNL     1      -9.822  17.862  68.100  1.00  0.00    -0.334 A  
HETATM   29  C   UNL     1     -10.594  18.826  67.439  1.00  0.00    -0.505 A  
HETATM   30  C   UNL     1     -10.033  20.047  67.071  1.00  0.00    -0.582 A  
HETATM   31  C   UNL     1      -8.694  20.313  67.357  1.00  0.00    -0.428 A  
HETATM   32  C   UNL     1      -7.917  19.361  68.012  1.00  0.00    -0.340 A  
HETATM   33  C   UNL     1      -8.474  18.138  68.380  1.00  0.00    -0.311 A  
ENDBRANCH  27  28
ENDBRANCH  26  27
ENDBRANCH  25  26
ENDBRANCH  24  25
ENDBRANCH  15  24
TORSDOF 5
ENDMDL
MODEL       34
REMARK 921   NORMALIZED FREE ENERGY PREDICTED BY IDOCK:   -5.73 KCAL/MOL
REMARK 922        TOTAL FREE ENERGY PREDICTED BY IDOCK:   -8.87 KCAL/MOL
REMARK 923 INTER-LIGAND FREE ENERGY PREDICTED BY IDOCK:   -8.43 KCAL/MOL
REMARK 924 INTRA-LIGAND FREE ENERGY PREDICTED BY IDOCK:   -0.43 KCAL/MOL
REMARK 927      BINDING AFFINITY PREDICTED BY RF-SCORE:    0.00 PKD
ROOT
HETATM    1  O   UNL     1      -8.169  11.691  66.070  1.00  0.00    -0.374 OA 
HETATM    2  C   UNL     1      -9.336  12.216  66.770  1.00  0.00    -0.212 C  
HETATM    3  H   UNL     1      -8.471  10.866  65.709  1.00  0.00     0.000 HD 
HETATM    4  C   UNL     1      -9.598  11.087  67.878  1.00  0.00    -0.180 C  
HETATM    5  C   UNL     1     -10.415  12.352  65.655  1.00  0.00    -0.290 A  
HETATM    6  C   UNL     1      -8.843  13.566  67.362  1.00  0.00    -0.221 A  
HETATM    7  C   UNL     1      -8.337  10.911  68.781  1.00  0.00    -0.151 C  
HETATM    8  C   UNL     1     -10.094  12.094  64.298  1.00  0.00    -0.317 A  
HETATM    9  C   UNL     1      -9.688  14.647  67.653  1.00  0.00    -0.214 A  
HETATM   10  C   UNL     1     -10.998  12.314  63.253  1.00  0.00    -0.373 A  
HETATM   11  C   UNL     1      -9.185  15.844  68.185  1.00  0.00    -0.190 A  
HETATM   12  C   UNL     1      -8.460   9.768  69.770  1.00  0.00    -0.193 C  
HETATM   13  C   UNL     1      -7.830  15.989  68.455  1.00  0.00    -0.149 A  
HETATM   14  C   UNL     1     -12.271  12.786  63.531  1.00  0.00    -0.613 A  
HETATM   15  N   UNL     1      -9.803   9.082  69.595  1.00  0.00    -0.173 N  
HETATM   16  C   UNL     1      -6.964  14.940  68.183  1.00  0.00    -0.132 A  
HETATM   17  C   UNL     1     -11.734  12.777  65.900  1.00  0.00    -0.464 A  
HETATM   18  C   UNL     1      -9.957   8.569  68.167  1.00  0.00    -0.181 C  
HETATM   19  C   UNL     1     -10.908  10.123  69.854  1.00  0.00    -0.299 C  
HETATM   20  C   UNL     1     -12.644  13.001  64.851  1.00  0.00    -0.490 A  
HETATM   21  C   UNL     1      -7.465  13.755  67.642  1.00  0.00    -0.187 A  
HETATM   22  C   UNL     1      -9.850   9.721  67.183  1.00  0.00    -0.238 C  
HETATM   23  C   UNL     1     -10.768  11.304  68.862  1.00  0.00    -0.246 C  
ENDROOT
BRANCH  15  24
HETATM   24  C   UNL     1      -9.938   7.906  70.608  1.00  0.00    -0.186 C  
BRANCH  24  25
HETATM   25  C   UNL     1     -11.383   7.383  70.746  1.00  0.00    -0.280 C  
BRANCH  25  26
HETATM   26  O   UNL     1     -11.570   6.224  69.945  1.00  0.00    -0.435 OA 
BRANCH  26  27
HETATM   27  C   UNL     1     -10.435   5.354  70.035  1.00  0.00    -0.303 C  
BRANCH  27  28
HETATM   28  C   UNL     1     -10.130   4.856  68.655  1.00  0.00    -0.159 A  
HETATM   29  C   UNL     1     -10.706   5.471  67.535  1.00  0.00    -0.211 A  
HETATM   30  C   UNL     1     -10.456   4.981  66.256  1.00  0.00    -0.352 A  
HETATM   31  C   UNL     1      -9.631   3.869  66.084  1.00  0.00    -0.193 A  
HETATM   32  C   UNL     1      -9.056   3.248  67.190  1.00  0.00    -0.200 A  
HETATM   33  C   UNL     1      -9.306   3.735  68.471  1.00  0.00    -0.227 A  
ENDBRANCH  27  28
ENDBRANCH  26  27
ENDBRANCH  25  26
ENDBRANCH  24  25
ENDBRANCH  15  24
TORSDOF 5
ENDMDL
MODEL       35
REMARK 921   NORMALIZED FREE ENERGY PREDICTED BY IDOCK:   -5.70 KCAL/MOL
REMARK 922        TOTAL FREE ENERGY PREDICTED BY IDOCK:   -8.84 KCAL/MOL
REMARK 923 INTER-LIGAND FREE ENERGY PREDICTED BY IDOCK:   -8.50 KCAL/MOL
REMARK 924 INTRA-LIGAND FREE ENERGY PREDICTED BY IDOCK:   -0.33 KCAL/MOL
REMARK 927      BINDING AFFINITY PREDICTED BY RF-SCORE:    0.00 PKD
ROOT
HETATM    1  O   UNL     1     -11.177   8.495  68.193  1.00  0.00    -0.329 OA 
HETATM    2  C   UNL     1      -9.889   9.161  68.347  1.00  0.00    -0.164 C  
HETATM    3  H   UNL     1     -11.416   8.667  67.289  1.00  0.00     0.000 HD 
HETATM    4  C   UNL     1     -10.266  10.693  68.064  1.00  0.00    -0.202 C  
HETATM    5  C   UNL     1      -8.976   8.467  67.292  1.00  0.00    -0.141 A  
HETATM    6  C   UNL     1      -9.497   8.880  69.825  1.00  0.00    -0.174 A  
HETATM    7  C   UNL     1     -11.359  11.177  69.067  1.00  0.00    -0.343 C  
HETATM    8  C   UNL     1      -9.449   7.365  66.536  1.00  0.00    -0.229 A  
HETATM    9  C   UNL     1      -8.174   8.851  70.290  1.00  0.00    -0.134 A  
HETATM   10  C   UNL     1      -8.630   6.641  65.662  1.00  0.00    -0.130 A  
HETATM   11  C   UNL     1      -7.879   8.590  71.638  1.00  0.00    -0.160 A  
HETATM   12  C   UNL     1     -11.865  12.577  68.777  1.00  0.00    -0.303 C  
HETATM   13  C   UNL     1      -8.896   8.367  72.557  1.00  0.00    -0.296 A  
HETATM   14  C   UNL     1      -7.304   7.008  65.497  1.00  0.00    -0.079 A  
HETATM   15  N   UNL     1     -11.162  13.132  67.551  1.00  0.00    -0.271 N  
HETATM   16  C   UNL     1     -10.217   8.390  72.135  1.00  0.00    -0.390 A  
HETATM   17  C   UNL     1      -7.641   8.842  67.055  1.00  0.00    -0.094 A  
HETATM   18  C   UNL     1     -11.393  12.223  66.349  1.00  0.00    -0.354 C  
HETATM   19  C   UNL     1      -9.650  13.167  67.844  1.00  0.00    -0.218 C  
HETATM   20  C   UNL     1      -6.815   8.116  66.179  1.00  0.00    -0.058 A  
HETATM   21  C   UNL     1     -10.506   8.638  70.792  1.00  0.00    -0.249 A  
HETATM   22  C   UNL     1     -10.870  10.827  66.638  1.00  0.00    -0.228 C  
HETATM   23  C   UNL     1      -9.137  11.742  68.165  1.00  0.00    -0.185 C  
ENDROOT
BRANCH  15  24
HETATM   24  C   UNL     1     -11.675  14.570  67.246  1.00  0.00    -0.406 C  
BRANCH  24  25
HETATM   25  C   UNL     1     -11.726  15.477  68.494  1.00  0.00    -0.337 C  
BRANCH  25  26
HETATM   26  O   UNL     1     -11.342  16.803  68.160  1.00  0.00    -0.255 OA 
BRANCH  26  27
HETATM   27  C   UNL     1     -10.358  17.296  69.078  1.00  0.00    -0.330 C  
BRANCH  27  28
HETATM   28  C   UNL     1      -9.624  18.415  68.405  1.00  0.00    -0.366 A  
HETATM   29  C   UNL     1      -8.229  18.376  68.282  1.00  0.00    -0.317 A  
HETATM   30  C   UNL     1      -7.544  19.436  67.693  1.00  0.00    -0.292 A  
HETATM   31  C   UNL     1      -8.246  20.548  67.227  1.00  0.00    -0.360 A  
HETATM   32  C   UNL     1      -9.633  20.599  67.347  1.00  0.00    -0.544 A  
HETATM   33  C   UNL     1     -10.321  19.540  67.937  1.00  0.00    -0.567 A  
ENDBRANCH  27  28
ENDBRANCH  26  27
ENDBRANCH  25  26
ENDBRANCH  24  25
ENDBRANCH  15  24
TORSDOF 5
ENDMDL
MODEL       36
REMARK 921   NORMALIZED FREE ENERGY PREDICTED BY IDOCK:   -5.70 KCAL/MOL
REMARK 922        TOTAL FREE ENERGY PREDICTED BY IDOCK:   -8.83 KCAL/MOL
REMARK 923 INTER-LIGAND FREE ENERGY PREDICTED BY IDOCK:   -7.40 KCAL/MOL
REMARK 924 INTRA-LIGAND FREE ENERGY PREDICTED BY IDOCK:   -1.43 KCAL/MOL
REMARK 927      BINDING AFFINITY PREDICTED BY RF-SCORE:    0.00 PKD
ROOT
HETATM    1  O   UNL     1      -9.934   9.119  65.370  1.00  0.00    -0.428 OA 
HETATM    2  C   UNL     1      -9.157   9.646  66.485  1.00  0.00    -0.154 C  
HETATM    3  H   UNL     1     -10.804   9.000  65.733  1.00  0.00     0.000 HD 
HETATM    4  C   UNL     1      -9.250   8.453  67.553  1.00  0.00    -0.158 C  
HETATM    5  C   UNL     1      -9.888  10.969  66.863  1.00  0.00    -0.222 A  
HETATM    6  C   UNL     1      -7.733   9.839  65.892  1.00  0.00    -0.105 A  
HETATM    7  C   UNL     1      -8.679   7.135  66.944  1.00  0.00    -0.126 C  
HETATM    8  C   UNL     1     -10.974  11.446  66.086  1.00  0.00    -0.294 A  
HETATM    9  C   UNL     1      -6.803  10.770  66.379  1.00  0.00    -0.135 A  
HETATM   10  C   UNL     1     -11.584  12.683  66.319  1.00  0.00    -0.440 A  
HETATM   11  C   UNL     1      -5.531  10.902  65.802  1.00  0.00    -0.137 A  
HETATM   12  C   UNL     1      -8.855   5.929  67.847  1.00  0.00    -0.105 C  
HETATM   13  C   UNL     1      -5.148  10.100  64.734  1.00  0.00    -0.084 A  
HETATM   14  C   UNL     1     -11.138  13.486  67.357  1.00  0.00    -0.300 A  
HETATM   15  N   UNL     1      -9.569   6.343  69.121  1.00  0.00    -0.136 N  
HETATM   16  C   UNL     1      -6.040   9.167  64.226  1.00  0.00    -0.072 A  
HETATM   17  C   UNL     1      -9.502  11.788  67.940  1.00  0.00    -0.191 A  
HETATM   18  C   UNL     1     -10.922   6.965  68.794  1.00  0.00    -0.157 C  
HETATM   19  C   UNL     1      -8.707   7.408  69.825  1.00  0.00    -0.141 C  
HETATM   20  C   UNL     1     -10.112  13.033  68.176  1.00  0.00    -0.237 A  
HETATM   21  C   UNL     1      -7.309   9.046  64.795  1.00  0.00    -0.100 A  
HETATM   22  C   UNL     1     -10.739   8.182  67.904  1.00  0.00    -0.138 C  
HETATM   23  C   UNL     1      -8.506   8.630  68.894  1.00  0.00    -0.129 C  
ENDROOT
BRANCH  15  24
HETATM   24  C   UNL     1      -9.753   5.111  70.055  1.00  0.00    -0.205 C  
BRANCH  24  25
HETATM   25  C   UNL     1      -9.670   5.464  71.555  1.00  0.00    -0.159 C  
BRANCH  25  26
HETATM   26  O   UNL     1     -10.936   5.897  72.033  1.00  0.00    -0.245 OA 
BRANCH  26  27
HETATM   27  C   UNL     1     -10.802   7.078  72.834  1.00  0.00    -0.301 C  
BRANCH  27  28
HETATM   28  C   UNL     1     -11.571   8.175  72.163  1.00  0.00    -0.417 A  
HETATM   29  C   UNL     1     -10.900   9.250  71.566  1.00  0.00    -0.442 A  
HETATM   30  C   UNL     1     -11.617  10.290  70.979  1.00  0.00    -0.430 A  
HETATM   31  C   UNL     1     -13.011  10.267  70.988  1.00  0.00    -0.488 A  
HETATM   32  C   UNL     1     -13.689   9.205  71.581  1.00  0.00    -0.433 A  
HETATM   33  C   UNL     1     -12.975   8.164  72.170  1.00  0.00    -0.287 A  
ENDBRANCH  27  28
ENDBRANCH  26  27
ENDBRANCH  25  26
ENDBRANCH  24  25
ENDBRANCH  15  24
TORSDOF 5
ENDMDL
MODEL       37
REMARK 921   NORMALIZED FREE ENERGY PREDICTED BY IDOCK:   -5.68 KCAL/MOL
REMARK 922        TOTAL FREE ENERGY PREDICTED BY IDOCK:   -8.80 KCAL/MOL
REMARK 923 INTER-LIGAND FREE ENERGY PREDICTED BY IDOCK:   -7.12 KCAL/MOL
REMARK 924 INTRA-LIGAND FREE ENERGY PREDICTED BY IDOCK:   -1.68 KCAL/MOL
REMARK 927      BINDING AFFINITY PREDICTED BY RF-SCORE:    0.00 PKD
ROOT
HETATM    1  O   UNL     1      -9.055  12.496  68.845  1.00  0.00    -0.381 OA 
HETATM    2  C   UNL     1      -9.507  11.409  67.984  1.00  0.00    -0.181 C  
HETATM    3  H   UNL     1      -8.404  12.089  69.405  1.00  0.00     0.000 HD 
HETATM    4  C   UNL     1     -10.126  10.378  69.044  1.00  0.00    -0.227 C  
HETATM    5  C   UNL     1      -8.214  10.949  67.247  1.00  0.00    -0.123 A  
HETATM    6  C   UNL     1     -10.573  12.075  67.069  1.00  0.00    -0.258 A  
HETATM    7  C   UNL     1     -11.266  11.061  69.863  1.00  0.00    -0.327 C  
HETATM    8  C   UNL     1      -6.993  11.648  67.418  1.00  0.00    -0.117 A  
HETATM    9  C   UNL     1     -10.901  11.610  65.787  1.00  0.00    -0.334 A  
HETATM   10  C   UNL     1      -5.838  11.341  66.689  1.00  0.00    -0.138 A  
HETATM   11  C   UNL     1     -11.871  12.254  65.003  1.00  0.00    -0.412 A  
HETATM   12  C   UNL     1     -11.812  10.189  70.978  1.00  0.00    -0.383 C  
HETATM   13  C   UNL     1     -12.549  13.367  65.484  1.00  0.00    -0.520 A  
HETATM   14  C   UNL     1      -5.859  10.304  65.770  1.00  0.00    -0.092 A  
HETATM   15  N   UNL     1     -11.071   8.863  71.000  1.00  0.00    -0.258 N  
HETATM   16  C   UNL     1     -12.254  13.853  66.748  1.00  0.00    -0.438 A  
HETATM   17  C   UNL     1      -8.179   9.869  66.346  1.00  0.00    -0.117 A  
HETATM   18  C   UNL     1      -9.575   9.094  71.189  1.00  0.00    -0.277 C  
HETATM   19  C   UNL     1     -11.284   8.174  69.640  1.00  0.00     0.095 C  
HETATM   20  C   UNL     1      -7.021   9.559  65.611  1.00  0.00    -0.092 A  
HETATM   21  C   UNL     1     -11.279  13.219  67.521  1.00  0.00    -0.309 A  
HETATM   22  C   UNL     1      -9.031   9.953  70.061  1.00  0.00    -0.206 C  
HETATM   23  C   UNL     1     -10.750   9.075  68.498  1.00  0.00    -0.140 C  
ENDROOT
BRANCH  15  24
HETATM   24  C   UNL     1     -11.625   7.961  72.143  1.00  0.00    -0.328 C  
BRANCH  24  25
HETATM   25  C   UNL     1     -10.545   7.077  72.800  1.00  0.00    -0.254 C  
BRANCH  25  26
HETATM   26  O   UNL     1     -10.543   5.781  72.217  1.00  0.00    -0.202 OA 
BRANCH  26  27
HETATM   27  C   UNL     1      -9.208   5.370  71.894  1.00  0.00    -0.138 C  
BRANCH  27  28
HETATM   28  C   UNL     1      -9.030   5.519  70.413  1.00  0.00    -0.156 A  
HETATM   29  C   UNL     1      -9.894   4.863  69.526  1.00  0.00    -0.287 A  
HETATM   30  C   UNL     1      -9.702   4.969  68.150  1.00  0.00    -0.199 A  
HETATM   31  C   UNL     1      -8.643   5.726  67.649  1.00  0.00    -0.101 A  
HETATM   32  C   UNL     1      -7.777   6.380  68.523  1.00  0.00    -0.104 A  
HETATM   33  C   UNL     1      -7.965   6.275  69.899  1.00  0.00    -0.115 A  
ENDBRANCH  27  28
ENDBRANCH  26  27
ENDBRANCH  25  26
ENDBRANCH  24  25
ENDBRANCH  15  24
TORSDOF 5
ENDMDL
MODEL       38
REMARK 921   NORMALIZED FREE ENERGY PREDICTED BY IDOCK:   -5.60 KCAL/MOL
REMARK 922        TOTAL FREE ENERGY PREDICTED BY IDOCK:   -8.70 KCAL/MOL
REMARK 923 INTER-LIGAND FREE ENERGY PREDICTED BY IDOCK:   -8.31 KCAL/MOL
REMARK 924 INTRA-LIGAND FREE ENERGY PREDICTED BY IDOCK:   -0.38 KCAL/MOL
REMARK 927      BINDING AFFINITY PREDICTED BY RF-SCORE:    0.00 PKD
ROOT
HETATM    1  O   UNL     1     -11.279   7.713  68.131  1.00  0.00    -0.398 OA 
HETATM    2  C   UNL     1      -9.963   7.991  68.695  1.00  0.00    -0.189 C  
HETATM    3  H   UNL     1     -11.146   7.781  67.193  1.00  0.00     0.000 HD 
HETATM    4  C   UNL     1      -9.691   9.488  68.191  1.00  0.00    -0.166 C  
HETATM    5  C   UNL     1      -9.052   6.882  68.089  1.00  0.00    -0.124 A  
HETATM    6  C   UNL     1     -10.182   7.882  70.230  1.00  0.00    -0.200 A  
HETATM    7  C   UNL     1     -10.817  10.444  68.697  1.00  0.00    -0.270 C  
HETATM    8  C   UNL     1      -9.601   5.847  67.290  1.00  0.00    -0.122 A  
HETATM    9  C   UNL     1      -9.168   7.553  71.142  1.00  0.00    -0.151 A  
HETATM   10  C   UNL     1      -8.840   4.770  66.822  1.00  0.00    -0.110 A  
HETATM   11  C   UNL     1      -9.425   7.467  72.519  1.00  0.00    -0.192 A  
HETATM   12  C   UNL     1     -10.701  11.853  68.150  1.00  0.00    -0.215 C  
HETATM   13  C   UNL     1     -10.694   7.721  73.023  1.00  0.00    -0.446 A  
HETATM   14  C   UNL     1      -7.489   4.698  67.122  1.00  0.00    -0.085 A  
HETATM   15  N   UNL     1      -9.500  11.947  67.225  1.00  0.00    -0.174 N  
HETATM   16  C   UNL     1     -11.721   8.051  72.152  1.00  0.00    -0.399 A  
HETATM   17  C   UNL     1      -7.667   6.802  68.325  1.00  0.00    -0.106 A  
HETATM   18  C   UNL     1      -9.628  10.942  66.085  1.00  0.00    -0.202 C  
HETATM   19  C   UNL     1      -8.243  11.593  68.040  1.00  0.00    -0.146 C  
HETATM   20  C   UNL     1      -6.900   5.720  67.857  1.00  0.00    -0.060 A  
HETATM   21  C   UNL     1     -11.466   8.124  70.782  1.00  0.00    -0.272 A  
HETATM   22  C   UNL     1      -9.727   9.531  66.638  1.00  0.00    -0.270 C  
HETATM   23  C   UNL     1      -8.370  10.163  68.621  1.00  0.00    -0.116 C  
ENDROOT
BRANCH  15  24
HETATM   24  C   UNL     1      -9.374  13.392  66.659  1.00  0.00    -0.241 C  
BRANCH  24  25
HETATM   25  C   UNL     1     -10.615  13.846  65.863  1.00  0.00    -0.293 C  
BRANCH  25  26
HETATM   26  O   UNL     1     -11.054  15.121  66.311  1.00  0.00    -0.337 OA 
BRANCH  26  27
HETATM   27  C   UNL     1     -10.430  16.168  65.557  1.00  0.00    -0.386 C  
BRANCH  27  28
HETATM   28  C   UNL     1     -10.401  17.395  66.417  1.00  0.00    -0.317 A  
HETATM   29  C   UNL     1     -10.505  18.668  65.841  1.00  0.00    -0.395 A  
HETATM   30  C   UNL     1     -10.436  19.809  66.637  1.00  0.00    -0.615 A  
HETATM   31  C   UNL     1     -10.257  19.689  68.015  1.00  0.00    -0.579 A  
HETATM   32  C   UNL     1     -10.149  18.429  68.598  1.00  0.00    -0.407 A  
HETATM   33  C   UNL     1     -10.217  17.285  67.804  1.00  0.00    -0.332 A  
ENDBRANCH  27  28
ENDBRANCH  26  27
ENDBRANCH  25  26
ENDBRANCH  24  25
ENDBRANCH  15  24
TORSDOF 5
ENDMDL
MODEL       39
REMARK 921   NORMALIZED FREE ENERGY PREDICTED BY IDOCK:   -5.57 KCAL/MOL
REMARK 922        TOTAL FREE ENERGY PREDICTED BY IDOCK:   -8.66 KCAL/MOL
REMARK 923 INTER-LIGAND FREE ENERGY PREDICTED BY IDOCK:   -8.24 KCAL/MOL
REMARK 924 INTRA-LIGAND FREE ENERGY PREDICTED BY IDOCK:   -0.42 KCAL/MOL
REMARK 927      BINDING AFFINITY PREDICTED BY RF-SCORE:    0.00 PKD
ROOT
HETATM    1  O   UNL     1     -10.966  15.732  68.787  1.00  0.00    -0.257 OA 
HETATM    2  C   UNL     1     -10.095  15.868  67.626  1.00  0.00    -0.242 C  
HETATM    3  H   UNL     1     -10.450  16.084  69.503  1.00  0.00     0.000 HD 
HETATM    4  C   UNL     1      -8.848  14.946  68.032  1.00  0.00    -0.167 C  
HETATM    5  C   UNL     1      -9.821  17.399  67.537  1.00  0.00    -0.277 A  
HETATM    6  C   UNL     1     -10.938  15.292  66.454  1.00  0.00    -0.299 A  
HETATM    7  C   UNL     1      -9.322  13.484  68.308  1.00  0.00    -0.205 C  
HETATM    8  C   UNL     1     -10.474  18.306  68.409  1.00  0.00    -0.292 A  
HETATM    9  C   UNL     1     -10.768  15.664  65.112  1.00  0.00    -0.463 A  
HETATM   10  C   UNL     1     -10.347  19.694  68.290  1.00  0.00    -0.539 A  
HETATM   11  C   UNL     1     -11.561  15.111  64.095  1.00  0.00    -0.069 A  
HETATM   12  C   UNL     1      -8.219  12.582  68.827  1.00  0.00     0.116 C  
HETATM   13  C   UNL     1     -12.534  14.164  64.388  1.00  0.00    -0.325 A  
HETATM   14  C   UNL     1      -9.540  20.229  67.298  1.00  0.00    -0.581 A  
HETATM   15  N   UNL     1      -6.928  13.371  68.954  1.00  0.00    -0.106 N  
HETATM   16  C   UNL     1     -12.729  13.769  65.703  1.00  0.00    -0.523 A  
HETATM   17  C   UNL     1      -8.968  17.980  66.579  1.00  0.00    -0.280 A  
HETATM   18  C   UNL     1      -7.123  14.563  69.885  1.00  0.00    -0.012 C  
HETATM   19  C   UNL     1      -6.558  13.906  67.558  1.00  0.00    -0.086 C  
HETATM   20  C   UNL     1      -8.839  19.375  66.456  1.00  0.00    -0.382 A  
HETATM   21  C   UNL     1     -11.947  14.329  66.714  1.00  0.00    -0.462 A  
HETATM   22  C   UNL     1      -8.217  15.472  69.351  1.00  0.00    -0.247 C  
HETATM   23  C   UNL     1      -7.694  14.808  67.015  1.00  0.00    -0.038 C  
ENDROOT
BRANCH  15  24
HETATM   24  C   UNL     1      -5.790  12.451  69.487  1.00  0.00    -0.101 C  
BRANCH  24  25
HETATM   25  C   UNL     1      -6.163  10.954  69.481  1.00  0.00    -0.073 C  
BRANCH  25  26
HETATM   26  O   UNL     1      -6.677  10.565  70.747  1.00  0.00    -0.343 OA 
BRANCH  26  27
HETATM   27  C   UNL     1      -6.966   9.161  70.771  1.00  0.00    -0.097 C  
BRANCH  27  28
HETATM   28  C   UNL     1      -8.352   8.989  71.313  1.00  0.00    -0.180 A  
HETATM   29  C   UNL     1      -8.571   8.229  72.471  1.00  0.00    -0.273 A  
HETATM   30  C   UNL     1      -9.864   8.034  72.950  1.00  0.00    -0.357 A  
HETATM   31  C   UNL     1     -10.950   8.592  72.275  1.00  0.00    -0.392 A  
HETATM   32  C   UNL     1     -10.744   9.346  71.122  1.00  0.00    -0.417 A  
HETATM   33  C   UNL     1      -9.451   9.542  70.639  1.00  0.00    -0.277 A  
ENDBRANCH  27  28
ENDBRANCH  26  27
ENDBRANCH  25  26
ENDBRANCH  24  25
ENDBRANCH  15  24
TORSDOF 5
ENDMDL
MODEL       40
REMARK 921   NORMALIZED FREE ENERGY PREDICTED BY IDOCK:   -5.56 KCAL/MOL
REMARK 922        TOTAL FREE ENERGY PREDICTED BY IDOCK:   -8.66 KCAL/MOL
REMARK 923 INTER-LIGAND FREE ENERGY PREDICTED BY IDOCK:   -7.55 KCAL/MOL
REMARK 924 INTRA-LIGAND FREE ENERGY PREDICTED BY IDOCK:   -1.11 KCAL/MOL
REMARK 927      BINDING AFFINITY PREDICTED BY RF-SCORE:    0.00 PKD
ROOT
HETATM    1  O   UNL     1      -8.308  10.000  70.471  1.00  0.00    -0.385 OA 
HETATM    2  C   UNL     1      -9.034   9.400  69.357  1.00  0.00    -0.157 C  
HETATM    3  H   UNL     1      -8.992  10.253  71.080  1.00  0.00     0.000 HD 
HETATM    4  C   UNL     1      -9.930  10.625  68.842  1.00  0.00    -0.213 C  
HETATM    5  C   UNL     1      -9.800   8.208  70.005  1.00  0.00    -0.182 A  
HETATM    6  C   UNL     1      -7.915   8.985  68.361  1.00  0.00    -0.104 A  
HETATM    7  C   UNL     1      -9.022  11.828  68.438  1.00  0.00    -0.168 C  
HETATM    8  C   UNL     1      -9.599   7.870  71.367  1.00  0.00    -0.187 A  
HETATM    9  C   UNL     1      -8.046   7.945  67.428  1.00  0.00    -0.123 A  
HETATM   10  C   UNL     1     -10.177   6.741  71.959  1.00  0.00    -0.209 A  
HETATM   11  C   UNL     1      -7.000   7.613  66.554  1.00  0.00    -0.067 A  
HETATM   12  C   UNL     1      -9.804  13.074  68.065  1.00  0.00    -0.224 C  
HETATM   13  C   UNL     1      -5.803   8.319  66.576  1.00  0.00    -0.044 A  
HETATM   14  C   UNL     1     -10.998   5.914  71.208  1.00  0.00    -0.325 A  
HETATM   15  N   UNL     1     -11.292  12.805  68.205  1.00  0.00    -0.267 N  
HETATM   16  C   UNL     1      -5.639   9.355  67.482  1.00  0.00    -0.037 A  
HETATM   17  C   UNL     1     -10.683   7.375  69.293  1.00  0.00    -0.197 A  
HETATM   18  C   UNL     1     -11.623  12.375  69.630  1.00  0.00    -0.260 C  
HETATM   19  C   UNL     1     -11.659  11.648  67.256  1.00  0.00    -0.238 C  
HETATM   20  C   UNL     1     -11.264   6.238  69.883  1.00  0.00    -0.498 A  
HETATM   21  C   UNL     1      -6.676   9.675  68.359  1.00  0.00    -0.057 A  
HETATM   22  C   UNL     1     -10.850  11.119  69.992  1.00  0.00     0.030 C  
HETATM   23  C   UNL     1     -10.843  10.383  67.620  1.00  0.00    -0.361 C  
ENDROOT
BRANCH  15  24
HETATM   24  C   UNL     1     -12.102  14.079  67.823  1.00  0.00    -0.290 C  
BRANCH  24  25
HETATM   25  C   UNL     1     -11.211  15.265  67.399  1.00  0.00    -0.311 C  
BRANCH  25  26
HETATM   26  O   UNL     1     -11.513  15.661  66.068  1.00  0.00    -0.046 OA 
BRANCH  26  27
HETATM   27  C   UNL     1     -10.491  15.224  65.162  1.00  0.00    -0.411 C  
BRANCH  27  28
HETATM   28  C   UNL     1     -10.915  13.903  64.597  1.00  0.00    -0.406 A  
HETATM   29  C   UNL     1      -9.965  12.909  64.327  1.00  0.00    -0.135 A  
HETATM   30  C   UNL     1     -10.356  11.697  63.762  1.00  0.00    -0.445 A  
HETATM   31  C   UNL     1     -11.698  11.469  63.458  1.00  0.00    -0.248 A  
HETATM   32  C   UNL     1     -12.650  12.451  63.721  1.00  0.00    -0.541 A  
HETATM   33  C   UNL     1     -12.263  13.665  64.284  1.00  0.00    -0.445 A  
ENDBRANCH  27  28
ENDBRANCH  26  27
ENDBRANCH  25  26
ENDBRANCH  24  25
ENDBRANCH  15  24
TORSDOF 5
ENDMDL
MODEL       41
REMARK 921   NORMALIZED FREE ENERGY PREDICTED BY IDOCK:   -5.55 KCAL/MOL
REMARK 922        TOTAL FREE ENERGY PREDICTED BY IDOCK:   -8.64 KCAL/MOL
REMARK 923 INTER-LIGAND FREE ENERGY PREDICTED BY IDOCK:   -7.05 KCAL/MOL
REMARK 924 INTRA-LIGAND FREE ENERGY PREDICTED BY IDOCK:   -1.59 KCAL/MOL
REMARK 927      BINDING AFFINITY PREDICTED BY RF-SCORE:    0.00 PKD
ROOT
HETATM    1  O   UNL     1     -10.911  15.807  68.859  1.00  0.00    -0.248 OA 
HETATM    2  C   UNL     1     -10.047  15.909  67.688  1.00  0.00    -0.242 C  
HETATM    3  H   UNL     1     -10.386  16.169  69.563  1.00  0.00     0.000 HD 
HETATM    4  C   UNL     1      -8.807  14.983  68.105  1.00  0.00    -0.167 C  
HETATM    5  C   UNL     1      -9.758  17.435  67.564  1.00  0.00    -0.266 A  
HETATM    6  C   UNL     1     -10.905  15.317  66.536  1.00  0.00    -0.311 A  
HETATM    7  C   UNL     1      -9.293  13.532  68.416  1.00  0.00    -0.171 C  
HETATM    8  C   UNL     1     -10.396  18.367  68.422  1.00  0.00    -0.357 A  
HETATM    9  C   UNL     1     -10.742  15.658  65.185  1.00  0.00    -0.463 A  
HETATM   10  C   UNL     1     -10.255  19.751  68.272  1.00  0.00    -0.569 A  
HETATM   11  C   UNL     1     -11.549  15.092  64.186  1.00  0.00    -0.069 A  
HETATM   12  C   UNL     1      -8.196  12.630  68.946  1.00  0.00     0.244 C  
HETATM   13  C   UNL     1     -12.529  14.161  64.506  1.00  0.00    -0.350 A  
HETATM   14  C   UNL     1      -9.450  20.256  67.263  1.00  0.00    -0.557 A  
HETATM   15  N   UNL     1      -6.896  13.408  69.046  1.00  0.00    -0.111 N  
HETATM   16  C   UNL     1     -12.718  13.797  65.831  1.00  0.00    -0.452 A  
HETATM   17  C   UNL     1      -8.907  17.986  66.588  1.00  0.00    -0.280 A  
HETATM   18  C   UNL     1      -7.072  14.622  69.952  1.00  0.00    -0.056 C  
HETATM   19  C   UNL     1      -6.531  13.910  67.636  1.00  0.00    -0.147 C  
HETATM   20  C   UNL     1      -8.765  19.377  66.434  1.00  0.00    -0.376 A  
HETATM   21  C   UNL     1     -11.922  14.371  66.824  1.00  0.00    -0.423 A  
HETATM   22  C   UNL     1      -8.160  15.531  69.407  1.00  0.00    -0.241 C  
HETATM   23  C   UNL     1      -7.662  14.811  67.083  1.00  0.00    -0.149 C  
ENDROOT
BRANCH  15  24
HETATM   24  C   UNL     1      -5.763  12.488  69.590  1.00  0.00    -0.102 C  
BRANCH  24  25
HETATM   25  C   UNL     1      -5.299  11.426  68.572  1.00  0.00    -0.042 C  
BRANCH  25  26
HETATM   26  O   UNL     1      -6.217  10.343  68.531  1.00  0.00    -0.047 OA 
BRANCH  26  27
HETATM   27  C   UNL     1      -6.351   9.838  67.196  1.00  0.00    -0.068 C  
BRANCH  27  28
HETATM   28  C   UNL     1      -7.751  10.119  66.741  1.00  0.00    -0.105 A  
HETATM   29  C   UNL     1      -7.993  11.062  65.733  1.00  0.00    -0.013 A  
HETATM   30  C   UNL     1      -9.297  11.352  65.339  1.00  0.00    -0.206 A  
HETATM   31  C   UNL     1     -10.371  10.707  65.953  1.00  0.00    -0.291 A  
HETATM   32  C   UNL     1     -10.142   9.770  66.957  1.00  0.00    -0.277 A  
HETATM   33  C   UNL     1      -8.838   9.478  67.354  1.00  0.00    -0.134 A  
ENDBRANCH  27  28
ENDBRANCH  26  27
ENDBRANCH  25  26
ENDBRANCH  24  25
ENDBRANCH  15  24
TORSDOF 5
ENDMDL
MODEL       42
REMARK 921   NORMALIZED FREE ENERGY PREDICTED BY IDOCK:   -5.54 KCAL/MOL
REMARK 922        TOTAL FREE ENERGY PREDICTED BY IDOCK:   -8.62 KCAL/MOL
REMARK 923 INTER-LIGAND FREE ENERGY PREDICTED BY IDOCK:   -7.52 KCAL/MOL
REMARK 924 INTRA-LIGAND FREE ENERGY PREDICTED BY IDOCK:   -1.10 KCAL/MOL
REMARK 927      BINDING AFFINITY PREDICTED BY RF-SCORE:    0.00 PKD
ROOT
HETATM    1  O   UNL     1      -9.584  10.711  70.157  1.00  0.00    -0.260 OA 
HETATM    2  C   UNL     1      -9.406   9.433  69.477  1.00  0.00    -0.180 C  
HETATM    3  H   UNL     1     -10.482  10.952  69.961  1.00  0.00     0.000 HD 
HETATM    4  C   UNL     1      -9.642   9.834  67.943  1.00  0.00    -0.158 C  
HETATM    5  C   UNL     1     -10.481   8.509  70.123  1.00  0.00    -0.226 A  
HETATM    6  C   UNL     1      -7.937   9.039  69.798  1.00  0.00    -0.099 A  
HETATM    7  C   UNL     1      -8.626  10.936  67.508  1.00  0.00    -0.127 C  
HETATM    8  C   UNL     1     -11.272   8.963  71.208  1.00  0.00    -0.368 A  
HETATM    9  C   UNL     1      -7.470   7.716  69.821  1.00  0.00    -0.090 A  
HETATM   10  C   UNL     1     -12.167   8.132  71.891  1.00  0.00    -0.373 A  
HETATM   11  C   UNL     1      -6.131   7.420  70.120  1.00  0.00    -0.024 A  
HETATM   12  C   UNL     1      -8.872  11.463  66.108  1.00  0.00    -0.184 C  
HETATM   13  C   UNL     1      -5.221   8.435  70.388  1.00  0.00    -0.022 A  
HETATM   14  C   UNL     1     -12.317   6.811  71.498  1.00  0.00    -0.407 A  
HETATM   15  N   UNL     1     -10.079  10.767  65.503  1.00  0.00    -0.261 N  
HETATM   16  C   UNL     1      -5.646   9.755  70.371  1.00  0.00    -0.051 A  
HETATM   17  C   UNL     1     -10.704   7.179  69.720  1.00  0.00    -0.257 A  
HETATM   18  C   UNL     1     -11.310  10.982  66.377  1.00  0.00     0.175 C  
HETATM   19  C   UNL     1      -9.783   9.257  65.454  1.00  0.00    -0.099 C  
HETATM   20  C   UNL     1     -11.601   6.340  70.405  1.00  0.00    -0.371 A  
HETATM   21  C   UNL     1      -6.980  10.046  70.086  1.00  0.00    -0.148 A  
HETATM   22  C   UNL     1     -11.063  10.438  67.774  1.00  0.00    -0.365 C  
HETATM   23  C   UNL     1      -9.506   8.722  66.880  1.00  0.00    -0.231 C  
ENDROOT
BRANCH  15  24
HETATM   24  C   UNL     1     -10.339  11.302  64.064  1.00  0.00    -0.371 C  
BRANCH  24  25
HETATM   25  C   UNL     1     -10.296  12.842  63.969  1.00  0.00    -0.368 C  
BRANCH  25  26
HETATM   26  O   UNL     1     -11.543  13.399  64.362  1.00  0.00    -0.354 OA 
BRANCH  26  27
HETATM   27  C   UNL     1     -11.374  14.738  64.843  1.00  0.00    -0.410 C  
BRANCH  27  28
HETATM   28  C   UNL     1     -11.140  14.666  66.322  1.00  0.00    -0.336 A  
HETATM   29  C   UNL     1      -9.914  15.072  66.867  1.00  0.00    -0.247 A  
HETATM   30  C   UNL     1      -9.682  14.965  68.236  1.00  0.00    -0.215 A  
HETATM   31  C   UNL     1     -10.671  14.447  69.072  1.00  0.00    -0.261 A  
HETATM   32  C   UNL     1     -11.892  14.039  68.541  1.00  0.00    -0.399 A  
HETATM   33  C   UNL     1     -12.127  14.143  67.172  1.00  0.00    -0.432 A  
ENDBRANCH  27  28
ENDBRANCH  26  27
ENDBRANCH  25  26
ENDBRANCH  24  25
ENDBRANCH  15  24
TORSDOF 5
ENDMDL
MODEL       43
REMARK 921   NORMALIZED FREE ENERGY PREDICTED BY IDOCK:   -5.48 KCAL/MOL
REMARK 922        TOTAL FREE ENERGY PREDICTED BY IDOCK:   -8.54 KCAL/MOL
REMARK 923 INTER-LIGAND FREE ENERGY PREDICTED BY IDOCK:   -8.08 KCAL/MOL
REMARK 924 INTRA-LIGAND FREE ENERGY PREDICTED BY IDOCK:   -0.47 KCAL/MOL
REMARK 927      BINDING AFFINITY PREDICTED BY RF-SCORE:    0.00 PKD
ROOT
HETATM    1  O   UNL     1     -10.471   7.672  66.368  1.00  0.00    -0.483 OA 
HETATM    2  C   UNL     1      -9.341   8.246  67.091  1.00  0.00    -0.151 C  
HETATM    3  H   UNL     1     -10.381   8.020  65.489  1.00  0.00     0.000 HD 
HETATM    4  C   UNL     1      -9.641   9.817  66.988  1.00  0.00    -0.218 C  
HETATM    5  C   UNL     1      -8.094   7.728  66.313  1.00  0.00    -0.114 A  
HETATM    6  C   UNL     1      -9.489   7.677  68.529  1.00  0.00    -0.147 A  
HETATM    7  C   UNL     1     -11.032  10.146  67.614  1.00  0.00    -0.331 C  
HETATM    8  C   UNL     1      -8.235   6.807  65.245  1.00  0.00    -0.127 A  
HETATM    9  C   UNL     1      -8.415   7.509  69.417  1.00  0.00    -0.133 A  
HETATM   10  C   UNL     1      -7.138   6.229  64.595  1.00  0.00    -0.057 A  
HETATM   11  C   UNL     1      -8.608   6.988  70.706  1.00  0.00    -0.143 A  
HETATM   12  C   UNL     1     -11.446  11.594  67.436  1.00  0.00    -0.285 C  
HETATM   13  C   UNL     1      -9.877   6.635  71.147  1.00  0.00    -0.195 A  
HETATM   14  C   UNL     1      -5.851   6.569  64.982  1.00  0.00    -0.030 A  
HETATM   15  N   UNL     1     -10.372  12.342  66.666  1.00  0.00    -0.213 N  
HETATM   16  C   UNL     1     -10.963   6.790  70.299  1.00  0.00    -0.339 A  
HETATM   17  C   UNL     1      -6.773   8.089  66.638  1.00  0.00    -0.063 A  
HETATM   18  C   UNL     1     -10.135  11.685  65.310  1.00  0.00    -0.264 C  
HETATM   19  C   UNL     1      -9.063  12.263  67.473  1.00  0.00    -0.182 C  
HETATM   20  C   UNL     1      -5.669   7.509  65.989  1.00  0.00    -0.036 A  
HETATM   21  C   UNL     1     -10.767   7.297  69.013  1.00  0.00    -0.183 A  
HETATM   22  C   UNL     1      -9.706  10.240  65.495  1.00  0.00    -0.326 C  
HETATM   23  C   UNL     1      -8.653  10.784  67.678  1.00  0.00    -0.123 C  
ENDROOT
BRANCH  15  24
HETATM   24  C   UNL     1     -10.789  13.831  66.478  1.00  0.00    -0.287 C  
BRANCH  24  25
HETATM   25  C   UNL     1     -11.951  14.260  67.399  1.00  0.00    -0.391 C  
BRANCH  25  26
HETATM   26  O   UNL     1     -11.642  15.485  68.049  1.00  0.00    -0.342 OA 
BRANCH  26  27
HETATM   27  C   UNL     1     -10.290  15.878  67.781  1.00  0.00    -0.278 C  
BRANCH  27  28
HETATM   28  C   UNL     1     -10.291  17.349  67.494  1.00  0.00    -0.351 A  
HETATM   29  C   UNL     1     -10.564  17.819  66.203  1.00  0.00    -0.235 A  
HETATM   30  C   UNL     1     -10.523  19.184  65.927  1.00  0.00    -0.500 A  
HETATM   31  C   UNL     1     -10.204  20.090  66.938  1.00  0.00    -0.595 A  
HETATM   32  C   UNL     1      -9.927  19.633  68.225  1.00  0.00    -0.543 A  
HETATM   33  C   UNL     1      -9.967  18.269  68.503  1.00  0.00    -0.413 A  
ENDBRANCH  27  28
ENDBRANCH  26  27
ENDBRANCH  25  26
ENDBRANCH  24  25
ENDBRANCH  15  24
TORSDOF 5
ENDMDL
MODEL       44
REMARK 921   NORMALIZED FREE ENERGY PREDICTED BY IDOCK:   -5.42 KCAL/MOL
REMARK 922        TOTAL FREE ENERGY PREDICTED BY IDOCK:   -8.47 KCAL/MOL
REMARK 923 INTER-LIGAND FREE ENERGY PREDICTED BY IDOCK:   -7.77 KCAL/MOL
REMARK 924 INTRA-LIGAND FREE ENERGY PREDICTED BY IDOCK:   -0.70 KCAL/MOL
REMARK 927      BINDING AFFINITY PREDICTED BY RF-SCORE:    0.00 PKD
ROOT
HETATM    1  O   UNL     1      -8.265  12.191  66.434  1.00  0.00    -0.391 OA 
HETATM    2  C   UNL     1      -9.171  11.129  66.010  1.00  0.00    -0.205 C  
HETATM    3  H   UNL     1      -7.625  11.744  66.975  1.00  0.00     0.000 HD 
HETATM    4  C   UNL     1      -9.760  10.613  67.409  1.00  0.00    -0.192 C  
HETATM    5  C   UNL     1      -8.251  10.135  65.240  1.00  0.00    -0.157 A  
HETATM    6  C   UNL     1     -10.218  11.860  65.125  1.00  0.00    -0.314 A  
HETATM    7  C   UNL     1     -10.460  11.785  68.167  1.00  0.00    -0.221 C  
HETATM    8  C   UNL     1      -6.888  10.442  65.001  1.00  0.00    -0.065 A  
HETATM    9  C   UNL     1     -10.950  11.236  64.103  1.00  0.00    -0.376 A  
HETATM   10  C   UNL     1      -6.057   9.634  64.217  1.00  0.00    -0.097 A  
HETATM   11  C   UNL     1     -11.883  11.948  63.334  1.00  0.00    -0.512 A  
HETATM   12  C   UNL     1     -10.927  11.407  69.559  1.00  0.00    -0.166 C  
HETATM   13  C   UNL     1     -12.121  13.296  63.573  1.00  0.00    -0.550 A  
HETATM   14  C   UNL     1      -6.559   8.470  63.655  1.00  0.00    -0.084 A  
HETATM   15  N   UNL     1     -10.564   9.961  69.846  1.00  0.00    -0.252 N  
HETATM   16  C   UNL     1     -11.419  13.946  64.577  1.00  0.00    -0.393 A  
HETATM   17  C   UNL     1      -8.707   8.918  64.698  1.00  0.00    -0.138 A  
HETATM   18  C   UNL     1      -9.059   9.755  69.716  1.00  0.00    -0.225 C  
HETATM   19  C   UNL     1     -11.263   9.076  68.797  1.00  0.00     0.323 C  
HETATM   20  C   UNL     1      -7.875   8.105  63.908  1.00  0.00    -0.147 A  
HETATM   21  C   UNL     1     -10.483  13.238  65.333  1.00  0.00    -0.306 A  
HETATM   22  C   UNL     1      -8.599  10.119  68.315  1.00  0.00    -0.116 C  
HETATM   23  C   UNL     1     -10.806   9.478  67.373  1.00  0.00    -0.215 C  
ENDROOT
BRANCH  15  24
HETATM   24  C   UNL     1     -11.041   9.564  71.275  1.00  0.00    -0.379 C  
BRANCH  24  25
HETATM   25  C   UNL     1     -10.041   8.655  72.021  1.00  0.00    -0.331 C  
BRANCH  25  26
HETATM   26  O   UNL     1     -10.729   7.621  72.710  1.00  0.00    -0.281 OA 
BRANCH  26  27
HETATM   27  C   UNL     1     -11.572   6.885  71.815  1.00  0.00    -0.286 C  
BRANCH  27  28
HETATM   28  C   UNL     1     -10.784   5.720  71.298  1.00  0.00    -0.323 A  
HETATM   29  C   UNL     1     -10.543   5.581  69.924  1.00  0.00    -0.387 A  
HETATM   30  C   UNL     1      -9.846   4.476  69.441  1.00  0.00    -0.260 A  
HETATM   31  C   UNL     1      -9.389   3.498  70.324  1.00  0.00    -0.242 A  
HETATM   32  C   UNL     1      -9.626   3.625  71.691  1.00  0.00    -0.226 A  
HETATM   33  C   UNL     1     -10.323   4.729  72.178  1.00  0.00    -0.256 A  
ENDBRANCH  27  28
ENDBRANCH  26  27
ENDBRANCH  25  26
ENDBRANCH  24  25
ENDBRANCH  15  24
TORSDOF 5
ENDMDL
MODEL       45
REMARK 921   NORMALIZED FREE ENERGY PREDICTED BY IDOCK:   -5.38 KCAL/MOL
REMARK 922        TOTAL FREE ENERGY PREDICTED BY IDOCK:   -8.42 KCAL/MOL
REMARK 923 INTER-LIGAND FREE ENERGY PREDICTED BY IDOCK:   -8.06 KCAL/MOL
REMARK 924 INTRA-LIGAND FREE ENERGY PREDICTED BY IDOCK:   -0.36 KCAL/MOL
REMARK 927      BINDING AFFINITY PREDICTED BY RF-SCORE:    0.00 PKD
ROOT
HETATM    1  O   UNL     1      -8.880  15.239  66.012  1.00  0.00    -0.454 OA 
HETATM    2  C   UNL     1      -9.154  15.717  67.363  1.00  0.00    -0.194 C  
HETATM    3  H   UNL     1      -9.740  15.175  65.613  1.00  0.00     0.000 HD 
HETATM    4  C   UNL     1     -10.053  14.532  67.961  1.00  0.00    -0.226 C  
HETATM    5  C   UNL     1      -9.870  17.083  67.142  1.00  0.00    -0.269 A  
HETATM    6  C   UNL     1      -7.748  15.821  68.016  1.00  0.00    -0.136 A  
HETATM    7  C   UNL     1      -9.275  13.180  67.908  1.00  0.00    -0.207 C  
HETATM    8  C   UNL     1     -10.011  17.626  65.840  1.00  0.00    -0.139 A  
HETATM    9  C   UNL     1      -7.440  16.692  69.072  1.00  0.00    -0.232 A  
HETATM   10  C   UNL     1     -10.543  18.899  65.606  1.00  0.00    -0.236 A  
HETATM   11  C   UNL     1      -6.150  16.744  69.622  1.00  0.00    -0.223 A  
HETATM   12  C   UNL     1     -10.109  11.988  68.334  1.00  0.00    -0.210 C  
HETATM   13  C   UNL     1      -5.139  15.920  69.144  1.00  0.00    -0.104 A  
HETATM   14  C   UNL     1     -10.973  19.673  66.673  1.00  0.00    -0.344 A  
HETATM   15  N   UNL     1     -11.512  12.446  68.691  1.00  0.00    -0.278 N  
HETATM   16  C   UNL     1      -5.407  15.044  68.103  1.00  0.00    -0.121 A  
HETATM   17  C   UNL     1     -10.369  17.876  68.192  1.00  0.00    -0.395 A  
HETATM   18  C   UNL     1     -12.160  13.151  67.504  1.00  0.00    -0.248 C  
HETATM   19  C   UNL     1     -11.404  13.455  69.849  1.00  0.00    -0.012 C  
HETATM   20  C   UNL     1     -10.902  19.156  67.961  1.00  0.00    -0.195 A  
HETATM   21  C   UNL     1      -6.687  15.003  67.549  1.00  0.00    -0.178 A  
HETATM   22  C   UNL     1     -11.329  14.354  67.092  1.00  0.00    -0.356 C  
HETATM   23  C   UNL     1     -10.532  14.661  69.424  1.00  0.00    -0.175 C  
ENDROOT
BRANCH  15  24
HETATM   24  C   UNL     1     -12.376  11.227  69.130  1.00  0.00    -0.048 C  
BRANCH  24  25
HETATM   25  C   UNL     1     -12.144  10.813  70.599  1.00  0.00    -0.370 C  
BRANCH  25  26
HETATM   26  O   UNL     1     -13.199   9.975  71.051  1.00  0.00    -0.386 OA 
BRANCH  26  27
HETATM   27  C   UNL     1     -12.869   9.374  72.310  1.00  0.00    -0.375 C  
BRANCH  27  28
HETATM   28  C   UNL     1     -11.927   8.240  72.041  1.00  0.00    -0.405 A  
HETATM   29  C   UNL     1     -10.710   8.150  72.730  1.00  0.00    -0.391 A  
HETATM   30  C   UNL     1      -9.816   7.119  72.450  1.00  0.00    -0.174 A  
HETATM   31  C   UNL     1     -10.129   6.171  71.475  1.00  0.00    -0.227 A  
HETATM   32  C   UNL     1     -11.334   6.253  70.782  1.00  0.00    -0.397 A  
HETATM   33  C   UNL     1     -12.230   7.284  71.059  1.00  0.00    -0.350 A  
ENDBRANCH  27  28
ENDBRANCH  26  27
ENDBRANCH  25  26
ENDBRANCH  24  25
ENDBRANCH  15  24
TORSDOF 5
ENDMDL
MODEL       46
REMARK 921   NORMALIZED FREE ENERGY PREDICTED BY IDOCK:   -5.37 KCAL/MOL
REMARK 922        TOTAL FREE ENERGY PREDICTED BY IDOCK:   -8.41 KCAL/MOL
REMARK 923 INTER-LIGAND FREE ENERGY PREDICTED BY IDOCK:   -8.01 KCAL/MOL
REMARK 924 INTRA-LIGAND FREE ENERGY PREDICTED BY IDOCK:   -0.40 KCAL/MOL
REMARK 927      BINDING AFFINITY PREDICTED BY RF-SCORE:    0.00 PKD
ROOT
HETATM    1  O   UNL     1      -7.412   6.346  70.468  1.00  0.00    -0.086 OA 
HETATM    2  C   UNL     1      -8.651   5.619  70.722  1.00  0.00    -0.128 C  
HETATM    3  H   UNL     1      -7.341   6.943  71.204  1.00  0.00     0.000 HD 
HETATM    4  C   UNL     1      -9.740   6.796  70.703  1.00  0.00    -0.180 C  
HETATM    5  C   UNL     1      -8.407   4.927  72.096  1.00  0.00    -0.123 A  
HETATM    6  C   UNL     1      -8.767   4.644  69.518  1.00  0.00    -0.111 A  
HETATM    7  C   UNL     1      -9.707   7.542  69.332  1.00  0.00    -0.164 C  
HETATM    8  C   UNL     1      -7.143   5.006  72.735  1.00  0.00    -0.083 A  
HETATM    9  C   UNL     1      -9.462   3.426  69.563  1.00  0.00    -0.219 A  
HETATM   10  C   UNL     1      -6.845   4.307  73.910  1.00  0.00    -0.060 A  
HETATM   11  C   UNL     1      -9.532   2.583  68.443  1.00  0.00    -0.217 A  
HETATM   12  C   UNL     1     -10.618   8.754  69.285  1.00  0.00    -0.197 C  
HETATM   13  C   UNL     1      -8.924   2.940  67.246  1.00  0.00    -0.185 A  
HETATM   14  C   UNL     1      -7.814   3.512  74.503  1.00  0.00    -0.065 A  
HETATM   15  N   UNL     1     -11.318   8.921  70.622  1.00  0.00    -0.263 N  
HETATM   16  C   UNL     1      -8.230   4.138  67.162  1.00  0.00    -0.100 A  
HETATM   17  C   UNL     1      -9.379   4.155  72.759  1.00  0.00    -0.148 A  
HETATM   18  C   UNL     1     -10.295   9.068  71.743  1.00  0.00    -0.337 C  
HETATM   19  C   UNL     1     -12.145   7.650  70.889  1.00  0.00    -0.202 C  
HETATM   20  C   UNL     1      -9.082   3.450  73.939  1.00  0.00    -0.094 A  
HETATM   21  C   UNL     1      -8.152   4.968  68.281  1.00  0.00    -0.086 A  
HETATM   22  C   UNL     1      -9.396   7.844  71.796  1.00  0.00    -0.196 C  
HETATM   23  C   UNL     1     -11.220   6.408  70.913  1.00  0.00    -0.384 C  
ENDROOT
BRANCH  15  24
HETATM   24  C   UNL     1     -12.256  10.164  70.582  1.00  0.00    -0.302 C  
BRANCH  24  25
HETATM   25  C   UNL     1     -13.055  10.367  71.887  1.00  0.00    -0.458 C  
BRANCH  25  26
HETATM   26  O   UNL     1     -13.381  11.739  72.061  1.00  0.00    -0.487 OA 
BRANCH  26  27
HETATM   27  C   UNL     1     -12.727  12.547  71.073  1.00  0.00    -0.225 C  
BRANCH  27  28
HETATM   28  C   UNL     1     -12.481  13.896  71.677  1.00  0.00    -0.337 A  
HETATM   29  C   UNL     1     -11.697  14.842  71.004  1.00  0.00    -0.376 A  
HETATM   30  C   UNL     1     -11.434  16.081  71.585  1.00  0.00    -0.443 A  
HETATM   31  C   UNL     1     -11.947  16.382  72.846  1.00  0.00    -0.569 A  
HETATM   32  C   UNL     1     -12.725  15.448  73.526  1.00  0.00    -0.689 A  
HETATM   33  C   UNL     1     -12.989  14.208  72.948  1.00  0.00    -0.498 A  
ENDBRANCH  27  28
ENDBRANCH  26  27
ENDBRANCH  25  26
ENDBRANCH  24  25
ENDBRANCH  15  24
TORSDOF 5
ENDMDL
MODEL       47
REMARK 921   NORMALIZED FREE ENERGY PREDICTED BY IDOCK:   -5.36 KCAL/MOL
REMARK 922        TOTAL FREE ENERGY PREDICTED BY IDOCK:   -8.39 KCAL/MOL
REMARK 923 INTER-LIGAND FREE ENERGY PREDICTED BY IDOCK:   -6.49 KCAL/MOL
REMARK 924 INTRA-LIGAND FREE ENERGY PREDICTED BY IDOCK:   -1.90 KCAL/MOL
REMARK 927      BINDING AFFINITY PREDICTED BY RF-SCORE:    0.00 PKD
ROOT
HETATM    1  O   UNL     1     -10.924  10.274  66.951  1.00  0.00    -0.190 OA 
HETATM    2  C   UNL     1      -9.670  10.334  67.694  1.00  0.00    -0.164 C  
HETATM    3  H   UNL     1     -11.507  10.842  67.442  1.00  0.00     0.000 HD 
HETATM    4  C   UNL     1     -10.096   9.739  69.120  1.00  0.00    -0.200 C  
HETATM    5  C   UNL     1      -9.284  11.843  67.662  1.00  0.00    -0.183 A  
HETATM    6  C   UNL     1      -8.715   9.405  66.893  1.00  0.00    -0.137 A  
HETATM    7  C   UNL     1     -10.673   8.298  68.956  1.00  0.00    -0.098 C  
HETATM    8  C   UNL     1     -10.048  12.773  66.913  1.00  0.00    -0.234 A  
HETATM    9  C   UNL     1      -7.318   9.535  66.890  1.00  0.00    -0.087 A  
HETATM   10  C   UNL     1      -9.674  14.113  66.763  1.00  0.00    -0.283 A  
HETATM   11  C   UNL     1      -6.506   8.667  66.144  1.00  0.00    -0.057 A  
HETATM   12  C   UNL     1     -11.222   7.719  70.246  1.00  0.00    -0.206 C  
HETATM   13  C   UNL     1      -7.063   7.639  65.395  1.00  0.00    -0.063 A  
HETATM   14  C   UNL     1      -8.523  14.579  67.378  1.00  0.00    -0.220 A  
HETATM   15  N   UNL     1     -11.068   8.731  71.368  1.00  0.00    -0.267 N  
HETATM   16  C   UNL     1      -8.441   7.477  65.376  1.00  0.00    -0.105 A  
HETATM   17  C   UNL     1      -8.153  12.368  68.315  1.00  0.00    -0.166 A  
HETATM   18  C   UNL     1     -11.790  10.027  71.017  1.00  0.00    -0.386 C  
HETATM   19  C   UNL     1      -9.568   9.043  71.526  1.00  0.00    -0.270 C  
HETATM   20  C   UNL     1      -7.773  13.714  68.166  1.00  0.00    -0.138 A  
HETATM   21  C   UNL     1      -9.247   8.349  66.108  1.00  0.00    -0.263 A  
HETATM   22  C   UNL     1     -11.225  10.611  69.734  1.00  0.00    -0.363 C  
HETATM   23  C   UNL     1      -9.001   9.611  70.202  1.00  0.00    -0.273 C  
ENDROOT
BRANCH  15  24
HETATM   24  C   UNL     1     -11.629   8.144  72.697  1.00  0.00    -0.375 C  
BRANCH  24  25
HETATM   25  C   UNL     1     -10.620   7.242  73.438  1.00  0.00    -0.389 C  
BRANCH  25  26
HETATM   26  O   UNL     1     -10.664   5.919  72.921  1.00  0.00    -0.220 OA 
BRANCH  26  27
HETATM   27  C   UNL     1      -9.342   5.383  72.779  1.00  0.00    -0.139 C  
BRANCH  27  28
HETATM   28  C   UNL     1      -9.031   5.318  71.315  1.00  0.00    -0.158 A  
HETATM   29  C   UNL     1      -7.973   6.066  70.780  1.00  0.00    -0.114 A  
HETATM   30  C   UNL     1      -7.711   6.038  69.412  1.00  0.00    -0.098 A  
HETATM   31  C   UNL     1      -8.507   5.266  68.566  1.00  0.00    -0.092 A  
HETATM   32  C   UNL     1      -9.563   4.521  69.086  1.00  0.00    -0.251 A  
HETATM   33  C   UNL     1      -9.829   4.548  70.453  1.00  0.00    -0.302 A  
ENDBRANCH  27  28
ENDBRANCH  26  27
ENDBRANCH  25  26
ENDBRANCH  24  25
ENDBRANCH  15  24
TORSDOF 5
ENDMDL
MODEL       48
REMARK 921   NORMALIZED FREE ENERGY PREDICTED BY IDOCK:   -5.35 KCAL/MOL
REMARK 922        TOTAL FREE ENERGY PREDICTED BY IDOCK:   -8.37 KCAL/MOL
REMARK 923 INTER-LIGAND FREE ENERGY PREDICTED BY IDOCK:   -7.99 KCAL/MOL
REMARK 924 INTRA-LIGAND FREE ENERGY PREDICTED BY IDOCK:   -0.38 KCAL/MOL
REMARK 927      BINDING AFFINITY PREDICTED BY RF-SCORE:    0.00 PKD
ROOT
HETATM    1  O   UNL     1      -8.179   9.900  68.871  1.00  0.00    -0.106 OA 
HETATM    2  C   UNL     1      -8.846   9.576  67.615  1.00  0.00    -0.118 C  
HETATM    3  H   UNL     1      -8.892   9.983  69.494  1.00  0.00     0.000 HD 
HETATM    4  C   UNL     1      -9.760  10.872  67.376  1.00  0.00    -0.190 C  
HETATM    5  C   UNL     1      -9.599   8.247  67.919  1.00  0.00    -0.176 A  
HETATM    6  C   UNL     1      -7.681   9.441  66.596  1.00  0.00    -0.097 A  
HETATM    7  C   UNL     1      -8.874  12.156  67.317  1.00  0.00    -0.186 C  
HETATM    8  C   UNL     1      -9.438   7.589  69.165  1.00  0.00    -0.150 A  
HETATM    9  C   UNL     1      -7.746   8.658  65.433  1.00  0.00    -0.094 A  
HETATM   10  C   UNL     1     -10.003   6.339  69.439  1.00  0.00    -0.192 A  
HETATM   11  C   UNL     1      -6.660   8.572  64.549  1.00  0.00    -0.066 A  
HETATM   12  C   UNL     1      -9.679  13.438  67.227  1.00  0.00    -0.232 C  
HETATM   13  C   UNL     1      -5.487   9.275  64.793  1.00  0.00    -0.053 A  
HETATM   14  C   UNL     1     -10.771   5.704  68.475  1.00  0.00    -0.232 A  
HETATM   15  N   UNL     1     -11.162  13.114  67.233  1.00  0.00    -0.276 N  
HETATM   16  C   UNL     1      -5.386  10.061  65.931  1.00  0.00    -0.044 A  
HETATM   17  C   UNL     1     -10.431   7.596  66.989  1.00  0.00    -0.419 A  
HETATM   18  C   UNL     1     -11.532  12.342  68.495  1.00  0.00    -0.303 C  
HETATM   19  C   UNL     1     -11.460  12.217  66.017  1.00  0.00    -0.381 C  
HETATM   20  C   UNL     1     -10.998   6.338  67.260  1.00  0.00    -0.455 A  
HETATM   21  C   UNL     1      -6.463  10.135  66.815  1.00  0.00    -0.071 A  
HETATM   22  C   UNL     1     -10.735  11.050  68.572  1.00  0.00    -0.236 C  
HETATM   23  C   UNL     1     -10.620  10.919  66.095  1.00  0.00    -0.270 C  
ENDROOT
BRANCH  15  24
HETATM   24  C   UNL     1     -11.996  14.426  67.140  1.00  0.00    -0.389 C  
BRANCH  24  25
HETATM   25  C   UNL     1     -11.126  15.697  67.057  1.00  0.00    -0.200 C  
BRANCH  25  26
HETATM   26  O   UNL     1     -11.368  16.539  68.175  1.00  0.00    -0.308 OA 
BRANCH  26  27
HETATM   27  C   UNL     1     -10.146  16.843  68.859  1.00  0.00    -0.297 C  
BRANCH  27  28
HETATM   28  C   UNL     1      -9.624  18.136  68.310  1.00  0.00    -0.324 A  
HETATM   29  C   UNL     1      -8.252  18.419  68.344  1.00  0.00    -0.331 A  
HETATM   30  C   UNL     1      -7.773  19.639  67.872  1.00  0.00    -0.331 A  
HETATM   31  C   UNL     1      -8.661  20.588  67.366  1.00  0.00    -0.373 A  
HETATM   32  C   UNL     1     -10.027  20.318  67.330  1.00  0.00    -0.580 A  
HETATM   33  C   UNL     1     -10.510  19.099  67.802  1.00  0.00    -0.512 A  
ENDBRANCH  27  28
ENDBRANCH  26  27
ENDBRANCH  25  26
ENDBRANCH  24  25
ENDBRANCH  15  24
TORSDOF 5
ENDMDL
MODEL       49
REMARK 921   NORMALIZED FREE ENERGY PREDICTED BY IDOCK:   -5.34 KCAL/MOL
REMARK 922        TOTAL FREE ENERGY PREDICTED BY IDOCK:   -8.37 KCAL/MOL
REMARK 923 INTER-LIGAND FREE ENERGY PREDICTED BY IDOCK:   -7.91 KCAL/MOL
REMARK 924 INTRA-LIGAND FREE ENERGY PREDICTED BY IDOCK:   -0.46 KCAL/MOL
REMARK 927      BINDING AFFINITY PREDICTED BY RF-SCORE:    0.00 PKD
ROOT
HETATM    1  O   UNL     1      -9.226  12.493  68.853  1.00  0.00    -0.390 OA 
HETATM    2  C   UNL     1      -9.452  11.384  67.934  1.00  0.00    -0.174 C  
HETATM    3  H   UNL     1      -8.573  12.161  69.458  1.00  0.00     0.000 HD 
HETATM    4  C   UNL     1     -10.007  10.243  68.915  1.00  0.00    -0.209 C  
HETATM    5  C   UNL     1      -8.052  11.128  67.300  1.00  0.00    -0.137 A  
HETATM    6  C   UNL     1     -10.521  11.927  66.946  1.00  0.00    -0.253 A  
HETATM    7  C   UNL     1     -11.294  10.738  69.648  1.00  0.00    -0.362 C  
HETATM    8  C   UNL     1      -6.957  11.981  67.590  1.00  0.00    -0.118 A  
HETATM    9  C   UNL     1     -10.675  11.464  65.630  1.00  0.00    -0.301 A  
HETATM   10  C   UNL     1      -5.715  11.858  66.956  1.00  0.00    -0.139 A  
HETATM   11  C   UNL     1     -11.658  11.995  64.780  1.00  0.00    -0.344 A  
HETATM   12  C   UNL     1     -11.803   9.764  70.693  1.00  0.00    -0.281 C  
HETATM   13  C   UNL     1     -12.521  12.989  65.224  1.00  0.00    -0.555 A  
HETATM   14  C   UNL     1      -5.517  10.858  66.017  1.00  0.00    -0.139 A  
HETATM   15  N   UNL     1     -10.890   8.552  70.751  1.00  0.00    -0.225 N  
HETATM   16  C   UNL     1     -12.400  13.470  66.520  1.00  0.00    -0.382 A  
HETATM   17  C   UNL     1      -7.794  10.092  66.383  1.00  0.00    -0.114 A  
HETATM   18  C   UNL     1      -9.461   8.977  71.072  1.00  0.00    -0.274 C  
HETATM   19  C   UNL     1     -10.894   7.885  69.363  1.00  0.00    -0.106 C  
HETATM   20  C   UNL     1      -6.548   9.967  65.743  1.00  0.00    -0.101 A  
HETATM   21  C   UNL     1     -11.414  12.949  67.359  1.00  0.00    -0.388 A  
HETATM   22  C   UNL     1      -8.950   9.939  70.013  1.00  0.00    -0.206 C  
HETATM   23  C   UNL     1     -10.398   8.886  68.291  1.00  0.00    -0.250 C  
ENDROOT
BRANCH  15  24
HETATM   24  C   UNL     1     -11.406   7.546  71.823  1.00  0.00    -0.254 C  
BRANCH  24  25
HETATM   25  C   UNL     1     -10.587   7.574  73.130  1.00  0.00    -0.388 C  
BRANCH  25  26
HETATM   26  O   UNL     1     -10.095   6.276  73.436  1.00  0.00    -0.177 OA 
BRANCH  26  27
HETATM   27  C   UNL     1     -11.110   5.285  73.230  1.00  0.00    -0.316 C  
BRANCH  27  28
HETATM   28  C   UNL     1     -10.470   4.110  72.555  1.00  0.00    -0.205 A  
HETATM   29  C   UNL     1      -9.759   4.279  71.360  1.00  0.00    -0.252 A  
HETATM   30  C   UNL     1      -9.200   3.180  70.712  1.00  0.00    -0.205 A  
HETATM   31  C   UNL     1      -9.353   1.902  71.249  1.00  0.00    -0.186 A  
HETATM   32  C   UNL     1     -10.060   1.722  72.435  1.00  0.00    -0.218 A  
HETATM   33  C   UNL     1     -10.621   2.819  73.085  1.00  0.00    -0.259 A  
ENDBRANCH  27  28
ENDBRANCH  26  27
ENDBRANCH  25  26
ENDBRANCH  24  25
ENDBRANCH  15  24
TORSDOF 5
ENDMDL
MODEL       50
REMARK 921   NORMALIZED FREE ENERGY PREDICTED BY IDOCK:   -5.33 KCAL/MOL
REMARK 922        TOTAL FREE ENERGY PREDICTED BY IDOCK:   -8.35 KCAL/MOL
REMARK 923 INTER-LIGAND FREE ENERGY PREDICTED BY IDOCK:   -7.96 KCAL/MOL
REMARK 924 INTRA-LIGAND FREE ENERGY PREDICTED BY IDOCK:   -0.39 KCAL/MOL
REMARK 927      BINDING AFFINITY PREDICTED BY RF-SCORE:    0.00 PKD
ROOT
HETATM    1  O   UNL     1     -10.131  12.326  68.839  1.00  0.00    -0.406 OA 
HETATM    2  C   UNL     1     -10.702  13.611  68.453  1.00  0.00    -0.258 C  
HETATM    3  H   UNL     1      -9.754  12.491  69.695  1.00  0.00     0.000 HD 
HETATM    4  C   UNL     1      -9.407  14.556  68.414  1.00  0.00    -0.208 C  
HETATM    5  C   UNL     1     -11.743  13.913  69.572  1.00  0.00    -0.369 A  
HETATM    6  C   UNL     1     -11.318  13.342  67.052  1.00  0.00    -0.346 A  
HETATM    7  C   UNL     1      -8.357  13.995  67.404  1.00  0.00    -0.207 C  
HETATM    8  C   UNL     1     -12.017  12.959  70.585  1.00  0.00    -0.207 A  
HETATM    9  C   UNL     1     -12.390  14.073  66.516  1.00  0.00    -0.442 A  
HETATM   10  C   UNL     1     -13.024  13.140  71.540  1.00  0.00    -0.412 A  
HETATM   11  C   UNL     1     -12.907  13.783  65.244  1.00  0.00    -0.430 A  
HETATM   12  C   UNL     1      -7.048  14.761  67.408  1.00  0.00    -0.143 C  
HETATM   13  C   UNL     1     -12.360  12.769  64.468  1.00  0.00    -0.515 A  
HETATM   14  C   UNL     1     -13.785  14.298  71.529  1.00  0.00    -0.428 A  
HETATM   15  N   UNL     1      -7.115  15.883  68.430  1.00  0.00    -0.114 N  
HETATM   16  C   UNL     1     -11.298  12.027  64.963  1.00  0.00    -0.365 A  
HETATM   17  C   UNL     1     -12.499  15.098  69.629  1.00  0.00    -0.171 A  
HETATM   18  C   UNL     1      -7.408  15.322  69.817  1.00  0.00    -0.138 C  
HETATM   19  C   UNL     1      -8.273  16.819  68.035  1.00  0.00    -0.192 C  
HETATM   20  C   UNL     1     -13.513  15.282  70.587  1.00  0.00    -0.257 A  
HETATM   21  C   UNL     1     -10.793  12.309  66.233  1.00  0.00    -0.313 A  
HETATM   22  C   UNL     1      -8.728  14.570  69.811  1.00  0.00     0.583 C  
HETATM   23  C   UNL     1      -9.606  16.032  68.006  1.00  0.00    -0.215 C  
ENDROOT
BRANCH  15  24
HETATM   24  C   UNL     1      -5.775  16.675  68.441  1.00  0.00    -0.121 C  
BRANCH  24  25
HETATM   25  C   UNL     1      -5.587  17.539  69.706  1.00  0.00    -0.227 C  
BRANCH  25  26
HETATM   26  O   UNL     1      -5.202  18.860  69.353  1.00  0.00    -0.188 OA 
BRANCH  26  27
HETATM   27  C   UNL     1      -6.353  19.683  69.124  1.00  0.00    -0.312 C  
BRANCH  27  28
HETATM   28  C   UNL     1      -6.336  20.102  67.685  1.00  0.00    -0.260 A  
HETATM   29  C   UNL     1      -7.383  19.738  66.828  1.00  0.00    -0.261 A  
HETATM   30  C   UNL     1      -7.346  20.092  65.481  1.00  0.00    -0.270 A  
HETATM   31  C   UNL     1      -6.260  20.809  64.979  1.00  0.00    -0.304 A  
HETATM   32  C   UNL     1      -5.213  21.174  65.821  1.00  0.00    -0.244 A  
HETATM   33  C   UNL     1      -5.247  20.820  67.168  1.00  0.00    -0.220 A  
ENDBRANCH  27  28
ENDBRANCH  26  27
ENDBRANCH  25  26
ENDBRANCH  24  25
ENDBRANCH  15  24
TORSDOF 5
ENDMDL
MODEL       51
REMARK 921   NORMALIZED FREE ENERGY PREDICTED BY IDOCK:   -5.30 KCAL/MOL
REMARK 922        TOTAL FREE ENERGY PREDICTED BY IDOCK:   -8.31 KCAL/MOL
REMARK 923 INTER-LIGAND FREE ENERGY PREDICTED BY IDOCK:   -8.02 KCAL/MOL
REMARK 924 INTRA-LIGAND FREE ENERGY PREDICTED BY IDOCK:   -0.29 KCAL/MOL
REMARK 927      BINDING AFFINITY PREDICTED BY RF-SCORE:    0.00 PKD
ROOT
HETATM    1  O   UNL     1      -7.757   7.519  68.766  1.00  0.00    -0.113 OA 
HETATM    2  C   UNL     1      -9.191   7.536  68.502  1.00  0.00    -0.143 C  
HETATM    3  H   UNL     1      -7.649   8.135  69.481  1.00  0.00     0.000 HD 
HETATM    4  C   UNL     1      -9.437   9.062  68.077  1.00  0.00    -0.157 C  
HETATM    5  C   UNL     1      -9.828   7.083  69.849  1.00  0.00    -0.173 A  
HETATM    6  C   UNL     1      -9.368   6.528  67.331  1.00  0.00    -0.125 A  
HETATM    7  C   UNL     1      -8.556   9.429  66.842  1.00  0.00    -0.132 C  
HETATM    8  C   UNL     1      -9.015   6.666  70.933  1.00  0.00    -0.147 A  
HETATM    9  C   UNL     1     -10.555   5.824  67.080  1.00  0.00    -0.373 A  
HETATM   10  C   UNL     1      -9.545   6.144  72.119  1.00  0.00    -0.162 A  
HETATM   11  C   UNL     1     -10.657   4.924  66.008  1.00  0.00    -0.312 A  
HETATM   12  C   UNL     1      -8.633  10.896  66.462  1.00  0.00    -0.156 C  
HETATM   13  C   UNL     1      -9.584   4.715  65.151  1.00  0.00    -0.139 A  
HETATM   14  C   UNL     1     -10.918   6.037  72.271  1.00  0.00    -0.310 A  
HETATM   15  N   UNL     1      -9.559  11.625  67.420  1.00  0.00    -0.166 N  
HETATM   16  C   UNL     1      -8.395   5.395  65.367  1.00  0.00    -0.139 A  
HETATM   17  C   UNL     1     -11.217   7.010  70.065  1.00  0.00    -0.310 A  
HETATM   18  C   UNL     1      -9.065  11.472  68.855  1.00  0.00     0.027 C  
HETATM   19  C   UNL     1     -10.954  10.980  67.320  1.00  0.00    -0.297 C  
HETATM   20  C   UNL     1     -11.753   6.484  71.254  1.00  0.00    -0.386 A  
HETATM   21  C   UNL     1      -8.292   6.281  66.441  1.00  0.00    -0.118 A  
HETATM   22  C   UNL     1      -9.006  10.002  69.236  1.00  0.00    -0.186 C  
HETATM   23  C   UNL     1     -10.872   9.476  67.683  1.00  0.00    -0.253 C  
ENDROOT
BRANCH  15  24
HETATM   24  C   UNL     1      -9.644  13.132  67.037  1.00  0.00    -0.241 C  
BRANCH  24  25
HETATM   25  C   UNL     1     -10.133  14.028  68.195  1.00  0.00    -0.244 C  
BRANCH  25  26
HETATM   26  O   UNL     1      -9.691  15.365  68.008  1.00  0.00    -0.206 OA 
BRANCH  26  27
HETATM   27  C   UNL     1     -10.526  16.051  67.066  1.00  0.00    -0.307 C  
BRANCH  27  28
HETATM   28  C   UNL     1     -10.267  17.520  67.210  1.00  0.00    -0.335 A  
HETATM   29  C   UNL     1     -10.533  18.395  66.148  1.00  0.00    -0.422 A  
HETATM   30  C   UNL     1     -10.252  19.754  66.268  1.00  0.00    -0.615 A  
HETATM   31  C   UNL     1      -9.699  20.250  67.449  1.00  0.00    -0.584 A  
HETATM   32  C   UNL     1      -9.429  19.389  68.509  1.00  0.00    -0.451 A  
HETATM   33  C   UNL     1      -9.707  18.029  68.392  1.00  0.00    -0.348 A  
ENDBRANCH  27  28
ENDBRANCH  26  27
ENDBRANCH  25  26
ENDBRANCH  24  25
ENDBRANCH  15  24
TORSDOF 5
ENDMDL
MODEL       52
REMARK 921   NORMALIZED FREE ENERGY PREDICTED BY IDOCK:   -5.29 KCAL/MOL
REMARK 922        TOTAL FREE ENERGY PREDICTED BY IDOCK:   -8.30 KCAL/MOL
REMARK 923 INTER-LIGAND FREE ENERGY PREDICTED BY IDOCK:   -6.67 KCAL/MOL
REMARK 924 INTRA-LIGAND FREE ENERGY PREDICTED BY IDOCK:   -1.64 KCAL/MOL
REMARK 927      BINDING AFFINITY PREDICTED BY RF-SCORE:    0.00 PKD
ROOT
HETATM    1  O   UNL     1     -10.005   6.407  65.915  1.00  0.00    -0.386 OA 
HETATM    2  C   UNL     1      -8.891   6.910  66.710  1.00  0.00    -0.125 C  
HETATM    3  H   UNL     1     -10.774   6.755  66.351  1.00  0.00     0.000 HD 
HETATM    4  C   UNL     1      -9.173   6.244  68.141  1.00  0.00    -0.110 C  
HETATM    5  C   UNL     1      -9.038   8.459  66.628  1.00  0.00    -0.202 A  
HETATM    6  C   UNL     1      -7.633   6.340  65.997  1.00  0.00    -0.087 A  
HETATM    7  C   UNL     1      -9.218   4.689  68.016  1.00  0.00    -0.158 C  
HETATM    8  C   UNL     1     -10.027   9.052  65.804  1.00  0.00    -0.066 A  
HETATM    9  C   UNL     1      -6.365   6.939  66.052  1.00  0.00    -0.050 A  
HETATM   10  C   UNL     1     -10.120  10.435  65.611  1.00  0.00    -0.337 A  
HETATM   11  C   UNL     1      -5.265   6.380  65.384  1.00  0.00    -0.014 A  
HETATM   12  C   UNL     1      -9.612   3.992  69.304  1.00  0.00    -0.177 C  
HETATM   13  C   UNL     1      -5.396   5.203  64.658  1.00  0.00    -0.013 A  
HETATM   14  C   UNL     1      -9.233  11.282  66.256  1.00  0.00    -0.214 A  
HETATM   15  N   UNL     1      -9.876   5.025  70.385  1.00  0.00    -0.211 N  
HETATM   16  C   UNL     1      -6.634   4.581  64.582  1.00  0.00    -0.043 A  
HETATM   17  C   UNL     1      -8.192   9.355  67.308  1.00  0.00    -0.117 A  
HETATM   18  C   UNL     1     -10.973   5.988  69.943  1.00  0.00    -0.388 C  
HETATM   19  C   UNL     1      -8.583   5.834  70.597  1.00  0.00    -0.132 C  
HETATM   20  C   UNL     1      -8.282  10.745  67.116  1.00  0.00    -0.123 A  
HETATM   21  C   UNL     1      -7.729   5.146  65.237  1.00  0.00    -0.087 A  
HETATM   22  C   UNL     1     -10.565   6.695  68.662  1.00  0.00    -0.274 C  
HETATM   23  C   UNL     1      -8.165   6.526  69.276  1.00  0.00    -0.123 C  
ENDROOT
BRANCH  15  24
HETATM   24  C   UNL     1     -10.282   4.318  71.712  1.00  0.00    -0.112 C  
BRANCH  24  25
HETATM   25  C   UNL     1      -9.739   5.027  72.971  1.00  0.00    -0.146 C  
BRANCH  25  26
HETATM   26  O   UNL     1     -10.721   5.898  73.513  1.00  0.00    -0.255 OA 
BRANCH  26  27
HETATM   27  C   UNL     1     -10.172   7.200  73.751  1.00  0.00    -0.352 C  
BRANCH  27  28
HETATM   28  C   UNL     1     -10.660   8.108  72.662  1.00  0.00    -0.414 A  
HETATM   29  C   UNL     1      -9.750   8.832  71.881  1.00  0.00    -0.386 A  
HETATM   30  C   UNL     1     -10.206   9.707  70.898  1.00  0.00    -0.303 A  
HETATM   31  C   UNL     1     -11.576   9.870  70.690  1.00  0.00    -0.413 A  
HETATM   32  C   UNL     1     -12.489   9.157  71.463  1.00  0.00    -0.418 A  
HETATM   33  C   UNL     1     -12.036   8.282  72.448  1.00  0.00    -0.430 A  
ENDBRANCH  27  28
ENDBRANCH  26  27
ENDBRANCH  25  26
ENDBRANCH  24  25
ENDBRANCH  15  24
TORSDOF 5
ENDMDL
MODEL       53
REMARK 921   NORMALIZED FREE ENERGY PREDICTED BY IDOCK:   -5.27 KCAL/MOL
REMARK 922        TOTAL FREE ENERGY PREDICTED BY IDOCK:   -8.27 KCAL/MOL
REMARK 923 INTER-LIGAND FREE ENERGY PREDICTED BY IDOCK:   -7.79 KCAL/MOL
REMARK 924 INTRA-LIGAND FREE ENERGY PREDICTED BY IDOCK:   -0.48 KCAL/MOL
REMARK 927      BINDING AFFINITY PREDICTED BY RF-SCORE:    0.00 PKD
ROOT
HETATM    1  O   UNL     1     -12.517  15.038  67.734  1.00  0.00    -0.377 OA 
HETATM    2  C   UNL     1     -11.364  15.173  68.616  1.00  0.00    -0.310 C  
HETATM    3  H   UNL     1     -12.920  14.222  68.007  1.00  0.00     0.000 HD 
HETATM    4  C   UNL     1     -10.502  13.874  68.242  1.00  0.00    -0.252 C  
HETATM    5  C   UNL     1     -11.984  15.203  70.045  1.00  0.00    -0.374 A  
HETATM    6  C   UNL     1     -10.704  16.507  68.169  1.00  0.00    -0.343 A  
HETATM    7  C   UNL     1     -10.147  13.879  66.722  1.00  0.00    -0.265 C  
HETATM    8  C   UNL     1     -13.390  15.215  70.227  1.00  0.00     0.049 A  
HETATM    9  C   UNL     1      -9.917  17.309  69.009  1.00  0.00    -0.272 A  
HETATM   10  C   UNL     1     -13.988  15.356  71.484  1.00  0.00    -0.601 A  
HETATM   11  C   UNL     1      -9.347  18.507  68.551  1.00  0.00    -0.364 A  
HETATM   12  C   UNL     1      -9.445  12.614  66.264  1.00  0.00    -0.207 C  
HETATM   13  C   UNL     1      -9.535  18.929  67.240  1.00  0.00    -0.336 A  
HETATM   14  C   UNL     1     -13.196  15.473  72.615  1.00  0.00    -0.579 A  
HETATM   15  N   UNL     1      -9.289  11.662  67.437  1.00  0.00    -0.166 N  
HETATM   16  C   UNL     1     -10.306  18.160  66.380  1.00  0.00    -0.404 A  
HETATM   17  C   UNL     1     -11.216  15.268  71.222  1.00  0.00    -0.375 A  
HETATM   18  C   UNL     1     -10.652  11.327  68.035  1.00  0.00    -0.195 C  
HETATM   19  C   UNL     1      -8.450  12.369  68.517  1.00  0.00    -0.069 C  
HETATM   20  C   UNL     1     -11.813  15.412  72.487  1.00  0.00    -0.564 A  
HETATM   21  C   UNL     1     -10.881  16.976  66.842  1.00  0.00    -0.013 A  
HETATM   22  C   UNL     1     -11.343  12.595  68.506  1.00  0.00    -0.333 C  
HETATM   23  C   UNL     1      -9.154  13.673  68.968  1.00  0.00     0.312 C  
ENDROOT
BRANCH  15  24
HETATM   24  C   UNL     1      -8.569  10.361  66.975  1.00  0.00    -0.130 C  
BRANCH  24  25
HETATM   25  C   UNL     1      -7.668   9.743  68.066  1.00  0.00    -0.083 C  
BRANCH  25  26
HETATM   26  O   UNL     1      -8.257   8.557  68.582  1.00  0.00    -0.119 OA 
BRANCH  26  27
HETATM   27  C   UNL     1      -7.570   7.396  68.099  1.00  0.00    -0.114 C  
BRANCH  27  28
HETATM   28  C   UNL     1      -8.574   6.529  67.401  1.00  0.00    -0.118 A  
HETATM   29  C   UNL     1      -9.938   6.845  67.448  1.00  0.00    -0.212 A  
HETATM   30  C   UNL     1     -10.874   6.016  66.834  1.00  0.00    -0.396 A  
HETATM   31  C   UNL     1     -10.455   4.862  66.171  1.00  0.00    -0.346 A  
HETATM   32  C   UNL     1      -9.102   4.538  66.120  1.00  0.00    -0.128 A  
HETATM   33  C   UNL     1      -8.163   5.364  66.735  1.00  0.00    -0.108 A  
ENDBRANCH  27  28
ENDBRANCH  26  27
ENDBRANCH  25  26
ENDBRANCH  24  25
ENDBRANCH  15  24
TORSDOF 5
ENDMDL
MODEL       54
REMARK 921   NORMALIZED FREE ENERGY PREDICTED BY IDOCK:   -5.26 KCAL/MOL
REMARK 922        TOTAL FREE ENERGY PREDICTED BY IDOCK:   -8.26 KCAL/MOL
REMARK 923 INTER-LIGAND FREE ENERGY PREDICTED BY IDOCK:   -7.22 KCAL/MOL
REMARK 924 INTRA-LIGAND FREE ENERGY PREDICTED BY IDOCK:   -1.03 KCAL/MOL
REMARK 927      BINDING AFFINITY PREDICTED BY RF-SCORE:    0.00 PKD
ROOT
HETATM    1  O   UNL     1      -9.515   8.871  70.809  1.00  0.00    -0.189 OA 
HETATM    2  C   UNL     1     -10.190   7.580  70.848  1.00  0.00    -0.192 C  
HETATM    3  H   UNL     1      -9.963   9.343  70.117  1.00  0.00     0.000 HD 
HETATM    4  C   UNL     1      -9.894   7.002  69.383  1.00  0.00    -0.160 C  
HETATM    5  C   UNL     1     -11.674   7.938  71.162  1.00  0.00    -0.306 A  
HETATM    6  C   UNL     1      -9.458   6.807  71.981  1.00  0.00    -0.144 A  
HETATM    7  C   UNL     1      -8.355   6.911  69.137  1.00  0.00    -0.125 C  
HETATM    8  C   UNL     1     -12.054   9.275  71.442  1.00  0.00    -0.424 A  
HETATM    9  C   UNL     1     -10.045   5.777  72.730  1.00  0.00    -0.202 A  
HETATM   10  C   UNL     1     -13.349   9.625  71.841  1.00  0.00    -0.526 A  
HETATM   11  C   UNL     1      -9.335   5.115  73.744  1.00  0.00    -0.132 A  
HETATM   12  C   UNL     1      -7.995   6.498  67.723  1.00  0.00    -0.115 C  
HETATM   13  C   UNL     1      -8.017   5.454  74.027  1.00  0.00    -0.107 A  
HETATM   14  C   UNL     1     -14.323   8.645  71.955  1.00  0.00    -0.512 A  
HETATM   15  N   UNL     1      -9.261   6.295  66.910  1.00  0.00    -0.127 N  
HETATM   16  C   UNL     1      -7.403   6.467  73.305  1.00  0.00    -0.086 A  
HETATM   17  C   UNL     1     -12.704   6.982  71.236  1.00  0.00    -0.400 A  
HETATM   18  C   UNL     1     -10.094   7.573  66.895  1.00  0.00    -0.266 C  
HETATM   19  C   UNL     1     -10.090   5.188  67.587  1.00  0.00    -0.157 C  
HETATM   20  C   UNL     1     -14.006   7.330  71.638  1.00  0.00    -0.488 A  
HETATM   21  C   UNL     1      -8.115   7.131  72.305  1.00  0.00    -0.103 A  
HETATM   22  C   UNL     1     -10.466   7.972  68.313  1.00  0.00    -0.210 C  
HETATM   23  C   UNL     1     -10.438   5.598  69.040  1.00  0.00    -0.321 C  
ENDROOT
BRANCH  15  24
HETATM   24  C   UNL     1      -8.900   5.870  65.455  1.00  0.00    -0.092 C  
BRANCH  24  25
HETATM   25  C   UNL     1      -7.585   6.496  64.946  1.00  0.00    -0.097 C  
BRANCH  25  26
HETATM   26  O   UNL     1      -7.858   7.550  64.033  1.00  0.00    -0.129 OA 
BRANCH  26  27
HETATM   27  C   UNL     1      -7.212   8.761  64.444  1.00  0.00    -0.094 C  
BRANCH  27  28
HETATM   28  C   UNL     1      -8.275   9.711  64.907  1.00  0.00    -0.143 A  
HETATM   29  C   UNL     1      -9.372  10.002  64.086  1.00  0.00    -0.335 A  
HETATM   30  C   UNL     1     -10.338  10.917  64.499  1.00  0.00    -0.417 A  
HETATM   31  C   UNL     1     -10.213  11.552  65.735  1.00  0.00    -0.293 A  
HETATM   32  C   UNL     1      -9.125  11.272  66.558  1.00  0.00    -0.193 A  
HETATM   33  C   UNL     1      -8.157  10.359  66.147  1.00  0.00    -0.139 A  
ENDBRANCH  27  28
ENDBRANCH  26  27
ENDBRANCH  25  26
ENDBRANCH  24  25
ENDBRANCH  15  24
TORSDOF 5
ENDMDL
MODEL       55
REMARK 921   NORMALIZED FREE ENERGY PREDICTED BY IDOCK:   -5.25 KCAL/MOL
REMARK 922        TOTAL FREE ENERGY PREDICTED BY IDOCK:   -8.25 KCAL/MOL
REMARK 923 INTER-LIGAND FREE ENERGY PREDICTED BY IDOCK:   -7.91 KCAL/MOL
REMARK 924 INTRA-LIGAND FREE ENERGY PREDICTED BY IDOCK:   -0.34 KCAL/MOL
REMARK 927      BINDING AFFINITY PREDICTED BY RF-SCORE:    0.00 PKD
ROOT
HETATM    1  O   UNL     1     -11.481   6.829  67.618  1.00  0.00    -0.650 OA 
HETATM    2  C   UNL     1     -10.183   6.636  68.254  1.00  0.00    -0.171 C  
HETATM    3  H   UNL     1     -11.265   7.044  66.718  1.00  0.00     0.000 HD 
HETATM    4  C   UNL     1      -9.507   8.079  68.083  1.00  0.00    -0.152 C  
HETATM    5  C   UNL     1      -9.537   5.470  67.447  1.00  0.00    -0.128 A  
HETATM    6  C   UNL     1     -10.536   6.285  69.727  1.00  0.00    -0.323 A  
HETATM    7  C   UNL     1     -10.391   9.175  68.756  1.00  0.00    -0.235 C  
HETATM    8  C   UNL     1     -10.267   4.795  66.436  1.00  0.00    -0.308 A  
HETATM    9  C   UNL     1      -9.708   5.528  70.570  1.00  0.00    -0.241 A  
HETATM   10  C   UNL     1      -9.769   3.672  65.767  1.00  0.00    -0.101 A  
HETATM   11  C   UNL     1     -10.081   5.240  71.892  1.00  0.00    -0.252 A  
HETATM   12  C   UNL     1      -9.885  10.585  68.522  1.00  0.00    -0.168 C  
HETATM   13  C   UNL     1     -11.280   5.712  72.412  1.00  0.00    -0.336 A  
HETATM   14  C   UNL     1      -8.505   3.192  66.073  1.00  0.00    -0.109 A  
HETATM   15  N   UNL     1      -8.634  10.544  67.663  1.00  0.00    -0.118 N  
HETATM   16  C   UNL     1     -12.123   6.465  71.609  1.00  0.00    -0.319 A  
HETATM   17  C   UNL     1      -8.238   4.986  67.689  1.00  0.00    -0.105 A  
HETATM   18  C   UNL     1      -8.924   9.854  66.334  1.00  0.00    -0.147 C  
HETATM   19  C   UNL     1      -7.569   9.719  68.410  1.00  0.00    -0.080 C  
HETATM   20  C   UNL     1      -7.735   3.857  67.019  1.00  0.00    -0.084 A  
HETATM   21  C   UNL     1     -11.756   6.740  70.290  1.00  0.00    -0.397 A  
HETATM   22  C   UNL     1      -9.415   8.437  66.574  1.00  0.00    -0.284 C  
HETATM   23  C   UNL     1      -8.095   8.286  68.673  1.00  0.00    -0.120 C  
ENDROOT
BRANCH  15  24
HETATM   24  C   UNL     1      -8.106  11.988  67.417  1.00  0.00    -0.168 C  
BRANCH  24  25
HETATM   25  C   UNL     1      -8.881  13.063  68.208  1.00  0.00    -0.172 C  
BRANCH  25  26
HETATM   26  O   UNL     1     -10.099  13.382  67.550  1.00  0.00    -0.223 OA 
BRANCH  26  27
HETATM   27  C   UNL     1      -9.847  14.022  66.293  1.00  0.00    -0.305 C  
BRANCH  27  28
HETATM   28  C   UNL     1     -10.603  13.272  65.239  1.00  0.00    -0.325 A  
HETATM   29  C   UNL     1      -9.917  12.591  64.224  1.00  0.00    -0.217 A  
HETATM   30  C   UNL     1     -10.621  11.929  63.221  1.00  0.00    -0.420 A  
HETATM   31  C   UNL     1     -12.016  11.947  63.219  1.00  0.00    -0.441 A  
HETATM   32  C   UNL     1     -12.707  12.624  64.221  1.00  0.00    -0.394 A  
HETATM   33  C   UNL     1     -12.006  13.288  65.225  1.00  0.00    -0.422 A  
ENDBRANCH  27  28
ENDBRANCH  26  27
ENDBRANCH  25  26
ENDBRANCH  24  25
ENDBRANCH  15  24
TORSDOF 5
ENDMDL
MODEL       56
REMARK 921   NORMALIZED FREE ENERGY PREDICTED BY IDOCK:   -5.25 KCAL/MOL
REMARK 922        TOTAL FREE ENERGY PREDICTED BY IDOCK:   -8.25 KCAL/MOL
REMARK 923 INTER-LIGAND FREE ENERGY PREDICTED BY IDOCK:   -7.87 KCAL/MOL
REMARK 924 INTRA-LIGAND FREE ENERGY PREDICTED BY IDOCK:   -0.38 KCAL/MOL
REMARK 927      BINDING AFFINITY PREDICTED BY RF-SCORE:    0.00 PKD
ROOT
HETATM    1  O   UNL     1     -10.060   4.320  69.927  1.00  0.00    -0.194 OA 
HETATM    2  C   UNL     1      -9.256   5.018  70.923  1.00  0.00    -0.146 C  
HETATM    3  H   UNL     1      -9.928   4.824  69.132  1.00  0.00     0.000 HD 
HETATM    4  C   UNL     1      -9.947   6.464  70.959  1.00  0.00    -0.205 C  
HETATM    5  C   UNL     1      -7.808   4.959  70.349  1.00  0.00    -0.066 A  
HETATM    6  C   UNL     1      -9.471   4.194  72.223  1.00  0.00    -0.186 A  
HETATM    7  C   UNL     1     -11.457   6.334  71.333  1.00  0.00    -0.352 C  
HETATM    8  C   UNL     1      -7.525   4.227  69.168  1.00  0.00    -0.055 A  
HETATM    9  C   UNL     1      -8.546   4.142  73.277  1.00  0.00    -0.089 A  
HETATM   10  C   UNL     1      -6.225   4.052  68.682  1.00  0.00    -0.032 A  
HETATM   11  C   UNL     1      -8.793   3.378  74.428  1.00  0.00    -0.092 A  
HETATM   12  C   UNL     1     -12.211   7.648  71.257  1.00  0.00    -0.315 C  
HETATM   13  C   UNL     1      -9.974   2.658  74.563  1.00  0.00    -0.161 A  
HETATM   14  C   UNL     1      -5.155   4.622  69.354  1.00  0.00     0.000 A  
HETATM   15  N   UNL     1     -11.270   8.754  70.813  1.00  0.00    -0.260 N  
HETATM   16  C   UNL     1     -10.913   2.688  73.543  1.00  0.00    -0.312 A  
HETATM   17  C   UNL     1      -6.702   5.568  70.970  1.00  0.00    -0.045 A  
HETATM   18  C   UNL     1     -10.654   8.415  69.460  1.00  0.00    -0.213 C  
HETATM   19  C   UNL     1     -10.134   8.857  71.847  1.00  0.00    -0.322 C  
HETATM   20  C   UNL     1      -5.394   5.392  70.485  1.00  0.00    -0.005 A  
HETATM   21  C   UNL     1     -10.659   3.439  72.394  1.00  0.00    -0.007 A  
HETATM   22  C   UNL     1      -9.886   7.108  69.546  1.00  0.00    -0.162 C  
HETATM   23  C   UNL     1      -9.378   7.509  71.944  1.00  0.00    -0.171 C  
ENDROOT
BRANCH  15  24
HETATM   24  C   UNL     1     -12.037  10.107  70.733  1.00  0.00    -0.343 C  
BRANCH  24  25
HETATM   25  C   UNL     1     -13.139  10.248  71.803  1.00  0.00    -0.465 C  
BRANCH  25  26
HETATM   26  O   UNL     1     -13.427  11.618  72.042  1.00  0.00    -0.411 OA 
BRANCH  26  27
HETATM   27  C   UNL     1     -12.801  12.450  71.057  1.00  0.00    -0.155 C  
BRANCH  27  28
HETATM   28  C   UNL     1     -12.558  13.791  71.679  1.00  0.00    -0.370 A  
HETATM   29  C   UNL     1     -13.084  14.093  72.943  1.00  0.00    -0.544 A  
HETATM   30  C   UNL     1     -12.893  15.354  73.502  1.00  0.00    -0.683 A  
HETATM   31  C   UNL     1     -12.179  16.327  72.802  1.00  0.00    -0.592 A  
HETATM   32  C   UNL     1     -11.654  16.039  71.544  1.00  0.00    -0.529 A  
HETATM   33  C   UNL     1     -11.845  14.778  70.982  1.00  0.00    -0.383 A  
ENDBRANCH  27  28
ENDBRANCH  26  27
ENDBRANCH  25  26
ENDBRANCH  24  25
ENDBRANCH  15  24
TORSDOF 5
ENDMDL
MODEL       57
REMARK 921   NORMALIZED FREE ENERGY PREDICTED BY IDOCK:   -5.14 KCAL/MOL
REMARK 922        TOTAL FREE ENERGY PREDICTED BY IDOCK:   -8.11 KCAL/MOL
REMARK 923 INTER-LIGAND FREE ENERGY PREDICTED BY IDOCK:   -7.99 KCAL/MOL
REMARK 924 INTRA-LIGAND FREE ENERGY PREDICTED BY IDOCK:   -0.12 KCAL/MOL
REMARK 927      BINDING AFFINITY PREDICTED BY RF-SCORE:    0.00 PKD
ROOT
HETATM    1  O   UNL     1     -10.721  15.315  66.894  1.00  0.00    -0.303 OA 
HETATM    2  C   UNL     1      -9.966  15.835  68.029  1.00  0.00    -0.222 C  
HETATM    3  H   UNL     1     -11.561  15.754  66.958  1.00  0.00     0.000 HD 
HETATM    4  C   UNL     1     -10.852  15.347  69.273  1.00  0.00    -0.253 C  
HETATM    5  C   UNL     1      -9.916  17.372  67.777  1.00  0.00    -0.301 A  
HETATM    6  C   UNL     1      -8.591  15.117  67.925  1.00  0.00    -0.154 A  
HETATM    7  C   UNL     1     -10.996  13.793  69.259  1.00  0.00    -0.205 C  
HETATM    8  C   UNL     1     -10.438  17.929  66.582  1.00  0.00    -0.318 A  
HETATM    9  C   UNL     1      -7.395  15.642  68.438  1.00  0.00    -0.116 A  
HETATM   10  C   UNL     1     -10.312  19.286  66.263  1.00  0.00    -0.566 A  
HETATM   11  C   UNL     1      -6.181  14.949  68.313  1.00  0.00    -0.125 A  
HETATM   12  C   UNL     1     -11.931  13.266  70.330  1.00  0.00    -0.275 C  
HETATM   13  C   UNL     1      -6.131  13.710  67.686  1.00  0.00    -0.108 A  
HETATM   14  C   UNL     1      -9.672  20.144  67.143  1.00  0.00    -0.576 A  
HETATM   15  N   UNL     1     -12.496  14.425  71.132  1.00  0.00    -0.335 N  
HETATM   16  C   UNL     1      -7.294  13.158  67.169  1.00  0.00     0.052 A  
HETATM   17  C   UNL     1      -9.323  18.285  68.668  1.00  0.00    -0.320 A  
HETATM   18  C   UNL     1     -13.231  15.397  70.216  1.00  0.00     0.032 C  
HETATM   19  C   UNL     1     -11.318  15.174  71.783  1.00  0.00    -0.317 C  
HETATM   20  C   UNL     1      -9.193  19.648  68.350  1.00  0.00    -0.404 A  
HETATM   21  C   UNL     1      -8.498  13.855  67.284  1.00  0.00    -0.212 A  
HETATM   22  C   UNL     1     -12.285  15.935  69.156  1.00  0.00    -0.013 C  
HETATM   23  C   UNL     1     -10.349  15.691  70.692  1.00  0.00     0.115 C  
ENDROOT
BRANCH  15  24
HETATM   24  C   UNL     1     -13.458  13.892  72.235  1.00  0.00    -0.526 C  
BRANCH  24  25
HETATM   25  C   UNL     1     -13.970  12.463  71.960  1.00  0.00     0.272 C  
BRANCH  25  26
HETATM   26  O   UNL     1     -12.977  11.506  72.303  1.00  0.00    -0.283 OA 
BRANCH  26  27
HETATM   27  C   UNL     1     -13.311  10.215  71.777  1.00  0.00    -0.385 C  
BRANCH  27  28
HETATM   28  C   UNL     1     -12.039   9.434  71.641  1.00  0.00    -0.462 A  
HETATM   29  C   UNL     1     -11.849   8.254  72.373  1.00  0.00    -0.461 A  
HETATM   30  C   UNL     1     -10.649   7.552  72.278  1.00  0.00    -0.280 A  
HETATM   31  C   UNL     1      -9.628   8.025  71.455  1.00  0.00    -0.195 A  
HETATM   32  C   UNL     1      -9.805   9.198  70.724  1.00  0.00    -0.334 A  
HETATM   33  C   UNL     1     -11.003   9.903  70.818  1.00  0.00    -0.407 A  
ENDBRANCH  27  28
ENDBRANCH  26  27
ENDBRANCH  25  26
ENDBRANCH  24  25
ENDBRANCH  15  24
TORSDOF 5
ENDMDL
MODEL       58
REMARK 921   NORMALIZED FREE ENERGY PREDICTED BY IDOCK:   -5.13 KCAL/MOL
REMARK 922        TOTAL FREE ENERGY PREDICTED BY IDOCK:   -8.10 KCAL/MOL
REMARK 923 INTER-LIGAND FREE ENERGY PREDICTED BY IDOCK:   -7.63 KCAL/MOL
REMARK 924 INTRA-LIGAND FREE ENERGY PREDICTED BY IDOCK:   -0.47 KCAL/MOL
REMARK 927      BINDING AFFINITY PREDICTED BY RF-SCORE:    0.00 PKD
ROOT
HETATM    1  O   UNL     1     -10.966  11.685  68.223  1.00  0.00    -0.199 OA 
HETATM    2  C   UNL     1     -10.123  11.110  67.182  1.00  0.00    -0.191 C  
HETATM    3  H   UNL     1     -10.926  12.620  68.060  1.00  0.00     0.000 HD 
HETATM    4  C   UNL     1      -8.694  11.758  67.511  1.00  0.00    -0.159 C  
HETATM    5  C   UNL     1     -10.799  11.567  65.854  1.00  0.00    -0.316 A  
HETATM    6  C   UNL     1     -10.188   9.581  67.448  1.00  0.00    -0.285 A  
HETATM    7  C   UNL     1      -8.254  11.392  68.963  1.00  0.00     0.015 C  
HETATM    8  C   UNL     1     -12.029  12.271  65.871  1.00  0.00    -0.358 A  
HETATM    9  C   UNL     1      -9.991   8.606  66.458  1.00  0.00    -0.353 A  
HETATM   10  C   UNL     1     -12.728  12.599  64.703  1.00  0.00    -0.458 A  
HETATM   11  C   UNL     1     -10.064   7.237  66.757  1.00  0.00    -0.291 A  
HETATM   12  C   UNL     1      -6.973  12.079  69.396  1.00  0.00     0.024 C  
HETATM   13  C   UNL     1     -10.320   6.804  68.052  1.00  0.00    -0.224 A  
HETATM   14  C   UNL     1     -12.207  12.249  63.467  1.00  0.00    -0.669 A  
HETATM   15  N   UNL     1      -6.465  12.968  68.275  1.00  0.00    -0.082 N  
HETATM   16  C   UNL     1     -10.517   7.739  69.058  1.00  0.00    -0.215 A  
HETATM   17  C   UNL     1     -10.277  11.278  64.579  1.00  0.00    -0.370 A  
HETATM   18  C   UNL     1      -7.521  14.001  67.895  1.00  0.00    -0.149 C  
HETATM   19  C   UNL     1      -6.198  12.079  67.045  1.00  0.00    -0.130 C  
HETATM   20  C   UNL     1     -10.978  11.605  63.404  1.00  0.00    -0.442 A  
HETATM   21  C   UNL     1     -10.456   9.100  68.756  1.00  0.00    -0.236 A  
HETATM   22  C   UNL     1      -8.796  13.307  67.447  1.00  0.00    -0.204 C  
HETATM   23  C   UNL     1      -7.500  11.358  66.618  1.00  0.00    -0.110 C  
ENDROOT
BRANCH  15  24
HETATM   24  C   UNL     1      -5.149  13.677  68.710  1.00  0.00    -0.074 C  
BRANCH  24  25
HETATM   25  C   UNL     1      -5.380  14.831  69.708  1.00  0.00    -0.094 C  
BRANCH  25  26
HETATM   26  O   UNL     1      -5.158  16.085  69.078  1.00  0.00    -0.106 OA 
BRANCH  26  27
HETATM   27  C   UNL     1      -5.954  17.110  69.687  1.00  0.00    -0.239 C  
BRANCH  27  28
HETATM   28  C   UNL     1      -6.626  17.878  68.590  1.00  0.00    -0.220 A  
HETATM   29  C   UNL     1      -6.774  17.314  67.316  1.00  0.00    -0.186 A  
HETATM   30  C   UNL     1      -7.361  18.045  66.286  1.00  0.00    -0.317 A  
HETATM   31  C   UNL     1      -7.802  19.348  66.519  1.00  0.00    -0.300 A  
HETATM   32  C   UNL     1      -7.657  19.920  67.781  1.00  0.00    -0.322 A  
HETATM   33  C   UNL     1      -7.069  19.192  68.813  1.00  0.00    -0.366 A  
ENDBRANCH  27  28
ENDBRANCH  26  27
ENDBRANCH  25  26
ENDBRANCH  24  25
ENDBRANCH  15  24
TORSDOF 5
ENDMDL
MODEL       59
REMARK 921   NORMALIZED FREE ENERGY PREDICTED BY IDOCK:   -5.13 KCAL/MOL
REMARK 922        TOTAL FREE ENERGY PREDICTED BY IDOCK:   -8.10 KCAL/MOL
REMARK 923 INTER-LIGAND FREE ENERGY PREDICTED BY IDOCK:   -7.70 KCAL/MOL
REMARK 924 INTRA-LIGAND FREE ENERGY PREDICTED BY IDOCK:   -0.40 KCAL/MOL
REMARK 927      BINDING AFFINITY PREDICTED BY RF-SCORE:    0.00 PKD
ROOT
HETATM    1  O   UNL     1     -11.515   9.598  67.508  1.00  0.00    -0.360 OA 
HETATM    2  C   UNL     1     -10.535   9.204  68.513  1.00  0.00    -0.204 C  
HETATM    3  H   UNL     1     -11.038   9.540  66.688  1.00  0.00     0.000 HD 
HETATM    4  C   UNL     1      -9.409  10.333  68.345  1.00  0.00    -0.143 C  
HETATM    5  C   UNL     1     -10.130   7.758  68.100  1.00  0.00    -0.220 A  
HETATM    6  C   UNL     1     -11.315   9.299  69.854  1.00  0.00    -0.083 A  
HETATM    7  C   UNL     1     -10.024  11.750  68.572  1.00  0.00    -0.203 C  
HETATM    8  C   UNL     1     -10.782   7.100  67.026  1.00  0.00    -0.420 A  
HETATM    9  C   UNL     1     -10.996   8.552  70.998  1.00  0.00    -0.296 A  
HETATM   10  C   UNL     1     -10.531   5.764  66.695  1.00  0.00    -0.330 A  
HETATM   11  C   UNL     1     -11.739   8.678  72.183  1.00  0.00    -0.442 A  
HETATM   12  C   UNL     1      -9.050  12.880  68.299  1.00  0.00    -0.180 C  
HETATM   13  C   UNL     1     -12.808   9.562  72.261  1.00  0.00    -0.426 A  
HETATM   14  C   UNL     1      -9.598   5.038  67.418  1.00  0.00    -0.164 A  
HETATM   15  N   UNL     1      -7.715  12.308  67.854  1.00  0.00    -0.121 N  
HETATM   16  C   UNL     1     -13.151  10.319  71.151  1.00  0.00    -0.481 A  
HETATM   17  C   UNL     1      -9.151   7.004  68.773  1.00  0.00    -0.133 A  
HETATM   18  C   UNL     1      -7.894  11.447  66.609  1.00  0.00    -0.137 C  
HETATM   19  C   UNL     1      -7.179  11.412  68.986  1.00  0.00    -0.118 C  
HETATM   20  C   UNL     1      -8.897   5.661  68.444  1.00  0.00    -0.108 A  
HETATM   21  C   UNL     1     -12.419  10.183  69.971  1.00  0.00    -0.020 A  
HETATM   22  C   UNL     1      -8.857  10.308  66.893  1.00  0.00    -0.141 C  
HETATM   23  C   UNL     1      -8.185  10.273  69.284  1.00  0.00    -0.164 C  
ENDROOT
BRANCH  15  24
HETATM   24  C   UNL     1      -6.708  13.463  67.572  1.00  0.00    -0.140 C  
BRANCH  24  25
HETATM   25  C   UNL     1      -6.757  14.587  68.627  1.00  0.00    -0.088 C  
BRANCH  25  26
HETATM   26  O   UNL     1      -7.097  15.825  68.018  1.00  0.00    -0.110 OA 
BRANCH  26  27
HETATM   27  C   UNL     1      -7.501  16.784  69.004  1.00  0.00    -0.228 C  
BRANCH  27  28
HETATM   28  C   UNL     1      -8.480  17.717  68.359  1.00  0.00    -0.295 A  
HETATM   29  C   UNL     1      -9.727  17.248  67.924  1.00  0.00    -0.273 A  
HETATM   30  C   UNL     1     -10.619  18.107  67.287  1.00  0.00    -0.384 A  
HETATM   31  C   UNL     1     -10.271  19.442  67.074  1.00  0.00    -0.514 A  
HETATM   32  C   UNL     1      -9.033  19.917  67.500  1.00  0.00    -0.422 A  
HETATM   33  C   UNL     1      -8.138  19.060  68.137  1.00  0.00    -0.347 A  
ENDBRANCH  27  28
ENDBRANCH  26  27
ENDBRANCH  25  26
ENDBRANCH  24  25
ENDBRANCH  15  24
TORSDOF 5
ENDMDL
MODEL       60
REMARK 921   NORMALIZED FREE ENERGY PREDICTED BY IDOCK:   -5.09 KCAL/MOL
REMARK 922        TOTAL FREE ENERGY PREDICTED BY IDOCK:   -8.05 KCAL/MOL
REMARK 923 INTER-LIGAND FREE ENERGY PREDICTED BY IDOCK:   -6.63 KCAL/MOL
REMARK 924 INTRA-LIGAND FREE ENERGY PREDICTED BY IDOCK:   -1.41 KCAL/MOL
REMARK 927      BINDING AFFINITY PREDICTED BY RF-SCORE:    0.00 PKD
ROOT
HETATM    1  O   UNL     1     -11.134   5.889  70.088  1.00  0.00    -0.348 OA 
HETATM    2  C   UNL     1     -10.757   7.269  70.372  1.00  0.00    -0.236 C  
HETATM    3  H   UNL     1     -11.307   5.517  70.945  1.00  0.00     0.000 HD 
HETATM    4  C   UNL     1      -9.441   7.079  71.268  1.00  0.00    -0.164 C  
HETATM    5  C   UNL     1     -12.005   7.859  71.095  1.00  0.00    -0.304 A  
HETATM    6  C   UNL     1     -10.473   7.877  68.971  1.00  0.00    -0.210 A  
HETATM    7  C   UNL     1      -8.362   6.272  70.481  1.00  0.00    -0.129 C  
HETATM    8  C   UNL     1     -13.193   7.097  71.232  1.00  0.00    -0.340 A  
HETATM    9  C   UNL     1     -10.589   9.243  68.674  1.00  0.00    -0.219 A  
HETATM   10  C   UNL     1     -14.372   7.625  71.770  1.00  0.00    -0.586 A  
HETATM   11  C   UNL     1     -10.321   9.736  67.387  1.00  0.00    -0.297 A  
HETATM   12  C   UNL     1      -7.137   5.937  71.311  1.00  0.00    -0.073 C  
HETATM   13  C   UNL     1      -9.917   8.882  66.368  1.00  0.00    -0.354 A  
HETATM   14  C   UNL     1     -14.399   8.939  72.211  1.00  0.00    -0.418 A  
HETATM   15  N   UNL     1      -7.308   6.480  72.718  1.00  0.00    -0.089 N  
HETATM   16  C   UNL     1      -9.790   7.525  66.625  1.00  0.00    -0.274 A  
HETATM   17  C   UNL     1     -12.058   9.170  71.604  1.00  0.00    -0.432 A  
HETATM   18  C   UNL     1      -8.563   5.900  73.363  1.00  0.00    -0.120 C  
HETATM   19  C   UNL     1      -7.478   8.007  72.623  1.00  0.00    -0.113 C  
HETATM   20  C   UNL     1     -13.242   9.704  72.144  1.00  0.00    -0.535 A  
HETATM   21  C   UNL     1     -10.068   7.036  67.902  1.00  0.00    -0.204 A  
HETATM   22  C   UNL     1      -9.787   6.253  72.537  1.00  0.00    -0.177 C  
HETATM   23  C   UNL     1      -8.714   8.351  71.755  1.00  0.00    -0.241 C  
ENDROOT
BRANCH  15  24
HETATM   24  C   UNL     1      -6.054   6.140  73.578  1.00  0.00    -0.063 C  
BRANCH  24  25
HETATM   25  C   UNL     1      -6.162   4.782  74.303  1.00  0.00    -0.052 C  
BRANCH  25  26
HETATM   26  O   UNL     1      -5.581   3.752  73.516  1.00  0.00    -0.003 OA 
BRANCH  26  27
HETATM   27  C   UNL     1      -6.223   2.495  73.767  1.00  0.00    -0.012 C  
BRANCH  27  28
HETATM   28  C   UNL     1      -7.455   2.433  72.916  1.00  0.00    -0.041 A  
HETATM   29  C   UNL     1      -7.358   2.529  71.521  1.00  0.00    -0.040 A  
HETATM   30  C   UNL     1      -8.507   2.513  70.733  1.00  0.00    -0.091 A  
HETATM   31  C   UNL     1      -9.762   2.407  71.332  1.00  0.00    -0.217 A  
HETATM   32  C   UNL     1      -9.869   2.314  72.718  1.00  0.00    -0.184 A  
HETATM   33  C   UNL     1      -8.723   2.331  73.509  1.00  0.00    -0.066 A  
ENDBRANCH  27  28
ENDBRANCH  26  27
ENDBRANCH  25  26
ENDBRANCH  24  25
ENDBRANCH  15  24
TORSDOF 5
ENDMDL
MODEL       61
REMARK 921   NORMALIZED FREE ENERGY PREDICTED BY IDOCK:   -5.02 KCAL/MOL
REMARK 922        TOTAL FREE ENERGY PREDICTED BY IDOCK:   -7.95 KCAL/MOL
REMARK 923 INTER-LIGAND FREE ENERGY PREDICTED BY IDOCK:   -7.40 KCAL/MOL
REMARK 924 INTRA-LIGAND FREE ENERGY PREDICTED BY IDOCK:   -0.55 KCAL/MOL
REMARK 927      BINDING AFFINITY PREDICTED BY RF-SCORE:    0.00 PKD
ROOT
HETATM    1  O   UNL     1      -7.367   8.812  67.914  1.00  0.00    -0.086 OA 
HETATM    2  C   UNL     1      -8.817   8.672  67.983  1.00  0.00    -0.141 C  
HETATM    3  H   UNL     1      -7.195   9.632  68.363  1.00  0.00     0.000 HD 
HETATM    4  C   UNL     1      -9.318   9.964  67.177  1.00  0.00    -0.170 C  
HETATM    5  C   UNL     1      -9.122   8.651  69.511  1.00  0.00    -0.146 A  
HETATM    6  C   UNL     1      -9.100   7.332  67.249  1.00  0.00    -0.133 A  
HETATM    7  C   UNL     1      -8.744   9.952  65.725  1.00  0.00    -0.157 C  
HETATM    8  C   UNL     1      -8.069   8.649  70.461  1.00  0.00    -0.115 A  
HETATM    9  C   UNL     1     -10.222   6.527  67.496  1.00  0.00    -0.221 A  
HETATM   10  C   UNL     1      -8.293   8.516  71.836  1.00  0.00    -0.218 A  
HETATM   11  C   UNL     1     -10.425   5.324  66.803  1.00  0.00    -0.330 A  
HETATM   12  C   UNL     1      -9.065  11.210  64.941  1.00  0.00    -0.095 C  
HETATM   13  C   UNL     1      -9.522   4.900  65.835  1.00  0.00    -0.171 A  
HETATM   14  C   UNL     1      -9.588   8.397  72.315  1.00  0.00    -0.374 A  
HETATM   15  N   UNL     1      -9.865  12.165  65.810  1.00  0.00    -0.246 N  
HETATM   16  C   UNL     1      -8.402   5.671  65.562  1.00  0.00    -0.139 A  
HETATM   17  C   UNL     1     -10.423   8.584  70.042  1.00  0.00    -0.226 A  
HETATM   18  C   UNL     1      -9.087  12.511  67.075  1.00  0.00    -0.213 C  
HETATM   19  C   UNL     1     -11.167  11.456  66.225  1.00  0.00    -0.161 C  
HETATM   20  C   UNL     1     -10.652   8.448  71.423  1.00  0.00    -0.296 A  
HETATM   21  C   UNL     1      -8.197   6.861  66.262  1.00  0.00    -0.117 A  
HETATM   22  C   UNL     1      -8.782  11.249  67.865  1.00  0.00    -0.138 C  
HETATM   23  C   UNL     1     -10.840  10.158  67.004  1.00  0.00    -0.221 C  
ENDROOT
BRANCH  15  24
HETATM   24  C   UNL     1     -10.200  13.460  65.012  1.00  0.00    -0.307 C  
BRANCH  24  25
HETATM   25  C   UNL     1     -11.714  13.679  64.813  1.00  0.00    -0.377 C  
BRANCH  25  26
HETATM   26  O   UNL     1     -12.159  14.794  65.573  1.00  0.00    -0.264 OA 
BRANCH  26  27
HETATM   27  C   UNL     1     -11.062  15.416  66.255  1.00  0.00    -0.226 C  
BRANCH  27  28
HETATM   28  C   UNL     1     -11.292  15.261  67.727  1.00  0.00    -0.331 A  
HETATM   29  C   UNL     1     -11.949  14.128  68.227  1.00  0.00    -0.367 A  
HETATM   30  C   UNL     1     -12.200  14.005  69.592  1.00  0.00    -0.383 A  
HETATM   31  C   UNL     1     -11.802  15.014  70.468  1.00  0.00    -0.347 A  
HETATM   32  C   UNL     1     -11.150  16.145  69.982  1.00  0.00    -0.363 A  
HETATM   33  C   UNL     1     -10.899  16.272  68.617  1.00  0.00    -0.322 A  
ENDBRANCH  27  28
ENDBRANCH  26  27
ENDBRANCH  25  26
ENDBRANCH  24  25
ENDBRANCH  15  24
TORSDOF 5
ENDMDL
MODEL       62
REMARK 921   NORMALIZED FREE ENERGY PREDICTED BY IDOCK:   -4.98 KCAL/MOL
REMARK 922        TOTAL FREE ENERGY PREDICTED BY IDOCK:   -7.90 KCAL/MOL
REMARK 923 INTER-LIGAND FREE ENERGY PREDICTED BY IDOCK:   -7.80 KCAL/MOL
REMARK 924 INTRA-LIGAND FREE ENERGY PREDICTED BY IDOCK:   -0.09 KCAL/MOL
REMARK 927      BINDING AFFINITY PREDICTED BY RF-SCORE:    0.00 PKD
ROOT
HETATM    1  O   UNL     1     -10.594   9.880  65.385  1.00  0.00    -0.013 OA 
HETATM    2  C   UNL     1      -9.357  10.302  66.032  1.00  0.00    -0.180 C  
HETATM    3  H   UNL     1     -10.628  10.404  64.593  1.00  0.00     0.000 HD 
HETATM    4  C   UNL     1      -9.635  11.858  66.303  1.00  0.00    -0.243 C  
HETATM    5  C   UNL     1      -8.251   9.971  64.985  1.00  0.00    -0.148 A  
HETATM    6  C   UNL     1      -9.300   9.446  67.327  1.00  0.00    -0.159 A  
HETATM    7  C   UNL     1     -10.910  12.035  67.186  1.00  0.00    -0.297 C  
HETATM    8  C   UNL     1      -8.570   9.291  63.783  1.00  0.00    -0.206 A  
HETATM    9  C   UNL     1      -8.109   9.108  67.988  1.00  0.00    -0.105 A  
HETATM   10  C   UNL     1      -7.595   8.872  62.870  1.00  0.00    -0.110 A  
HETATM   11  C   UNL     1      -8.119   8.328  69.155  1.00  0.00    -0.120 A  
HETATM   12  C   UNL     1     -11.314  13.484  67.375  1.00  0.00    -0.311 C  
HETATM   13  C   UNL     1      -9.314   7.878  69.701  1.00  0.00    -0.153 A  
HETATM   14  C   UNL     1      -6.258   9.137  63.120  1.00  0.00    -0.090 A  
HETATM   15  N   UNL     1     -10.352  14.387  66.624  1.00  0.00    -0.271 N  
HETATM   16  C   UNL     1     -10.512   8.195  69.076  1.00  0.00    -0.211 A  
HETATM   17  C   UNL     1      -6.889  10.270  65.175  1.00  0.00    -0.120 A  
HETATM   18  C   UNL     1     -10.335  14.029  65.142  1.00  0.00    -0.400 C  
HETATM   19  C   UNL     1      -8.939  14.155  67.191  1.00  0.00    -0.225 C  
HETATM   20  C   UNL     1      -5.907   9.849  64.261  1.00  0.00    -0.113 A  
HETATM   21  C   UNL     1     -10.499   8.960  67.909  1.00  0.00    -0.281 A  
HETATM   22  C   UNL     1      -9.913  12.582  64.957  1.00  0.00    -0.198 C  
HETATM   23  C   UNL     1      -8.535  12.670  67.021  1.00  0.00    -0.150 C  
ENDROOT
BRANCH  15  24
HETATM   24  C   UNL     1     -10.760  15.878  66.814  1.00  0.00    -0.281 C  
BRANCH  24  25
HETATM   25  C   UNL     1     -11.510  16.141  68.137  1.00  0.00    -0.220 C  
BRANCH  25  26
HETATM   26  O   UNL     1     -10.745  15.677  69.241  1.00  0.00    -0.210 OA 
BRANCH  26  27
HETATM   27  C   UNL     1     -11.288  16.162  70.476  1.00  0.00    -0.373 C  
BRANCH  27  28
HETATM   28  C   UNL     1     -12.124  15.068  71.068  1.00  0.00    -0.381 A  
HETATM   29  C   UNL     1     -11.864  13.728  70.753  1.00  0.00    -0.215 A  
HETATM   30  C   UNL     1     -12.668  12.714  71.271  1.00  0.00    -0.354 A  
HETATM   31  C   UNL     1     -13.741  13.032  72.103  1.00  0.00    -0.547 A  
HETATM   32  C   UNL     1     -14.010  14.362  72.420  1.00  0.00    -0.585 A  
HETATM   33  C   UNL     1     -13.209  15.377  71.903  1.00  0.00    -0.534 A  
ENDBRANCH  27  28
ENDBRANCH  26  27
ENDBRANCH  25  26
ENDBRANCH  24  25
ENDBRANCH  15  24
TORSDOF 5
ENDMDL
MODEL       63
REMARK 921   NORMALIZED FREE ENERGY PREDICTED BY IDOCK:   -4.97 KCAL/MOL
REMARK 922        TOTAL FREE ENERGY PREDICTED BY IDOCK:   -7.89 KCAL/MOL
REMARK 923 INTER-LIGAND FREE ENERGY PREDICTED BY IDOCK:   -7.49 KCAL/MOL
REMARK 924 INTRA-LIGAND FREE ENERGY PREDICTED BY IDOCK:   -0.40 KCAL/MOL
REMARK 927      BINDING AFFINITY PREDICTED BY RF-SCORE:    0.00 PKD
ROOT
HETATM    1  O   UNL     1      -9.729   4.414  72.251  1.00  0.00    -0.150 OA 
HETATM    2  C   UNL     1      -8.910   5.155  71.299  1.00  0.00    -0.135 C  
HETATM    3  H   UNL     1     -10.539   4.256  71.781  1.00  0.00     0.000 HD 
HETATM    4  C   UNL     1      -9.784   6.478  71.062  1.00  0.00    -0.189 C  
HETATM    5  C   UNL     1      -8.776   4.189  70.084  1.00  0.00    -0.117 A  
HETATM    6  C   UNL     1      -7.584   5.416  72.067  1.00  0.00    -0.099 A  
HETATM    7  C   UNL     1     -10.020   7.221  72.415  1.00  0.00    -0.208 C  
HETATM    8  C   UNL     1      -9.301   2.873  70.141  1.00  0.00    -0.212 A  
HETATM    9  C   UNL     1      -6.344   5.612  71.441  1.00  0.00    -0.043 A  
HETATM   10  C   UNL     1      -9.104   1.936  69.121  1.00  0.00    -0.173 A  
HETATM   11  C   UNL     1      -5.177   5.841  72.188  1.00  0.00    -0.021 A  
HETATM   12  C   UNL     1     -10.952   8.411  72.293  1.00  0.00    -0.361 C  
HETATM   13  C   UNL     1      -5.220   5.895  73.575  1.00  0.00    -0.024 A  
HETATM   14  C   UNL     1      -8.387   2.290  67.989  1.00  0.00    -0.081 A  
HETATM   15  N   UNL     1     -11.422   8.549  70.856  1.00  0.00    -0.268 N  
HETATM   16  C   UNL     1      -6.429   5.708  74.229  1.00  0.00    -0.071 A  
HETATM   17  C   UNL     1      -8.103   4.527  68.895  1.00  0.00    -0.077 A  
HETATM   18  C   UNL     1     -12.126   7.274  70.402  1.00  0.00    -0.025 C  
HETATM   19  C   UNL     1     -10.182   8.756  69.966  1.00  0.00    -0.198 C  
HETATM   20  C   UNL     1      -7.902   3.587  67.868  1.00  0.00    -0.072 A  
HETATM   21  C   UNL     1      -7.585   5.468  73.485  1.00  0.00    -0.095 A  
HETATM   22  C   UNL     1     -11.183   6.088  70.510  1.00  0.00    -0.363 C  
HETATM   23  C   UNL     1      -9.218   7.553  70.109  1.00  0.00    -0.154 C  
ENDROOT
BRANCH  15  24
HETATM   24  C   UNL     1     -12.380   9.770  70.721  1.00  0.00    -0.236 C  
BRANCH  24  25
HETATM   25  C   UNL     1     -13.067  10.154  72.048  1.00  0.00    -0.437 C  
BRANCH  25  26
HETATM   26  O   UNL     1     -13.497  11.508  72.011  1.00  0.00    -0.405 OA 
BRANCH  26  27
HETATM   27  C   UNL     1     -12.764  12.248  71.026  1.00  0.00    -0.225 C  
BRANCH  27  28
HETATM   28  C   UNL     1     -12.572  13.639  71.549  1.00  0.00    -0.385 A  
HETATM   29  C   UNL     1     -13.304  14.088  72.657  1.00  0.00    -0.643 A  
HETATM   30  C   UNL     1     -13.156  15.394  73.117  1.00  0.00    -0.643 A  
HETATM   31  C   UNL     1     -12.279  16.265  72.471  1.00  0.00    -0.563 A  
HETATM   32  C   UNL     1     -11.548  15.831  71.367  1.00  0.00    -0.511 A  
HETATM   33  C   UNL     1     -11.695  14.525  70.904  1.00  0.00    -0.308 A  
ENDBRANCH  27  28
ENDBRANCH  26  27
ENDBRANCH  25  26
ENDBRANCH  24  25
ENDBRANCH  15  24
TORSDOF 5
ENDMDL
MODEL       64
REMARK 921   NORMALIZED FREE ENERGY PREDICTED BY IDOCK:   -4.97 KCAL/MOL
REMARK 922        TOTAL FREE ENERGY PREDICTED BY IDOCK:   -7.88 KCAL/MOL
REMARK 923 INTER-LIGAND FREE ENERGY PREDICTED BY IDOCK:   -7.10 KCAL/MOL
REMARK 924 INTRA-LIGAND FREE ENERGY PREDICTED BY IDOCK:   -0.78 KCAL/MOL
REMARK 927      BINDING AFFINITY PREDICTED BY RF-SCORE:    0.00 PKD
ROOT
HETATM    1  O   UNL     1      -8.727  14.121  66.523  1.00  0.00    -0.447 OA 
HETATM    2  C   UNL     1      -9.800  13.300  67.072  1.00  0.00    -0.242 C  
HETATM    3  H   UNL     1      -8.345  13.576  65.845  1.00  0.00     0.000 HD 
HETATM    4  C   UNL     1      -8.997  12.035  67.642  1.00  0.00    -0.172 C  
HETATM    5  C   UNL     1     -10.733  13.034  65.853  1.00  0.00    -0.292 A  
HETATM    6  C   UNL     1     -10.424  14.192  68.182  1.00  0.00    -0.244 A  
HETATM    7  C   UNL     1      -7.941  12.494  68.696  1.00  0.00    -0.029 C  
HETATM    8  C   UNL     1     -10.485  13.651  64.601  1.00  0.00    -0.442 A  
HETATM    9  C   UNL     1     -11.752  14.080  68.619  1.00  0.00    -0.389 A  
HETATM   10  C   UNL     1     -11.359  13.532  63.514  1.00  0.00     0.165 A  
HETATM   11  C   UNL     1     -12.263  14.916  69.625  1.00  0.00    -0.299 A  
HETATM   12  C   UNL     1      -7.049  11.368  69.184  1.00  0.00    -0.115 C  
HETATM   13  C   UNL     1     -11.458  15.873  70.230  1.00  0.00    -0.376 A  
HETATM   14  C   UNL     1     -12.510  12.769  63.636  1.00  0.00    -0.482 A  
HETATM   15  N   UNL     1      -7.429  10.074  68.485  1.00  0.00    -0.084 N  
HETATM   16  C   UNL     1     -10.138  16.011  69.826  1.00  0.00    -0.212 A  
HETATM   17  C   UNL     1     -11.882  12.224  65.918  1.00  0.00    -0.420 A  
HETATM   18  C   UNL     1      -7.308  10.232  66.973  1.00  0.00    -0.092 C  
HETATM   19  C   UNL     1      -8.900   9.765  68.820  1.00  0.00    -0.129 C  
HETATM   20  C   UNL     1     -12.763  12.104  64.829  1.00  0.00    -0.056 A  
HETATM   21  C   UNL     1      -9.637  15.187  68.817  1.00  0.00    -0.219 A  
HETATM   22  C   UNL     1      -8.215  11.349  66.488  1.00  0.00    -0.152 C  
HETATM   23  C   UNL     1      -9.809  10.926  68.345  1.00  0.00    -0.183 C  
ENDROOT
BRANCH  15  24
HETATM   24  C   UNL     1      -6.518   8.912  68.980  1.00  0.00    -0.047 C  
BRANCH  24  25
HETATM   25  C   UNL     1      -7.311   7.707  69.527  1.00  0.00    -0.086 C  
BRANCH  25  26
HETATM   26  O   UNL     1      -7.137   7.595  70.933  1.00  0.00    -0.053 OA 
BRANCH  26  27
HETATM   27  C   UNL     1      -7.971   6.559  71.468  1.00  0.00    -0.104 C  
BRANCH  27  28
HETATM   28  C   UNL     1      -9.379   7.072  71.490  1.00  0.00    -0.154 A  
HETATM   29  C   UNL     1     -10.389   6.400  70.788  1.00  0.00    -0.244 A  
HETATM   30  C   UNL     1     -11.689   6.901  70.774  1.00  0.00    -0.417 A  
HETATM   31  C   UNL     1     -11.990   8.080  71.457  1.00  0.00    -0.331 A  
HETATM   32  C   UNL     1     -10.993   8.756  72.156  1.00  0.00    -0.404 A  
HETATM   33  C   UNL     1      -9.691   8.259  72.170  1.00  0.00    -0.344 A  
ENDBRANCH  27  28
ENDBRANCH  26  27
ENDBRANCH  25  26
ENDBRANCH  24  25
ENDBRANCH  15  24
TORSDOF 5
ENDMDL
MODEL       65
REMARK 921   NORMALIZED FREE ENERGY PREDICTED BY IDOCK:   -4.94 KCAL/MOL
REMARK 922        TOTAL FREE ENERGY PREDICTED BY IDOCK:   -7.85 KCAL/MOL
REMARK 923 INTER-LIGAND FREE ENERGY PREDICTED BY IDOCK:   -7.30 KCAL/MOL
REMARK 924 INTRA-LIGAND FREE ENERGY PREDICTED BY IDOCK:   -0.55 KCAL/MOL
REMARK 927      BINDING AFFINITY PREDICTED BY RF-SCORE:    0.00 PKD
ROOT
HETATM    1  O   UNL     1     -11.518  10.540  66.952  1.00  0.00    -0.175 OA 
HETATM    2  C   UNL     1     -10.273  10.869  67.637  1.00  0.00    -0.183 C  
HETATM    3  H   UNL     1     -12.192  10.888  67.524  1.00  0.00     0.000 HD 
HETATM    4  C   UNL     1     -10.425  10.064  69.015  1.00  0.00    -0.233 C  
HETATM    5  C   UNL     1     -10.297  12.423  67.738  1.00  0.00    -0.222 A  
HETATM    6  C   UNL     1      -9.170  10.298  66.702  1.00  0.00    -0.179 A  
HETATM    7  C   UNL     1     -10.617   8.540  68.735  1.00  0.00    -0.162 C  
HETATM    8  C   UNL     1     -11.330  13.175  67.123  1.00  0.00    -0.354 A  
HETATM    9  C   UNL     1      -7.859  10.796  66.646  1.00  0.00    -0.140 A  
HETATM   10  C   UNL     1     -11.330  14.574  67.091  1.00  0.00    -0.361 A  
HETATM   11  C   UNL     1      -6.904  10.242  65.780  1.00  0.00    -0.128 A  
HETATM   12  C   UNL     1     -10.901   7.730  69.985  1.00  0.00    -0.241 C  
HETATM   13  C   UNL     1      -7.227   9.169  64.959  1.00  0.00    -0.096 A  
HETATM   14  C   UNL     1     -10.298  15.277  67.694  1.00  0.00    -0.250 A  
HETATM   15  N   UNL     1     -10.936   8.648  71.193  1.00  0.00    -0.246 N  
HETATM   16  C   UNL     1      -8.512   8.648  64.988  1.00  0.00    -0.192 A  
HETATM   17  C   UNL     1      -9.299  13.173  68.387  1.00  0.00    -0.154 A  
HETATM   18  C   UNL     1     -11.994   9.730  71.009  1.00  0.00    -0.352 C  
HETATM   19  C   UNL     1      -9.562   9.334  71.311  1.00  0.00    -0.202 C  
HETATM   20  C   UNL     1      -9.294  14.579  68.355  1.00  0.00    -0.208 A  
HETATM   21  C   UNL     1      -9.463   9.209  65.842  1.00  0.00    -0.326 A  
HETATM   22  C   UNL     1     -11.696  10.549  69.765  1.00  0.00    -0.354 C  
HETATM   23  C   UNL     1      -9.259  10.142  70.025  1.00  0.00    -0.042 C  
ENDROOT
BRANCH  15  24
HETATM   24  C   UNL     1     -11.227   7.823  72.482  1.00  0.00    -0.363 C  
BRANCH  24  25
HETATM   25  C   UNL     1      -9.981   7.621  73.371  1.00  0.00    -0.314 C  
BRANCH  25  26
HETATM   26  O   UNL     1      -9.728   6.236  73.563  1.00  0.00    -0.154 OA 
BRANCH  26  27
HETATM   27  C   UNL     1     -10.931   5.472  73.408  1.00  0.00    -0.275 C  
BRANCH  27  28
HETATM   28  C   UNL     1     -10.570   4.185  72.729  1.00  0.00    -0.226 A  
HETATM   29  C   UNL     1     -11.004   2.961  73.254  1.00  0.00    -0.264 A  
HETATM   30  C   UNL     1     -10.633   1.763  72.647  1.00  0.00    -0.230 A  
HETATM   31  C   UNL     1      -9.821   1.779  71.512  1.00  0.00    -0.210 A  
HETATM   32  C   UNL     1      -9.383   2.991  70.984  1.00  0.00    -0.214 A  
HETATM   33  C   UNL     1      -9.751   4.190  71.590  1.00  0.00    -0.246 A  
ENDBRANCH  27  28
ENDBRANCH  26  27
ENDBRANCH  25  26
ENDBRANCH  24  25
ENDBRANCH  15  24
TORSDOF 5
ENDMDL
MODEL       66
REMARK 921   NORMALIZED FREE ENERGY PREDICTED BY IDOCK:   -4.91 KCAL/MOL
REMARK 922        TOTAL FREE ENERGY PREDICTED BY IDOCK:   -7.81 KCAL/MOL
REMARK 923 INTER-LIGAND FREE ENERGY PREDICTED BY IDOCK:   -6.05 KCAL/MOL
REMARK 924 INTRA-LIGAND FREE ENERGY PREDICTED BY IDOCK:   -1.76 KCAL/MOL
REMARK 927      BINDING AFFINITY PREDICTED BY RF-SCORE:    0.00 PKD
ROOT
HETATM    1  O   UNL     1      -7.666  10.291  68.993  1.00  0.00    -0.091 OA 
HETATM    2  C   UNL     1      -9.037   9.819  68.841  1.00  0.00    -0.148 C  
HETATM    3  H   UNL     1      -7.436  10.610  68.128  1.00  0.00     0.000 HD 
HETATM    4  C   UNL     1      -8.874   8.656  67.750  1.00  0.00    -0.137 C  
HETATM    5  C   UNL     1      -9.824  11.086  68.388  1.00  0.00    -0.186 A  
HETATM    6  C   UNL     1      -9.413   9.297  70.256  1.00  0.00    -0.277 A  
HETATM    7  C   UNL     1      -7.878   7.569  68.263  1.00  0.00    -0.122 C  
HETATM    8  C   UNL     1      -9.187  12.351  68.322  1.00  0.00    -0.189 A  
HETATM    9  C   UNL     1     -10.727   9.236  70.743  1.00  0.00    -0.350 A  
HETATM   10  C   UNL     1      -9.880  13.531  68.032  1.00  0.00    -0.238 A  
HETATM   11  C   UNL     1     -11.006   8.756  72.032  1.00  0.00    -0.438 A  
HETATM   12  C   UNL     1      -7.568   6.502  67.230  1.00  0.00    -0.096 C  
HETATM   13  C   UNL     1      -9.985   8.310  72.862  1.00  0.00    -0.296 A  
HETATM   14  C   UNL     1     -11.242  13.486  67.776  1.00  0.00    -0.308 A  
HETATM   15  N   UNL     1      -8.320   6.800  65.945  1.00  0.00    -0.132 N  
HETATM   16  C   UNL     1      -8.673   8.353  72.413  1.00  0.00    -0.280 A  
HETATM   17  C   UNL     1     -11.194  11.074  68.068  1.00  0.00    -0.372 A  
HETATM   18  C   UNL     1      -7.941   8.179  65.415  1.00  0.00    -0.126 C  
HETATM   19  C   UNL     1      -9.827   6.804  66.264  1.00  0.00     0.054 C  
HETATM   20  C   UNL     1     -11.894  12.259  67.778  1.00  0.00    -0.341 A  
HETATM   21  C   UNL     1      -8.397   8.842  71.136  1.00  0.00    -0.219 A  
HETATM   22  C   UNL     1      -8.269   9.245  66.446  1.00  0.00    -0.111 C  
HETATM   23  C   UNL     1     -10.140   7.876  67.336  1.00  0.00    -0.292 C  
ENDROOT
BRANCH  15  24
HETATM   24  C   UNL     1      -8.008   5.708  64.879  1.00  0.00    -0.117 C  
BRANCH  24  25
HETATM   25  C   UNL     1      -8.857   4.430  65.048  1.00  0.00    -0.141 C  
BRANCH  25  26
HETATM   26  O   UNL     1      -8.347   3.633  66.108  1.00  0.00    -0.100 OA 
BRANCH  26  27
HETATM   27  C   UNL     1      -9.402   3.217  66.985  1.00  0.00    -0.150 C  
BRANCH  27  28
HETATM   28  C   UNL     1      -9.150   3.831  68.328  1.00  0.00    -0.193 A  
HETATM   29  C   UNL     1      -7.959   3.565  69.017  1.00  0.00    -0.063 A  
HETATM   30  C   UNL     1      -7.743   4.103  70.284  1.00  0.00    -0.048 A  
HETATM   31  C   UNL     1      -8.717   4.908  70.875  1.00  0.00    -0.140 A  
HETATM   32  C   UNL     1      -9.906   5.176  70.200  1.00  0.00    -0.300 A  
HETATM   33  C   UNL     1     -10.125   4.639  68.933  1.00  0.00    -0.103 A  
ENDBRANCH  27  28
ENDBRANCH  26  27
ENDBRANCH  25  26
ENDBRANCH  24  25
ENDBRANCH  15  24
TORSDOF 5
ENDMDL
MODEL       67
REMARK 921   NORMALIZED FREE ENERGY PREDICTED BY IDOCK:   -4.91 KCAL/MOL
REMARK 922        TOTAL FREE ENERGY PREDICTED BY IDOCK:   -7.81 KCAL/MOL
REMARK 923 INTER-LIGAND FREE ENERGY PREDICTED BY IDOCK:   -6.97 KCAL/MOL
REMARK 924 INTRA-LIGAND FREE ENERGY PREDICTED BY IDOCK:   -0.84 KCAL/MOL
REMARK 927      BINDING AFFINITY PREDICTED BY RF-SCORE:    0.00 PKD
ROOT
HETATM    1  O   UNL     1     -10.309  12.927  67.015  1.00  0.00    -0.240 OA 
HETATM    2  C   UNL     1      -9.445  11.999  67.735  1.00  0.00    -0.190 C  
HETATM    3  H   UNL     1      -9.755  13.264  66.321  1.00  0.00     0.000 HD 
HETATM    4  C   UNL     1      -8.277  12.965  68.258  1.00  0.00    -0.153 C  
HETATM    5  C   UNL     1      -9.041  10.947  66.659  1.00  0.00    -0.175 A  
HETATM    6  C   UNL     1     -10.351  11.447  68.871  1.00  0.00    -0.203 A  
HETATM    7  C   UNL     1      -8.872  14.103  69.146  1.00  0.00     0.231 C  
HETATM    8  C   UNL     1      -9.602  10.988  65.358  1.00  0.00    -0.267 A  
HETATM    9  C   UNL     1     -10.168  10.196  69.479  1.00  0.00    -0.258 A  
HETATM   10  C   UNL     1      -9.356   9.999  64.398  1.00  0.00    -0.348 A  
HETATM   11  C   UNL     1     -11.020   9.748  70.500  1.00  0.00    -0.384 A  
HETATM   12  C   UNL     1      -7.845  15.135  69.569  1.00  0.00    -0.186 C  
HETATM   13  C   UNL     1     -12.067  10.542  70.952  1.00  0.00    -0.487 A  
HETATM   14  C   UNL     1      -8.519   8.937  64.702  1.00  0.00    -0.185 A  
HETATM   15  N   UNL     1      -6.489  14.777  68.988  1.00  0.00    -0.091 N  
HETATM   16  C   UNL     1     -12.278  11.787  70.376  1.00  0.00    -0.416 A  
HETATM   17  C   UNL     1      -8.155   9.883  66.909  1.00  0.00    -0.113 A  
HETATM   18  C   UNL     1      -6.567  14.697  67.467  1.00  0.00    -0.087 C  
HETATM   19  C   UNL     1      -6.093  13.388  69.523  1.00  0.00    -0.110 C  
HETATM   20  C   UNL     1      -7.907   8.887  65.948  1.00  0.00    -0.102 A  
HETATM   21  C   UNL     1     -11.436  12.224  69.353  1.00  0.00    -0.341 A  
HETATM   22  C   UNL     1      -7.585  13.650  67.048  1.00  0.00     0.217 C  
HETATM   23  C   UNL     1      -7.154  12.337  69.112  1.00  0.00    -0.003 C  
ENDROOT
BRANCH  15  24
HETATM   24  C   UNL     1      -5.427  15.832  69.418  1.00  0.00    -0.110 C  
BRANCH  24  25
HETATM   25  C   UNL     1      -6.047  17.168  69.878  1.00  0.00    -0.189 C  
BRANCH  25  26
HETATM   26  O   UNL     1      -6.312  18.003  68.759  1.00  0.00    -0.202 OA 
BRANCH  26  27
HETATM   27  C   UNL     1      -7.309  18.982  69.079  1.00  0.00    -0.306 C  
BRANCH  27  28
HETATM   28  C   UNL     1      -8.475  18.762  68.164  1.00  0.00    -0.335 A  
HETATM   29  C   UNL     1      -8.474  17.694  67.257  1.00  0.00    -0.225 A  
HETATM   30  C   UNL     1      -9.539  17.516  66.377  1.00  0.00    -0.283 A  
HETATM   31  C   UNL     1     -10.613  18.406  66.393  1.00  0.00    -0.342 A  
HETATM   32  C   UNL     1     -10.623  19.473  67.288  1.00  0.00    -0.610 A  
HETATM   33  C   UNL     1      -9.558  19.655  68.168  1.00  0.00    -0.474 A  
ENDBRANCH  27  28
ENDBRANCH  26  27
ENDBRANCH  25  26
ENDBRANCH  24  25
ENDBRANCH  15  24
TORSDOF 5
ENDMDL
MODEL       68
REMARK 921   NORMALIZED FREE ENERGY PREDICTED BY IDOCK:   -4.88 KCAL/MOL
REMARK 922        TOTAL FREE ENERGY PREDICTED BY IDOCK:   -7.77 KCAL/MOL
REMARK 923 INTER-LIGAND FREE ENERGY PREDICTED BY IDOCK:   -7.06 KCAL/MOL
REMARK 924 INTRA-LIGAND FREE ENERGY PREDICTED BY IDOCK:   -0.71 KCAL/MOL
REMARK 927      BINDING AFFINITY PREDICTED BY RF-SCORE:    0.00 PKD
ROOT
HETATM    1  O   UNL     1     -11.512  16.533  68.098  1.00  0.00    -0.251 OA 
HETATM    2  C   UNL     1     -10.903  15.259  68.463  1.00  0.00    -0.253 C  
HETATM    3  H   UNL     1     -12.404  16.302  67.867  1.00  0.00     0.000 HD 
HETATM    4  C   UNL     1     -11.018  14.428  67.097  1.00  0.00    -0.305 C  
HETATM    5  C   UNL     1     -11.771  14.754  69.654  1.00  0.00    -0.354 A  
HETATM    6  C   UNL     1      -9.443  15.636  68.841  1.00  0.00    -0.228 A  
HETATM    7  C   UNL     1     -10.283  15.178  65.943  1.00  0.00    -0.345 C  
HETATM    8  C   UNL     1     -12.801  15.563  70.197  1.00  0.00    -0.141 A  
HETATM    9  C   UNL     1      -8.647  14.890  69.723  1.00  0.00     0.200 A  
HETATM   10  C   UNL     1     -13.527  15.199  71.336  1.00  0.00    -0.561 A  
HETATM   11  C   UNL     1      -7.334  15.280  70.029  1.00  0.00     0.036 A  
HETATM   12  C   UNL     1     -10.461  14.520  64.588  1.00  0.00    -0.210 C  
HETATM   13  C   UNL     1      -6.777  16.415  69.453  1.00  0.00    -0.215 A  
HETATM   14  C   UNL     1     -13.261  13.994  71.967  1.00  0.00    -0.499 A  
HETATM   15  N   UNL     1     -11.338  13.289  64.728  1.00  0.00    -0.315 N  
HETATM   16  C   UNL     1      -7.533  17.176  68.574  1.00  0.00    -0.238 A  
HETATM   17  C   UNL     1     -11.570  13.515  70.290  1.00  0.00    -0.138 A  
HETATM   18  C   UNL     1     -12.693  13.666  65.318  1.00  0.00    -0.430 C  
HETATM   19  C   UNL     1     -10.644  12.317  65.700  1.00  0.00    -0.260 C  
HETATM   20  C   UNL     1     -12.297  13.146  71.436  1.00  0.00    -0.143 A  
HETATM   21  C   UNL     1      -8.842  16.792  68.280  1.00  0.00    -0.228 A  
HETATM   22  C   UNL     1     -12.510  14.309  66.682  1.00  0.00    -0.192 C  
HETATM   23  C   UNL     1     -10.439  12.996  67.076  1.00  0.00    -0.249 C  
ENDROOT
BRANCH  15  24
HETATM   24  C   UNL     1     -11.526  12.606  63.341  1.00  0.00    -0.435 C  
BRANCH  24  25
HETATM   25  C   UNL     1     -10.895  11.200  63.263  1.00  0.00    -0.031 C  
BRANCH  25  26
HETATM   26  O   UNL     1      -9.534  11.288  62.868  1.00  0.00    -0.341 OA 
BRANCH  26  27
HETATM   27  C   UNL     1      -8.922   9.991  62.856  1.00  0.00    -0.262 C  
BRANCH  27  28
HETATM   28  C   UNL     1      -8.321   9.758  64.208  1.00  0.00    -0.168 A  
HETATM   29  C   UNL     1      -7.161  10.441  64.597  1.00  0.00    -0.017 A  
HETATM   30  C   UNL     1      -6.579  10.192  65.838  1.00  0.00    -0.105 A  
HETATM   31  C   UNL     1      -7.148   9.254  66.699  1.00  0.00    -0.082 A  
HETATM   32  C   UNL     1      -8.299   8.567  66.322  1.00  0.00    -0.118 A  
HETATM   33  C   UNL     1      -8.883   8.813  65.081  1.00  0.00    -0.177 A  
ENDBRANCH  27  28
ENDBRANCH  26  27
ENDBRANCH  25  26
ENDBRANCH  24  25
ENDBRANCH  15  24
TORSDOF 5
ENDMDL
MODEL       69
REMARK 921   NORMALIZED FREE ENERGY PREDICTED BY IDOCK:   -4.87 KCAL/MOL
REMARK 922        TOTAL FREE ENERGY PREDICTED BY IDOCK:   -7.75 KCAL/MOL
REMARK 923 INTER-LIGAND FREE ENERGY PREDICTED BY IDOCK:   -6.31 KCAL/MOL
REMARK 924 INTRA-LIGAND FREE ENERGY PREDICTED BY IDOCK:   -1.44 KCAL/MOL
REMARK 927      BINDING AFFINITY PREDICTED BY RF-SCORE:    0.00 PKD
ROOT
HETATM    1  O   UNL     1      -8.714   8.585  70.962  1.00  0.00    -0.143 OA 
HETATM    2  C   UNL     1      -9.416   9.261  69.878  1.00  0.00    -0.197 C  
HETATM    3  H   UNL     1      -7.913   8.273  70.557  1.00  0.00     0.000 HD 
HETATM    4  C   UNL     1      -9.649   8.068  68.832  1.00  0.00    -0.152 C  
HETATM    5  C   UNL     1      -8.432  10.385  69.434  1.00  0.00    -0.145 A  
HETATM    6  C   UNL     1     -10.726   9.772  70.540  1.00  0.00    -0.381 A  
HETATM    7  C   UNL     1     -10.463   6.915  69.498  1.00  0.00    -0.244 C  
HETATM    8  C   UNL     1      -7.226  10.616  70.143  1.00  0.00     0.067 A  
HETATM    9  C   UNL     1     -11.452  10.882  70.082  1.00  0.00    -0.405 A  
HETATM   10  C   UNL     1      -6.371  11.685  69.852  1.00  0.00    -0.124 A  
HETATM   11  C   UNL     1     -12.629  11.299  70.722  1.00  0.00    -0.425 A  
HETATM   12  C   UNL     1     -10.609   5.692  68.613  1.00  0.00    -0.198 C  
HETATM   13  C   UNL     1     -13.120  10.612  71.825  1.00  0.00    -0.571 A  
HETATM   14  C   UNL     1      -6.684  12.557  68.822  1.00  0.00    -0.093 A  
HETATM   15  N   UNL     1      -9.893   5.926  67.295  1.00  0.00    -0.128 N  
HETATM   16  C   UNL     1     -12.431   9.508  72.305  1.00  0.00    -0.299 A  
HETATM   17  C   UNL     1      -8.686  11.259  68.361  1.00  0.00    -0.159 A  
HETATM   18  C   UNL     1      -8.419   6.234  67.537  1.00  0.00    -0.108 C  
HETATM   19  C   UNL     1     -10.535   7.149  66.614  1.00  0.00    -0.135 C  
HETATM   20  C   UNL     1      -7.830  12.336  68.067  1.00  0.00    -0.147 A  
HETATM   21  C   UNL     1     -11.254   9.103  71.674  1.00  0.00    -0.447 A  
HETATM   22  C   UNL     1      -8.279   7.469  68.410  1.00  0.00    -0.125 C  
HETATM   23  C   UNL     1     -10.408   8.393  67.528  1.00  0.00    -0.333 C  
ENDROOT
BRANCH  15  24
HETATM   24  C   UNL     1     -10.038   4.674  66.379  1.00  0.00    -0.261 C  
BRANCH  24  25
HETATM   25  C   UNL     1      -8.916   3.635  66.584  1.00  0.00    -0.141 C  
BRANCH  25  26
HETATM   26  O   UNL     1      -9.342   2.615  67.477  1.00  0.00    -0.186 OA 
BRANCH  26  27
HETATM   27  C   UNL     1      -8.277   2.228  68.354  1.00  0.00    -0.057 C  
BRANCH  27  28
HETATM   28  C   UNL     1      -8.394   3.046  69.604  1.00  0.00    -0.086 A  
HETATM   29  C   UNL     1      -9.455   2.833  70.494  1.00  0.00    -0.202 A  
HETATM   30  C   UNL     1      -9.587   3.622  71.634  1.00  0.00    -0.226 A  
HETATM   31  C   UNL     1      -8.663   4.635  71.892  1.00  0.00    -0.133 A  
HETATM   32  C   UNL     1      -7.607   4.858  71.012  1.00  0.00    -0.078 A  
HETATM   33  C   UNL     1      -7.473   4.070  69.870  1.00  0.00    -0.049 A  
ENDBRANCH  27  28
ENDBRANCH  26  27
ENDBRANCH  25  26
ENDBRANCH  24  25
ENDBRANCH  15  24
TORSDOF 5
ENDMDL
MODEL       70
REMARK 921   NORMALIZED FREE ENERGY PREDICTED BY IDOCK:   -4.86 KCAL/MOL
REMARK 922        TOTAL FREE ENERGY PREDICTED BY IDOCK:   -7.74 KCAL/MOL
REMARK 923 INTER-LIGAND FREE ENERGY PREDICTED BY IDOCK:   -5.99 KCAL/MOL
REMARK 924 INTRA-LIGAND FREE ENERGY PREDICTED BY IDOCK:   -1.76 KCAL/MOL
REMARK 927      BINDING AFFINITY PREDICTED BY RF-SCORE:    0.00 PKD
ROOT
HETATM    1  O   UNL     1      -8.595   8.710  70.890  1.00  0.00    -0.139 OA 
HETATM    2  C   UNL     1      -9.399   9.178  69.768  1.00  0.00    -0.182 C  
HETATM    3  H   UNL     1      -7.785   8.421  70.487  1.00  0.00     0.000 HD 
HETATM    4  C   UNL     1      -9.559   7.846  68.891  1.00  0.00    -0.155 C  
HETATM    5  C   UNL     1      -8.544  10.319  69.140  1.00  0.00    -0.167 A  
HETATM    6  C   UNL     1     -10.725   9.651  70.427  1.00  0.00    -0.356 A  
HETATM    7  C   UNL     1     -10.234   6.719  69.735  1.00  0.00    -0.207 C  
HETATM    8  C   UNL     1      -7.338  10.744  69.753  1.00  0.00    -0.072 A  
HETATM    9  C   UNL     1     -11.569  10.625  69.873  1.00  0.00    -0.396 A  
HETATM   10  C   UNL     1      -6.600  11.839  69.290  1.00  0.00    -0.112 A  
HETATM   11  C   UNL     1     -12.755  11.014  70.516  1.00  0.00    -0.331 A  
HETATM   12  C   UNL     1     -10.299   5.385  69.016  1.00  0.00    -0.212 C  
HETATM   13  C   UNL     1     -13.135  10.433  71.719  1.00  0.00    -0.567 A  
HETATM   14  C   UNL     1      -7.034  12.541  68.177  1.00  0.00    -0.089 A  
HETATM   15  N   UNL     1      -9.660   5.512  67.644  1.00  0.00    -0.118 N  
HETATM   16  C   UNL     1     -12.327   9.465  72.296  1.00  0.00    -0.298 A  
HETATM   17  C   UNL     1      -8.921  11.023  67.982  1.00  0.00    -0.145 A  
HETATM   18  C   UNL     1      -8.214   5.978  67.772  1.00  0.00    -0.112 C  
HETATM   19  C   UNL     1     -10.440   6.576  66.851  1.00  0.00    -0.277 C  
HETATM   20  C   UNL     1      -8.182  12.125  67.514  1.00  0.00    -0.167 A  
HETATM   21  C   UNL     1     -11.142   9.088  71.661  1.00  0.00    -0.433 A  
HETATM   22  C   UNL     1      -8.156   7.322  68.477  1.00  0.00    -0.125 C  
HETATM   23  C   UNL     1     -10.396   7.933  67.596  1.00  0.00    -0.307 C  
ENDROOT
BRANCH  15  24
HETATM   24  C   UNL     1      -9.722   4.146  66.898  1.00  0.00    -0.205 C  
BRANCH  24  25
HETATM   25  C   UNL     1      -9.737   4.290  65.362  1.00  0.00    -0.200 C  
BRANCH  25  26
HETATM   26  O   UNL     1      -8.413   4.432  64.865  1.00  0.00    -0.117 OA 
BRANCH  26  27
HETATM   27  C   UNL     1      -8.357   5.438  63.845  1.00  0.00    -0.109 C  
BRANCH  27  28
HETATM   28  C   UNL     1      -7.692   6.646  64.432  1.00  0.00    -0.113 A  
HETATM   29  C   UNL     1      -8.372   7.870  64.496  1.00  0.00    -0.021 A  
HETATM   30  C   UNL     1      -7.738   9.002  65.002  1.00  0.00    -0.109 A  
HETATM   31  C   UNL     1      -6.418   8.923  65.445  1.00  0.00    -0.067 A  
HETATM   32  C   UNL     1      -5.731   7.713  65.383  1.00  0.00    -0.037 A  
HETATM   33  C   UNL     1      -6.362   6.578  64.876  1.00  0.00    -0.041 A  
ENDBRANCH  27  28
ENDBRANCH  26  27
ENDBRANCH  25  26
ENDBRANCH  24  25
ENDBRANCH  15  24
TORSDOF 5
ENDMDL
MODEL       71
REMARK 921   NORMALIZED FREE ENERGY PREDICTED BY IDOCK:   -4.84 KCAL/MOL
REMARK 922        TOTAL FREE ENERGY PREDICTED BY IDOCK:   -7.72 KCAL/MOL
REMARK 923 INTER-LIGAND FREE ENERGY PREDICTED BY IDOCK:   -7.14 KCAL/MOL
REMARK 924 INTRA-LIGAND FREE ENERGY PREDICTED BY IDOCK:   -0.58 KCAL/MOL
REMARK 927      BINDING AFFINITY PREDICTED BY RF-SCORE:    0.00 PKD
ROOT
HETATM    1  O   UNL     1     -10.261   4.984  69.144  1.00  0.00    -0.207 OA 
HETATM    2  C   UNL     1      -9.370   5.987  69.715  1.00  0.00    -0.149 C  
HETATM    3  H   UNL     1      -9.717   4.524  68.516  1.00  0.00     0.000 HD 
HETATM    4  C   UNL     1      -8.989   6.867  68.430  1.00  0.00    -0.121 C  
HETATM    5  C   UNL     1      -8.216   5.151  70.346  1.00  0.00    -0.098 A  
HETATM    6  C   UNL     1     -10.260   6.739  70.742  1.00  0.00    -0.215 A  
HETATM    7  C   UNL     1     -10.277   7.456  67.776  1.00  0.00    -0.250 C  
HETATM    8  C   UNL     1      -8.273   3.734  70.367  1.00  0.00    -0.073 A  
HETATM    9  C   UNL     1      -9.759   7.403  71.872  1.00  0.00    -0.179 A  
HETATM   10  C   UNL     1      -7.318   2.949  71.023  1.00  0.00    -0.033 A  
HETATM   11  C   UNL     1     -10.613   8.065  72.768  1.00  0.00    -0.420 A  
HETATM   12  C   UNL     1     -10.010   8.192  66.477  1.00  0.00    -0.232 C  
HETATM   13  C   UNL     1     -11.985   8.095  72.553  1.00  0.00    -0.410 A  
HETATM   14  C   UNL     1      -6.253   3.557  71.670  1.00  0.00    -0.014 A  
HETATM   15  N   UNL     1      -8.527   8.140  66.154  1.00  0.00    -0.128 N  
HETATM   16  C   UNL     1     -12.517   7.452  71.445  1.00  0.00    -0.402 A  
HETATM   17  C   UNL     1      -7.091   5.726  70.966  1.00  0.00    -0.068 A  
HETATM   18  C   UNL     1      -8.056   6.693  66.053  1.00  0.00    -0.122 C  
HETATM   19  C   UNL     1      -7.764   8.814  67.309  1.00  0.00    -0.096 C  
HETATM   20  C   UNL     1      -6.131   4.940  71.627  1.00  0.00    -0.021 A  
HETATM   21  C   UNL     1     -11.667   6.784  70.562  1.00  0.00    -0.430 A  
HETATM   22  C   UNL     1      -8.311   5.966  67.362  1.00  0.00    -0.105 C  
HETATM   23  C   UNL     1      -8.056   8.079  68.640  1.00  0.00    -0.125 C  
ENDROOT
BRANCH  15  24
HETATM   24  C   UNL     1      -8.244   8.894  64.821  1.00  0.00    -0.163 C  
BRANCH  24  25
HETATM   25  C   UNL     1      -8.303  10.429  64.965  1.00  0.00    -0.166 C  
BRANCH  25  26
HETATM   26  O   UNL     1      -9.075  10.996  63.915  1.00  0.00    -0.187 OA 
BRANCH  26  27
HETATM   27  C   UNL     1     -10.476  10.892  64.200  1.00  0.00    -0.327 C  
BRANCH  27  28
HETATM   28  C   UNL     1     -10.879  12.119  64.960  1.00  0.00    -0.344 A  
HETATM   29  C   UNL     1     -11.422  12.010  66.247  1.00  0.00    -0.408 A  
HETATM   30  C   UNL     1     -11.836  13.148  66.936  1.00  0.00    -0.444 A  
HETATM   31  C   UNL     1     -11.716  14.404  66.343  1.00  0.00    -0.397 A  
HETATM   32  C   UNL     1     -11.181  14.524  65.062  1.00  0.00    -0.384 A  
HETATM   33  C   UNL     1     -10.767  13.388  64.370  1.00  0.00    -0.423 A  
ENDBRANCH  27  28
ENDBRANCH  26  27
ENDBRANCH  25  26
ENDBRANCH  24  25
ENDBRANCH  15  24
TORSDOF 5
ENDMDL
MODEL       72
REMARK 921   NORMALIZED FREE ENERGY PREDICTED BY IDOCK:   -4.79 KCAL/MOL
REMARK 922        TOTAL FREE ENERGY PREDICTED BY IDOCK:   -7.65 KCAL/MOL
REMARK 923 INTER-LIGAND FREE ENERGY PREDICTED BY IDOCK:   -7.17 KCAL/MOL
REMARK 924 INTRA-LIGAND FREE ENERGY PREDICTED BY IDOCK:   -0.48 KCAL/MOL
REMARK 927      BINDING AFFINITY PREDICTED BY RF-SCORE:    0.00 PKD
ROOT
HETATM    1  O   UNL     1      -7.653   6.942  69.272  1.00  0.00    -0.092 OA 
HETATM    2  C   UNL     1      -9.033   7.165  68.856  1.00  0.00    -0.129 C  
HETATM    3  H   UNL     1      -7.529   7.551  69.991  1.00  0.00     0.000 HD 
HETATM    4  C   UNL     1      -9.001   8.701  68.399  1.00  0.00    -0.142 C  
HETATM    5  C   UNL     1      -9.868   6.841  70.131  1.00  0.00    -0.187 A  
HETATM    6  C   UNL     1      -9.235   6.170  67.680  1.00  0.00    -0.107 A  
HETATM    7  C   UNL     1      -7.950   8.908  67.263  1.00  0.00    -0.097 C  
HETATM    8  C   UNL     1      -9.245   6.332  71.298  1.00  0.00    -0.157 A  
HETATM    9  C   UNL     1     -10.481   5.644  67.306  1.00  0.00    -0.322 A  
HETATM   10  C   UNL     1      -9.968   5.920  72.423  1.00  0.00    -0.194 A  
HETATM   11  C   UNL     1     -10.603   4.746  66.235  1.00  0.00    -0.246 A  
HETATM   12  C   UNL     1      -7.767  10.361  66.869  1.00  0.00    -0.111 C  
HETATM   13  C   UNL     1      -9.489   4.362  65.499  1.00  0.00    -0.175 A  
HETATM   14  C   UNL     1     -11.350   6.021  72.428  1.00  0.00    -0.349 A  
HETATM   15  N   UNL     1      -8.668  11.239  67.719  1.00  0.00    -0.131 N  
HETATM   16  C   UNL     1      -8.241   4.863  65.837  1.00  0.00    -0.113 A  
HETATM   17  C   UNL     1     -11.267   6.979  70.197  1.00  0.00    -0.325 A  
HETATM   18  C   UNL     1      -8.357  11.046  69.199  1.00  0.00    -0.026 C  
HETATM   19  C   UNL     1     -10.126  10.806  67.473  1.00  0.00    -0.186 C  
HETATM   20  C   UNL     1     -11.997   6.564  71.325  1.00  0.00    -0.364 A  
HETATM   21  C   UNL     1      -8.120   5.747  66.911  1.00  0.00    -0.102 A  
HETATM   22  C   UNL     1      -8.558   9.593  69.592  1.00  0.00    -0.196 C  
HETATM   23  C   UNL     1     -10.308   9.315  67.852  1.00  0.00    -0.279 C  
ENDROOT
BRANCH  15  24
HETATM   24  C   UNL     1      -8.487  12.734  67.320  1.00  0.00    -0.194 C  
BRANCH  24  25
HETATM   25  C   UNL     1      -8.626  13.704  68.512  1.00  0.00    -0.103 C  
BRANCH  25  26
HETATM   26  O   UNL     1      -9.973  14.138  68.644  1.00  0.00    -0.232 OA 
BRANCH  26  27
HETATM   27  C   UNL     1     -10.164  15.406  68.005  1.00  0.00    -0.235 C  
BRANCH  27  28
HETATM   28  C   UNL     1     -10.928  15.169  66.737  1.00  0.00    -0.321 A  
HETATM   29  C   UNL     1     -11.796  14.074  66.627  1.00  0.00    -0.443 A  
HETATM   30  C   UNL     1     -12.473  13.830  65.435  1.00  0.00    -0.532 A  
HETATM   31  C   UNL     1     -12.285  14.674  64.340  1.00  0.00    -0.473 A  
HETATM   32  C   UNL     1     -11.422  15.763  64.438  1.00  0.00    -0.268 A  
HETATM   33  C   UNL     1     -10.742  16.009  65.629  1.00  0.00    -0.341 A  
ENDBRANCH  27  28
ENDBRANCH  26  27
ENDBRANCH  25  26
ENDBRANCH  24  25
ENDBRANCH  15  24
TORSDOF 5
ENDMDL
MODEL       73
REMARK 921   NORMALIZED FREE ENERGY PREDICTED BY IDOCK:   -4.78 KCAL/MOL
REMARK 922        TOTAL FREE ENERGY PREDICTED BY IDOCK:   -7.64 KCAL/MOL
REMARK 923 INTER-LIGAND FREE ENERGY PREDICTED BY IDOCK:   -7.20 KCAL/MOL
REMARK 924 INTRA-LIGAND FREE ENERGY PREDICTED BY IDOCK:   -0.44 KCAL/MOL
REMARK 927      BINDING AFFINITY PREDICTED BY RF-SCORE:    0.00 PKD
ROOT
HETATM    1  O   UNL     1      -8.244  10.493  65.530  1.00  0.00    -0.159 OA 
HETATM    2  C   UNL     1      -9.206  11.141  66.414  1.00  0.00    -0.183 C  
HETATM    3  H   UNL     1      -8.748   9.806  65.109  1.00  0.00     0.000 HD 
HETATM    4  C   UNL     1      -9.612   9.946  67.402  1.00  0.00    -0.185 C  
HETATM    5  C   UNL     1     -10.320  11.651  65.452  1.00  0.00    -0.313 A  
HETATM    6  C   UNL     1      -8.382  12.264  67.104  1.00  0.00    -0.183 A  
HETATM    7  C   UNL     1      -8.348   9.390  68.130  1.00  0.00    -0.119 C  
HETATM    8  C   UNL     1     -10.179  11.526  64.047  1.00  0.00    -0.394 A  
HETATM    9  C   UNL     1      -8.945  13.444  67.615  1.00  0.00    -0.202 A  
HETATM   10  C   UNL     1     -11.098  12.071  63.144  1.00  0.00    -0.265 A  
HETATM   11  C   UNL     1      -8.150  14.426  68.226  1.00  0.00    -0.139 A  
HETATM   12  C   UNL     1      -8.632   8.169  68.982  1.00  0.00    -0.133 C  
HETATM   13  C   UNL     1      -6.778  14.251  68.357  1.00  0.00    -0.104 A  
HETATM   14  C   UNL     1     -12.210  12.749  63.617  1.00  0.00    -0.597 A  
HETATM   15  N   UNL     1     -10.102   7.803  68.880  1.00  0.00    -0.190 N  
HETATM   16  C   UNL     1      -6.187  13.097  67.866  1.00  0.00    -0.140 A  
HETATM   17  C   UNL     1     -11.489  12.297  65.893  1.00  0.00    -0.428 A  
HETATM   18  C   UNL     1     -10.484   7.539  67.427  1.00  0.00    -0.297 C  
HETATM   19  C   UNL     1     -10.928   9.002  69.384  1.00  0.00    -0.065 C  
HETATM   20  C   UNL     1     -12.414  12.848  64.988  1.00  0.00    -0.553 A  
HETATM   21  C   UNL     1      -6.978  12.127  67.248  1.00  0.00    -0.148 A  
HETATM   22  C   UNL     1     -10.213   8.771  66.581  1.00  0.00    -0.340 C  
HETATM   23  C   UNL     1     -10.620  10.256  68.530  1.00  0.00    -0.240 C  
ENDROOT
BRANCH  15  24
HETATM   24  C   UNL     1     -10.403   6.549  69.753  1.00  0.00    -0.195 C  
BRANCH  24  25
HETATM   25  C   UNL     1     -11.664   6.705  70.629  1.00  0.00    -0.394 C  
BRANCH  25  26
HETATM   26  O   UNL     1     -11.315   6.693  72.007  1.00  0.00    -0.255 OA 
BRANCH  26  27
HETATM   27  C   UNL     1     -10.278   5.736  72.262  1.00  0.00    -0.196 C  
BRANCH  27  28
HETATM   28  C   UNL     1      -9.086   6.481  72.779  1.00  0.00    -0.142 A  
HETATM   29  C   UNL     1      -9.133   7.873  72.940  1.00  0.00    -0.281 A  
HETATM   30  C   UNL     1      -8.011   8.570  73.381  1.00  0.00    -0.064 A  
HETATM   31  C   UNL     1      -6.829   7.883  73.660  1.00  0.00    -0.121 A  
HETATM   32  C   UNL     1      -6.769   6.501  73.501  1.00  0.00    -0.073 A  
HETATM   33  C   UNL     1      -7.890   5.801  73.059  1.00  0.00    -0.104 A  
ENDBRANCH  27  28
ENDBRANCH  26  27
ENDBRANCH  25  26
ENDBRANCH  24  25
ENDBRANCH  15  24
TORSDOF 5
ENDMDL
MODEL       74
REMARK 921   NORMALIZED FREE ENERGY PREDICTED BY IDOCK:   -4.70 KCAL/MOL
REMARK 922        TOTAL FREE ENERGY PREDICTED BY IDOCK:   -7.54 KCAL/MOL
REMARK 923 INTER-LIGAND FREE ENERGY PREDICTED BY IDOCK:   -7.04 KCAL/MOL
REMARK 924 INTRA-LIGAND FREE ENERGY PREDICTED BY IDOCK:   -0.50 KCAL/MOL
REMARK 927      BINDING AFFINITY PREDICTED BY RF-SCORE:    0.00 PKD
ROOT
HETATM    1  O   UNL     1     -12.325  11.677  68.081  1.00  0.00    -0.429 OA 
HETATM    2  C   UNL     1     -11.174  12.537  67.829  1.00  0.00    -0.269 C  
HETATM    3  H   UNL     1     -12.159  11.321  68.946  1.00  0.00     0.000 HD 
HETATM    4  C   UNL     1      -9.959  11.492  67.871  1.00  0.00    -0.193 C  
HETATM    5  C   UNL     1     -11.224  13.583  68.983  1.00  0.00    -0.314 A  
HETATM    6  C   UNL     1     -11.444  13.120  66.414  1.00  0.00    -0.374 A  
HETATM    7  C   UNL     1     -10.168  10.375  66.801  1.00  0.00    -0.282 C  
HETATM    8  C   UNL     1     -12.306  13.602  69.899  1.00  0.00    -0.310 A  
HETATM    9  C   UNL     1     -10.931  14.346  65.964  1.00  0.00    -0.316 A  
HETATM   10  C   UNL     1     -12.451  14.592  70.877  1.00  0.00    -0.415 A  
HETATM   11  C   UNL     1     -11.211  14.824  64.674  1.00  0.00    -0.350 A  
HETATM   12  C   UNL     1      -9.127   9.274  66.868  1.00  0.00    -0.131 C  
HETATM   13  C   UNL     1     -11.996  14.087  63.797  1.00  0.00    -0.230 A  
HETATM   14  C   UNL     1     -11.501  15.596  70.987  1.00  0.00    -0.439 A  
HETATM   15  N   UNL     1      -8.151   9.560  67.996  1.00  0.00    -0.102 N  
HETATM   16  C   UNL     1     -12.518  12.869  64.206  1.00  0.00    -0.424 A  
HETATM   17  C   UNL     1     -10.254  14.586  69.163  1.00  0.00    -0.172 A  
HETATM   18  C   UNL     1      -8.892   9.674  69.324  1.00  0.00    -0.164 C  
HETATM   19  C   UNL     1      -7.472  10.912  67.706  1.00  0.00    -0.094 C  
HETATM   20  C   UNL     1     -10.397  15.584  70.144  1.00  0.00    -0.279 A  
HETATM   21  C   UNL     1     -12.249  12.401  65.494  1.00  0.00    -0.356 A  
HETATM   22  C   UNL     1      -9.921  10.789  69.256  1.00  0.00    -0.182 C  
HETATM   23  C   UNL     1      -8.536  12.033  67.612  1.00  0.00    -0.163 C  
ENDROOT
BRANCH  15  24
HETATM   24  C   UNL     1      -7.078   8.434  68.072  1.00  0.00    -0.086 C  
BRANCH  24  25
HETATM   25  C   UNL     1      -6.228   8.315  66.790  1.00  0.00    -0.055 C  
BRANCH  25  26
HETATM   26  O   UNL     1      -5.977   6.950  66.486  1.00  0.00    -0.031 OA 
BRANCH  26  27
HETATM   27  C   UNL     1      -6.855   6.489  65.451  1.00  0.00    -0.048 C  
BRANCH  27  28
HETATM   28  C   UNL     1      -7.755   5.449  66.045  1.00  0.00    -0.091 A  
HETATM   29  C   UNL     1      -7.350   4.109  66.104  1.00  0.00    -0.080 A  
HETATM   30  C   UNL     1      -8.204   3.136  66.618  1.00  0.00    -0.089 A  
HETATM   31  C   UNL     1      -9.473   3.493  67.073  1.00  0.00    -0.207 A  
HETATM   32  C   UNL     1      -9.888   4.822  67.017  1.00  0.00    -0.224 A  
HETATM   33  C   UNL     1      -9.036   5.797  66.502  1.00  0.00    -0.144 A  
ENDBRANCH  27  28
ENDBRANCH  26  27
ENDBRANCH  25  26
ENDBRANCH  24  25
ENDBRANCH  15  24
TORSDOF 5
ENDMDL
MODEL       75
REMARK 921   NORMALIZED FREE ENERGY PREDICTED BY IDOCK:   -4.67 KCAL/MOL
REMARK 922        TOTAL FREE ENERGY PREDICTED BY IDOCK:   -7.50 KCAL/MOL
REMARK 923 INTER-LIGAND FREE ENERGY PREDICTED BY IDOCK:   -6.12 KCAL/MOL
REMARK 924 INTRA-LIGAND FREE ENERGY PREDICTED BY IDOCK:   -1.38 KCAL/MOL
REMARK 927      BINDING AFFINITY PREDICTED BY RF-SCORE:    0.00 PKD
ROOT
HETATM    1  O   UNL     1      -7.696   9.990  67.490  1.00  0.00    -0.091 OA 
HETATM    2  C   UNL     1      -8.764  10.919  67.841  1.00  0.00    -0.131 C  
HETATM    3  H   UNL     1      -7.215   9.877  68.302  1.00  0.00     0.000 HD 
HETATM    4  C   UNL     1      -7.943  12.222  68.286  1.00  0.00    -0.163 C  
HETATM    5  C   UNL     1      -9.552  10.182  68.965  1.00  0.00    -0.202 A  
HETATM    6  C   UNL     1      -9.551  11.104  66.513  1.00  0.00    -0.222 A  
HETATM    7  C   UNL     1      -7.028  12.711  67.120  1.00  0.00    -0.031 C  
HETATM    8  C   UNL     1      -9.221   8.853  69.332  1.00  0.00    -0.146 A  
HETATM    9  C   UNL     1     -10.906  11.460  66.452  1.00  0.00    -0.323 A  
HETATM   10  C   UNL     1      -9.973   8.114  70.253  1.00  0.00    -0.189 A  
HETATM   11  C   UNL     1     -11.566  11.611  65.222  1.00  0.00    -0.105 A  
HETATM   12  C   UNL     1      -6.119  13.861  67.509  1.00  0.00     0.033 C  
HETATM   13  C   UNL     1     -10.889  11.425  64.024  1.00  0.00    -0.450 A  
HETATM   14  C   UNL     1     -11.079   8.689  70.858  1.00  0.00    -0.310 A  
HETATM   15  N   UNL     1      -6.344  14.221  68.967  1.00  0.00    -0.091 N  
HETATM   16  C   UNL     1      -9.547  11.074  64.045  1.00  0.00    -0.310 A  
HETATM   17  C   UNL     1     -10.648  10.748  69.642  1.00  0.00    -0.222 A  
HETATM   18  C   UNL     1      -6.084  13.012  69.859  1.00  0.00    -0.125 C  
HETATM   19  C   UNL     1      -7.819  14.633  69.134  1.00  0.00    -0.107 C  
HETATM   20  C   UNL     1     -11.407  10.007  70.566  1.00  0.00    -0.409 A  
HETATM   21  C   UNL     1      -8.896  10.913  65.269  1.00  0.00    -0.179 A  
HETATM   22  C   UNL     1      -7.008  11.869  69.476  1.00  0.00     0.058 C  
HETATM   23  C   UNL     1      -8.748  13.468  68.713  1.00  0.00     0.102 C  
ENDROOT
BRANCH  15  24
HETATM   24  C   UNL     1      -5.415  15.402  69.375  1.00  0.00    -0.098 C  
BRANCH  24  25
HETATM   25  C   UNL     1      -6.101  16.781  69.272  1.00  0.00    -0.189 C  
BRANCH  25  26
HETATM   26  O   UNL     1      -6.044  17.265  67.937  1.00  0.00    -0.135 OA 
BRANCH  26  27
HETATM   27  C   UNL     1      -7.103  18.198  67.688  1.00  0.00    -0.200 C  
BRANCH  27  28
HETATM   28  C   UNL     1      -8.332  17.412  67.344  1.00  0.00    -0.215 A  
HETATM   29  C   UNL     1      -8.349  16.579  66.217  1.00  0.00    -0.364 A  
HETATM   30  C   UNL     1      -9.505  15.882  65.874  1.00  0.00    -0.372 A  
HETATM   31  C   UNL     1     -10.656  16.015  66.651  1.00  0.00    -0.297 A  
HETATM   32  C   UNL     1     -10.651  16.843  67.771  1.00  0.00    -0.340 A  
HETATM   33  C   UNL     1      -9.497  17.542  68.116  1.00  0.00    -0.291 A  
ENDBRANCH  27  28
ENDBRANCH  26  27
ENDBRANCH  25  26
ENDBRANCH  24  25
ENDBRANCH  15  24
TORSDOF 5
ENDMDL
MODEL       76
REMARK 921   NORMALIZED FREE ENERGY PREDICTED BY IDOCK:   -4.67 KCAL/MOL
REMARK 922        TOTAL FREE ENERGY PREDICTED BY IDOCK:   -7.49 KCAL/MOL
REMARK 923 INTER-LIGAND FREE ENERGY PREDICTED BY IDOCK:   -5.71 KCAL/MOL
REMARK 924 INTRA-LIGAND FREE ENERGY PREDICTED BY IDOCK:   -1.78 KCAL/MOL
REMARK 927      BINDING AFFINITY PREDICTED BY RF-SCORE:    0.00 PKD
ROOT
HETATM    1  O   UNL     1     -11.594  10.009  67.310  1.00  0.00    -0.268 OA 
HETATM    2  C   UNL     1     -10.277  10.583  67.557  1.00  0.00    -0.206 C  
HETATM    3  H   UNL     1     -11.425   9.078  67.220  1.00  0.00     0.000 HD 
HETATM    4  C   UNL     1      -9.487  10.201  66.215  1.00  0.00    -0.229 C  
HETATM    5  C   UNL     1      -9.799   9.882  68.863  1.00  0.00    -0.179 A  
HETATM    6  C   UNL     1     -10.553  12.106  67.703  1.00  0.00    -0.236 A  
HETATM    7  C   UNL     1     -10.218  10.792  64.969  1.00  0.00    -0.373 C  
HETATM    8  C   UNL     1     -10.658   9.006  69.573  1.00  0.00    -0.231 A  
HETATM    9  C   UNL     1      -9.739  12.980  68.438  1.00  0.00    -0.192 A  
HETATM   10  C   UNL     1     -10.313   8.446  70.809  1.00  0.00    -0.228 A  
HETATM   11  C   UNL     1     -10.039  14.348  68.537  1.00  0.00    -0.244 A  
HETATM   12  C   UNL     1      -9.604  10.360  63.651  1.00  0.00    -0.310 C  
HETATM   13  C   UNL     1     -11.150  14.880  67.894  1.00  0.00    -0.304 A  
HETATM   14  C   UNL     1      -9.079   8.729  71.373  1.00  0.00    -0.313 A  
HETATM   15  N   UNL     1      -8.426   9.438  63.912  1.00  0.00    -0.186 N  
HETATM   16  C   UNL     1     -11.977  14.046  67.157  1.00  0.00    -0.465 A  
HETATM   17  C   UNL     1      -8.535  10.100  69.443  1.00  0.00    -0.179 A  
HETATM   18  C   UNL     1      -8.873   8.220  64.715  1.00  0.00     0.179 C  
HETATM   19  C   UNL     1      -7.390  10.212  64.748  1.00  0.00    -0.134 C  
HETATM   20  C   UNL     1      -8.186   9.541  70.685  1.00  0.00    -0.155 A  
HETATM   21  C   UNL     1     -11.683  12.685  67.070  1.00  0.00    -0.438 A  
HETATM   22  C   UNL     1      -9.471   8.657  66.040  1.00  0.00    -0.278 C  
HETATM   23  C   UNL     1      -8.023  10.674  66.083  1.00  0.00    -0.151 C  
ENDROOT
BRANCH  15  24
HETATM   24  C   UNL     1      -7.789   8.990  62.563  1.00  0.00    -0.125 C  
BRANCH  24  25
HETATM   25  C   UNL     1      -6.334   8.500  62.709  1.00  0.00    -0.088 C  
BRANCH  25  26
HETATM   26  O   UNL     1      -6.306   7.161  63.185  1.00  0.00    -0.050 OA 
BRANCH  26  27
HETATM   27  C   UNL     1      -5.208   6.962  64.085  1.00  0.00    -0.028 C  
BRANCH  27  28
HETATM   28  C   UNL     1      -5.763   6.900  65.476  1.00  0.00    -0.031 A  
HETATM   29  C   UNL     1      -6.598   5.843  65.860  1.00  0.00    -0.047 A  
HETATM   30  C   UNL     1      -7.147   5.808  67.140  1.00  0.00    -0.070 A  
HETATM   31  C   UNL     1      -6.870   6.833  68.045  1.00  0.00    -0.078 A  
HETATM   32  C   UNL     1      -6.044   7.890  67.673  1.00  0.00    -0.050 A  
HETATM   33  C   UNL     1      -5.494   7.928  66.393  1.00  0.00    -0.025 A  
ENDBRANCH  27  28
ENDBRANCH  26  27
ENDBRANCH  25  26
ENDBRANCH  24  25
ENDBRANCH  15  24
TORSDOF 5
ENDMDL
MODEL       77
REMARK 921   NORMALIZED FREE ENERGY PREDICTED BY IDOCK:   -4.66 KCAL/MOL
REMARK 922        TOTAL FREE ENERGY PREDICTED BY IDOCK:   -7.49 KCAL/MOL
REMARK 923 INTER-LIGAND FREE ENERGY PREDICTED BY IDOCK:   -5.71 KCAL/MOL
REMARK 924 INTRA-LIGAND FREE ENERGY PREDICTED BY IDOCK:   -1.78 KCAL/MOL
REMARK 927      BINDING AFFINITY PREDICTED BY RF-SCORE:    0.00 PKD
ROOT
HETATM    1  O   UNL     1     -10.553  11.069  65.837  1.00  0.00    -0.252 OA 
HETATM    2  C   UNL     1      -9.237  10.779  66.395  1.00  0.00    -0.170 C  
HETATM    3  H   UNL     1     -11.030  11.453  66.563  1.00  0.00     0.000 HD 
HETATM    4  C   UNL     1      -9.589   9.733  67.557  1.00  0.00    -0.178 C  
HETATM    5  C   UNL     1      -8.708  12.170  66.856  1.00  0.00    -0.194 A  
HETATM    6  C   UNL     1      -8.457  10.151  65.207  1.00  0.00    -0.165 A  
HETATM    7  C   UNL     1     -10.319   8.488  66.963  1.00  0.00    -0.379 C  
HETATM    8  C   UNL     1      -9.441  13.353  66.584  1.00  0.00    -0.264 A  
HETATM    9  C   UNL     1      -7.060  10.189  65.083  1.00  0.00    -0.137 A  
HETATM   10  C   UNL     1      -8.950  14.630  66.876  1.00  0.00    -0.275 A  
HETATM   11  C   UNL     1      -6.408   9.605  63.985  1.00  0.00    -0.110 A  
HETATM   12  C   UNL     1     -10.803   7.513  68.019  1.00  0.00    -0.030 C  
HETATM   13  C   UNL     1      -7.131   8.956  62.993  1.00  0.00    -0.089 A  
HETATM   14  C   UNL     1      -7.707  14.771  67.473  1.00  0.00    -0.215 A  
HETATM   15  N   UNL     1     -10.448   8.035  69.399  1.00  0.00    -0.222 N  
HETATM   16  C   UNL     1      -8.514   8.895  63.083  1.00  0.00    -0.162 A  
HETATM   17  C   UNL     1      -7.476  12.353  67.511  1.00  0.00    -0.150 A  
HETATM   18  C   UNL     1     -11.067   9.411  69.622  1.00  0.00    -0.142 C  
HETATM   19  C   UNL     1      -8.917   8.178  69.476  1.00  0.00    -0.151 C  
HETATM   20  C   UNL     1      -6.979  13.635  67.805  1.00  0.00    -0.168 A  
HETATM   21  C   UNL     1      -9.160   9.487  64.169  1.00  0.00    -0.203 A  
HETATM   22  C   UNL     1     -10.566  10.388  68.572  1.00  0.00    -0.237 C  
HETATM   23  C   UNL     1      -8.418   9.155  68.382  1.00  0.00    -0.128 C  
ENDROOT
BRANCH  15  24
HETATM   24  C   UNL     1     -10.942   7.039  70.491  1.00  0.00    -0.265 C  
BRANCH  24  25
HETATM   25  C   UNL     1      -9.955   5.882  70.751  1.00  0.00    -0.189 C  
BRANCH  25  26
HETATM   26  O   UNL     1     -10.221   4.796  69.875  1.00  0.00    -0.252 OA 
BRANCH  26  27
HETATM   27  C   UNL     1      -9.005   4.279  69.320  1.00  0.00    -0.102 C  
BRANCH  27  28
HETATM   28  C   UNL     1      -8.921   4.738  67.896  1.00  0.00    -0.124 A  
HETATM   29  C   UNL     1      -9.896   4.351  66.967  1.00  0.00    -0.227 A  
HETATM   30  C   UNL     1      -9.794   4.744  65.634  1.00  0.00    -0.193 A  
HETATM   31  C   UNL     1      -8.715   5.522  65.217  1.00  0.00    -0.136 A  
HETATM   32  C   UNL     1      -7.738   5.910  66.132  1.00  0.00    -0.102 A  
HETATM   33  C   UNL     1      -7.836   5.518  67.465  1.00  0.00    -0.101 A  
ENDBRANCH  27  28
ENDBRANCH  26  27
ENDBRANCH  25  26
ENDBRANCH  24  25
ENDBRANCH  15  24
TORSDOF 5
ENDMDL
MODEL       78
REMARK 921   NORMALIZED FREE ENERGY PREDICTED BY IDOCK:   -4.61 KCAL/MOL
REMARK 922        TOTAL FREE ENERGY PREDICTED BY IDOCK:   -7.42 KCAL/MOL
REMARK 923 INTER-LIGAND FREE ENERGY PREDICTED BY IDOCK:   -6.98 KCAL/MOL
REMARK 924 INTRA-LIGAND FREE ENERGY PREDICTED BY IDOCK:   -0.44 KCAL/MOL
REMARK 927      BINDING AFFINITY PREDICTED BY RF-SCORE:    0.00 PKD
ROOT
HETATM    1  O   UNL     1     -10.488  13.041  68.914  1.00  0.00    -0.377 OA 
HETATM    2  C   UNL     1      -9.617  13.022  67.745  1.00  0.00    -0.208 C  
HETATM    3  H   UNL     1      -9.945  12.690  69.610  1.00  0.00     0.000 HD 
HETATM    4  C   UNL     1      -9.302  11.458  67.587  1.00  0.00    -0.159 C  
HETATM    5  C   UNL     1      -8.418  13.930  68.153  1.00  0.00    -0.171 A  
HETATM    6  C   UNL     1     -10.505  13.595  66.606  1.00  0.00    -0.272 A  
HETATM    7  C   UNL     1     -10.627  10.653  67.409  1.00  0.00    -0.304 C  
HETATM    8  C   UNL     1      -8.426  14.633  69.384  1.00  0.00     0.100 A  
HETATM    9  C   UNL     1      -9.997  14.245  65.471  1.00  0.00    -0.341 A  
HETATM   10  C   UNL     1      -7.427  15.547  69.739  1.00  0.00    -0.081 A  
HETATM   11  C   UNL     1     -10.849  14.746  64.474  1.00  0.00    -0.181 A  
HETATM   12  C   UNL     1     -10.421   9.151  67.386  1.00  0.00    -0.271 C  
HETATM   13  C   UNL     1     -12.227  14.598  64.576  1.00  0.00    -0.473 A  
HETATM   14  C   UNL     1      -6.367  15.778  68.876  1.00  0.00    -0.116 A  
HETATM   15  N   UNL     1      -8.946   8.834  67.561  1.00  0.00    -0.134 N  
HETATM   16  C   UNL     1     -12.765  13.959  65.682  1.00  0.00    -0.534 A  
HETATM   17  C   UNL     1      -7.298  14.151  67.330  1.00  0.00    -0.143 A  
HETATM   18  C   UNL     1      -8.428   9.423  68.869  1.00  0.00    -0.122 C  
HETATM   19  C   UNL     1      -8.176   9.490  66.400  1.00  0.00    -0.115 C  
HETATM   20  C   UNL     1      -6.293  15.070  67.683  1.00  0.00    -0.156 A  
HETATM   21  C   UNL     1     -11.917  13.473  66.678  1.00  0.00    -0.452 A  
HETATM   22  C   UNL     1      -8.622  10.929  68.880  1.00  0.00    -0.143 C  
HETATM   23  C   UNL     1      -8.406  11.021  66.407  1.00  0.00    -0.165 C  
ENDROOT
BRANCH  15  24
HETATM   24  C   UNL     1      -8.725   7.292  67.539  1.00  0.00    -0.121 C  
BRANCH  24  25
HETATM   25  C   UNL     1      -8.303   6.717  68.907  1.00  0.00    -0.121 C  
BRANCH  25  26
HETATM   26  O   UNL     1      -9.410   6.101  69.549  1.00  0.00    -0.136 OA 
BRANCH  26  27
HETATM   27  C   UNL     1      -9.539   6.564  70.900  1.00  0.00    -0.175 C  
BRANCH  27  28
HETATM   28  C   UNL     1      -9.954   5.398  71.745  1.00  0.00    -0.235 A  
HETATM   29  C   UNL     1      -9.342   4.149  71.579  1.00  0.00    -0.207 A  
HETATM   30  C   UNL     1      -9.758   3.055  72.336  1.00  0.00    -0.216 A  
HETATM   31  C   UNL     1     -10.791   3.200  73.262  1.00  0.00    -0.283 A  
HETATM   32  C   UNL     1     -11.408   4.437  73.432  1.00  0.00    -0.353 A  
HETATM   33  C   UNL     1     -10.996   5.533  72.676  1.00  0.00    -0.320 A  
ENDBRANCH  27  28
ENDBRANCH  26  27
ENDBRANCH  25  26
ENDBRANCH  24  25
ENDBRANCH  15  24
TORSDOF 5
ENDMDL
MODEL       79
REMARK 921   NORMALIZED FREE ENERGY PREDICTED BY IDOCK:   -4.59 KCAL/MOL
REMARK 922        TOTAL FREE ENERGY PREDICTED BY IDOCK:   -7.40 KCAL/MOL
REMARK 923 INTER-LIGAND FREE ENERGY PREDICTED BY IDOCK:   -7.03 KCAL/MOL
REMARK 924 INTRA-LIGAND FREE ENERGY PREDICTED BY IDOCK:   -0.36 KCAL/MOL
REMARK 927      BINDING AFFINITY PREDICTED BY RF-SCORE:    0.00 PKD
ROOT
HETATM    1  O   UNL     1      -7.291   6.399  70.183  1.00  0.00    -0.081 OA 
HETATM    2  C   UNL     1      -8.648   5.943  69.905  1.00  0.00    -0.129 C  
HETATM    3  H   UNL     1      -7.403   7.304  70.448  1.00  0.00     0.000 HD 
HETATM    4  C   UNL     1      -9.089   6.913  68.707  1.00  0.00    -0.133 C  
HETATM    5  C   UNL     1      -9.395   6.134  71.259  1.00  0.00    -0.170 A  
HETATM    6  C   UNL     1      -8.464   4.462  69.470  1.00  0.00    -0.095 A  
HETATM    7  C   UNL     1      -8.107   6.768  67.502  1.00  0.00    -0.115 C  
HETATM    8  C   UNL     1      -8.697   6.550  72.421  1.00  0.00    -0.126 A  
HETATM    9  C   UNL     1      -9.457   3.480  69.605  1.00  0.00    -0.235 A  
HETATM   10  C   UNL     1      -9.302   6.624  73.680  1.00  0.00    -0.173 A  
HETATM   11  C   UNL     1      -9.234   2.156  69.196  1.00  0.00    -0.195 A  
HETATM   12  C   UNL     1      -8.381   7.751  66.381  1.00  0.00    -0.131 C  
HETATM   13  C   UNL     1      -8.022   1.781  68.630  1.00  0.00    -0.057 A  
HETATM   14  C   UNL     1     -10.643   6.300  73.820  1.00  0.00    -0.261 A  
HETATM   15  N   UNL     1      -9.555   8.639  66.753  1.00  0.00    -0.188 N  
HETATM   16  C   UNL     1      -7.018   2.726  68.478  1.00  0.00    -0.048 A  
HETATM   17  C   UNL     1     -10.766   5.868  71.432  1.00  0.00    -0.319 A  
HETATM   18  C   UNL     1      -9.268   9.382  68.054  1.00  0.00    -0.130 C  
HETATM   19  C   UNL     1     -10.783   7.737  66.975  1.00  0.00    -0.246 C  
HETATM   20  C   UNL     1     -11.377   5.939  72.697  1.00  0.00    -0.337 A  
HETATM   21  C   UNL     1      -7.238   4.039  68.897  1.00  0.00    -0.054 A  
HETATM   22  C   UNL     1      -9.012   8.392  69.177  1.00  0.00    -0.147 C  
HETATM   23  C   UNL     1     -10.496   6.715  68.103  1.00  0.00    -0.257 C  
ENDROOT
BRANCH  15  24
HETATM   24  C   UNL     1      -9.843   9.652  65.606  1.00  0.00    -0.299 C  
BRANCH  24  25
HETATM   25  C   UNL     1     -10.266  11.046  66.116  1.00  0.00    -0.247 C  
BRANCH  25  26
HETATM   26  O   UNL     1     -10.833  11.809  65.060  1.00  0.00    -0.282 OA 
BRANCH  26  27
HETATM   27  C   UNL     1     -11.940  12.589  65.533  1.00  0.00    -0.442 C  
BRANCH  27  28
HETATM   28  C   UNL     1     -11.391  13.858  66.110  1.00  0.00    -0.323 A  
HETATM   29  C   UNL     1     -11.752  14.265  67.402  1.00  0.00    -0.422 A  
HETATM   30  C   UNL     1     -11.274  15.466  67.921  1.00  0.00    -0.329 A  
HETATM   31  C   UNL     1     -10.436  16.274  67.153  1.00  0.00    -0.297 A  
HETATM   32  C   UNL     1     -10.073  15.881  65.867  1.00  0.00    -0.376 A  
HETATM   33  C   UNL     1     -10.550  14.680  65.344  1.00  0.00    -0.390 A  
ENDBRANCH  27  28
ENDBRANCH  26  27
ENDBRANCH  25  26
ENDBRANCH  24  25
ENDBRANCH  15  24
TORSDOF 5
ENDMDL
MODEL       80
REMARK 921   NORMALIZED FREE ENERGY PREDICTED BY IDOCK:   -4.57 KCAL/MOL
REMARK 922        TOTAL FREE ENERGY PREDICTED BY IDOCK:   -7.37 KCAL/MOL
REMARK 923 INTER-LIGAND FREE ENERGY PREDICTED BY IDOCK:   -6.95 KCAL/MOL
REMARK 924 INTRA-LIGAND FREE ENERGY PREDICTED BY IDOCK:   -0.42 KCAL/MOL
REMARK 927      BINDING AFFINITY PREDICTED BY RF-SCORE:    0.00 PKD
ROOT
HETATM    1  O   UNL     1      -9.282  14.874  69.386  1.00  0.00    -0.372 OA 
HETATM    2  C   UNL     1      -8.632  14.712  68.090  1.00  0.00    -0.166 C  
HETATM    3  H   UNL     1      -8.559  14.944  69.998  1.00  0.00     0.000 HD 
HETATM    4  C   UNL     1      -7.823  13.342  68.289  1.00  0.00    -0.143 C  
HETATM    5  C   UNL     1      -7.774  16.004  67.935  1.00  0.00    -0.149 A  
HETATM    6  C   UNL     1      -9.814  14.597  67.089  1.00  0.00    -0.237 A  
HETATM    7  C   UNL     1      -8.802  12.184  68.660  1.00  0.00    -0.004 C  
HETATM    8  C   UNL     1      -7.849  17.045  68.895  1.00  0.00    -0.224 A  
HETATM    9  C   UNL     1      -9.727  14.946  65.733  1.00  0.00    -0.359 A  
HETATM   10  C   UNL     1      -7.186  18.267  68.737  1.00  0.00    -0.291 A  
HETATM   11  C   UNL     1     -10.830  14.822  64.874  1.00  0.00    -0.433 A  
HETATM   12  C   UNL     1      -8.096  10.884  68.995  1.00  0.00    -0.126 C  
HETATM   13  C   UNL     1     -12.044  14.334  65.342  1.00  0.00    -0.396 A  
HETATM   14  C   UNL     1      -6.403  18.487  67.615  1.00  0.00    -0.199 A  
HETATM   15  N   UNL     1      -6.594  11.075  68.888  1.00  0.00    -0.053 N  
HETATM   16  C   UNL     1     -12.168  13.976  66.676  1.00  0.00    -0.463 A  
HETATM   17  C   UNL     1      -6.926  16.245  66.838  1.00  0.00    -0.226 A  
HETATM   18  C   UNL     1      -6.130  12.187  69.822  1.00  0.00    -0.143 C  
HETATM   19  C   UNL     1      -6.268  11.494  67.442  1.00  0.00    -0.090 C  
HETATM   20  C   UNL     1      -6.260  17.473  66.676  1.00  0.00    -0.234 A  
HETATM   21  C   UNL     1     -11.072  14.112  67.530  1.00  0.00    -0.304 A  
HETATM   22  C   UNL     1      -6.828  13.490  69.472  1.00  0.00     0.048 C  
HETATM   23  C   UNL     1      -7.008  12.809  67.091  1.00  0.00     0.004 C  
ENDROOT
BRANCH  15  24
HETATM   24  C   UNL     1      -5.861   9.743  69.229  1.00  0.00    -0.034 C  
BRANCH  24  25
HETATM   25  C   UNL     1      -5.998   9.335  70.711  1.00  0.00    -0.054 C  
BRANCH  25  26
HETATM   26  O   UNL     1      -7.146   8.519  70.897  1.00  0.00    -0.051 OA 
BRANCH  26  27
HETATM   27  C   UNL     1      -7.514   8.465  72.282  1.00  0.00    -0.102 C  
BRANCH  27  28
HETATM   28  C   UNL     1      -9.006   8.353  72.354  1.00  0.00    -0.309 A  
HETATM   29  C   UNL     1      -9.606   7.373  73.157  1.00  0.00    -0.259 A  
HETATM   30  C   UNL     1     -10.992   7.242  73.190  1.00  0.00    -0.384 A  
HETATM   31  C   UNL     1     -11.791   8.085  72.418  1.00  0.00    -0.429 A  
HETATM   32  C   UNL     1     -11.206   9.060  71.614  1.00  0.00    -0.431 A  
HETATM   33  C   UNL     1      -9.819   9.193  71.577  1.00  0.00    -0.335 A  
ENDBRANCH  27  28
ENDBRANCH  26  27
ENDBRANCH  25  26
ENDBRANCH  24  25
ENDBRANCH  15  24
TORSDOF 5
ENDMDL
MODEL       81
REMARK 921   NORMALIZED FREE ENERGY PREDICTED BY IDOCK:   -4.56 KCAL/MOL
REMARK 922        TOTAL FREE ENERGY PREDICTED BY IDOCK:   -7.36 KCAL/MOL
REMARK 923 INTER-LIGAND FREE ENERGY PREDICTED BY IDOCK:   -7.07 KCAL/MOL
REMARK 924 INTRA-LIGAND FREE ENERGY PREDICTED BY IDOCK:   -0.29 KCAL/MOL
REMARK 927      BINDING AFFINITY PREDICTED BY RF-SCORE:    0.00 PKD
ROOT
HETATM    1  O   UNL     1      -6.921   7.998  66.550  1.00  0.00    -0.068 OA 
HETATM    2  C   UNL     1      -8.157   7.848  67.310  1.00  0.00    -0.118 C  
HETATM    3  H   UNL     1      -6.507   8.761  66.936  1.00  0.00     0.000 HD 
HETATM    4  C   UNL     1      -8.917   9.222  66.990  1.00  0.00    -0.142 C  
HETATM    5  C   UNL     1      -7.675   7.651  68.778  1.00  0.00    -0.118 A  
HETATM    6  C   UNL     1      -8.835   6.600  66.679  1.00  0.00    -0.140 A  
HETATM    7  C   UNL     1      -9.129   9.379  65.451  1.00  0.00    -0.280 C  
HETATM    8  C   UNL     1      -6.294   7.543  69.081  1.00  0.00    -0.035 A  
HETATM    9  C   UNL     1      -9.735   5.769  67.364  1.00  0.00    -0.133 A  
HETATM   10  C   UNL     1      -5.823   7.252  70.367  1.00  0.00    -0.024 A  
HETATM   11  C   UNL     1     -10.316   4.653  66.743  1.00  0.00    -0.174 A  
HETATM   12  C   UNL     1      -9.724  10.717  65.058  1.00  0.00    -0.269 C  
HETATM   13  C   UNL     1     -10.027   4.345  65.419  1.00  0.00    -0.231 A  
HETATM   14  C   UNL     1      -6.723   7.076  71.407  1.00  0.00    -0.052 A  
HETATM   15  N   UNL     1      -9.943  11.564  66.300  1.00  0.00    -0.213 N  
HETATM   16  C   UNL     1      -9.143   5.145  64.709  1.00  0.00    -0.006 A  
HETATM   17  C   UNL     1      -8.552   7.521  69.871  1.00  0.00    -0.139 A  
HETATM   18  C   UNL     1      -8.627  11.765  67.045  1.00  0.00    -0.173 C  
HETATM   19  C   UNL     1     -10.912  10.809  67.228  1.00  0.00    -0.297 C  
HETATM   20  C   UNL     1      -8.082   7.226  71.164  1.00  0.00    -0.102 A  
HETATM   21  C   UNL     1      -8.558   6.247  65.333  1.00  0.00    -0.097 A  
HETATM   22  C   UNL     1      -8.045  10.422  67.450  1.00  0.00    -0.107 C  
HETATM   23  C   UNL     1     -10.316   9.431  67.609  1.00  0.00    -0.303 C  
ENDROOT
BRANCH  15  24
HETATM   24  C   UNL     1     -10.554  12.942  65.905  1.00  0.00    -0.269 C  
BRANCH  24  25
HETATM   25  C   UNL     1      -9.677  14.140  66.323  1.00  0.00    -0.297 C  
BRANCH  25  26
HETATM   26  O   UNL     1     -10.405  15.354  66.203  1.00  0.00    -0.283 OA 
BRANCH  26  27
HETATM   27  C   UNL     1     -10.725  15.886  67.496  1.00  0.00    -0.318 C  
BRANCH  27  28
HETATM   28  C   UNL     1     -10.521  17.370  67.442  1.00  0.00    -0.336 A  
HETATM   29  C   UNL     1     -10.658  18.061  66.231  1.00  0.00    -0.262 A  
HETATM   30  C   UNL     1     -10.428  19.434  66.174  1.00  0.00    -0.600 A  
HETATM   31  C   UNL     1     -10.053  20.126  67.325  1.00  0.00    -0.572 A  
HETATM   32  C   UNL     1      -9.911  19.448  68.533  1.00  0.00    -0.509 A  
HETATM   33  C   UNL     1     -10.139  18.075  68.594  1.00  0.00    -0.401 A  
ENDBRANCH  27  28
ENDBRANCH  26  27
ENDBRANCH  25  26
ENDBRANCH  24  25
ENDBRANCH  15  24
TORSDOF 5
ENDMDL
MODEL       82
REMARK 921   NORMALIZED FREE ENERGY PREDICTED BY IDOCK:   -4.54 KCAL/MOL
REMARK 922        TOTAL FREE ENERGY PREDICTED BY IDOCK:   -7.33 KCAL/MOL
REMARK 923 INTER-LIGAND FREE ENERGY PREDICTED BY IDOCK:   -5.46 KCAL/MOL
REMARK 924 INTRA-LIGAND FREE ENERGY PREDICTED BY IDOCK:   -1.87 KCAL/MOL
REMARK 927      BINDING AFFINITY PREDICTED BY RF-SCORE:    0.00 PKD
ROOT
HETATM    1  O   UNL     1     -11.266   7.550  68.949  1.00  0.00    -0.423 OA 
HETATM    2  C   UNL     1      -9.919   8.069  69.158  1.00  0.00    -0.188 C  
HETATM    3  H   UNL     1     -11.213   6.650  69.248  1.00  0.00     0.000 HD 
HETATM    4  C   UNL     1      -9.043   7.124  68.204  1.00  0.00    -0.133 C  
HETATM    5  C   UNL     1      -9.687   7.908  70.690  1.00  0.00    -0.175 A  
HETATM    6  C   UNL     1     -10.004   9.541  68.667  1.00  0.00    -0.181 A  
HETATM    7  C   UNL     1      -9.545   7.228  66.730  1.00  0.00    -0.240 C  
HETATM    8  C   UNL     1     -10.729   7.457  71.539  1.00  0.00    -0.243 A  
HETATM    9  C   UNL     1      -9.167  10.568  69.128  1.00  0.00    -0.183 A  
HETATM   10  C   UNL     1     -10.601   7.407  72.932  1.00  0.00    -0.370 A  
HETATM   11  C   UNL     1      -9.291  11.882  68.650  1.00  0.00    -0.076 A  
HETATM   12  C   UNL     1      -8.852   6.262  65.788  1.00  0.00    -0.111 C  
HETATM   13  C   UNL     1     -10.243  12.202  67.690  1.00  0.00    -0.206 A  
HETATM   14  C   UNL     1      -9.411   7.792  73.529  1.00  0.00    -0.351 A  
HETATM   15  N   UNL     1      -7.845   5.429  66.561  1.00  0.00    -0.100 N  
HETATM   16  C   UNL     1     -11.087  11.212  67.208  1.00  0.00    -0.366 A  
HETATM   17  C   UNL     1      -8.478   8.238  71.330  1.00  0.00    -0.172 A  
HETATM   18  C   UNL     1      -8.536   4.669  67.688  1.00  0.00    -0.103 C  
HETATM   19  C   UNL     1      -6.814   6.386  67.187  1.00  0.00    -0.066 C  
HETATM   20  C   UNL     1      -8.346   8.191  72.730  1.00  0.00    -0.240 A  
HETATM   21  C   UNL     1     -10.969   9.909  67.694  1.00  0.00    -0.263 A  
HETATM   22  C   UNL     1      -9.214   5.642  68.637  1.00  0.00    -0.134 C  
HETATM   23  C   UNL     1      -7.524   7.389  68.129  1.00  0.00    -0.105 C  
ENDROOT
BRANCH  15  24
HETATM   24  C   UNL     1      -7.127   4.434  65.601  1.00  0.00    -0.067 C  
BRANCH  24  25
HETATM   25  C   UNL     1      -6.052   5.104  64.720  1.00  0.00    -0.026 C  
BRANCH  25  26
HETATM   26  O   UNL     1      -6.660   5.920  63.729  1.00  0.00    -0.035 OA 
BRANCH  26  27
HETATM   27  C   UNL     1      -5.922   7.136  63.547  1.00  0.00    -0.044 C  
BRANCH  27  28
HETATM   28  C   UNL     1      -6.802   8.272  63.973  1.00  0.00    -0.074 A  
HETATM   29  C   UNL     1      -6.453   9.066  65.074  1.00  0.00    -0.065 A  
HETATM   30  C   UNL     1      -7.292  10.095  65.495  1.00  0.00    -0.143 A  
HETATM   31  C   UNL     1      -8.490  10.336  64.822  1.00  0.00    -0.179 A  
HETATM   32  C   UNL     1      -8.849   9.551  63.729  1.00  0.00    -0.238 A  
HETATM   33  C   UNL     1      -8.012   8.521  63.306  1.00  0.00    -0.161 A  
ENDBRANCH  27  28
ENDBRANCH  26  27
ENDBRANCH  25  26
ENDBRANCH  24  25
ENDBRANCH  15  24
TORSDOF 5
ENDMDL
MODEL       83
REMARK 921   NORMALIZED FREE ENERGY PREDICTED BY IDOCK:   -4.50 KCAL/MOL
REMARK 922        TOTAL FREE ENERGY PREDICTED BY IDOCK:   -7.28 KCAL/MOL
REMARK 923 INTER-LIGAND FREE ENERGY PREDICTED BY IDOCK:   -6.52 KCAL/MOL
REMARK 924 INTRA-LIGAND FREE ENERGY PREDICTED BY IDOCK:   -0.76 KCAL/MOL
REMARK 927      BINDING AFFINITY PREDICTED BY RF-SCORE:    0.00 PKD
ROOT
HETATM    1  O   UNL     1      -7.057   6.573  70.050  1.00  0.00    -0.070 OA 
HETATM    2  C   UNL     1      -8.472   6.421  69.735  1.00  0.00    -0.127 C  
HETATM    3  H   UNL     1      -7.009   7.415  70.488  1.00  0.00     0.000 HD 
HETATM    4  C   UNL     1      -8.736   7.667  68.761  1.00  0.00    -0.128 C  
HETATM    5  C   UNL     1      -9.176   6.470  71.124  1.00  0.00    -0.156 A  
HETATM    6  C   UNL     1      -8.551   5.044  69.018  1.00  0.00    -0.091 A  
HETATM    7  C   UNL     1      -7.793   7.592  67.519  1.00  0.00    -0.119 C  
HETATM    8  C   UNL     1      -8.417   6.525  72.320  1.00  0.00    -0.112 A  
HETATM    9  C   UNL     1      -9.700   4.240  68.995  1.00  0.00    -0.209 A  
HETATM   10  C   UNL     1      -9.002   6.456  73.590  1.00  0.00    -0.134 A  
HETATM   11  C   UNL     1      -9.712   3.002  68.332  1.00  0.00     0.033 A  
HETATM   12  C   UNL     1      -7.889   8.807  66.616  1.00  0.00    -0.100 C  
HETATM   13  C   UNL     1      -8.584   2.542  67.665  1.00  0.00    -0.121 A  
HETATM   14  C   UNL     1     -10.378   6.346  73.709  1.00  0.00    -0.326 A  
HETATM   15  N   UNL     1      -8.890   9.794  67.191  1.00  0.00    -0.132 N  
HETATM   16  C   UNL     1      -7.429   3.311  67.664  1.00  0.00    -0.058 A  
HETATM   17  C   UNL     1     -10.572   6.415  71.289  1.00  0.00    -0.275 A  
HETATM   18  C   UNL     1      -8.480  10.208  68.600  1.00  0.00    -0.122 C  
HETATM   19  C   UNL     1     -10.258   9.091  67.276  1.00  0.00    -0.256 C  
HETATM   20  C   UNL     1     -11.163   6.342  72.563  1.00  0.00    -0.307 A  
HETATM   21  C   UNL     1      -7.417   4.536  68.334  1.00  0.00    -0.065 A  
HETATM   22  C   UNL     1      -8.401   8.990  69.503  1.00  0.00    -0.117 C  
HETATM   23  C   UNL     1     -10.155   7.835  68.177  1.00  0.00    -0.220 C  
ENDROOT
BRANCH  15  24
HETATM   24  C   UNL     1      -8.996  11.045  66.269  1.00  0.00    -0.185 C  
BRANCH  24  25
HETATM   25  C   UNL     1      -9.311  12.344  67.040  1.00  0.00    -0.204 C  
BRANCH  25  26
HETATM   26  O   UNL     1     -10.465  12.974  66.500  1.00  0.00    -0.271 OA 
BRANCH  26  27
HETATM   27  C   UNL     1     -11.657  12.302  66.924  1.00  0.00    -0.361 C  
BRANCH  27  28
HETATM   28  C   UNL     1     -11.903  12.666  68.356  1.00  0.00    -0.347 A  
HETATM   29  C   UNL     1     -12.091  11.667  69.321  1.00  0.00    -0.323 A  
HETATM   30  C   UNL     1     -12.361  12.007  70.644  1.00  0.00    -0.394 A  
HETATM   31  C   UNL     1     -12.451  13.349  71.015  1.00  0.00    -0.437 A  
HETATM   32  C   UNL     1     -12.269  14.350  70.064  1.00  0.00    -0.408 A  
HETATM   33  C   UNL     1     -12.000  14.013  68.739  1.00  0.00    -0.382 A  
ENDBRANCH  27  28
ENDBRANCH  26  27
ENDBRANCH  25  26
ENDBRANCH  24  25
ENDBRANCH  15  24
TORSDOF 5
ENDMDL
MODEL       84
REMARK 921   NORMALIZED FREE ENERGY PREDICTED BY IDOCK:   -4.50 KCAL/MOL
REMARK 922        TOTAL FREE ENERGY PREDICTED BY IDOCK:   -7.28 KCAL/MOL
REMARK 923 INTER-LIGAND FREE ENERGY PREDICTED BY IDOCK:   -5.81 KCAL/MOL
REMARK 924 INTRA-LIGAND FREE ENERGY PREDICTED BY IDOCK:   -1.47 KCAL/MOL
REMARK 927      BINDING AFFINITY PREDICTED BY RF-SCORE:    0.00 PKD
ROOT
HETATM    1  O   UNL     1     -11.262   6.818  69.075  1.00  0.00    -0.467 OA 
HETATM    2  C   UNL     1     -10.842   7.986  69.841  1.00  0.00    -0.217 C  
HETATM    3  H   UNL     1     -11.393   6.147  69.735  1.00  0.00     0.000 HD 
HETATM    4  C   UNL     1      -9.480   7.473  70.514  1.00  0.00    -0.164 C  
HETATM    5  C   UNL     1     -12.033   8.251  70.809  1.00  0.00    -0.118 A  
HETATM    6  C   UNL     1     -10.627   9.084  68.763  1.00  0.00    -0.196 A  
HETATM    7  C   UNL     1      -8.464   7.032  69.414  1.00  0.00    -0.133 C  
HETATM    8  C   UNL     1     -13.226   7.491  70.718  1.00  0.00     0.139 A  
HETATM    9  C   UNL     1     -10.732  10.460  69.017  1.00  0.00    -0.260 A  
HETATM   10  C   UNL     1     -14.361   7.770  71.488  1.00  0.00    -0.574 A  
HETATM   11  C   UNL     1     -10.529  11.408  68.002  1.00  0.00    -0.215 A  
HETATM   12  C   UNL     1      -7.201   6.409  69.977  1.00  0.00    -0.080 C  
HETATM   13  C   UNL     1     -10.202  11.009  66.712  1.00  0.00    -0.272 A  
HETATM   14  C   UNL     1     -14.336   8.815  72.397  1.00  0.00    -0.419 A  
HETATM   15  N   UNL     1      -7.279   6.372  71.493  1.00  0.00    -0.081 N  
HETATM   16  C   UNL     1     -10.088   9.657  66.423  1.00  0.00    -0.317 A  
HETATM   17  C   UNL     1     -12.030   9.268  71.782  1.00  0.00    -0.455 A  
HETATM   18  C   UNL     1      -8.505   5.586  71.943  1.00  0.00    -0.123 C  
HETATM   19  C   UNL     1      -7.423   7.820  71.998  1.00  0.00    -0.076 C  
HETATM   20  C   UNL     1     -13.169   9.552  72.556  1.00  0.00    -0.356 A  
HETATM   21  C   UNL     1     -10.302   8.717  67.432  1.00  0.00    -0.353 A  
HETATM   22  C   UNL     1      -9.769   6.224  71.391  1.00  0.00    -0.191 C  
HETATM   23  C   UNL     1      -8.700   8.465  71.404  1.00  0.00    -0.218 C  
ENDROOT
BRANCH  15  24
HETATM   24  C   UNL     1      -5.984   5.735  72.079  1.00  0.00    -0.035 C  
BRANCH  24  25
HETATM   25  C   UNL     1      -6.143   4.238  72.421  1.00  0.00    -0.016 C  
BRANCH  25  26
HETATM   26  O   UNL     1      -5.562   3.433  71.404  1.00  0.00    -0.008 OA 
BRANCH  26  27
HETATM   27  C   UNL     1      -6.457   2.383  71.013  1.00  0.00    -0.023 C  
BRANCH  27  28
HETATM   28  C   UNL     1      -7.149   2.818  69.756  1.00  0.00    -0.040 A  
HETATM   29  C   UNL     1      -6.405   3.259  68.654  1.00  0.00    -0.029 A  
HETATM   30  C   UNL     1      -7.050   3.703  67.502  1.00  0.00    -0.059 A  
HETATM   31  C   UNL     1      -8.444   3.713  67.443  1.00  0.00    -0.103 A  
HETATM   32  C   UNL     1      -9.193   3.279  68.534  1.00  0.00    -0.233 A  
HETATM   33  C   UNL     1      -8.550   2.837  69.689  1.00  0.00    -0.116 A  
ENDBRANCH  27  28
ENDBRANCH  26  27
ENDBRANCH  25  26
ENDBRANCH  24  25
ENDBRANCH  15  24
TORSDOF 5
ENDMDL
MODEL       85
REMARK 921   NORMALIZED FREE ENERGY PREDICTED BY IDOCK:   -4.49 KCAL/MOL
REMARK 922        TOTAL FREE ENERGY PREDICTED BY IDOCK:   -7.27 KCAL/MOL
REMARK 923 INTER-LIGAND FREE ENERGY PREDICTED BY IDOCK:   -7.03 KCAL/MOL
REMARK 924 INTRA-LIGAND FREE ENERGY PREDICTED BY IDOCK:   -0.24 KCAL/MOL
REMARK 927      BINDING AFFINITY PREDICTED BY RF-SCORE:    0.00 PKD
ROOT
HETATM    1  O   UNL     1      -9.415  14.379  69.516  1.00  0.00    -0.389 OA 
HETATM    2  C   UNL     1     -10.568  14.993  68.869  1.00  0.00    -0.242 C  
HETATM    3  H   UNL     1      -8.721  14.458  68.872  1.00  0.00     0.000 HD 
HETATM    4  C   UNL     1     -10.773  14.054  67.586  1.00  0.00    -0.261 C  
HETATM    5  C   UNL     1     -10.108  16.455  68.588  1.00  0.00    -0.244 A  
HETATM    6  C   UNL     1     -11.703  14.863  69.922  1.00  0.00    -0.347 A  
HETATM    7  C   UNL     1     -11.002  12.575  68.029  1.00  0.00    -0.266 C  
HETATM    8  C   UNL     1      -8.854  16.924  69.054  1.00  0.00    -0.159 A  
HETATM    9  C   UNL     1     -12.806  15.727  69.993  1.00  0.00     0.188 A  
HETATM   10  C   UNL     1      -8.451  18.258  68.925  1.00  0.00    -0.159 A  
HETATM   11  C   UNL     1     -13.801  15.563  70.969  1.00  0.00    -0.239 A  
HETATM   12  C   UNL     1     -11.072  11.602  66.867  1.00  0.00    -0.308 C  
HETATM   13  C   UNL     1     -13.730  14.524  71.889  1.00  0.00    -0.516 A  
HETATM   14  C   UNL     1      -9.285  19.173  68.303  1.00  0.00    -0.385 A  
HETATM   15  N   UNL     1     -10.880  12.352  65.560  1.00  0.00    -0.273 N  
HETATM   16  C   UNL     1     -12.655  13.648  71.848  1.00  0.00    -0.252 A  
HETATM   17  C   UNL     1     -10.902  17.402  67.914  1.00  0.00    -0.270 A  
HETATM   18  C   UNL     1      -9.543  13.087  65.560  1.00  0.00     0.047 C  
HETATM   19  C   UNL     1     -12.004  13.398  65.440  1.00  0.00    -0.387 C  
HETATM   20  C   UNL     1     -10.500  18.743  67.784  1.00  0.00    -0.479 A  
HETATM   21  C   UNL     1     -11.661  13.822  70.885  1.00  0.00     0.018 A  
HETATM   22  C   UNL     1      -9.486  14.071  66.715  1.00  0.00    -0.292 C  
HETATM   23  C   UNL     1     -11.950  14.376  66.640  1.00  0.00    -0.414 C  
ENDROOT
BRANCH  15  24
HETATM   24  C   UNL     1     -10.950  11.361  64.361  1.00  0.00    -0.302 C  
BRANCH  24  25
HETATM   25  C   UNL     1      -9.895  10.237  64.436  1.00  0.00    -0.305 C  
BRANCH  25  26
HETATM   26  O   UNL     1      -8.727  10.604  63.715  1.00  0.00    -0.180 OA 
BRANCH  26  27
HETATM   27  C   UNL     1      -8.633   9.868  62.489  1.00  0.00    -0.186 C  
BRANCH  27  28
HETATM   28  C   UNL     1      -7.647   8.759  62.696  1.00  0.00    -0.111 A  
HETATM   29  C   UNL     1      -8.061   7.421  62.631  1.00  0.00    -0.088 A  
HETATM   30  C   UNL     1      -7.153   6.391  62.865  1.00  0.00    -0.049 A  
HETATM   31  C   UNL     1      -5.825   6.688  63.171  1.00  0.00    -0.035 A  
HETATM   32  C   UNL     1      -5.404   8.014  63.241  1.00  0.00    -0.050 A  
HETATM   33  C   UNL     1      -6.310   9.047  63.008  1.00  0.00    -0.090 A  
ENDBRANCH  27  28
ENDBRANCH  26  27
ENDBRANCH  25  26
ENDBRANCH  24  25
ENDBRANCH  15  24
TORSDOF 5
ENDMDL
MODEL       86
REMARK 921   NORMALIZED FREE ENERGY PREDICTED BY IDOCK:   -4.45 KCAL/MOL
REMARK 922        TOTAL FREE ENERGY PREDICTED BY IDOCK:   -7.21 KCAL/MOL
REMARK 923 INTER-LIGAND FREE ENERGY PREDICTED BY IDOCK:   -6.62 KCAL/MOL
REMARK 924 INTRA-LIGAND FREE ENERGY PREDICTED BY IDOCK:   -0.59 KCAL/MOL
REMARK 927      BINDING AFFINITY PREDICTED BY RF-SCORE:    0.00 PKD
ROOT
HETATM    1  O   UNL     1     -10.523   6.136  71.270  1.00  0.00    -0.210 OA 
HETATM    2  C   UNL     1      -9.155   6.290  70.790  1.00  0.00    -0.147 C  
HETATM    3  H   UNL     1     -10.996   5.807  70.515  1.00  0.00     0.000 HD 
HETATM    4  C   UNL     1      -9.330   7.372  69.620  1.00  0.00    -0.149 C  
HETATM    5  C   UNL     1      -8.747   4.853  70.345  1.00  0.00    -0.123 A  
HETATM    6  C   UNL     1      -8.382   6.829  72.025  1.00  0.00    -0.111 A  
HETATM    7  C   UNL     1      -9.960   8.684  70.186  1.00  0.00    -0.193 C  
HETATM    8  C   UNL     1      -9.614   3.752  70.564  1.00  0.00    -0.262 A  
HETATM    9  C   UNL     1      -7.006   6.645  72.228  1.00  0.00    -0.068 A  
HETATM   10  C   UNL     1      -9.242   2.432  70.286  1.00  0.00    -0.196 A  
HETATM   11  C   UNL     1      -6.361   7.153  73.366  1.00  0.00    -0.065 A  
HETATM   12  C   UNL     1     -10.280   9.709  69.114  1.00  0.00    -0.202 C  
HETATM   13  C   UNL     1      -7.067   7.870  74.323  1.00  0.00    -0.168 A  
HETATM   14  C   UNL     1      -7.989   2.165  69.759  1.00  0.00    -0.053 A  
HETATM   15  N   UNL     1      -9.903   9.158  67.750  1.00  0.00    -0.165 N  
HETATM   16  C   UNL     1      -8.429   8.075  74.156  1.00  0.00    -0.293 A  
HETATM   17  C   UNL     1      -7.506   4.546  69.758  1.00  0.00    -0.051 A  
HETATM   18  C   UNL     1     -10.648   7.855  67.479  1.00  0.00    -0.242 C  
HETATM   19  C   UNL     1      -8.393   8.857  67.758  1.00  0.00    -0.110 C  
HETATM   20  C   UNL     1      -7.129   3.220  69.479  1.00  0.00    -0.041 A  
HETATM   21  C   UNL     1      -9.070   7.558  73.029  1.00  0.00    -0.222 A  
HETATM   22  C   UNL     1     -10.311   6.827  68.546  1.00  0.00    -0.210 C  
HETATM   23  C   UNL     1      -8.061   7.829  68.868  1.00  0.00    -0.126 C  
ENDROOT
BRANCH  15  24
HETATM   24  C   UNL     1     -10.228  10.204  66.643  1.00  0.00    -0.224 C  
BRANCH  24  25
HETATM   25  C   UNL     1      -9.345  11.467  66.721  1.00  0.00    -0.181 C  
BRANCH  25  26
HETATM   26  O   UNL     1     -10.129  12.634  66.513  1.00  0.00    -0.238 OA 
BRANCH  26  27
HETATM   27  C   UNL     1     -11.481  12.422  66.939  1.00  0.00    -0.360 C  
BRANCH  27  28
HETATM   28  C   UNL     1     -11.770  13.393  68.044  1.00  0.00    -0.391 A  
HETATM   29  C   UNL     1     -11.773  14.772  67.794  1.00  0.00    -0.368 A  
HETATM   30  C   UNL     1     -12.000  15.674  68.831  1.00  0.00    -0.298 A  
HETATM   31  C   UNL     1     -12.220  15.207  70.126  1.00  0.00    -0.395 A  
HETATM   32  C   UNL     1     -12.216  13.839  70.386  1.00  0.00    -0.433 A  
HETATM   33  C   UNL     1     -11.988  12.934  69.352  1.00  0.00    -0.327 A  
ENDBRANCH  27  28
ENDBRANCH  26  27
ENDBRANCH  25  26
ENDBRANCH  24  25
ENDBRANCH  15  24
TORSDOF 5
ENDMDL
MODEL       87
REMARK 921   NORMALIZED FREE ENERGY PREDICTED BY IDOCK:   -4.45 KCAL/MOL
REMARK 922        TOTAL FREE ENERGY PREDICTED BY IDOCK:   -7.21 KCAL/MOL
REMARK 923 INTER-LIGAND FREE ENERGY PREDICTED BY IDOCK:   -6.81 KCAL/MOL
REMARK 924 INTRA-LIGAND FREE ENERGY PREDICTED BY IDOCK:   -0.40 KCAL/MOL
REMARK 927      BINDING AFFINITY PREDICTED BY RF-SCORE:    0.00 PKD
ROOT
HETATM    1  O   UNL     1      -9.322   5.305  72.695  1.00  0.00    -0.137 OA 
HETATM    2  C   UNL     1      -9.134   5.791  71.333  1.00  0.00    -0.140 C  
HETATM    3  H   UNL     1     -10.191   4.922  72.683  1.00  0.00     0.000 HD 
HETATM    4  C   UNL     1     -10.311   6.872  71.198  1.00  0.00    -0.222 C  
HETATM    5  C   UNL     1      -9.268   4.512  70.453  1.00  0.00    -0.194 A  
HETATM    6  C   UNL     1      -7.713   6.419  71.351  1.00  0.00    -0.099 A  
HETATM    7  C   UNL     1     -10.164   7.973  72.295  1.00  0.00    -0.325 C  
HETATM    8  C   UNL     1      -9.410   3.233  71.048  1.00  0.00    -0.213 A  
HETATM    9  C   UNL     1      -6.897   6.539  70.216  1.00  0.00    -0.058 A  
HETATM   10  C   UNL     1      -9.417   2.050  70.302  1.00  0.00    -0.145 A  
HETATM   11  C   UNL     1      -5.618   7.113  70.293  1.00  0.00    -0.023 A  
HETATM   12  C   UNL     1     -11.316   8.959  72.316  1.00  0.00    -0.218 C  
HETATM   13  C   UNL     1      -5.127   7.595  71.500  1.00  0.00    -0.027 A  
HETATM   14  C   UNL     1      -9.302   2.104  68.922  1.00  0.00    -0.209 A  
HETATM   15  N   UNL     1     -12.328   8.587  71.247  1.00  0.00    -0.298 N  
HETATM   16  C   UNL     1      -5.906   7.496  72.643  1.00  0.00    -0.040 A  
HETATM   17  C   UNL     1      -9.209   4.529  69.047  1.00  0.00    -0.192 A  
HETATM   18  C   UNL     1     -12.839   7.168  71.469  1.00  0.00    -0.391 C  
HETATM   19  C   UNL     1     -11.618   8.635  69.881  1.00  0.00     0.269 C  
HETATM   20  C   UNL     1      -9.214   3.341  68.295  1.00  0.00    -0.239 A  
HETATM   21  C   UNL     1      -7.172   6.914  72.566  1.00  0.00    -0.081 A  
HETATM   22  C   UNL     1     -11.683   6.183  71.430  1.00  0.00    -0.236 C  
HETATM   23  C   UNL     1     -10.426   7.647  69.867  1.00  0.00    -0.231 C  
ENDROOT
BRANCH  15  24
HETATM   24  C   UNL     1     -13.515   9.596  71.261  1.00  0.00    -0.289 C  
BRANCH  24  25
HETATM   25  C   UNL     1     -13.110  11.007  71.736  1.00  0.00    -0.449 C  
BRANCH  25  26
HETATM   26  O   UNL     1     -12.707  11.805  70.632  1.00  0.00    -0.217 OA 
BRANCH  26  27
HETATM   27  C   UNL     1     -12.755  13.198  70.965  1.00  0.00    -0.277 C  
BRANCH  27  28
HETATM   28  C   UNL     1     -12.094  13.957  69.855  1.00  0.00    -0.406 A  
HETATM   29  C   UNL     1     -11.955  15.350  69.932  1.00  0.00    -0.384 A  
HETATM   30  C   UNL     1     -11.378  16.059  68.882  1.00  0.00    -0.370 A  
HETATM   31  C   UNL     1     -10.939  15.384  67.743  1.00  0.00    -0.311 A  
HETATM   32  C   UNL     1     -11.074  14.001  67.654  1.00  0.00    -0.298 A  
HETATM   33  C   UNL     1     -11.653  13.288  68.703  1.00  0.00    -0.362 A  
ENDBRANCH  27  28
ENDBRANCH  26  27
ENDBRANCH  25  26
ENDBRANCH  24  25
ENDBRANCH  15  24
TORSDOF 5
ENDMDL
MODEL       88
REMARK 921   NORMALIZED FREE ENERGY PREDICTED BY IDOCK:   -4.44 KCAL/MOL
REMARK 922        TOTAL FREE ENERGY PREDICTED BY IDOCK:   -7.21 KCAL/MOL
REMARK 923 INTER-LIGAND FREE ENERGY PREDICTED BY IDOCK:   -6.27 KCAL/MOL
REMARK 924 INTRA-LIGAND FREE ENERGY PREDICTED BY IDOCK:   -0.93 KCAL/MOL
REMARK 927      BINDING AFFINITY PREDICTED BY RF-SCORE:    0.00 PKD
ROOT
HETATM    1  O   UNL     1      -8.129  11.444  69.206  1.00  0.00    -0.362 OA 
HETATM    2  C   UNL     1      -9.394  11.028  68.612  1.00  0.00    -0.194 C  
HETATM    3  H   UNL     1      -7.702  11.936  68.515  1.00  0.00     0.000 HD 
HETATM    4  C   UNL     1      -8.906  10.119  67.385  1.00  0.00    -0.135 C  
HETATM    5  C   UNL     1     -10.096  12.369  68.240  1.00  0.00    -0.227 A  
HETATM    6  C   UNL     1     -10.093  10.223  69.743  1.00  0.00    -0.244 A  
HETATM    7  C   UNL     1      -8.025   8.939  67.903  1.00  0.00    -0.102 C  
HETATM    8  C   UNL     1      -9.522  13.613  68.603  1.00  0.00    -0.077 A  
HETATM    9  C   UNL     1     -11.484  10.074  69.850  1.00  0.00    -0.274 A  
HETATM   10  C   UNL     1     -10.171  14.835  68.392  1.00  0.00    -0.224 A  
HETATM   11  C   UNL     1     -12.061   9.337  70.896  1.00  0.00    -0.297 A  
HETATM   12  C   UNL     1      -7.414   8.110  66.789  1.00  0.00    -0.090 C  
HETATM   13  C   UNL     1     -11.265   8.717  71.852  1.00  0.00    -0.438 A  
HETATM   14  C   UNL     1     -11.419  14.857  67.789  1.00  0.00    -0.353 A  
HETATM   15  N   UNL     1      -7.826   8.678  65.443  1.00  0.00    -0.097 N  
HETATM   16  C   UNL     1      -9.886   8.840  71.776  1.00  0.00    -0.391 A  
HETATM   17  C   UNL     1     -11.337  12.438  67.582  1.00  0.00    -0.371 A  
HETATM   18  C   UNL     1      -7.388  10.134  65.324  1.00  0.00    -0.141 C  
HETATM   19  C   UNL     1      -9.363   8.629  65.355  1.00  0.00     0.048 C  
HETATM   20  C   UNL     1     -11.994  13.664  67.370  1.00  0.00    -0.413 A  
HETATM   21  C   UNL     1      -9.316   9.584  70.742  1.00  0.00    -0.218 A  
HETATM   22  C   UNL     1      -8.016  10.962  66.431  1.00  0.00    -0.157 C  
HETATM   23  C   UNL     1      -9.988   9.455  66.507  1.00  0.00    -0.339 C  
ENDROOT
BRANCH  15  24
HETATM   24  C   UNL     1      -7.204   7.832  64.293  1.00  0.00    -0.079 C  
BRANCH  24  25
HETATM   25  C   UNL     1      -6.304   6.685  64.799  1.00  0.00    -0.038 C  
BRANCH  25  26
HETATM   26  O   UNL     1      -6.718   5.446  64.239  1.00  0.00    -0.044 OA 
BRANCH  26  27
HETATM   27  C   UNL     1      -8.147   5.337  64.241  1.00  0.00    -0.121 C  
BRANCH  27  28
HETATM   28  C   UNL     1      -8.540   4.507  65.425  1.00  0.00    -0.126 A  
HETATM   29  C   UNL     1      -9.416   5.018  66.391  1.00  0.00    -0.157 A  
HETATM   30  C   UNL     1      -9.748   4.261  67.513  1.00  0.00    -0.198 A  
HETATM   31  C   UNL     1      -9.202   2.988  67.681  1.00  0.00    -0.240 A  
HETATM   32  C   UNL     1      -8.328   2.471  66.728  1.00  0.00    -0.090 A  
HETATM   33  C   UNL     1      -7.994   3.226  65.606  1.00  0.00    -0.086 A  
ENDBRANCH  27  28
ENDBRANCH  26  27
ENDBRANCH  25  26
ENDBRANCH  24  25
ENDBRANCH  15  24
TORSDOF 5
ENDMDL
MODEL       89
REMARK 921   NORMALIZED FREE ENERGY PREDICTED BY IDOCK:   -4.43 KCAL/MOL
REMARK 922        TOTAL FREE ENERGY PREDICTED BY IDOCK:   -7.19 KCAL/MOL
REMARK 923 INTER-LIGAND FREE ENERGY PREDICTED BY IDOCK:   -5.78 KCAL/MOL
REMARK 924 INTRA-LIGAND FREE ENERGY PREDICTED BY IDOCK:   -1.41 KCAL/MOL
REMARK 927      BINDING AFFINITY PREDICTED BY RF-SCORE:    0.00 PKD
ROOT
HETATM    1  O   UNL     1     -10.683   7.076  67.473  1.00  0.00    -0.243 OA 
HETATM    2  C   UNL     1      -9.292   7.008  67.044  1.00  0.00    -0.146 C  
HETATM    3  H   UNL     1     -10.694   7.785  68.105  1.00  0.00     0.000 HD 
HETATM    4  C   UNL     1      -8.534   6.660  68.413  1.00  0.00    -0.125 C  
HETATM    5  C   UNL     1      -9.014   8.417  66.440  1.00  0.00    -0.207 A  
HETATM    6  C   UNL     1      -9.274   5.847  66.011  1.00  0.00    -0.143 A  
HETATM    7  C   UNL     1      -9.083   5.327  69.012  1.00  0.00    -0.141 C  
HETATM    8  C   UNL     1     -10.056   9.370  66.312  1.00  0.00    -0.328 A  
HETATM    9  C   UNL     1      -8.338   5.739  64.972  1.00  0.00    -0.138 A  
HETATM   10  C   UNL     1      -9.879  10.602  65.673  1.00  0.00    -0.307 A  
HETATM   11  C   UNL     1      -8.372   4.668  64.066  1.00  0.00    -0.120 A  
HETATM   12  C   UNL     1      -8.508   5.000  70.377  1.00  0.00    -0.100 C  
HETATM   13  C   UNL     1      -9.330   3.669  64.182  1.00  0.00    -0.142 A  
HETATM   14  C   UNL     1      -8.638  10.936  65.151  1.00  0.00    -0.081 A  
HETATM   15  N   UNL     1      -7.544   6.093  70.803  1.00  0.00    -0.094 N  
HETATM   16  C   UNL     1     -10.271   3.740  65.199  1.00  0.00    -0.043 A  
HETATM   17  C   UNL     1      -7.758   8.816  65.947  1.00  0.00    -0.094 A  
HETATM   18  C   UNL     1      -8.251   7.443  70.833  1.00  0.00    -0.114 C  
HETATM   19  C   UNL     1      -6.414   6.165  69.759  1.00  0.00    -0.043 C  
HETATM   20  C   UNL     1      -7.577  10.053  65.302  1.00  0.00    -0.137 A  
HETATM   21  C   UNL     1     -10.242   4.813  66.091  1.00  0.00    -0.313 A  
HETATM   22  C   UNL     1      -8.810   7.774  69.460  1.00  0.00    -0.139 C  
HETATM   23  C   UNL     1      -7.002   6.474  68.360  1.00  0.00    -0.080 C  
ENDROOT
BRANCH  15  24
HETATM   24  C   UNL     1      -6.949   5.764  72.204  1.00  0.00    -0.082 C  
BRANCH  24  25
HETATM   25  C   UNL     1      -7.708   6.442  73.363  1.00  0.00    -0.093 C  
BRANCH  25  26
HETATM   26  O   UNL     1      -8.721   5.580  73.864  1.00  0.00    -0.121 OA 
BRANCH  26  27
HETATM   27  C   UNL     1      -9.807   6.336  74.416  1.00  0.00    -0.306 C  
BRANCH  27  28
HETATM   28  C   UNL     1     -10.651   6.820  73.276  1.00  0.00    -0.335 A  
HETATM   29  C   UNL     1     -11.238   5.907  72.391  1.00  0.00    -0.340 A  
HETATM   30  C   UNL     1     -11.988   6.359  71.307  1.00  0.00    -0.288 A  
HETATM   31  C   UNL     1     -12.154   7.728  71.097  1.00  0.00    -0.306 A  
HETATM   32  C   UNL     1     -11.573   8.644  71.970  1.00  0.00    -0.440 A  
HETATM   33  C   UNL     1     -10.821   8.195  73.053  1.00  0.00    -0.193 A  
ENDBRANCH  27  28
ENDBRANCH  26  27
ENDBRANCH  25  26
ENDBRANCH  24  25
ENDBRANCH  15  24
TORSDOF 5
ENDMDL
MODEL       90
REMARK 921   NORMALIZED FREE ENERGY PREDICTED BY IDOCK:   -4.39 KCAL/MOL
REMARK 922        TOTAL FREE ENERGY PREDICTED BY IDOCK:   -7.14 KCAL/MOL
REMARK 923 INTER-LIGAND FREE ENERGY PREDICTED BY IDOCK:   -6.31 KCAL/MOL
REMARK 924 INTRA-LIGAND FREE ENERGY PREDICTED BY IDOCK:   -0.83 KCAL/MOL
REMARK 927      BINDING AFFINITY PREDICTED BY RF-SCORE:    0.00 PKD
ROOT
HETATM    1  O   UNL     1      -9.649  14.595  70.341  1.00  0.00     0.113 OA 
HETATM    2  C   UNL     1     -10.812  14.814  69.489  1.00  0.00    -0.250 C  
HETATM    3  H   UNL     1      -8.924  14.542  69.730  1.00  0.00     0.000 HD 
HETATM    4  C   UNL     1     -10.825  13.486  68.592  1.00  0.00    -0.281 C  
HETATM    5  C   UNL     1     -10.490  16.146  68.747  1.00  0.00    -0.264 A  
HETATM    6  C   UNL     1     -11.998  14.901  70.489  1.00  0.00    -0.365 A  
HETATM    7  C   UNL     1     -10.928  12.220  69.499  1.00  0.00    -0.007 C  
HETATM    8  C   UNL     1      -9.329  16.893  69.067  1.00  0.00    -0.188 A  
HETATM    9  C   UNL     1     -13.189  15.597  70.231  1.00  0.00     0.234 A  
HETATM   10  C   UNL     1      -9.060  18.148  68.510  1.00  0.00    -0.318 A  
HETATM   11  C   UNL     1     -14.227  15.643  71.174  1.00  0.00     0.061 A  
HETATM   12  C   UNL     1     -10.812  10.918  68.730  1.00  0.00    -0.209 C  
HETATM   13  C   UNL     1     -14.111  14.984  72.391  1.00  0.00    -0.574 A  
HETATM   14  C   UNL     1      -9.941  18.697  67.590  1.00  0.00    -0.375 A  
HETATM   15  N   UNL     1     -10.609  11.211  67.254  1.00  0.00    -0.225 N  
HETATM   16  C   UNL     1     -12.950  14.283  72.681  1.00  0.00    -0.526 A  
HETATM   17  C   UNL     1     -11.330  16.711  67.770  1.00  0.00     0.058 A  
HETATM   18  C   UNL     1      -9.361  12.063  67.048  1.00  0.00    -0.191 C  
HETATM   19  C   UNL     1     -11.826  12.012  66.755  1.00  0.00    -0.164 C  
HETATM   20  C   UNL     1     -11.064  17.973  67.208  1.00  0.00     0.135 A  
HETATM   21  C   UNL     1     -11.914  14.249  71.747  1.00  0.00    -0.109 A  
HETATM   22  C   UNL     1      -9.490  13.373  67.806  1.00  0.00    -0.210 C  
HETATM   23  C   UNL     1     -11.960  13.330  67.556  1.00  0.00    -0.371 C  
ENDROOT
BRANCH  15  24
HETATM   24  C   UNL     1     -10.490   9.878  66.456  1.00  0.00    -0.143 C  
BRANCH  24  25
HETATM   25  C   UNL     1      -9.404   8.931  67.010  1.00  0.00    -0.152 C  
BRANCH  25  26
HETATM   26  O   UNL     1      -9.995   7.743  67.519  1.00  0.00    -0.158 OA 
BRANCH  26  27
HETATM   27  C   UNL     1      -9.167   7.156  68.531  1.00  0.00    -0.134 C  
BRANCH  27  28
HETATM   28  C   UNL     1      -9.774   7.478  69.862  1.00  0.00    -0.171 A  
HETATM   29  C   UNL     1     -11.122   7.192  70.115  1.00  0.00    -0.301 A  
HETATM   30  C   UNL     1     -11.696   7.531  71.339  1.00  0.00    -0.310 A  
HETATM   31  C   UNL     1     -10.929   8.163  72.318  1.00  0.00    -0.399 A  
HETATM   32  C   UNL     1      -9.589   8.454  72.075  1.00  0.00    -0.344 A  
HETATM   33  C   UNL     1      -9.012   8.118  70.852  1.00  0.00    -0.163 A  
ENDBRANCH  27  28
ENDBRANCH  26  27
ENDBRANCH  25  26
ENDBRANCH  24  25
ENDBRANCH  15  24
TORSDOF 5
ENDMDL
MODEL       91
REMARK 921   NORMALIZED FREE ENERGY PREDICTED BY IDOCK:   -4.38 KCAL/MOL
REMARK 922        TOTAL FREE ENERGY PREDICTED BY IDOCK:   -7.13 KCAL/MOL
REMARK 923 INTER-LIGAND FREE ENERGY PREDICTED BY IDOCK:   -6.90 KCAL/MOL
REMARK 924 INTRA-LIGAND FREE ENERGY PREDICTED BY IDOCK:   -0.23 KCAL/MOL
REMARK 927      BINDING AFFINITY PREDICTED BY RF-SCORE:    0.00 PKD
ROOT
HETATM    1  O   UNL     1      -7.040   9.046  71.855  1.00  0.00    -0.291 OA 
HETATM    2  C   UNL     1      -7.486   7.840  71.168  1.00  0.00    -0.078 C  
HETATM    3  H   UNL     1      -7.439   8.981  72.715  1.00  0.00     0.000 HD 
HETATM    4  C   UNL     1      -9.077   8.031  71.153  1.00  0.00    -0.172 C  
HETATM    5  C   UNL     1      -6.938   6.679  72.050  1.00  0.00    -0.072 A  
HETATM    6  C   UNL     1      -6.833   7.948  69.761  1.00  0.00    -0.042 A  
HETATM    7  C   UNL     1      -9.457   9.358  70.424  1.00  0.00    -0.319 C  
HETATM    8  C   UNL     1      -6.102   6.945  73.164  1.00  0.00    -0.057 A  
HETATM    9  C   UNL     1      -6.533   6.841  68.953  1.00  0.00    -0.036 A  
HETATM   10  C   UNL     1      -5.496   5.930  73.914  1.00  0.00    -0.036 A  
HETATM   11  C   UNL     1      -5.941   6.999  67.690  1.00  0.00    -0.028 A  
HETATM   12  C   UNL     1     -10.939   9.676  70.486  1.00  0.00    -0.313 C  
HETATM   13  C   UNL     1      -5.647   8.263  67.196  1.00  0.00    -0.038 A  
HETATM   14  C   UNL     1      -5.721   4.603  73.585  1.00  0.00    -0.017 A  
HETATM   15  N   UNL     1     -11.662   8.596  71.270  1.00  0.00    -0.279 N  
HETATM   16  C   UNL     1      -5.931   9.381  67.966  1.00  0.00    -0.048 A  
HETATM   17  C   UNL     1      -7.185   5.319  71.783  1.00  0.00    -0.080 A  
HETATM   18  C   UNL     1     -11.083   8.483  72.677  1.00  0.00    -0.147 C  
HETATM   19  C   UNL     1     -11.440   7.253  70.550  1.00  0.00    -0.279 C  
HETATM   20  C   UNL     1      -6.576   4.297  72.533  1.00  0.00    -0.037 A  
HETATM   21  C   UNL     1      -6.509   9.221  69.226  1.00  0.00    -0.045 A  
HETATM   22  C   UNL     1      -9.603   8.148  72.610  1.00  0.00    -0.352 C  
HETATM   23  C   UNL     1      -9.926   6.940  70.464  1.00  0.00    -0.194 C  
ENDROOT
BRANCH  15  24
HETATM   24  C   UNL     1     -13.185   8.914  71.338  1.00  0.00    -0.262 C  
BRANCH  24  25
HETATM   25  C   UNL     1     -13.525  10.068  72.305  1.00  0.00    -0.246 C  
BRANCH  25  26
HETATM   26  O   UNL     1     -13.223  11.321  71.707  1.00  0.00    -0.450 OA 
BRANCH  26  27
HETATM   27  C   UNL     1     -13.821  12.394  72.445  1.00  0.00     0.029 C  
BRANCH  27  28
HETATM   28  C   UNL     1     -13.082  13.652  72.102  1.00  0.00    -0.489 A  
HETATM   29  C   UNL     1     -12.332  13.734  70.921  1.00  0.00    -0.456 A  
HETATM   30  C   UNL     1     -11.612  14.889  70.623  1.00  0.00    -0.341 A  
HETATM   31  C   UNL     1     -11.630  15.969  71.505  1.00  0.00    -0.529 A  
HETATM   32  C   UNL     1     -12.370  15.897  72.683  1.00  0.00    -0.581 A  
HETATM   33  C   UNL     1     -13.091  14.743  72.984  1.00  0.00    -0.614 A  
ENDBRANCH  27  28
ENDBRANCH  26  27
ENDBRANCH  25  26
ENDBRANCH  24  25
ENDBRANCH  15  24
TORSDOF 5
ENDMDL
MODEL       92
REMARK 921   NORMALIZED FREE ENERGY PREDICTED BY IDOCK:   -4.35 KCAL/MOL
REMARK 922        TOTAL FREE ENERGY PREDICTED BY IDOCK:   -7.09 KCAL/MOL
REMARK 923 INTER-LIGAND FREE ENERGY PREDICTED BY IDOCK:   -5.46 KCAL/MOL
REMARK 924 INTRA-LIGAND FREE ENERGY PREDICTED BY IDOCK:   -1.63 KCAL/MOL
REMARK 927      BINDING AFFINITY PREDICTED BY RF-SCORE:    0.00 PKD
ROOT
HETATM    1  O   UNL     1     -11.092   9.836  67.553  1.00  0.00    -0.418 OA 
HETATM    2  C   UNL     1      -9.734   9.745  68.075  1.00  0.00    -0.145 C  
HETATM    3  H   UNL     1     -11.438   8.957  67.660  1.00  0.00     0.000 HD 
HETATM    4  C   UNL     1      -9.068   8.668  67.092  1.00  0.00    -0.156 C  
HETATM    5  C   UNL     1      -9.928   9.300  69.556  1.00  0.00    -0.194 A  
HETATM    6  C   UNL     1      -9.168  11.181  67.900  1.00  0.00    -0.154 A  
HETATM    7  C   UNL     1      -9.151   9.160  65.613  1.00  0.00    -0.273 C  
HETATM    8  C   UNL     1     -11.226   9.189  70.116  1.00  0.00    -0.211 A  
HETATM    9  C   UNL     1      -8.143  11.719  68.693  1.00  0.00    -0.104 A  
HETATM   10  C   UNL     1     -11.443   8.906  71.469  1.00  0.00    -0.391 A  
HETATM   11  C   UNL     1      -7.672  13.026  68.490  1.00  0.00    -0.111 A  
HETATM   12  C   UNL     1      -8.661   8.134  64.609  1.00  0.00     0.062 C  
HETATM   13  C   UNL     1      -8.200  13.823  67.482  1.00  0.00    -0.194 A  
HETATM   14  C   UNL     1     -10.362   8.703  72.313  1.00  0.00    -0.376 A  
HETATM   15  N   UNL     1      -8.226   6.874  65.335  1.00  0.00    -0.133 N  
HETATM   16  C   UNL     1      -9.213  13.324  66.676  1.00  0.00    -0.222 A  
HETATM   17  C   UNL     1      -8.860   9.033  70.432  1.00  0.00    -0.228 A  
HETATM   18  C   UNL     1      -9.380   6.307  66.154  1.00  0.00    -0.087 C  
HETATM   19  C   UNL     1      -7.088   7.250  66.304  1.00  0.00    -0.077 C  
HETATM   20  C   UNL     1      -9.074   8.750  71.793  1.00  0.00    -0.305 A  
HETATM   21  C   UNL     1      -9.687  12.029  66.888  1.00  0.00    -0.213 A  
HETATM   22  C   UNL     1      -9.856   7.332  67.169  1.00  0.00    -0.242 C  
HETATM   23  C   UNL     1      -7.581   8.315  67.314  1.00  0.00    -0.097 C  
ENDROOT
BRANCH  15  24
HETATM   24  C   UNL     1      -7.720   5.815  64.311  1.00  0.00    -0.097 C  
BRANCH  24  25
HETATM   25  C   UNL     1      -8.074   4.366  64.707  1.00  0.00    -0.099 C  
BRANCH  25  26
HETATM   26  O   UNL     1      -7.152   3.874  65.669  1.00  0.00    -0.060 OA 
BRANCH  26  27
HETATM   27  C   UNL     1      -7.795   2.971  66.577  1.00  0.00    -0.077 C  
BRANCH  27  28
HETATM   28  C   UNL     1      -8.110   3.730  67.830  1.00  0.00    -0.084 A  
HETATM   29  C   UNL     1      -9.353   3.576  68.459  1.00  0.00    -0.229 A  
HETATM   30  C   UNL     1      -9.662   4.314  69.599  1.00  0.00    -0.284 A  
HETATM   31  C   UNL     1      -8.732   5.215  70.119  1.00  0.00    -0.128 A  
HETATM   32  C   UNL     1      -7.495   5.378  69.501  1.00  0.00    -0.069 A  
HETATM   33  C   UNL     1      -7.184   4.643  68.359  1.00  0.00    -0.064 A  
ENDBRANCH  27  28
ENDBRANCH  26  27
ENDBRANCH  25  26
ENDBRANCH  24  25
ENDBRANCH  15  24
TORSDOF 5
ENDMDL
MODEL       93
REMARK 921   NORMALIZED FREE ENERGY PREDICTED BY IDOCK:   -4.32 KCAL/MOL
REMARK 922        TOTAL FREE ENERGY PREDICTED BY IDOCK:   -7.04 KCAL/MOL
REMARK 923 INTER-LIGAND FREE ENERGY PREDICTED BY IDOCK:   -6.63 KCAL/MOL
REMARK 924 INTRA-LIGAND FREE ENERGY PREDICTED BY IDOCK:   -0.41 KCAL/MOL
REMARK 927      BINDING AFFINITY PREDICTED BY RF-SCORE:    0.00 PKD
ROOT
HETATM    1  O   UNL     1     -10.798  16.039  68.868  1.00  0.00    -0.250 OA 
HETATM    2  C   UNL     1      -9.965  16.201  67.682  1.00  0.00    -0.241 C  
HETATM    3  H   UNL     1     -10.284  16.432  69.564  1.00  0.00     0.000 HD 
HETATM    4  C   UNL     1      -8.659  15.357  68.071  1.00  0.00    -0.151 C  
HETATM    5  C   UNL     1      -9.779  17.743  67.559  1.00  0.00    -0.284 A  
HETATM    6  C   UNL     1     -10.805  15.558  66.544  1.00  0.00    -0.284 A  
HETATM    7  C   UNL     1      -9.043  13.877  68.384  1.00  0.00    -0.184 C  
HETATM    8  C   UNL     1     -10.460  18.628  68.433  1.00  0.00    -0.259 A  
HETATM    9  C   UNL     1     -10.690  15.913  65.191  1.00  0.00    -0.449 A  
HETATM   10  C   UNL     1     -10.413  20.019  68.287  1.00  0.00    -0.409 A  
HETATM   11  C   UNL     1     -11.478  15.299  64.205  1.00  0.00    -0.162 A  
HETATM   12  C   UNL     1      -7.879  13.047  68.890  1.00  0.00     0.131 C  
HETATM   13  C   UNL     1     -12.388  14.304  64.540  1.00  0.00    -0.432 A  
HETATM   14  C   UNL     1      -9.663  20.579  67.265  1.00  0.00    -0.600 A  
HETATM   15  N   UNL     1      -6.632  13.908  68.968  1.00  0.00    -0.102 N  
HETATM   16  C   UNL     1     -12.527  13.924  65.867  1.00  0.00    -0.519 A  
HETATM   17  C   UNL     1      -8.986  18.352  66.570  1.00  0.00    -0.294 A  
HETATM   18  C   UNL     1      -6.869  15.105  69.883  1.00  0.00    -0.154 C  
HETATM   19  C   UNL     1      -6.327  14.437  67.554  1.00  0.00    -0.005 C  
HETATM   20  C   UNL     1      -8.938  19.750  66.419  1.00  0.00    -0.440 A  
HETATM   21  C   UNL     1     -11.752  14.546  66.847  1.00  0.00    -0.399 A  
HETATM   22  C   UNL     1      -8.024  15.942  69.363  1.00  0.00    -0.184 C  
HETATM   23  C   UNL     1      -7.526  15.264  67.026  1.00  0.00    -0.125 C  
ENDROOT
BRANCH  15  24
HETATM   24  C   UNL     1      -5.430  13.063  69.486  1.00  0.00    -0.083 C  
BRANCH  24  25
HETATM   25  C   UNL     1      -5.860  11.856  70.346  1.00  0.00    -0.155 C  
BRANCH  25  26
HETATM   26  O   UNL     1      -5.554  10.639  69.682  1.00  0.00    -0.038 OA 
BRANCH  26  27
HETATM   27  C   UNL     1      -5.743   9.519  70.556  1.00  0.00    -0.048 C  
BRANCH  27  28
HETATM   28  C   UNL     1      -6.641   8.542  69.859  1.00  0.00    -0.042 A  
HETATM   29  C   UNL     1      -8.004   8.823  69.695  1.00  0.00    -0.096 A  
HETATM   30  C   UNL     1      -8.845   7.895  69.084  1.00  0.00    -0.142 A  
HETATM   31  C   UNL     1      -8.333   6.677  68.638  1.00  0.00    -0.123 A  
HETATM   32  C   UNL     1      -6.980   6.386  68.799  1.00  0.00    -0.080 A  
HETATM   33  C   UNL     1      -6.136   7.311  69.410  1.00  0.00    -0.030 A  
ENDBRANCH  27  28
ENDBRANCH  26  27
ENDBRANCH  25  26
ENDBRANCH  24  25
ENDBRANCH  15  24
TORSDOF 5
ENDMDL
MODEL       94
REMARK 921   NORMALIZED FREE ENERGY PREDICTED BY IDOCK:   -4.26 KCAL/MOL
REMARK 922        TOTAL FREE ENERGY PREDICTED BY IDOCK:   -6.97 KCAL/MOL
REMARK 923 INTER-LIGAND FREE ENERGY PREDICTED BY IDOCK:   -6.60 KCAL/MOL
REMARK 924 INTRA-LIGAND FREE ENERGY PREDICTED BY IDOCK:   -0.36 KCAL/MOL
REMARK 927      BINDING AFFINITY PREDICTED BY RF-SCORE:    0.00 PKD
ROOT
HETATM    1  O   UNL     1      -6.933   5.636  70.470  1.00  0.00    -0.053 OA 
HETATM    2  C   UNL     1      -8.353   5.310  70.409  1.00  0.00    -0.111 C  
HETATM    3  H   UNL     1      -6.867   6.234  71.205  1.00  0.00     0.000 HD 
HETATM    4  C   UNL     1      -9.015   6.743  70.131  1.00  0.00    -0.149 C  
HETATM    5  C   UNL     1      -8.653   4.668  71.796  1.00  0.00    -0.129 A  
HETATM    6  C   UNL     1      -8.462   4.332  69.206  1.00  0.00    -0.093 A  
HETATM    7  C   UNL     1      -8.444   7.359  68.815  1.00  0.00    -0.129 C  
HETATM    8  C   UNL     1      -7.610   4.425  72.725  1.00  0.00    -0.081 A  
HETATM    9  C   UNL     1      -9.472   3.367  69.071  1.00  0.00    -0.202 A  
HETATM   10  C   UNL     1      -7.815   3.748  73.932  1.00  0.00    -0.079 A  
HETATM   11  C   UNL     1      -9.518   2.508  67.963  1.00  0.00    -0.203 A  
HETATM   12  C   UNL     1      -8.923   8.774  68.555  1.00  0.00    -0.138 C  
HETATM   13  C   UNL     1      -8.568   2.598  66.953  1.00  0.00    -0.118 A  
HETATM   14  C   UNL     1      -9.085   3.303  74.265  1.00  0.00    -0.098 A  
HETATM   15  N   UNL     1      -9.839   9.220  69.681  1.00  0.00    -0.177 N  
HETATM   16  C   UNL     1      -7.555   3.541  67.050  1.00  0.00    -0.079 A  
HETATM   17  C   UNL     1      -9.936   4.249  72.196  1.00  0.00    -0.246 A  
HETATM   18  C   UNL     1      -9.112   9.142  71.019  1.00  0.00    -0.237 C  
HETATM   19  C   UNL     1     -11.040   8.257  69.729  1.00  0.00    -0.052 C  
HETATM   20  C   UNL     1     -10.146   3.567  73.407  1.00  0.00    -0.201 A  
HETATM   21  C   UNL     1      -7.505   4.386  68.160  1.00  0.00    -0.065 A  
HETATM   22  C   UNL     1      -8.649   7.720  71.283  1.00  0.00    -0.127 C  
HETATM   23  C   UNL     1     -10.550   6.808  69.970  1.00  0.00    -0.256 C  
ENDROOT
BRANCH  15  24
HETATM   24  C   UNL     1     -10.336  10.673  69.421  1.00  0.00    -0.208 C  
BRANCH  24  25
HETATM   25  C   UNL     1     -11.769  10.734  68.853  1.00  0.00    -0.267 C  
BRANCH  25  26
HETATM   26  O   UNL     1     -11.925  11.874  68.019  1.00  0.00    -0.527 OA 
BRANCH  26  27
HETATM   27  C   UNL     1     -11.350  11.642  66.726  1.00  0.00    -0.286 C  
BRANCH  27  28
HETATM   28  C   UNL     1     -11.295  12.956  66.009  1.00  0.00    -0.354 A  
HETATM   29  C   UNL     1     -10.491  13.997  66.494  1.00  0.00    -0.281 A  
HETATM   30  C   UNL     1     -10.473  15.232  65.850  1.00  0.00    -0.345 A  
HETATM   31  C   UNL     1     -11.261  15.440  64.719  1.00  0.00    -0.404 A  
HETATM   32  C   UNL     1     -12.066  14.414  64.229  1.00  0.00    -0.461 A  
HETATM   33  C   UNL     1     -12.087  13.178  64.872  1.00  0.00    -0.448 A  
ENDBRANCH  27  28
ENDBRANCH  26  27
ENDBRANCH  25  26
ENDBRANCH  24  25
ENDBRANCH  15  24
TORSDOF 5
ENDMDL
MODEL       95
REMARK 921   NORMALIZED FREE ENERGY PREDICTED BY IDOCK:   -4.24 KCAL/MOL
REMARK 922        TOTAL FREE ENERGY PREDICTED BY IDOCK:   -6.95 KCAL/MOL
REMARK 923 INTER-LIGAND FREE ENERGY PREDICTED BY IDOCK:   -6.51 KCAL/MOL
REMARK 924 INTRA-LIGAND FREE ENERGY PREDICTED BY IDOCK:   -0.44 KCAL/MOL
REMARK 927      BINDING AFFINITY PREDICTED BY RF-SCORE:    0.00 PKD
ROOT
HETATM    1  O   UNL     1      -6.763   8.103  68.732  1.00  0.00    -0.055 OA 
HETATM    2  C   UNL     1      -8.105   8.422  69.206  1.00  0.00    -0.115 C  
HETATM    3  H   UNL     1      -6.203   8.704  69.209  1.00  0.00     0.000 HD 
HETATM    4  C   UNL     1      -8.267   9.951  68.751  1.00  0.00    -0.114 C  
HETATM    5  C   UNL     1      -8.034   8.163  70.741  1.00  0.00    -0.097 A  
HETATM    6  C   UNL     1      -9.022   7.441  68.425  1.00  0.00    -0.134 A  
HETATM    7  C   UNL     1      -8.089  10.078  67.205  1.00  0.00    -0.114 C  
HETATM    8  C   UNL     1      -6.868   7.615  71.332  1.00  0.00    -0.049 A  
HETATM    9  C   UNL     1     -10.272   7.003  68.889  1.00  0.00    -0.183 A  
HETATM   10  C   UNL     1      -6.801   7.259  72.683  1.00  0.00    -0.067 A  
HETATM   11  C   UNL     1     -11.057   6.113  68.140  1.00  0.00    -0.328 A  
HETATM   12  C   UNL     1      -8.096  11.513  66.714  1.00  0.00    -0.158 C  
HETATM   13  C   UNL     1     -10.624   5.647  66.905  1.00  0.00    -0.367 A  
HETATM   14  C   UNL     1      -7.901   7.458  73.503  1.00  0.00    -0.135 A  
HETATM   15  N   UNL     1      -8.264  12.456  67.892  1.00  0.00    -0.152 N  
HETATM   16  C   UNL     1      -9.394   6.059  66.414  1.00  0.00    -0.171 A  
HETATM   17  C   UNL     1      -9.109   8.401  71.618  1.00  0.00    -0.268 A  
HETATM   18  C   UNL     1      -7.144  12.246  68.905  1.00  0.00    -0.088 C  
HETATM   19  C   UNL     1      -9.603  12.127  68.579  1.00  0.00    -0.133 C  
HETATM   20  C   UNL     1      -9.046   8.043  72.976  1.00  0.00    -0.331 A  
HETATM   21  C   UNL     1      -8.610   6.936  67.165  1.00  0.00    -0.121 A  
HETATM   22  C   UNL     1      -7.152  10.812  69.406  1.00  0.00    -0.122 C  
HETATM   23  C   UNL     1      -9.606  10.655  69.059  1.00  0.00    -0.207 C  
ENDROOT
BRANCH  15  24
HETATM   24  C   UNL     1      -8.273  13.933  67.396  1.00  0.00    -0.187 C  
BRANCH  24  25
HETATM   25  C   UNL     1      -9.051  14.884  68.330  1.00  0.00    -0.179 C  
BRANCH  25  26
HETATM   26  O   UNL     1     -10.104  15.524  67.621  1.00  0.00    -0.239 OA 
BRANCH  26  27
HETATM   27  C   UNL     1     -11.322  14.778  67.736  1.00  0.00    -0.330 C  
BRANCH  27  28
HETATM   28  C   UNL     1     -11.689  14.288  66.368  1.00  0.00    -0.403 A  
HETATM   29  C   UNL     1     -11.770  15.182  65.292  1.00  0.00    -0.135 A  
HETATM   30  C   UNL     1     -12.152  14.732  64.030  1.00  0.00    -0.189 A  
HETATM   31  C   UNL     1     -12.460  13.385  63.834  1.00  0.00    -0.313 A  
HETATM   32  C   UNL     1     -12.386  12.489  64.897  1.00  0.00    -0.539 A  
HETATM   33  C   UNL     1     -12.006  12.936  66.161  1.00  0.00    -0.491 A  
ENDBRANCH  27  28
ENDBRANCH  26  27
ENDBRANCH  25  26
ENDBRANCH  24  25
ENDBRANCH  15  24
TORSDOF 5
ENDMDL
MODEL       96
REMARK 921   NORMALIZED FREE ENERGY PREDICTED BY IDOCK:   -4.23 KCAL/MOL
REMARK 922        TOTAL FREE ENERGY PREDICTED BY IDOCK:   -6.93 KCAL/MOL
REMARK 923 INTER-LIGAND FREE ENERGY PREDICTED BY IDOCK:   -6.55 KCAL/MOL
REMARK 924 INTRA-LIGAND FREE ENERGY PREDICTED BY IDOCK:   -0.38 KCAL/MOL
REMARK 927      BINDING AFFINITY PREDICTED BY RF-SCORE:    0.00 PKD
ROOT
HETATM    1  O   UNL     1      -9.152  14.377  69.673  1.00  0.00    -0.260 OA 
HETATM    2  C   UNL     1     -10.304  14.702  68.840  1.00  0.00    -0.245 C  
HETATM    3  H   UNL     1      -8.436  14.299  69.054  1.00  0.00     0.000 HD 
HETATM    4  C   UNL     1     -10.409  13.412  67.895  1.00  0.00    -0.238 C  
HETATM    5  C   UNL     1      -9.901  16.037  68.144  1.00  0.00    -0.222 A  
HETATM    6  C   UNL     1     -11.476  14.828  69.853  1.00  0.00    -0.322 A  
HETATM    7  C   UNL     1     -10.588  12.122  68.756  1.00  0.00    -0.230 C  
HETATM    8  C   UNL     1      -8.692  16.695  68.481  1.00  0.00    -0.242 A  
HETATM    9  C   UNL     1     -12.620  15.609  69.630  1.00  0.00     0.033 A  
HETATM   10  C   UNL     1      -8.346  17.950  67.967  1.00  0.00    -0.258 A  
HETATM   11  C   UNL     1     -13.647  15.687  70.584  1.00  0.00     0.192 A  
HETATM   12  C   UNL     1     -10.562  10.845  67.939  1.00  0.00    -0.207 C  
HETATM   13  C   UNL     1     -13.567  14.978  71.775  1.00  0.00    -0.524 A  
HETATM   14  C   UNL     1      -9.195  18.588  67.076  1.00  0.00    -0.284 A  
HETATM   15  N   UNL     1     -10.350  11.178  66.473  1.00  0.00    -0.235 N  
HETATM   16  C   UNL     1     -12.452  14.193  72.029  1.00  0.00    -0.299 A  
HETATM   17  C   UNL     1     -10.709  16.691  67.195  1.00  0.00    -0.202 A  
HETATM   18  C   UNL     1      -9.051  11.955  66.287  1.00  0.00    -0.188 C  
HETATM   19  C   UNL     1     -11.516  12.074  66.014  1.00  0.00    -0.338 C  
HETATM   20  C   UNL     1     -10.365  17.953  66.678  1.00  0.00    -0.362 A  
HETATM   21  C   UNL     1     -11.426  14.127  71.085  1.00  0.00     0.297 A  
HETATM   22  C   UNL     1      -9.089  13.241  67.094  1.00  0.00    -0.231 C  
HETATM   23  C   UNL     1     -11.559  13.368  66.864  1.00  0.00    -0.404 C  
ENDROOT
BRANCH  15  24
HETATM   24  C   UNL     1     -10.322   9.871  65.626  1.00  0.00    -0.045 C  
BRANCH  24  25
HETATM   25  C   UNL     1      -8.956   9.155  65.655  1.00  0.00    -0.203 C  
BRANCH  25  26
HETATM   26  O   UNL     1      -8.928   8.179  66.687  1.00  0.00    -0.136 OA 
BRANCH  26  27
HETATM   27  C   UNL     1     -10.154   7.437  66.719  1.00  0.00    -0.235 C  
BRANCH  27  28
HETATM   28  C   UNL     1      -9.822   6.022  67.084  1.00  0.00    -0.165 A  
HETATM   29  C   UNL     1      -9.736   5.035  66.093  1.00  0.00    -0.196 A  
HETATM   30  C   UNL     1      -9.469   3.712  66.438  1.00  0.00    -0.184 A  
HETATM   31  C   UNL     1      -9.291   3.363  67.776  1.00  0.00    -0.243 A  
HETATM   32  C   UNL     1      -9.377   4.335  68.770  1.00  0.00    -0.216 A  
HETATM   33  C   UNL     1      -9.645   5.659  68.428  1.00  0.00    -0.152 A  
ENDBRANCH  27  28
ENDBRANCH  26  27
ENDBRANCH  25  26
ENDBRANCH  24  25
ENDBRANCH  15  24
TORSDOF 5
ENDMDL
MODEL       97
REMARK 921   NORMALIZED FREE ENERGY PREDICTED BY IDOCK:   -4.17 KCAL/MOL
REMARK 922        TOTAL FREE ENERGY PREDICTED BY IDOCK:   -6.86 KCAL/MOL
REMARK 923 INTER-LIGAND FREE ENERGY PREDICTED BY IDOCK:   -6.51 KCAL/MOL
REMARK 924 INTRA-LIGAND FREE ENERGY PREDICTED BY IDOCK:   -0.34 KCAL/MOL
REMARK 927      BINDING AFFINITY PREDICTED BY RF-SCORE:    0.00 PKD
ROOT
HETATM    1  O   UNL     1      -7.727   7.354  69.922  1.00  0.00    -0.095 OA 
HETATM    2  C   UNL     1      -8.944   7.909  69.339  1.00  0.00    -0.145 C  
HETATM    3  H   UNL     1      -7.472   7.997  70.574  1.00  0.00     0.000 HD 
HETATM    4  C   UNL     1      -8.418   9.287  68.711  1.00  0.00    -0.129 C  
HETATM    5  C   UNL     1      -9.920   8.029  70.548  1.00  0.00    -0.193 A  
HETATM    6  C   UNL     1      -9.361   6.858  68.272  1.00  0.00    -0.125 A  
HETATM    7  C   UNL     1      -7.282   9.012  67.676  1.00  0.00    -0.083 C  
HETATM    8  C   UNL     1      -9.558   7.532  71.826  1.00  0.00    -0.178 A  
HETATM    9  C   UNL     1     -10.681   6.672  67.834  1.00  0.00    -0.341 A  
HETATM   10  C   UNL     1     -10.445   7.515  72.908  1.00  0.00    -0.372 A  
HETATM   11  C   UNL     1     -10.999   5.705  66.868  1.00  0.00    -0.162 A  
HETATM   12  C   UNL     1      -6.641  10.276  67.137  1.00  0.00    -0.073 C  
HETATM   13  C   UNL     1     -10.009   4.910  66.304  1.00  0.00    -0.256 A  
HETATM   14  C   UNL     1     -11.728   8.015  72.756  1.00  0.00    -0.352 A  
HETATM   15  N   UNL     1      -7.286  11.492  67.778  1.00  0.00    -0.091 N  
HETATM   16  C   UNL     1      -8.692   5.068  66.710  1.00  0.00    -0.108 A  
HETATM   17  C   UNL     1     -11.212   8.577  70.449  1.00  0.00    -0.224 A  
HETATM   18  C   UNL     1      -7.146  11.430  69.295  1.00  0.00    -0.100 C  
HETATM   19  C   UNL     1      -8.787  11.473  67.433  1.00  0.00    -0.157 C  
HETATM   20  C   UNL     1     -12.106   8.560  71.535  1.00  0.00    -0.351 A  
HETATM   21  C   UNL     1      -8.380   6.022  67.680  1.00  0.00    -0.108 A  
HETATM   22  C   UNL     1      -7.804  10.171  69.832  1.00  0.00    -0.164 C  
HETATM   23  C   UNL     1      -9.438  10.171  67.961  1.00  0.00    -0.156 C  
ENDROOT
BRANCH  15  24
HETATM   24  C   UNL     1      -6.634  12.795  67.229  1.00  0.00    -0.075 C  
BRANCH  24  25
HETATM   25  C   UNL     1      -7.005  14.052  68.043  1.00  0.00    -0.145 C  
BRANCH  25  26
HETATM   26  O   UNL     1      -6.891  15.217  67.237  1.00  0.00    -0.233 OA 
BRANCH  26  27
HETATM   27  C   UNL     1      -8.182  15.665  66.804  1.00  0.00    -0.265 C  
BRANCH  27  28
HETATM   28  C   UNL     1      -8.431  17.007  67.422  1.00  0.00    -0.208 A  
HETATM   29  C   UNL     1      -7.375  17.909  67.607  1.00  0.00    -0.211 A  
HETATM   30  C   UNL     1      -7.599  19.140  68.219  1.00  0.00    -0.339 A  
HETATM   31  C   UNL     1      -8.880  19.478  68.657  1.00  0.00    -0.386 A  
HETATM   32  C   UNL     1      -9.936  18.587  68.481  1.00  0.00    -0.419 A  
HETATM   33  C   UNL     1      -9.715  17.355  67.870  1.00  0.00    -0.272 A  
ENDBRANCH  27  28
ENDBRANCH  26  27
ENDBRANCH  25  26
ENDBRANCH  24  25
ENDBRANCH  15  24
TORSDOF 5
ENDMDL
MODEL       98
REMARK 921   NORMALIZED FREE ENERGY PREDICTED BY IDOCK:   -4.17 KCAL/MOL
REMARK 922        TOTAL FREE ENERGY PREDICTED BY IDOCK:   -6.85 KCAL/MOL
REMARK 923 INTER-LIGAND FREE ENERGY PREDICTED BY IDOCK:   -6.21 KCAL/MOL
REMARK 924 INTRA-LIGAND FREE ENERGY PREDICTED BY IDOCK:   -0.64 KCAL/MOL
REMARK 927      BINDING AFFINITY PREDICTED BY RF-SCORE:    0.00 PKD
ROOT
HETATM    1  O   UNL     1      -8.451  11.224  68.856  1.00  0.00    -0.270 OA 
HETATM    2  C   UNL     1      -9.026  10.652  67.644  1.00  0.00    -0.139 C  
HETATM    3  H   UNL     1      -7.792  10.592  69.118  1.00  0.00     0.000 HD 
HETATM    4  C   UNL     1      -9.639   9.272  68.183  1.00  0.00    -0.159 C  
HETATM    5  C   UNL     1      -7.815  10.536  66.670  1.00  0.00    -0.125 A  
HETATM    6  C   UNL     1     -10.104  11.686  67.216  1.00  0.00    -0.221 A  
HETATM    7  C   UNL     1     -10.678   9.546  69.315  1.00  0.00    -0.240 C  
HETATM    8  C   UNL     1      -6.543  11.050  67.029  1.00  0.00    -0.100 A  
HETATM    9  C   UNL     1     -10.542  11.855  65.894  1.00  0.00    -0.306 A  
HETATM   10  C   UNL     1      -5.459  11.070  66.143  1.00  0.00    -0.140 A  
HETATM   11  C   UNL     1     -11.519  12.808  65.565  1.00  0.00    -0.372 A  
HETATM   12  C   UNL     1     -11.205   8.283  69.967  1.00  0.00    -0.081 C  
HETATM   13  C   UNL     1     -12.093  13.606  66.547  1.00  0.00    -0.469 A  
HETATM   14  C   UNL     1      -5.605  10.556  64.864  1.00  0.00    -0.135 A  
HETATM   15  N   UNL     1     -10.549   7.068  69.334  1.00  0.00    -0.224 N  
HETATM   16  C   UNL     1     -11.686  13.466  67.865  1.00  0.00    -0.396 A  
HETATM   17  C   UNL     1      -7.906   9.973  65.383  1.00  0.00    -0.136 A  
HETATM   18  C   UNL     1      -9.033   7.148  69.476  1.00  0.00    -0.140 C  
HETATM   19  C   UNL     1     -10.893   7.069  67.833  1.00  0.00    -0.183 C  
HETATM   20  C   UNL     1      -6.819   9.994  64.491  1.00  0.00    -0.127 A  
HETATM   21  C   UNL     1     -10.706  12.525  68.188  1.00  0.00    -0.246 A  
HETATM   22  C   UNL     1      -8.510   8.406  68.806  1.00  0.00    -0.124 C  
HETATM   23  C   UNL     1     -10.378   8.370  67.170  1.00  0.00    -0.381 C  
ENDROOT
BRANCH  15  24
HETATM   24  C   UNL     1     -11.085   5.765  69.999  1.00  0.00    -0.258 C  
BRANCH  24  25
HETATM   25  C   UNL     1     -10.177   5.240  71.130  1.00  0.00    -0.224 C  
BRANCH  25  26
HETATM   26  O   UNL     1     -10.431   5.945  72.338  1.00  0.00    -0.195 OA 
BRANCH  26  27
HETATM   27  C   UNL     1      -9.658   5.402  73.417  1.00  0.00    -0.145 C  
BRANCH  27  28
HETATM   28  C   UNL     1      -8.442   6.261  73.585  1.00  0.00    -0.123 A  
HETATM   29  C   UNL     1      -8.505   7.637  73.328  1.00  0.00    -0.208 A  
HETATM   30  C   UNL     1      -7.363   8.428  73.444  1.00  0.00    -0.114 A  
HETATM   31  C   UNL     1      -6.149   7.849  73.812  1.00  0.00    -0.078 A  
HETATM   32  C   UNL     1      -6.075   6.482  74.067  1.00  0.00    -0.064 A  
HETATM   33  C   UNL     1      -7.214   5.688  73.951  1.00  0.00    -0.086 A  
ENDBRANCH  27  28
ENDBRANCH  26  27
ENDBRANCH  25  26
ENDBRANCH  24  25
ENDBRANCH  15  24
TORSDOF 5
ENDMDL
MODEL       99
REMARK 921   NORMALIZED FREE ENERGY PREDICTED BY IDOCK:   -4.09 KCAL/MOL
REMARK 922        TOTAL FREE ENERGY PREDICTED BY IDOCK:   -6.75 KCAL/MOL
REMARK 923 INTER-LIGAND FREE ENERGY PREDICTED BY IDOCK:   -6.31 KCAL/MOL
REMARK 924 INTRA-LIGAND FREE ENERGY PREDICTED BY IDOCK:   -0.43 KCAL/MOL
REMARK 927      BINDING AFFINITY PREDICTED BY RF-SCORE:    0.00 PKD
ROOT
HETATM    1  O   UNL     1     -10.867   5.829  68.044  1.00  0.00    -0.242 OA 
HETATM    2  C   UNL     1      -9.503   6.268  68.316  1.00  0.00    -0.117 C  
HETATM    3  H   UNL     1     -11.099   6.286  67.244  1.00  0.00     0.000 HD 
HETATM    4  C   UNL     1      -9.692   7.848  68.511  1.00  0.00    -0.167 C  
HETATM    5  C   UNL     1      -8.703   5.819  67.056  1.00  0.00    -0.109 A  
HETATM    6  C   UNL     1      -9.123   5.521  69.625  1.00  0.00    -0.152 A  
HETATM    7  C   UNL     1     -10.698   8.135  69.669  1.00  0.00    -0.196 C  
HETATM    8  C   UNL     1      -9.323   5.050  66.039  1.00  0.00    -0.161 A  
HETATM    9  C   UNL     1      -7.805   5.206  69.989  1.00  0.00    -0.078 A  
HETATM   10  C   UNL     1      -8.616   4.529  64.950  1.00  0.00    -0.135 A  
HETATM   11  C   UNL     1      -7.522   4.526  71.184  1.00  0.00    -0.060 A  
HETATM   12  C   UNL     1     -11.031   9.606  69.827  1.00  0.00    -0.240 C  
HETATM   13  C   UNL     1      -8.542   4.159  72.053  1.00  0.00    -0.116 A  
HETATM   14  C   UNL     1      -7.258   4.775  64.828  1.00  0.00    -0.063 A  
HETATM   15  N   UNL     1     -10.286  10.415  68.780  1.00  0.00    -0.184 N  
HETATM   16  C   UNL     1      -9.857   4.456  71.727  1.00  0.00    -0.253 A  
HETATM   17  C   UNL     1      -7.336   6.093  66.867  1.00  0.00    -0.082 A  
HETATM   18  C   UNL     1     -10.651   9.934  67.379  1.00  0.00    -0.277 C  
HETATM   19  C   UNL     1      -8.777  10.191  68.988  1.00  0.00    -0.161 C  
HETATM   20  C   UNL     1      -6.622   5.569  65.775  1.00  0.00    -0.041 A  
HETATM   21  C   UNL     1     -10.137   5.121  70.532  1.00  0.00    -0.326 A  
HETATM   22  C   UNL     1     -10.300   8.465  67.221  1.00  0.00    -0.369 C  
HETATM   23  C   UNL     1      -8.440   8.685  68.852  1.00  0.00    -0.129 C  
ENDROOT
BRANCH  15  24
HETATM   24  C   UNL     1     -10.622  11.928  68.935  1.00  0.00    -0.173 C  
BRANCH  24  25
HETATM   25  C   UNL     1     -11.812  12.381  68.062  1.00  0.00    -0.316 C  
BRANCH  25  26
HETATM   26  O   UNL     1     -11.460  13.526  67.299  1.00  0.00    -0.307 OA 
BRANCH  26  27
HETATM   27  C   UNL     1     -10.121  13.413  66.798  1.00  0.00    -0.260 C  
BRANCH  27  28
HETATM   28  C   UNL     1      -9.560  14.798  66.679  1.00  0.00    -0.289 A  
HETATM   29  C   UNL     1     -10.275  15.797  66.005  1.00  0.00    -0.352 A  
HETATM   30  C   UNL     1      -9.734  17.072  65.857  1.00  0.00    -0.170 A  
HETATM   31  C   UNL     1      -8.471  17.358  66.377  1.00  0.00    -0.292 A  
HETATM   32  C   UNL     1      -7.751  16.371  67.046  1.00  0.00    -0.250 A  
HETATM   33  C   UNL     1      -8.289  15.095  67.194  1.00  0.00    -0.247 A  
ENDBRANCH  27  28
ENDBRANCH  26  27
ENDBRANCH  25  26
ENDBRANCH  24  25
ENDBRANCH  15  24
TORSDOF 5
ENDMDL
MODEL      100
REMARK 921   NORMALIZED FREE ENERGY PREDICTED BY IDOCK:   -4.08 KCAL/MOL
REMARK 922        TOTAL FREE ENERGY PREDICTED BY IDOCK:   -6.74 KCAL/MOL
REMARK 923 INTER-LIGAND FREE ENERGY PREDICTED BY IDOCK:   -6.49 KCAL/MOL
REMARK 924 INTRA-LIGAND FREE ENERGY PREDICTED BY IDOCK:   -0.25 KCAL/MOL
REMARK 927      BINDING AFFINITY PREDICTED BY RF-SCORE:    0.00 PKD
ROOT
HETATM    1  O   UNL     1      -7.089   6.740  69.120  1.00  0.00    -0.082 OA 
HETATM    2  C   UNL     1      -8.488   6.558  68.754  1.00  0.00    -0.122 C  
HETATM    3  H   UNL     1      -7.098   7.500  69.689  1.00  0.00     0.000 HD 
HETATM    4  C   UNL     1      -8.816   7.929  67.990  1.00  0.00    -0.124 C  
HETATM    5  C   UNL     1      -9.210   6.339  70.117  1.00  0.00    -0.162 A  
HETATM    6  C   UNL     1      -8.474   5.314  67.822  1.00  0.00    -0.105 A  
HETATM    7  C   UNL     1      -7.856   8.113  66.772  1.00  0.00    -0.095 C  
HETATM    8  C   UNL     1      -8.470   6.242  71.323  1.00  0.00    -0.124 A  
HETATM    9  C   UNL     1      -9.571   4.459  67.643  1.00  0.00    -0.212 A  
HETATM   10  C   UNL     1      -9.064   5.932  72.551  1.00  0.00    -0.135 A  
HETATM   11  C   UNL     1      -9.499   3.348  66.789  1.00  0.00    -0.163 A  
HETATM   12  C   UNL     1      -8.016   9.452  66.077  1.00  0.00    -0.110 C  
HETATM   13  C   UNL     1      -8.338   3.070  66.080  1.00  0.00    -0.098 A  
HETATM   14  C   UNL     1     -10.432   5.723  72.622  1.00  0.00    -0.243 A  
HETATM   15  N   UNL     1      -9.082  10.271  66.783  1.00  0.00    -0.142 N  
HETATM   16  C   UNL     1      -7.233   3.895  66.229  1.00  0.00    -0.064 A  
HETATM   17  C   UNL     1     -10.602   6.175  70.241  1.00  0.00    -0.319 A  
HETATM   18  C   UNL     1      -8.714  10.473  68.249  1.00  0.00    -0.135 C  
HETATM   19  C   UNL     1     -10.405   9.484  66.723  1.00  0.00    -0.228 C  
HETATM   20  C   UNL     1     -11.202   5.861  71.473  1.00  0.00    -0.290 A  
HETATM   21  C   UNL     1      -7.303   4.992  67.089  1.00  0.00    -0.082 A  
HETATM   22  C   UNL     1      -8.572   9.130  68.944  1.00  0.00    -0.131 C  
HETATM   23  C   UNL     1     -10.236   8.107  67.410  1.00  0.00    -0.327 C  
ENDROOT
BRANCH  15  24
HETATM   24  C   UNL     1      -9.254  11.648  66.075  1.00  0.00    -0.208 C  
BRANCH  24  25
HETATM   25  C   UNL     1     -10.159  12.625  66.853  1.00  0.00    -0.230 C  
BRANCH  25  26
HETATM   26  O   UNL     1     -11.105  13.227  65.980  1.00  0.00    -0.282 OA 
BRANCH  26  27
HETATM   27  C   UNL     1     -12.060  13.999  66.718  1.00  0.00    -0.447 C  
BRANCH  27  28
HETATM   28  C   UNL     1     -11.361  15.220  67.235  1.00  0.00    -0.269 A  
HETATM   29  C   UNL     1     -11.570  15.653  68.551  1.00  0.00    -0.378 A  
HETATM   30  C   UNL     1     -10.952  16.812  69.017  1.00  0.00    -0.239 A  
HETATM   31  C   UNL     1     -10.124  17.549  68.171  1.00  0.00    -0.341 A  
HETATM   32  C   UNL     1      -9.912  17.129  66.860  1.00  0.00    -0.288 A  
HETATM   33  C   UNL     1     -10.529  15.971  66.390  1.00  0.00    -0.313 A  
ENDBRANCH  27  28
ENDBRANCH  26  27
ENDBRANCH  25  26
ENDBRANCH  24  25
ENDBRANCH  15  24
TORSDOF 5
ENDMDL
MODEL      101
REMARK 921   NORMALIZED FREE ENERGY PREDICTED BY IDOCK:   -4.07 KCAL/MOL
REMARK 922        TOTAL FREE ENERGY PREDICTED BY IDOCK:   -6.72 KCAL/MOL
REMARK 923 INTER-LIGAND FREE ENERGY PREDICTED BY IDOCK:   -6.12 KCAL/MOL
REMARK 924 INTRA-LIGAND FREE ENERGY PREDICTED BY IDOCK:   -0.61 KCAL/MOL
REMARK 927      BINDING AFFINITY PREDICTED BY RF-SCORE:    0.00 PKD
ROOT
HETATM    1  O   UNL     1     -10.329   8.627  66.184  1.00  0.00    -0.382 OA 
HETATM    2  C   UNL     1      -9.227   9.552  66.423  1.00  0.00    -0.166 C  
HETATM    3  H   UNL     1     -11.002   8.912  66.791  1.00  0.00     0.000 HD 
HETATM    4  C   UNL     1      -8.872   9.262  67.959  1.00  0.00    -0.128 C  
HETATM    5  C   UNL     1      -9.834  10.952  66.107  1.00  0.00    -0.268 A  
HETATM    6  C   UNL     1      -8.124   9.086  65.432  1.00  0.00    -0.120 A  
HETATM    7  C   UNL     1      -8.498   7.760  68.155  1.00  0.00    -0.124 C  
HETATM    8  C   UNL     1     -11.148  11.073  65.589  1.00  0.00    -0.008 A  
HETATM    9  C   UNL     1      -7.126   9.929  64.920  1.00  0.00    -0.132 A  
HETATM   10  C   UNL     1     -11.691  12.298  65.184  1.00  0.00    -0.414 A  
HETATM   11  C   UNL     1      -6.156   9.452  64.025  1.00  0.00    -0.091 A  
HETATM   12  C   UNL     1      -8.279   7.378  69.606  1.00  0.00    -0.130 C  
HETATM   13  C   UNL     1      -6.147   8.121  63.629  1.00  0.00    -0.071 A  
HETATM   14  C   UNL     1     -10.939  13.456  65.300  1.00  0.00    -0.306 A  
HETATM   15  N   UNL     1      -8.503   8.589  70.494  1.00  0.00    -0.128 N  
HETATM   16  C   UNL     1      -7.117   7.257  64.116  1.00  0.00    -0.067 A  
HETATM   17  C   UNL     1      -9.124  12.157  66.260  1.00  0.00    -0.141 A  
HETATM   18  C   UNL     1      -9.911   9.141  70.296  1.00  0.00    -0.208 C  
HETATM   19  C   UNL     1      -7.497   9.679  70.077  1.00  0.00    -0.141 C  
HETATM   20  C   UNL     1      -9.666  13.389  65.852  1.00  0.00    -0.197 A  
HETATM   21  C   UNL     1      -8.088   7.736  64.997  1.00  0.00    -0.139 A  
HETATM   22  C   UNL     1     -10.119   9.537  68.844  1.00  0.00    -0.199 C  
HETATM   23  C   UNL     1      -7.703  10.051  68.588  1.00  0.00    -0.086 C  
ENDROOT
BRANCH  15  24
HETATM   24  C   UNL     1      -8.279   8.206  71.987  1.00  0.00    -0.149 C  
BRANCH  24  25
HETATM   25  C   UNL     1      -9.566   8.285  72.836  1.00  0.00    -0.249 C  
BRANCH  25  26
HETATM   26  O   UNL     1      -9.827   7.035  73.458  1.00  0.00    -0.203 OA 
BRANCH  26  27
HETATM   27  C   UNL     1     -11.016   6.439  72.925  1.00  0.00    -0.250 C  
BRANCH  27  28
HETATM   28  C   UNL     1     -10.725   4.992  72.664  1.00  0.00    -0.279 A  
HETATM   29  C   UNL     1     -11.104   4.013  73.592  1.00  0.00    -0.334 A  
HETATM   30  C   UNL     1     -10.795   2.674  73.369  1.00  0.00    -0.293 A  
HETATM   31  C   UNL     1     -10.101   2.301  72.218  1.00  0.00    -0.229 A  
HETATM   32  C   UNL     1      -9.716   3.266  71.290  1.00  0.00    -0.222 A  
HETATM   33  C   UNL     1     -10.022   4.607  71.512  1.00  0.00    -0.265 A  
ENDBRANCH  27  28
ENDBRANCH  26  27
ENDBRANCH  25  26
ENDBRANCH  24  25
ENDBRANCH  15  24
TORSDOF 5
ENDMDL
MODEL      102
REMARK 921   NORMALIZED FREE ENERGY PREDICTED BY IDOCK:   -4.03 KCAL/MOL
REMARK 922        TOTAL FREE ENERGY PREDICTED BY IDOCK:   -6.67 KCAL/MOL
REMARK 923 INTER-LIGAND FREE ENERGY PREDICTED BY IDOCK:   -5.30 KCAL/MOL
REMARK 924 INTRA-LIGAND FREE ENERGY PREDICTED BY IDOCK:   -1.37 KCAL/MOL
REMARK 927      BINDING AFFINITY PREDICTED BY RF-SCORE:    0.00 PKD
ROOT
HETATM    1  O   UNL     1     -10.317   4.752  67.030  1.00  0.00    -0.195 OA 
HETATM    2  C   UNL     1      -9.060   5.342  67.475  1.00  0.00    -0.107 C  
HETATM    3  H   UNL     1     -10.693   5.415  66.463  1.00  0.00     0.000 HD 
HETATM    4  C   UNL     1      -9.562   6.648  68.259  1.00  0.00    -0.125 C  
HETATM    5  C   UNL     1      -8.271   5.590  66.155  1.00  0.00    -0.112 A  
HETATM    6  C   UNL     1      -8.445   4.258  68.404  1.00  0.00    -0.103 A  
HETATM    7  C   UNL     1     -10.526   6.247  69.420  1.00  0.00    -0.298 C  
HETATM    8  C   UNL     1      -8.783   5.149  64.909  1.00  0.00    -0.140 A  
HETATM    9  C   UNL     1      -7.069   4.124  68.644  1.00  0.00    -0.055 A  
HETATM   10  C   UNL     1      -8.058   5.247  63.716  1.00  0.00    -0.117 A  
HETATM   11  C   UNL     1      -6.570   3.123  69.491  1.00  0.00    -0.033 A  
HETATM   12  C   UNL     1     -11.147   7.437  70.124  1.00  0.00    -0.246 C  
HETATM   13  C   UNL     1      -7.430   2.240  70.132  1.00  0.00    -0.043 A  
HETATM   14  C   UNL     1      -6.792   5.812  63.724  1.00  0.00    -0.041 A  
HETATM   15  N   UNL     1     -10.660   8.724  69.482  1.00  0.00    -0.227 N  
HETATM   16  C   UNL     1      -8.797   2.343  69.921  1.00  0.00    -0.139 A  
HETATM   17  C   UNL     1      -7.007   6.208  66.112  1.00  0.00    -0.066 A  
HETATM   18  C   UNL     1     -11.009   8.743  67.998  1.00  0.00     0.132 C  
HETATM   19  C   UNL     1      -9.127   8.774  69.617  1.00  0.00    -0.149 C  
HETATM   20  C   UNL     1      -6.275   6.306  64.915  1.00  0.00    -0.030 A  
HETATM   21  C   UNL     1      -9.290   3.332  69.068  1.00  0.00    -0.234 A  
HETATM   22  C   UNL     1     -10.371   7.558  67.294  1.00  0.00    -0.366 C  
HETATM   23  C   UNL     1      -8.492   7.546  68.919  1.00  0.00    -0.129 C  
ENDROOT
BRANCH  15  24
HETATM   24  C   UNL     1     -11.294   9.952  70.201  1.00  0.00    -0.275 C  
BRANCH  24  25
HETATM   25  C   UNL     1     -11.903  10.981  69.226  1.00  0.00    -0.340 C  
BRANCH  25  26
HETATM   26  O   UNL     1     -10.980  12.030  68.970  1.00  0.00    -0.225 OA 
BRANCH  26  27
HETATM   27  C   UNL     1     -11.086  12.483  67.614  1.00  0.00    -0.258 C  
BRANCH  27  28
HETATM   28  C   UNL     1     -10.123  11.686  66.788  1.00  0.00    -0.242 A  
HETATM   29  C   UNL     1      -8.803  11.499  67.222  1.00  0.00    -0.160 A  
HETATM   30  C   UNL     1      -7.897  10.793  66.434  1.00  0.00    -0.148 A  
HETATM   31  C   UNL     1      -8.300  10.273  65.204  1.00  0.00    -0.162 A  
HETATM   32  C   UNL     1      -9.608  10.455  64.762  1.00  0.00    -0.352 A  
HETATM   33  C   UNL     1     -10.517  11.162  65.548  1.00  0.00    -0.317 A  
ENDBRANCH  27  28
ENDBRANCH  26  27
ENDBRANCH  25  26
ENDBRANCH  24  25
ENDBRANCH  15  24
TORSDOF 5
ENDMDL
MODEL      103
REMARK 921   NORMALIZED FREE ENERGY PREDICTED BY IDOCK:   -4.01 KCAL/MOL
REMARK 922        TOTAL FREE ENERGY PREDICTED BY IDOCK:   -6.64 KCAL/MOL
REMARK 923 INTER-LIGAND FREE ENERGY PREDICTED BY IDOCK:   -6.00 KCAL/MOL
REMARK 924 INTRA-LIGAND FREE ENERGY PREDICTED BY IDOCK:   -0.64 KCAL/MOL
REMARK 927      BINDING AFFINITY PREDICTED BY RF-SCORE:    0.00 PKD
ROOT
HETATM    1  O   UNL     1     -10.663  10.828  65.392  1.00  0.00    -0.195 OA 
HETATM    2  C   UNL     1      -9.408  10.773  66.132  1.00  0.00    -0.183 C  
HETATM    3  H   UNL     1     -11.273  11.221  66.006  1.00  0.00     0.000 HD 
HETATM    4  C   UNL     1      -9.785   9.818  67.363  1.00  0.00    -0.202 C  
HETATM    5  C   UNL     1      -9.109  12.262  66.479  1.00  0.00    -0.188 A  
HETATM    6  C   UNL     1      -8.410  10.129  65.129  1.00  0.00    -0.163 A  
HETATM    7  C   UNL     1     -10.281   8.433  66.842  1.00  0.00    -0.383 C  
HETATM    8  C   UNL     1      -9.932  13.303  65.982  1.00  0.00    -0.297 A  
HETATM    9  C   UNL     1      -7.022  10.337  65.166  1.00  0.00    -0.122 A  
HETATM   10  C   UNL     1      -9.636  14.658  66.173  1.00  0.00    -0.336 A  
HETATM   11  C   UNL     1      -6.169   9.730  64.231  1.00  0.00    -0.115 A  
HETATM   12  C   UNL     1     -10.783   7.520  67.945  1.00  0.00    -0.133 C  
HETATM   13  C   UNL     1      -6.674   8.890  63.247  1.00  0.00    -0.090 A  
HETATM   14  C   UNL     1      -8.507  15.022  66.890  1.00  0.00    -0.269 A  
HETATM   15  N   UNL     1     -10.676   8.227  69.284  1.00  0.00    -0.178 N  
HETATM   16  C   UNL     1      -8.040   8.660  63.181  1.00  0.00    -0.170 A  
HETATM   17  C   UNL     1      -8.004  12.672  67.248  1.00  0.00    -0.166 A  
HETATM   18  C   UNL     1     -11.475   9.527  69.264  1.00  0.00     0.205 C  
HETATM   19  C   UNL     1      -9.195   8.576  69.522  1.00  0.00    -0.150 C  
HETATM   20  C   UNL     1      -7.702  14.032  67.441  1.00  0.00    -0.177 A  
HETATM   21  C   UNL     1      -8.888   9.274  64.104  1.00  0.00    -0.178 A  
HETATM   22  C   UNL     1     -10.956  10.443  68.169  1.00  0.00    -0.334 C  
HETATM   23  C   UNL     1      -8.674   9.488  68.384  1.00  0.00    -0.124 C  
ENDROOT
BRANCH  15  24
HETATM   24  C   UNL     1     -11.190   7.297  70.422  1.00  0.00    -0.276 C  
BRANCH  24  25
HETATM   25  C   UNL     1     -11.812   8.067  71.605  1.00  0.00    -0.289 C  
BRANCH  25  26
HETATM   26  O   UNL     1     -10.830   8.327  72.600  1.00  0.00    -0.345 OA 
BRANCH  26  27
HETATM   27  C   UNL     1     -10.251   7.105  73.075  1.00  0.00    -0.251 C  
BRANCH  27  28
HETATM   28  C   UNL     1      -8.788   7.347  73.292  1.00  0.00    -0.201 A  
HETATM   29  C   UNL     1      -8.354   8.206  74.311  1.00  0.00    -0.252 A  
HETATM   30  C   UNL     1      -6.997   8.463  74.485  1.00  0.00    -0.218 A  
HETATM   31  C   UNL     1      -6.060   7.869  73.638  1.00  0.00    -0.074 A  
HETATM   32  C   UNL     1      -6.480   7.016  72.621  1.00  0.00    -0.053 A  
HETATM   33  C   UNL     1      -7.838   6.757  72.443  1.00  0.00    -0.094 A  
ENDBRANCH  27  28
ENDBRANCH  26  27
ENDBRANCH  25  26
ENDBRANCH  24  25
ENDBRANCH  15  24
TORSDOF 5
ENDMDL
MODEL      104
REMARK 921   NORMALIZED FREE ENERGY PREDICTED BY IDOCK:   -4.00 KCAL/MOL
REMARK 922        TOTAL FREE ENERGY PREDICTED BY IDOCK:   -6.63 KCAL/MOL
REMARK 923 INTER-LIGAND FREE ENERGY PREDICTED BY IDOCK:   -6.31 KCAL/MOL
REMARK 924 INTRA-LIGAND FREE ENERGY PREDICTED BY IDOCK:   -0.32 KCAL/MOL
REMARK 927      BINDING AFFINITY PREDICTED BY RF-SCORE:    0.00 PKD
ROOT
HETATM    1  O   UNL     1     -10.356   4.142  66.446  1.00  0.00    -0.385 OA 
HETATM    2  C   UNL     1      -9.027   4.616  66.811  1.00  0.00    -0.112 C  
HETATM    3  H   UNL     1     -10.663   4.783  65.816  1.00  0.00     0.000 HD 
HETATM    4  C   UNL     1      -9.346   6.048  67.457  1.00  0.00    -0.113 C  
HETATM    5  C   UNL     1      -8.246   4.626  65.463  1.00  0.00    -0.115 A  
HETATM    6  C   UNL     1      -8.525   3.567  67.842  1.00  0.00    -0.108 A  
HETATM    7  C   UNL     1     -10.323   5.891  68.665  1.00  0.00    -0.271 C  
HETATM    8  C   UNL     1      -8.839   4.123  64.277  1.00  0.00    -0.139 A  
HETATM    9  C   UNL     1      -7.169   3.290  68.078  1.00  0.00    -0.050 A  
HETATM   10  C   UNL     1      -8.137   4.007  63.072  1.00  0.00    -0.080 A  
HETATM   11  C   UNL     1      -6.774   2.329  69.021  1.00  0.00    -0.033 A  
HETATM   12  C   UNL     1     -10.778   7.216  69.246  1.00  0.00    -0.215 C  
HETATM   13  C   UNL     1      -7.719   1.630  69.763  1.00  0.00    -0.044 A  
HETATM   14  C   UNL     1      -6.812   4.409  63.004  1.00  0.00    -0.038 A  
HETATM   15  N   UNL     1     -10.155   8.359  68.465  1.00  0.00    -0.192 N  
HETATM   16  C   UNL     1      -9.068   1.878  69.558  1.00  0.00    -0.161 A  
HETATM   17  C   UNL     1      -6.918   5.075  65.339  1.00  0.00    -0.062 A  
HETATM   18  C   UNL     1     -10.536   8.266  66.991  1.00  0.00    -0.314 C  
HETATM   19  C   UNL     1      -8.624   8.233  68.575  1.00  0.00    -0.133 C  
HETATM   20  C   UNL     1      -6.209   4.957  64.130  1.00  0.00    -0.022 A  
HETATM   21  C   UNL     1      -9.458   2.826  68.611  1.00  0.00    -0.191 A  
HETATM   22  C   UNL     1     -10.063   6.945  66.410  1.00  0.00    -0.043 C  
HETATM   23  C   UNL     1      -8.160   6.870  68.005  1.00  0.00    -0.115 C  
ENDROOT
BRANCH  15  24
HETATM   24  C   UNL     1     -10.617   9.724  69.056  1.00  0.00    -0.219 C  
BRANCH  24  25
HETATM   25  C   UNL     1     -10.753  10.834  67.993  1.00  0.00    -0.228 C  
BRANCH  25  26
HETATM   26  O   UNL     1     -10.529  12.110  68.576  1.00  0.00    -0.224 OA 
BRANCH  26  27
HETATM   27  C   UNL     1     -11.687  12.944  68.438  1.00  0.00    -0.345 C  
BRANCH  27  28
HETATM   28  C   UNL     1     -11.516  13.759  67.192  1.00  0.00    -0.365 A  
HETATM   29  C   UNL     1     -12.294  13.493  66.058  1.00  0.00    -0.486 A  
HETATM   30  C   UNL     1     -12.106  14.223  64.887  1.00  0.00    -0.442 A  
HETATM   31  C   UNL     1     -11.135  15.224  64.838  1.00  0.00    -0.435 A  
HETATM   32  C   UNL     1     -10.354  15.495  65.959  1.00  0.00    -0.342 A  
HETATM   33  C   UNL     1     -10.539  14.765  67.131  1.00  0.00    -0.285 A  
ENDBRANCH  27  28
ENDBRANCH  26  27
ENDBRANCH  25  26
ENDBRANCH  24  25
ENDBRANCH  15  24
TORSDOF 5
ENDMDL
MODEL      105
REMARK 921   NORMALIZED FREE ENERGY PREDICTED BY IDOCK:   -3.94 KCAL/MOL
REMARK 922        TOTAL FREE ENERGY PREDICTED BY IDOCK:   -6.56 KCAL/MOL
REMARK 923 INTER-LIGAND FREE ENERGY PREDICTED BY IDOCK:   -5.40 KCAL/MOL
REMARK 924 INTRA-LIGAND FREE ENERGY PREDICTED BY IDOCK:   -1.16 KCAL/MOL
REMARK 927      BINDING AFFINITY PREDICTED BY RF-SCORE:    0.00 PKD
ROOT
HETATM    1  O   UNL     1      -6.858   8.227  65.325  1.00  0.00    -0.058 OA 
HETATM    2  C   UNL     1      -8.035   8.905  65.854  1.00  0.00    -0.107 C  
HETATM    3  H   UNL     1      -6.545   7.707  66.055  1.00  0.00     0.000 HD 
HETATM    4  C   UNL     1      -7.411   9.780  67.045  1.00  0.00    -0.091 C  
HETATM    5  C   UNL     1      -8.983   7.743  66.276  1.00  0.00    -0.209 A  
HETATM    6  C   UNL     1      -8.547   9.757  64.659  1.00  0.00    -0.199 A  
HETATM    7  C   UNL     1      -6.314  10.743  66.492  1.00  0.00    -0.115 C  
HETATM    8  C   UNL     1      -8.644   6.394  66.000  1.00  0.00    -0.149 A  
HETATM    9  C   UNL     1      -9.883  10.155  64.499  1.00  0.00    -0.334 A  
HETATM   10  C   UNL     1      -9.515   5.329  66.256  1.00  0.00    -0.166 A  
HETATM   11  C   UNL     1     -10.288  10.923  63.396  1.00  0.00    -0.299 A  
HETATM   12  C   UNL     1      -5.583  11.509  67.578  1.00  0.00    -0.062 C  
HETATM   13  C   UNL     1      -9.371  11.326  62.435  1.00  0.00    -0.110 A  
HETATM   14  C   UNL     1     -10.757   5.574  66.818  1.00  0.00    -0.329 A  
HETATM   15  N   UNL     1      -6.123  11.108  68.939  1.00  0.00    -0.044 N  
HETATM   16  C   UNL     1      -8.040  10.954  62.561  1.00  0.00    -0.179 A  
HETATM   17  C   UNL     1     -10.229   7.944  66.897  1.00  0.00    -0.380 A  
HETATM   18  C   UNL     1      -5.968   9.606  69.152  1.00  0.00    -0.034 C  
HETATM   19  C   UNL     1      -7.626  11.447  68.975  1.00  0.00    -0.084 C  
HETATM   20  C   UNL     1     -11.108   6.877  67.153  1.00  0.00    -0.362 A  
HETATM   21  C   UNL     1      -7.642  10.180  63.652  1.00  0.00    -0.139 A  
HETATM   22  C   UNL     1      -6.716   8.844  68.071  1.00  0.00    -0.069 C  
HETATM   23  C   UNL     1      -8.369  10.684  67.850  1.00  0.00    -0.120 C  
ENDROOT
BRANCH  15  24
HETATM   24  C   UNL     1      -5.379  11.891  70.061  1.00  0.00    -0.095 C  
BRANCH  24  25
HETATM   25  C   UNL     1      -6.029  13.251  70.390  1.00  0.00    -0.124 C  
BRANCH  25  26
HETATM   26  O   UNL     1      -5.772  14.188  69.352  1.00  0.00    -0.083 OA 
BRANCH  26  27
HETATM   27  C   UNL     1      -6.633  15.328  69.471  1.00  0.00    -0.164 C  
BRANCH  27  28
HETATM   28  C   UNL     1      -7.869  15.051  68.670  1.00  0.00    -0.138 A  
HETATM   29  C   UNL     1      -9.138  15.237  69.237  1.00  0.00    -0.240 A  
HETATM   30  C   UNL     1     -10.286  14.940  68.506  1.00  0.00    -0.235 A  
HETATM   31  C   UNL     1     -10.176  14.450  67.204  1.00  0.00    -0.257 A  
HETATM   32  C   UNL     1      -8.921  14.259  66.633  1.00  0.00    -0.212 A  
HETATM   33  C   UNL     1      -7.771  14.554  67.361  1.00  0.00    -0.215 A  
ENDBRANCH  27  28
ENDBRANCH  26  27
ENDBRANCH  25  26
ENDBRANCH  24  25
ENDBRANCH  15  24
TORSDOF 5
ENDMDL
MODEL      106
REMARK 921   NORMALIZED FREE ENERGY PREDICTED BY IDOCK:   -3.94 KCAL/MOL
REMARK 922        TOTAL FREE ENERGY PREDICTED BY IDOCK:   -6.55 KCAL/MOL
REMARK 923 INTER-LIGAND FREE ENERGY PREDICTED BY IDOCK:   -5.82 KCAL/MOL
REMARK 924 INTRA-LIGAND FREE ENERGY PREDICTED BY IDOCK:   -0.73 KCAL/MOL
REMARK 927      BINDING AFFINITY PREDICTED BY RF-SCORE:    0.00 PKD
ROOT
HETATM    1  O   UNL     1      -9.805   6.313  66.783  1.00  0.00    -0.153 OA 
HETATM    2  C   UNL     1      -8.633   7.064  67.217  1.00  0.00    -0.121 C  
HETATM    3  H   UNL     1     -10.280   6.927  66.234  1.00  0.00     0.000 HD 
HETATM    4  C   UNL     1      -9.294   8.276  68.032  1.00  0.00    -0.141 C  
HETATM    5  C   UNL     1      -7.911   7.438  65.888  1.00  0.00    -0.118 A  
HETATM    6  C   UNL     1      -7.857   6.061  68.115  1.00  0.00    -0.106 A  
HETATM    7  C   UNL     1     -10.170   7.728  69.202  1.00  0.00    -0.210 C  
HETATM    8  C   UNL     1      -8.382   6.949  64.643  1.00  0.00     0.047 A  
HETATM    9  C   UNL     1      -6.471   6.114  68.329  1.00  0.00    -0.049 A  
HETATM   10  C   UNL     1      -7.701   7.165  63.440  1.00  0.00    -0.119 A  
HETATM   11  C   UNL     1      -5.823   5.178  69.149  1.00  0.00    -0.016 A  
HETATM   12  C   UNL     1     -10.936   8.811  69.938  1.00  0.00    -0.179 C  
HETATM   13  C   UNL     1      -6.540   4.176  69.789  1.00  0.00    -0.033 A  
HETATM   14  C   UNL     1      -6.525   7.898  63.436  1.00  0.00    -0.067 A  
HETATM   15  N   UNL     1     -10.643  10.162  69.311  1.00  0.00    -0.215 N  
HETATM   16  C   UNL     1      -7.912   4.093  69.604  1.00  0.00    -0.056 A  
HETATM   17  C   UNL     1      -6.745   8.224  65.833  1.00  0.00    -0.053 A  
HETATM   18  C   UNL     1     -11.020  10.155  67.833  1.00  0.00    -0.277 C  
HETATM   19  C   UNL     1      -9.129  10.420  69.419  1.00  0.00    -0.152 C  
HETATM   20  C   UNL     1      -6.057   8.441  64.626  1.00  0.00    -0.064 A  
HETATM   21  C   UNL     1      -8.553   5.017  68.777  1.00  0.00    -0.090 A  
HETATM   22  C   UNL     1     -10.239   9.081  67.098  1.00  0.00    -0.334 C  
HETATM   23  C   UNL     1      -8.345   9.302  68.689  1.00  0.00    -0.118 C  
ENDROOT
BRANCH  15  24
HETATM   24  C   UNL     1     -11.425  11.280  70.062  1.00  0.00    -0.275 C  
BRANCH  24  25
HETATM   25  C   UNL     1     -11.171  12.691  69.490  1.00  0.00    -0.082 C  
BRANCH  25  26
HETATM   26  O   UNL     1     -12.150  13.015  68.513  1.00  0.00    -0.297 OA 
BRANCH  26  27
HETATM   27  C   UNL     1     -11.663  14.024  67.619  1.00  0.00    -0.377 C  
BRANCH  27  28
HETATM   28  C   UNL     1     -11.566  13.415  66.253  1.00  0.00    -0.378 A  
HETATM   29  C   UNL     1     -10.340  13.386  65.575  1.00  0.00    -0.302 A  
HETATM   30  C   UNL     1     -10.260  12.858  64.288  1.00  0.00    -0.337 A  
HETATM   31  C   UNL     1     -11.405  12.360  63.666  1.00  0.00    -0.556 A  
HETATM   32  C   UNL     1     -12.629  12.387  64.330  1.00  0.00    -0.494 A  
HETATM   33  C   UNL     1     -12.713  12.915  65.616  1.00  0.00    -0.100 A  
ENDBRANCH  27  28
ENDBRANCH  26  27
ENDBRANCH  25  26
ENDBRANCH  24  25
ENDBRANCH  15  24
TORSDOF 5
ENDMDL
MODEL      107
REMARK 921   NORMALIZED FREE ENERGY PREDICTED BY IDOCK:   -3.89 KCAL/MOL
REMARK 922        TOTAL FREE ENERGY PREDICTED BY IDOCK:   -6.49 KCAL/MOL
REMARK 923 INTER-LIGAND FREE ENERGY PREDICTED BY IDOCK:   -5.24 KCAL/MOL
REMARK 924 INTRA-LIGAND FREE ENERGY PREDICTED BY IDOCK:   -1.24 KCAL/MOL
REMARK 927      BINDING AFFINITY PREDICTED BY RF-SCORE:    0.00 PKD
ROOT
HETATM    1  O   UNL     1      -9.926   5.409  65.707  1.00  0.00    -0.350 OA 
HETATM    2  C   UNL     1      -8.767   5.718  66.535  1.00  0.00    -0.123 C  
HETATM    3  H   UNL     1     -10.086   6.214  65.227  1.00  0.00     0.000 HD 
HETATM    4  C   UNL     1      -9.317   6.914  67.451  1.00  0.00    -0.144 C  
HETATM    5  C   UNL     1      -7.657   6.091  65.507  1.00  0.00    -0.085 A  
HETATM    6  C   UNL     1      -8.506   4.403  67.320  1.00  0.00    -0.104 A  
HETATM    7  C   UNL     1     -10.570   6.447  68.256  1.00  0.00    -0.312 C  
HETATM    8  C   UNL     1      -7.888   5.969  64.113  1.00  0.00    -0.117 A  
HETATM    9  C   UNL     1      -7.250   4.030  67.824  1.00  0.00    -0.063 A  
HETATM   10  C   UNL     1      -6.886   6.182  63.160  1.00  0.00    -0.044 A  
HETATM   11  C   UNL     1      -7.073   2.827  68.524  1.00  0.00    -0.048 A  
HETATM   12  C   UNL     1     -11.229   7.562  69.045  1.00  0.00     0.269 C  
HETATM   13  C   UNL     1      -8.145   1.973  68.754  1.00  0.00    -0.066 A  
HETATM   14  C   UNL     1      -5.612   6.547  63.568  1.00  0.00    -0.030 A  
HETATM   15  N   UNL     1     -10.477   8.862  68.819  1.00  0.00    -0.216 N  
HETATM   16  C   UNL     1      -9.402   2.310  68.274  1.00  0.00    -0.267 A  
HETATM   17  C   UNL     1      -6.368   6.517  65.877  1.00  0.00    -0.039 A  
HETATM   18  C   UNL     1     -10.448   9.207  67.334  1.00  0.00    -0.271 C  
HETATM   19  C   UNL     1      -9.027   8.664  69.296  1.00  0.00    -0.145 C  
HETATM   20  C   UNL     1      -5.358   6.730  64.922  1.00  0.00    -0.027 A  
HETATM   21  C   UNL     1      -9.572   3.501  67.567  1.00  0.00    -0.177 A  
HETATM   22  C   UNL     1      -9.773   8.095  66.550  1.00  0.00    -0.309 C  
HETATM   23  C   UNL     1      -8.361   7.508  68.508  1.00  0.00    -0.126 C  
ENDROOT
BRANCH  15  24
HETATM   24  C   UNL     1     -11.147  10.013  69.627  1.00  0.00    -0.259 C  
BRANCH  24  25
HETATM   25  C   UNL     1     -12.021   9.510  70.794  1.00  0.00    -0.252 C  
BRANCH  25  26
HETATM   26  O   UNL     1     -11.226   9.296  71.953  1.00  0.00    -0.370 OA 
BRANCH  26  27
HETATM   27  C   UNL     1     -11.553   8.045  72.571  1.00  0.00    -0.403 C  
BRANCH  27  28
HETATM   28  C   UNL     1     -10.307   7.212  72.603  1.00  0.00    -0.246 A  
HETATM   29  C   UNL     1     -10.234   6.018  71.874  1.00  0.00    -0.237 A  
HETATM   30  C   UNL     1      -9.091   5.223  71.938  1.00  0.00    -0.153 A  
HETATM   31  C   UNL     1      -8.014   5.613  72.734  1.00  0.00    -0.102 A  
HETATM   32  C   UNL     1      -8.078   6.797  73.465  1.00  0.00    -0.115 A  
HETATM   33  C   UNL     1      -9.220   7.593  73.404  1.00  0.00    -0.311 A  
ENDBRANCH  27  28
ENDBRANCH  26  27
ENDBRANCH  25  26
ENDBRANCH  24  25
ENDBRANCH  15  24
TORSDOF 5
ENDMDL
MODEL      108
REMARK 921   NORMALIZED FREE ENERGY PREDICTED BY IDOCK:   -3.86 KCAL/MOL
REMARK 922        TOTAL FREE ENERGY PREDICTED BY IDOCK:   -6.46 KCAL/MOL
REMARK 923 INTER-LIGAND FREE ENERGY PREDICTED BY IDOCK:   -5.69 KCAL/MOL
REMARK 924 INTRA-LIGAND FREE ENERGY PREDICTED BY IDOCK:   -0.77 KCAL/MOL
REMARK 927      BINDING AFFINITY PREDICTED BY RF-SCORE:    0.00 PKD
ROOT
HETATM    1  O   UNL     1      -9.574   7.636  72.438  1.00  0.00    -0.151 OA 
HETATM    2  C   UNL     1     -10.467   6.670  71.809  1.00  0.00    -0.209 C  
HETATM    3  H   UNL     1      -9.632   8.400  71.877  1.00  0.00     0.000 HD 
HETATM    4  C   UNL     1      -9.783   6.467  70.373  1.00  0.00    -0.183 C  
HETATM    5  C   UNL     1     -11.855   7.376  71.819  1.00  0.00    -0.327 A  
HETATM    6  C   UNL     1     -10.371   5.418  72.725  1.00  0.00    -0.235 A  
HETATM    7  C   UNL     1      -8.314   5.966  70.538  1.00  0.00    -0.123 C  
HETATM    8  C   UNL     1     -12.028   8.628  72.462  1.00  0.00    -0.358 A  
HETATM    9  C   UNL     1     -11.388   4.460  72.848  1.00  0.00    -0.113 A  
HETATM   10  C   UNL     1     -13.278   9.243  72.595  1.00  0.00    -0.333 A  
HETATM   11  C   UNL     1     -11.247   3.349  73.694  1.00  0.00    -0.278 A  
HETATM   12  C   UNL     1      -7.557   5.877  69.227  1.00  0.00    -0.089 C  
HETATM   13  C   UNL     1     -10.083   3.158  74.428  1.00  0.00    -0.190 A  
HETATM   14  C   UNL     1     -14.406   8.632  72.068  1.00  0.00    -0.512 A  
HETATM   15  N   UNL     1      -8.454   6.325  68.086  1.00  0.00    -0.114 N  
HETATM   16  C   UNL     1      -9.054   4.083  74.331  1.00  0.00    -0.109 A  
HETATM   17  C   UNL     1     -13.014   6.817  71.250  1.00  0.00    -0.216 A  
HETATM   18  C   UNL     1      -8.944   7.750  68.323  1.00  0.00    -0.131 C  
HETATM   19  C   UNL     1      -9.681   5.395  68.051  1.00  0.00    -0.136 C  
HETATM   20  C   UNL     1     -14.272   7.431  71.383  1.00  0.00    -0.508 A  
HETATM   21  C   UNL     1      -9.202   5.193  73.498  1.00  0.00    -0.130 A  
HETATM   22  C   UNL     1      -9.715   7.829  69.630  1.00  0.00    -0.172 C  
HETATM   23  C   UNL     1     -10.441   5.465  69.399  1.00  0.00    -0.331 C  
ENDROOT
BRANCH  15  24
HETATM   24  C   UNL     1      -7.685   6.238  66.735  1.00  0.00    -0.100 C  
BRANCH  24  25
HETATM   25  C   UNL     1      -6.239   6.771  66.821  1.00  0.00    -0.040 C  
BRANCH  25  26
HETATM   26  O   UNL     1      -6.157   8.073  66.256  1.00  0.00    -0.043 OA 
BRANCH  26  27
HETATM   27  C   UNL     1      -5.173   8.862  66.937  1.00  0.00    -0.039 C  
BRANCH  27  28
HETATM   28  C   UNL     1      -5.876  10.033  67.555  1.00  0.00    -0.049 A  
HETATM   29  C   UNL     1      -5.483  10.514  68.811  1.00  0.00    -0.041 A  
HETATM   30  C   UNL     1      -6.163  11.575  69.403  1.00  0.00    -0.094 A  
HETATM   31  C   UNL     1      -7.245  12.162  68.748  1.00  0.00    -0.103 A  
HETATM   32  C   UNL     1      -7.646  11.690  67.500  1.00  0.00    -0.128 A  
HETATM   33  C   UNL     1      -6.968  10.628  66.906  1.00  0.00    -0.100 A  
ENDBRANCH  27  28
ENDBRANCH  26  27
ENDBRANCH  25  26
ENDBRANCH  24  25
ENDBRANCH  15  24
TORSDOF 5
ENDMDL
MODEL      109
REMARK 921   NORMALIZED FREE ENERGY PREDICTED BY IDOCK:   -3.86 KCAL/MOL
REMARK 922        TOTAL FREE ENERGY PREDICTED BY IDOCK:   -6.45 KCAL/MOL
REMARK 923 INTER-LIGAND FREE ENERGY PREDICTED BY IDOCK:   -5.72 KCAL/MOL
REMARK 924 INTRA-LIGAND FREE ENERGY PREDICTED BY IDOCK:   -0.73 KCAL/MOL
REMARK 927      BINDING AFFINITY PREDICTED BY RF-SCORE:    0.00 PKD
ROOT
HETATM    1  O   UNL     1      -9.922   3.988  70.947  1.00  0.00    -0.183 OA 
HETATM    2  C   UNL     1      -9.112   5.197  70.859  1.00  0.00    -0.140 C  
HETATM    3  H   UNL     1      -9.317   3.290  70.724  1.00  0.00     0.000 HD 
HETATM    4  C   UNL     1      -8.674   5.196  69.317  1.00  0.00    -0.108 C  
HETATM    5  C   UNL     1      -7.975   4.967  71.899  1.00  0.00    -0.111 A  
HETATM    6  C   UNL     1     -10.102   6.338  71.223  1.00  0.00    -0.222 A  
HETATM    7  C   UNL     1      -9.935   5.203  68.395  1.00  0.00    -0.214 C  
HETATM    8  C   UNL     1      -7.980   3.825  72.739  1.00  0.00    -0.081 A  
HETATM    9  C   UNL     1      -9.709   7.568  71.773  1.00  0.00    -0.187 A  
HETATM   10  C   UNL     1      -7.045   3.636  73.763  1.00  0.00    -0.048 A  
HETATM   11  C   UNL     1     -10.649   8.562  72.085  1.00  0.00    -0.419 A  
HETATM   12  C   UNL     1      -9.604   5.068  66.922  1.00  0.00    -0.154 C  
HETATM   13  C   UNL     1     -12.002   8.362  71.844  1.00  0.00    -0.397 A  
HETATM   14  C   UNL     1      -6.053   4.581  73.973  1.00  0.00    -0.040 A  
HETATM   15  N   UNL     1      -8.101   4.947  66.743  1.00  0.00    -0.107 N  
HETATM   16  C   UNL     1     -12.428   7.160  71.299  1.00  0.00    -0.425 A  
HETATM   17  C   UNL     1      -6.921   5.875  72.109  1.00  0.00    -0.078 A  
HETATM   18  C   UNL     1      -7.569   3.747  67.520  1.00  0.00    -0.067 C  
HETATM   19  C   UNL     1      -7.448   6.219  67.316  1.00  0.00    -0.084 C  
HETATM   20  C   UNL     1      -5.980   5.689  73.138  1.00  0.00    -0.040 A  
HETATM   21  C   UNL     1     -11.493   6.168  71.001  1.00  0.00    -0.316 A  
HETATM   22  C   UNL     1      -7.888   3.895  68.997  1.00  0.00    -0.056 C  
HETATM   23  C   UNL     1      -7.806   6.371  68.815  1.00  0.00    -0.109 C  
ENDROOT
BRANCH  15  24
HETATM   24  C   UNL     1      -7.752   4.808  65.232  1.00  0.00    -0.086 C  
BRANCH  24  25
HETATM   25  C   UNL     1      -7.176   6.102  64.618  1.00  0.00    -0.064 C  
BRANCH  25  26
HETATM   26  O   UNL     1      -8.224   6.931  64.135  1.00  0.00    -0.065 OA 
BRANCH  26  27
HETATM   27  C   UNL     1      -7.747   8.258  63.878  1.00  0.00    -0.141 C  
BRANCH  27  28
HETATM   28  C   UNL     1      -8.721   9.220  64.488  1.00  0.00    -0.218 A  
HETATM   29  C   UNL     1      -9.222   9.000  65.778  1.00  0.00    -0.293 A  
HETATM   30  C   UNL     1     -10.159   9.872  66.327  1.00  0.00    -0.311 A  
HETATM   31  C   UNL     1     -10.607  10.969  65.590  1.00  0.00    -0.263 A  
HETATM   32  C   UNL     1     -10.118  11.195  64.306  1.00  0.00    -0.382 A  
HETATM   33  C   UNL     1      -9.181  10.324  63.753  1.00  0.00    -0.312 A  
ENDBRANCH  27  28
ENDBRANCH  26  27
ENDBRANCH  25  26
ENDBRANCH  24  25
ENDBRANCH  15  24
TORSDOF 5
ENDMDL
MODEL      110
REMARK 921   NORMALIZED FREE ENERGY PREDICTED BY IDOCK:   -3.83 KCAL/MOL
REMARK 922        TOTAL FREE ENERGY PREDICTED BY IDOCK:   -6.41 KCAL/MOL
REMARK 923 INTER-LIGAND FREE ENERGY PREDICTED BY IDOCK:   -4.68 KCAL/MOL
REMARK 924 INTRA-LIGAND FREE ENERGY PREDICTED BY IDOCK:   -1.73 KCAL/MOL
REMARK 927      BINDING AFFINITY PREDICTED BY RF-SCORE:    0.00 PKD
ROOT
HETATM    1  O   UNL     1     -10.639  10.265  65.422  1.00  0.00    -0.152 OA 
HETATM    2  C   UNL     1      -9.600  10.954  66.179  1.00  0.00    -0.202 C  
HETATM    3  H   UNL     1     -11.449  10.574  65.811  1.00  0.00     0.000 HD 
HETATM    4  C   UNL     1      -9.849  10.407  67.665  1.00  0.00    -0.197 C  
HETATM    5  C   UNL     1      -9.898  12.464  65.940  1.00  0.00    -0.265 A  
HETATM    6  C   UNL     1      -8.275  10.447  65.544  1.00  0.00    -0.162 A  
HETATM    7  C   UNL     1      -9.736   8.850  67.696  1.00  0.00    -0.202 C  
HETATM    8  C   UNL     1     -10.921  12.870  65.046  1.00  0.00    -0.324 A  
HETATM    9  C   UNL     1      -7.075  11.173  65.557  1.00  0.00     0.352 A  
HETATM   10  C   UNL     1     -11.147  14.211  64.715  1.00  0.00    -0.393 A  
HETATM   11  C   UNL     1      -5.908  10.666  64.964  1.00  0.00    -0.072 A  
HETATM   12  C   UNL     1     -10.090   8.247  69.041  1.00  0.00    -0.202 C  
HETATM   13  C   UNL     1      -5.904   9.416  64.357  1.00  0.00    -0.072 A  
HETATM   14  C   UNL     1     -10.364  15.202  65.284  1.00  0.00    -0.425 A  
HETATM   15  N   UNL     1     -10.482   9.350  70.009  1.00  0.00    -0.218 N  
HETATM   16  C   UNL     1      -7.072   8.668  64.327  1.00  0.00    -0.089 A  
HETATM   17  C   UNL     1      -9.163  13.504  66.539  1.00  0.00    -0.187 A  
HETATM   18  C   UNL     1     -11.658  10.148  69.458  1.00  0.00    -0.118 C  
HETATM   19  C   UNL     1      -9.281  10.302  70.158  1.00  0.00     0.273 C  
HETATM   20  C   UNL     1      -9.386  14.852  66.207  1.00  0.00    -0.329 A  
HETATM   21  C   UNL     1      -8.234   9.180  64.906  1.00  0.00    -0.154 A  
HETATM   22  C   UNL     1     -11.292  10.764  68.118  1.00  0.00    -0.377 C  
HETATM   23  C   UNL     1      -8.902  10.899  68.780  1.00  0.00    -0.162 C  
ENDROOT
BRANCH  15  24
HETATM   24  C   UNL     1     -10.847   8.739  71.395  1.00  0.00    -0.289 C  
BRANCH  24  25
HETATM   25  C   UNL     1      -9.645   8.653  72.359  1.00  0.00    -0.235 C  
BRANCH  25  26
HETATM   26  O   UNL     1      -8.899   7.469  72.118  1.00  0.00    -0.121 OA 
BRANCH  26  27
HETATM   27  C   UNL     1      -7.492   7.724  72.214  1.00  0.00    -0.083 C  
BRANCH  27  28
HETATM   28  C   UNL     1      -6.948   7.816  70.821  1.00  0.00    -0.046 A  
HETATM   29  C   UNL     1      -7.038   6.721  69.951  1.00  0.00    -0.071 A  
HETATM   30  C   UNL     1      -6.494   6.793  68.670  1.00  0.00    -0.040 A  
HETATM   31  C   UNL     1      -5.853   7.958  68.250  1.00  0.00    -0.036 A  
HETATM   32  C   UNL     1      -5.756   9.051  69.107  1.00  0.00    -0.036 A  
HETATM   33  C   UNL     1      -6.297   8.982  70.389  1.00  0.00    -0.044 A  
ENDBRANCH  27  28
ENDBRANCH  26  27
ENDBRANCH  25  26
ENDBRANCH  24  25
ENDBRANCH  15  24
TORSDOF 5
ENDMDL
MODEL      111
REMARK 921   NORMALIZED FREE ENERGY PREDICTED BY IDOCK:   -3.79 KCAL/MOL
REMARK 922        TOTAL FREE ENERGY PREDICTED BY IDOCK:   -6.36 KCAL/MOL
REMARK 923 INTER-LIGAND FREE ENERGY PREDICTED BY IDOCK:   -5.92 KCAL/MOL
REMARK 924 INTRA-LIGAND FREE ENERGY PREDICTED BY IDOCK:   -0.44 KCAL/MOL
REMARK 927      BINDING AFFINITY PREDICTED BY RF-SCORE:    0.00 PKD
ROOT
HETATM    1  O   UNL     1      -8.693  13.430  66.510  1.00  0.00    -0.440 OA 
HETATM    2  C   UNL     1      -9.922  12.811  66.995  1.00  0.00    -0.231 C  
HETATM    3  H   UNL     1      -8.415  12.861  65.802  1.00  0.00     0.000 HD 
HETATM    4  C   UNL     1      -9.403  11.378  67.490  1.00  0.00    -0.166 C  
HETATM    5  C   UNL     1     -10.862  12.814  65.752  1.00  0.00    -0.299 A  
HETATM    6  C   UNL     1     -10.378  13.742  68.153  1.00  0.00    -0.252 A  
HETATM    7  C   UNL     1      -8.300  11.548  68.581  1.00  0.00    -0.123 C  
HETATM    8  C   UNL     1     -10.467  13.443  64.545  1.00  0.00    -0.431 A  
HETATM    9  C   UNL     1     -11.711  13.875  68.569  1.00  0.00    -0.390 A  
HETATM   10  C   UNL     1     -11.322  13.570  63.444  1.00  0.00     0.347 A  
HETATM   11  C   UNL     1     -12.065  14.733  69.622  1.00  0.00    -0.346 A  
HETATM   12  C   UNL     1      -7.664  10.237  69.004  1.00  0.00    -0.110 C  
HETATM   13  C   UNL     1     -11.098  15.469  70.295  1.00  0.00    -0.345 A  
HETATM   14  C   UNL     1     -12.606  13.050  63.505  1.00  0.00    -0.262 A  
HETATM   15  N   UNL     1      -8.281   9.092  68.220  1.00  0.00    -0.115 N  
HETATM   16  C   UNL     1      -9.769  15.361  69.913  1.00  0.00    -0.154 A  
HETATM   17  C   UNL     1     -12.152  12.251  65.754  1.00  0.00    -0.287 A  
HETATM   18  C   UNL     1      -8.097   9.314  66.723  1.00  0.00    -0.112 C  
HETATM   19  C   UNL     1      -9.791   9.068  68.521  1.00  0.00    -0.169 C  
HETATM   20  C   UNL     1     -13.014  12.378  64.651  1.00  0.00    -0.094 A  
HETATM   21  C   UNL     1      -9.421  14.516  68.858  1.00  0.00    -0.144 A  
HETATM   22  C   UNL     1      -8.750  10.619  66.302  1.00  0.00    -0.163 C  
HETATM   23  C   UNL     1     -10.437  10.415  68.113  1.00  0.00    -0.221 C  
ENDROOT
BRANCH  15  24
HETATM   24  C   UNL     1      -7.634   7.742  68.649  1.00  0.00    -0.105 C  
BRANCH  24  25
HETATM   25  C   UNL     1      -8.602   6.821  69.421  1.00  0.00    -0.132 C  
BRANCH  25  26
HETATM   26  O   UNL     1      -8.491   5.483  68.955  1.00  0.00    -0.100 OA 
BRANCH  26  27
HETATM   27  C   UNL     1      -9.735   5.030  68.406  1.00  0.00    -0.152 C  
BRANCH  27  28
HETATM   28  C   UNL     1      -9.430   4.265  67.154  1.00  0.00    -0.204 A  
HETATM   29  C   UNL     1      -8.887   2.975  67.225  1.00  0.00    -0.160 A  
HETATM   30  C   UNL     1      -8.564   2.282  66.061  1.00  0.00    -0.111 A  
HETATM   31  C   UNL     1      -8.777   2.873  64.815  1.00  0.00    -0.106 A  
HETATM   32  C   UNL     1      -9.313   4.155  64.733  1.00  0.00    -0.164 A  
HETATM   33  C   UNL     1      -9.636   4.852  65.896  1.00  0.00    -0.185 A  
ENDBRANCH  27  28
ENDBRANCH  26  27
ENDBRANCH  25  26
ENDBRANCH  24  25
ENDBRANCH  15  24
TORSDOF 5
ENDMDL
MODEL      112
REMARK 921   NORMALIZED FREE ENERGY PREDICTED BY IDOCK:   -3.74 KCAL/MOL
REMARK 922        TOTAL FREE ENERGY PREDICTED BY IDOCK:   -6.30 KCAL/MOL
REMARK 923 INTER-LIGAND FREE ENERGY PREDICTED BY IDOCK:   -5.58 KCAL/MOL
REMARK 924 INTRA-LIGAND FREE ENERGY PREDICTED BY IDOCK:   -0.72 KCAL/MOL
REMARK 927      BINDING AFFINITY PREDICTED BY RF-SCORE:    0.00 PKD
ROOT
HETATM    1  O   UNL     1     -10.081   7.952  69.118  1.00  0.00    -0.186 OA 
HETATM    2  C   UNL     1      -8.759   7.571  68.636  1.00  0.00    -0.128 C  
HETATM    3  H   UNL     1     -10.494   8.352  68.362  1.00  0.00     0.000 HD 
HETATM    4  C   UNL     1      -8.127   8.989  68.234  1.00  0.00    -0.109 C  
HETATM    5  C   UNL     1      -9.053   6.589  67.462  1.00  0.00    -0.115 A  
HETATM    6  C   UNL     1      -8.082   6.917  69.873  1.00  0.00    -0.125 A  
HETATM    7  C   UNL     1      -8.106   9.943  69.470  1.00  0.00    -0.155 C  
HETATM    8  C   UNL     1     -10.379   6.183  67.171  1.00  0.00    -0.286 A  
HETATM    9  C   UNL     1      -7.059   5.961  69.789  1.00  0.00    -0.068 A  
HETATM   10  C   UNL     1     -10.679   5.217  66.203  1.00  0.00    -0.211 A  
HETATM   11  C   UNL     1      -6.486   5.402  70.943  1.00  0.00    -0.035 A  
HETATM   12  C   UNL     1      -7.645  11.349  69.137  1.00  0.00    -0.038 C  
HETATM   13  C   UNL     1      -6.908   5.793  72.207  1.00  0.00    -0.073 A  
HETATM   14  C   UNL     1      -9.655   4.632  65.474  1.00  0.00    -0.187 A  
HETATM   15  N   UNL     1      -7.337  11.449  67.654  1.00  0.00    -0.097 N  
HETATM   16  C   UNL     1      -7.916   6.739  72.329  1.00  0.00    -0.095 A  
HETATM   17  C   UNL     1      -8.048   6.013  66.663  1.00  0.00    -0.106 A  
HETATM   18  C   UNL     1      -8.566  11.083  66.829  1.00  0.00    -0.152 C  
HETATM   19  C   UNL     1      -6.221  10.438  67.329  1.00  0.00    -0.058 C  
HETATM   20  C   UNL     1      -8.345   5.040  65.692  1.00  0.00    -0.120 A  
HETATM   21  C   UNL     1      -8.492   7.284  71.181  1.00  0.00    -0.116 A  
HETATM   22  C   UNL     1      -9.013   9.668  67.154  1.00  0.00    -0.148 C  
HETATM   23  C   UNL     1      -6.681   9.004  67.692  1.00  0.00    -0.065 C  
ENDROOT
BRANCH  15  24
HETATM   24  C   UNL     1      -6.862  12.890  67.303  1.00  0.00    -0.057 C  
BRANCH  24  25
HETATM   25  C   UNL     1      -7.140  13.913  68.425  1.00  0.00    -0.104 C  
BRANCH  25  26
HETATM   26  O   UNL     1      -8.356  14.605  68.174  1.00  0.00    -0.132 OA 
BRANCH  26  27
HETATM   27  C   UNL     1      -8.507  14.880  66.776  1.00  0.00    -0.180 C  
BRANCH  27  28
HETATM   28  C   UNL     1      -9.937  14.621  66.411  1.00  0.00    -0.296 A  
HETATM   29  C   UNL     1     -10.800  14.000  67.324  1.00  0.00    -0.288 A  
HETATM   30  C   UNL     1     -12.118  13.721  66.968  1.00  0.00    -0.436 A  
HETATM   31  C   UNL     1     -12.583  14.055  65.696  1.00  0.00    -0.542 A  
HETATM   32  C   UNL     1     -11.733  14.669  64.780  1.00  0.00    -0.429 A  
HETATM   33  C   UNL     1     -10.414  14.949  65.132  1.00  0.00    -0.442 A  
ENDBRANCH  27  28
ENDBRANCH  26  27
ENDBRANCH  25  26
ENDBRANCH  24  25
ENDBRANCH  15  24
TORSDOF 5
ENDMDL
MODEL      113
REMARK 921   NORMALIZED FREE ENERGY PREDICTED BY IDOCK:   -3.70 KCAL/MOL
REMARK 922        TOTAL FREE ENERGY PREDICTED BY IDOCK:   -6.25 KCAL/MOL
REMARK 923 INTER-LIGAND FREE ENERGY PREDICTED BY IDOCK:   -5.64 KCAL/MOL
REMARK 924 INTRA-LIGAND FREE ENERGY PREDICTED BY IDOCK:   -0.61 KCAL/MOL
REMARK 927      BINDING AFFINITY PREDICTED BY RF-SCORE:    0.00 PKD
ROOT
HETATM    1  O   UNL     1     -12.865  14.300  68.140  1.00  0.00     0.015 OA 
HETATM    2  C   UNL     1     -11.665  14.241  68.967  1.00  0.00    -0.317 C  
HETATM    3  H   UNL     1     -12.547  14.130  67.261  1.00  0.00     0.000 HD 
HETATM    4  C   UNL     1     -10.782  15.434  68.362  1.00  0.00    -0.256 C  
HETATM    5  C   UNL     1     -11.123  12.798  68.742  1.00  0.00    -0.303 A  
HETATM    6  C   UNL     1     -12.186  14.521  70.404  1.00  0.00    -0.394 A  
HETATM    7  C   UNL     1     -11.557  16.785  68.457  1.00  0.00     0.221 C  
HETATM    8  C   UNL     1     -11.854  11.860  67.969  1.00  0.00    -0.323 A  
HETATM    9  C   UNL     1     -11.546  14.070  71.569  1.00  0.00     0.633 A  
HETATM   10  C   UNL     1     -11.463  10.522  67.837  1.00  0.00    -0.190 A  
HETATM   11  C   UNL     1     -12.065  14.351  72.842  1.00  0.00     0.006 A  
HETATM   12  C   UNL     1     -10.840  17.939  67.784  1.00  0.00    -0.223 C  
HETATM   13  C   UNL     1     -13.225  15.101  72.988  1.00  0.00    -0.604 A  
HETATM   14  C   UNL     1     -10.309  10.076  68.462  1.00  0.00    -0.217 A  
HETATM   15  N   UNL     1      -9.539  17.448  67.173  1.00  0.00    -0.258 N  
HETATM   16  C   UNL     1     -13.884  15.566  71.859  1.00  0.00    -0.589 A  
HETATM   17  C   UNL     1      -9.930  12.320  69.315  1.00  0.00     0.482 A  
HETATM   18  C   UNL     1      -9.810  16.332  66.170  1.00  0.00    -0.334 C  
HETATM   19  C   UNL     1      -8.667  16.875  68.306  1.00  0.00    -0.235 C  
HETATM   20  C   UNL     1      -9.536  10.976  69.186  1.00  0.00    -0.064 A  
HETATM   21  C   UNL     1     -13.373  15.274  70.594  1.00  0.00    -0.320 A  
HETATM   22  C   UNL     1     -10.514  15.172  66.854  1.00  0.00    -0.282 C  
HETATM   23  C   UNL     1      -9.409  15.713  69.012  1.00  0.00    -0.243 C  
ENDROOT
BRANCH  15  24
HETATM   24  C   UNL     1      -8.796  18.628  66.480  1.00  0.00    -0.304 C  
BRANCH  24  25
HETATM   25  C   UNL     1      -7.282  18.379  66.310  1.00  0.00    -0.256 C  
BRANCH  25  26
HETATM   26  O   UNL     1      -6.536  19.383  66.983  1.00  0.00    -0.193 OA 
BRANCH  26  27
HETATM   27  C   UNL     1      -5.202  18.932  67.253  1.00  0.00    -0.155 C  
BRANCH  27  28
HETATM   28  C   UNL     1      -5.236  18.144  68.528  1.00  0.00    -0.160 A  
HETATM   29  C   UNL     1      -5.262  16.743  68.495  1.00  0.00    -0.118 A  
HETATM   30  C   UNL     1      -5.336  16.013  69.679  1.00  0.00    -0.118 A  
HETATM   31  C   UNL     1      -5.390  16.675  70.905  1.00  0.00    -0.100 A  
HETATM   32  C   UNL     1      -5.368  18.067  70.949  1.00  0.00    -0.228 A  
HETATM   33  C   UNL     1      -5.295  18.801  69.767  1.00  0.00    -0.211 A  
ENDBRANCH  27  28
ENDBRANCH  26  27
ENDBRANCH  25  26
ENDBRANCH  24  25
ENDBRANCH  15  24
TORSDOF 5
ENDMDL
MODEL      114
REMARK 921   NORMALIZED FREE ENERGY PREDICTED BY IDOCK:   -3.60 KCAL/MOL
REMARK 922        TOTAL FREE ENERGY PREDICTED BY IDOCK:   -6.11 KCAL/MOL
REMARK 923 INTER-LIGAND FREE ENERGY PREDICTED BY IDOCK:   -5.50 KCAL/MOL
REMARK 924 INTRA-LIGAND FREE ENERGY PREDICTED BY IDOCK:   -0.61 KCAL/MOL
REMARK 927      BINDING AFFINITY PREDICTED BY RF-SCORE:    0.00 PKD
ROOT
HETATM    1  O   UNL     1     -10.035   3.397  67.173  1.00  0.00    -0.295 OA 
HETATM    2  C   UNL     1      -8.922   4.209  66.694  1.00  0.00    -0.125 C  
HETATM    3  H   UNL     1     -10.804   3.905  66.943  1.00  0.00     0.000 HD 
HETATM    4  C   UNL     1      -9.088   5.549  67.557  1.00  0.00    -0.107 C  
HETATM    5  C   UNL     1      -9.180   4.337  65.163  1.00  0.00    -0.151 A  
HETATM    6  C   UNL     1      -7.663   3.379  67.071  1.00  0.00    -0.079 A  
HETATM    7  C   UNL     1      -9.030   5.223  69.083  1.00  0.00    -0.124 C  
HETATM    8  C   UNL     1     -10.247   3.636  64.545  1.00  0.00    -0.176 A  
HETATM    9  C   UNL     1      -6.439   3.464  66.391  1.00  0.00    -0.036 A  
HETATM   10  C   UNL     1     -10.445   3.630  63.160  1.00  0.00    -0.225 A  
HETATM   11  C   UNL     1      -5.335   2.687  66.775  1.00  0.00    -0.013 A  
HETATM   12  C   UNL     1      -9.313   6.423  69.966  1.00  0.00    -0.156 C  
HETATM   13  C   UNL     1      -5.419   1.817  67.855  1.00  0.00    -0.017 A  
HETATM   14  C   UNL     1      -9.589   4.347  62.339  1.00  0.00    -0.121 A  
HETATM   15  N   UNL     1      -9.596   7.639  69.103  1.00  0.00    -0.154 N  
HETATM   16  C   UNL     1      -6.612   1.708  68.554  1.00  0.00    -0.029 A  
HETATM   17  C   UNL     1      -8.368   5.096  64.300  1.00  0.00    -0.137 A  
HETATM   18  C   UNL     1     -10.778   7.370  68.177  1.00  0.00    -0.110 C  
HETATM   19  C   UNL     1      -8.354   7.906  68.233  1.00  0.00    -0.124 C  
HETATM   20  C   UNL     1      -8.564   5.091  62.908  1.00  0.00    -0.114 A  
HETATM   21  C   UNL     1      -7.712   2.473  68.162  1.00  0.00    -0.055 A  
HETATM   22  C   UNL     1     -10.482   6.178  67.283  1.00  0.00    -0.317 C  
HETATM   23  C   UNL     1      -8.049   6.672  67.348  1.00  0.00    -0.121 C  
ENDROOT
BRANCH  15  24
HETATM   24  C   UNL     1      -9.888   8.877  70.003  1.00  0.00    -0.174 C  
BRANCH  24  25
HETATM   25  C   UNL     1      -9.183  10.161  69.519  1.00  0.00    -0.204 C  
BRANCH  25  26
HETATM   26  O   UNL     1     -10.139  11.114  69.073  1.00  0.00    -0.204 OA 
BRANCH  26  27
HETATM   27  C   UNL     1      -9.526  12.090  68.222  1.00  0.00    -0.199 C  
BRANCH  27  28
HETATM   28  C   UNL     1     -10.048  11.878  66.834  1.00  0.00    -0.229 A  
HETATM   29  C   UNL     1      -9.242  11.278  65.857  1.00  0.00    -0.229 A  
HETATM   30  C   UNL     1      -9.712  11.119  64.556  1.00  0.00    -0.310 A  
HETATM   31  C   UNL     1     -10.991  11.563  64.217  1.00  0.00    -0.406 A  
HETATM   32  C   UNL     1     -11.799  12.164  65.180  1.00  0.00    -0.356 A  
HETATM   33  C   UNL     1     -11.331  12.325  66.482  1.00  0.00    -0.403 A  
ENDBRANCH  27  28
ENDBRANCH  26  27
ENDBRANCH  25  26
ENDBRANCH  24  25
ENDBRANCH  15  24
TORSDOF 5
ENDMDL
MODEL      115
REMARK 921   NORMALIZED FREE ENERGY PREDICTED BY IDOCK:   -3.59 KCAL/MOL
REMARK 922        TOTAL FREE ENERGY PREDICTED BY IDOCK:   -6.11 KCAL/MOL
REMARK 923 INTER-LIGAND FREE ENERGY PREDICTED BY IDOCK:   -5.72 KCAL/MOL
REMARK 924 INTRA-LIGAND FREE ENERGY PREDICTED BY IDOCK:   -0.39 KCAL/MOL
REMARK 927      BINDING AFFINITY PREDICTED BY RF-SCORE:    0.00 PKD
ROOT
HETATM    1  O   UNL     1      -8.070  11.164  65.736  1.00  0.00    -0.330 OA 
HETATM    2  C   UNL     1      -8.992  11.537  66.802  1.00  0.00    -0.181 C  
HETATM    3  H   UNL     1      -8.526  10.474  65.269  1.00  0.00     0.000 HD 
HETATM    4  C   UNL     1      -9.115  10.171  67.633  1.00  0.00    -0.144 C  
HETATM    5  C   UNL     1     -10.273  12.003  66.047  1.00  0.00    -0.256 A  
HETATM    6  C   UNL     1      -8.244  12.665  67.567  1.00  0.00    -0.178 A  
HETATM    7  C   UNL     1      -7.709   9.714  68.135  1.00  0.00    -0.086 C  
HETATM    8  C   UNL     1     -10.289  12.094  64.632  1.00  0.00    -0.328 A  
HETATM    9  C   UNL     1      -8.890  13.668  68.306  1.00  0.00    -0.179 A  
HETATM   10  C   UNL     1     -11.376  12.615  63.921  1.00  0.00    -0.501 A  
HETATM   11  C   UNL     1      -8.162  14.664  68.976  1.00  0.00    -0.110 A  
HETATM   12  C   UNL     1      -7.725   8.359  68.816  1.00  0.00    -0.102 C  
HETATM   13  C   UNL     1      -6.773  14.676  68.938  1.00  0.00    -0.096 A  
HETATM   14  C   UNL     1     -12.500  13.051  64.604  1.00  0.00    -0.460 A  
HETATM   15  N   UNL     1      -9.136   7.799  68.809  1.00  0.00    -0.141 N  
HETATM   16  C   UNL     1      -6.100  13.699  68.219  1.00  0.00    -0.108 A  
HETATM   17  C   UNL     1     -11.454  12.405  66.699  1.00  0.00    -0.429 A  
HETATM   18  C   UNL     1      -9.655   7.682  67.380  1.00  0.00    -0.147 C  
HETATM   19  C   UNL     1     -10.043   8.782  69.572  1.00  0.00    -0.202 C  
HETATM   20  C   UNL     1     -12.547  12.931  65.987  1.00  0.00     0.031 A  
HETATM   21  C   UNL     1      -6.827  12.717  67.544  1.00  0.00    -0.153 A  
HETATM   22  C   UNL     1      -9.653   9.044  66.708  1.00  0.00    -0.259 C  
HETATM   23  C   UNL     1     -10.009  10.174  68.892  1.00  0.00    -0.207 C  
ENDROOT
BRANCH  15  24
HETATM   24  C   UNL     1      -9.161   6.407  69.507  1.00  0.00    -0.138 C  
BRANCH  24  25
HETATM   25  C   UNL     1      -7.932   5.536  69.175  1.00  0.00    -0.095 C  
BRANCH  25  26
HETATM   26  O   UNL     1      -8.333   4.208  68.867  1.00  0.00    -0.077 OA 
BRANCH  26  27
HETATM   27  C   UNL     1      -9.477   4.209  68.003  1.00  0.00    -0.160 C  
BRANCH  27  28
HETATM   28  C   UNL     1      -8.997   3.942  66.609  1.00  0.00    -0.141 A  
HETATM   29  C   UNL     1      -8.645   2.644  66.216  1.00  0.00    -0.112 A  
HETATM   30  C   UNL     1      -8.159   2.404  64.933  1.00  0.00    -0.082 A  
HETATM   31  C   UNL     1      -8.015   3.460  64.033  1.00  0.00    -0.082 A  
HETATM   32  C   UNL     1      -8.359   4.755  64.414  1.00  0.00    -0.126 A  
HETATM   33  C   UNL     1      -8.845   4.998  65.697  1.00  0.00    -0.143 A  
ENDBRANCH  27  28
ENDBRANCH  26  27
ENDBRANCH  25  26
ENDBRANCH  24  25
ENDBRANCH  15  24
TORSDOF 5
ENDMDL
MODEL      116
REMARK 921   NORMALIZED FREE ENERGY PREDICTED BY IDOCK:   -3.54 KCAL/MOL
REMARK 922        TOTAL FREE ENERGY PREDICTED BY IDOCK:   -6.04 KCAL/MOL
REMARK 923 INTER-LIGAND FREE ENERGY PREDICTED BY IDOCK:   -5.68 KCAL/MOL
REMARK 924 INTRA-LIGAND FREE ENERGY PREDICTED BY IDOCK:   -0.36 KCAL/MOL
REMARK 927      BINDING AFFINITY PREDICTED BY RF-SCORE:    0.00 PKD
ROOT
HETATM    1  O   UNL     1      -9.228  14.580  69.347  1.00  0.00    -0.398 OA 
HETATM    2  C   UNL     1      -8.581  14.473  68.044  1.00  0.00    -0.162 C  
HETATM    3  H   UNL     1      -8.504  14.689  69.953  1.00  0.00     0.000 HD 
HETATM    4  C   UNL     1      -7.687  13.154  68.220  1.00  0.00    -0.141 C  
HETATM    5  C   UNL     1      -7.807  15.817  67.896  1.00  0.00    -0.149 A  
HETATM    6  C   UNL     1      -9.764  14.295  67.052  1.00  0.00    -0.253 A  
HETATM    7  C   UNL     1      -8.589  11.934  68.588  1.00  0.00    -0.037 C  
HETATM    8  C   UNL     1      -7.937  16.841  68.867  1.00  0.00    -0.237 A  
HETATM    9  C   UNL     1      -9.711  14.663  65.699  1.00  0.00    -0.302 A  
HETATM   10  C   UNL     1      -7.352  18.104  68.717  1.00  0.00    -0.286 A  
HETATM   11  C   UNL     1     -10.813  14.480  64.849  1.00  0.00    -0.436 A  
HETATM   12  C   UNL     1      -7.801  10.676  68.902  1.00  0.00    -0.129 C  
HETATM   13  C   UNL     1     -11.989  13.912  65.322  1.00  0.00    -0.384 A  
HETATM   14  C   UNL     1      -6.595  18.383  67.590  1.00  0.00    -0.197 A  
HETATM   15  N   UNL     1      -6.314  10.960  68.784  1.00  0.00    -0.047 N  
HETATM   16  C   UNL     1     -12.078  13.534  66.654  1.00  0.00    -0.447 A  
HETATM   17  C   UNL     1      -6.986  16.121  66.794  1.00  0.00    -0.107 A  
HETATM   18  C   UNL     1      -5.912  12.090  69.726  1.00  0.00    -0.136 C  
HETATM   19  C   UNL     1      -6.029  11.414  67.340  1.00  0.00    -0.073 C  
HETATM   20  C   UNL     1      -6.398  17.389  66.639  1.00  0.00    -0.250 A  
HETATM   21  C   UNL     1     -10.985  13.728  67.499  1.00  0.00    -0.285 A  
HETATM   22  C   UNL     1      -6.692  13.351  69.397  1.00  0.00    -0.037 C  
HETATM   23  C   UNL     1      -6.852  12.684  67.009  1.00  0.00     0.105 C  
ENDROOT
BRANCH  15  24
HETATM   24  C   UNL     1      -5.497   9.674  69.104  1.00  0.00    -0.036 C  
BRANCH  24  25
HETATM   25  C   UNL     1      -6.330   8.583  69.809  1.00  0.00    -0.035 C  
BRANCH  25  26
HETATM   26  O   UNL     1      -6.720   7.579  68.882  1.00  0.00    -0.047 OA 
BRANCH  26  27
HETATM   27  C   UNL     1      -7.406   6.510  69.547  1.00  0.00    -0.091 C  
BRANCH  27  28
HETATM   28  C   UNL     1      -8.412   5.948  68.588  1.00  0.00    -0.111 A  
HETATM   29  C   UNL     1      -8.481   4.566  68.363  1.00  0.00    -0.100 A  
HETATM   30  C   UNL     1      -9.387   4.048  67.441  1.00  0.00    -0.215 A  
HETATM   31  C   UNL     1     -10.229   4.906  66.732  1.00  0.00    -0.274 A  
HETATM   32  C   UNL     1     -10.166   6.280  66.946  1.00  0.00    -0.268 A  
HETATM   33  C   UNL     1      -9.260   6.802  67.867  1.00  0.00    -0.112 A  
ENDBRANCH  27  28
ENDBRANCH  26  27
ENDBRANCH  25  26
ENDBRANCH  24  25
ENDBRANCH  15  24
TORSDOF 5
ENDMDL
MODEL      117
REMARK 921   NORMALIZED FREE ENERGY PREDICTED BY IDOCK:   -3.53 KCAL/MOL
REMARK 922        TOTAL FREE ENERGY PREDICTED BY IDOCK:   -6.02 KCAL/MOL
REMARK 923 INTER-LIGAND FREE ENERGY PREDICTED BY IDOCK:   -4.33 KCAL/MOL
REMARK 924 INTRA-LIGAND FREE ENERGY PREDICTED BY IDOCK:   -1.69 KCAL/MOL
REMARK 927      BINDING AFFINITY PREDICTED BY RF-SCORE:    0.00 PKD
ROOT
HETATM    1  O   UNL     1     -10.519   9.163  66.817  1.00  0.00    -0.249 OA 
HETATM    2  C   UNL     1      -9.200   8.732  66.367  1.00  0.00    -0.189 C  
HETATM    3  H   UNL     1     -10.421  10.099  66.950  1.00  0.00     0.000 HD 
HETATM    4  C   UNL     1      -8.277   9.110  67.622  1.00  0.00    -0.108 C  
HETATM    5  C   UNL     1      -8.961   9.551  65.063  1.00  0.00    -0.258 A  
HETATM    6  C   UNL     1      -9.359   7.202  66.150  1.00  0.00    -0.097 A  
HETATM    7  C   UNL     1      -8.783   8.380  68.906  1.00  0.00    -0.136 C  
HETATM    8  C   UNL     1      -9.979  10.381  64.530  1.00  0.00    -0.401 A  
HETATM    9  C   UNL     1      -8.575   6.453  65.260  1.00  0.00    -0.051 A  
HETATM   10  C   UNL     1      -9.849  11.042  63.303  1.00  0.00    -0.406 A  
HETATM   11  C   UNL     1      -8.766   5.071  65.104  1.00  0.00    -0.150 A  
HETATM   12  C   UNL     1      -8.042   8.791  70.164  1.00  0.00    -0.114 C  
HETATM   13  C   UNL     1      -9.732   4.399  65.842  1.00  0.00    -0.214 A  
HETATM   14  C   UNL     1      -8.680  10.911  62.570  1.00  0.00    -0.332 A  
HETATM   15  N   UNL     1      -6.994   9.835  69.822  1.00  0.00    -0.074 N  
HETATM   16  C   UNL     1     -10.525   5.105  66.734  1.00  0.00    -0.306 A  
HETATM   17  C   UNL     1      -7.770   9.488  64.316  1.00  0.00    -0.124 A  
HETATM   18  C   UNL     1      -7.646  11.049  69.169  1.00  0.00    -0.113 C  
HETATM   19  C   UNL     1      -6.013   9.214  68.811  1.00  0.00    -0.044 C  
HETATM   20  C   UNL     1      -7.637  10.150  63.082  1.00  0.00    -0.147 A  
HETATM   21  C   UNL     1     -10.341   6.481  66.878  1.00  0.00    -0.311 A  
HETATM   22  C   UNL     1      -8.373  10.635  67.901  1.00  0.00    -0.120 C  
HETATM   23  C   UNL     1      -6.773   8.771  67.536  1.00  0.00    -0.066 C  
ENDROOT
BRANCH  15  24
HETATM   24  C   UNL     1      -6.226  10.262  71.109  1.00  0.00     0.148 C  
BRANCH  24  25
HETATM   25  C   UNL     1      -6.141   9.143  72.167  1.00  0.00     0.014 C  
BRANCH  25  26
HETATM   26  O   UNL     1      -5.146   8.194  71.806  1.00  0.00    -0.033 OA 
BRANCH  26  27
HETATM   27  C   UNL     1      -5.436   6.911  72.375  1.00  0.00    -0.037 C  
BRANCH  27  28
HETATM   28  C   UNL     1      -6.348   6.188  71.431  1.00  0.00    -0.049 A  
HETATM   29  C   UNL     1      -7.593   5.716  71.869  1.00  0.00    -0.096 A  
HETATM   30  C   UNL     1      -8.422   5.007  71.002  1.00  0.00    -0.122 A  
HETATM   31  C   UNL     1      -8.012   4.761  69.692  1.00  0.00    -0.066 A  
HETATM   32  C   UNL     1      -6.776   5.223  69.247  1.00  0.00    -0.052 A  
HETATM   33  C   UNL     1      -5.944   5.931  70.112  1.00  0.00    -0.025 A  
ENDBRANCH  27  28
ENDBRANCH  26  27
ENDBRANCH  25  26
ENDBRANCH  24  25
ENDBRANCH  15  24
TORSDOF 5
ENDMDL
MODEL      118
REMARK 921   NORMALIZED FREE ENERGY PREDICTED BY IDOCK:   -3.46 KCAL/MOL
REMARK 922        TOTAL FREE ENERGY PREDICTED BY IDOCK:   -5.93 KCAL/MOL
REMARK 923 INTER-LIGAND FREE ENERGY PREDICTED BY IDOCK:   -5.61 KCAL/MOL
REMARK 924 INTRA-LIGAND FREE ENERGY PREDICTED BY IDOCK:   -0.32 KCAL/MOL
REMARK 927      BINDING AFFINITY PREDICTED BY RF-SCORE:    0.00 PKD
ROOT
HETATM    1  O   UNL     1     -10.145   6.524  68.561  1.00  0.00    -0.146 OA 
HETATM    2  C   UNL     1      -8.993   7.397  68.753  1.00  0.00    -0.129 C  
HETATM    3  H   UNL     1     -10.500   6.795  67.722  1.00  0.00     0.000 HD 
HETATM    4  C   UNL     1      -9.672   8.848  68.783  1.00  0.00    -0.170 C  
HETATM    5  C   UNL     1      -8.077   7.088  67.531  1.00  0.00    -0.113 A  
HETATM    6  C   UNL     1      -8.412   6.954  70.125  1.00  0.00    -0.140 A  
HETATM    7  C   UNL     1     -10.731   8.928  69.927  1.00  0.00    -0.236 C  
HETATM    8  C   UNL     1      -8.411   6.057  66.616  1.00  0.00    -0.112 A  
HETATM    9  C   UNL     1      -7.066   7.110  70.491  1.00  0.00    -0.063 A  
HETATM   10  C   UNL     1      -7.563   5.670  65.572  1.00  0.00    -0.083 A  
HETATM   11  C   UNL     1      -6.597   6.688  71.745  1.00  0.00    -0.054 A  
HETATM   12  C   UNL     1     -11.512  10.228  69.934  1.00  0.00    -0.273 C  
HETATM   13  C   UNL     1      -7.460   6.115  72.671  1.00  0.00    -0.094 A  
HETATM   14  C   UNL     1      -6.350   6.316  65.394  1.00  0.00    -0.038 A  
HETATM   15  N   UNL     1     -11.048  11.111  68.790  1.00  0.00    -0.214 N  
HETATM   16  C   UNL     1      -8.798   5.946  72.345  1.00  0.00    -0.134 A  
HETATM   17  C   UNL     1      -6.864   7.756  67.282  1.00  0.00    -0.069 A  
HETATM   18  C   UNL     1     -11.226  10.391  67.457  1.00  0.00    -0.179 C  
HETATM   19  C   UNL     1      -9.548  11.397  68.986  1.00  0.00     0.014 C  
HETATM   20  C   UNL     1      -6.008   7.367  66.236  1.00  0.00    -0.037 A  
HETATM   21  C   UNL     1      -9.259   6.355  71.093  1.00  0.00    -0.159 A  
HETATM   22  C   UNL     1     -10.428   9.099  67.449  1.00  0.00    -0.339 C  
HETATM   23  C   UNL     1      -8.751  10.068  69.004  1.00  0.00    -0.158 C  
ENDROOT
BRANCH  15  24
HETATM   24  C   UNL     1     -11.845  12.449  68.791  1.00  0.00    -0.311 C  
BRANCH  24  25
HETATM   25  C   UNL     1     -12.131  12.988  70.208  1.00  0.00    -0.314 C  
BRANCH  25  26
HETATM   26  O   UNL     1     -12.206  14.407  70.194  1.00  0.00    -0.305 OA 
BRANCH  26  27
HETATM   27  C   UNL     1     -12.100  14.909  68.856  1.00  0.00    -0.194 C  
BRANCH  27  28
HETATM   28  C   UNL     1     -10.883  15.782  68.791  1.00  0.00    -0.274 A  
HETATM   29  C   UNL     1      -9.613  15.248  69.047  1.00  0.00    -0.237 A  
HETATM   30  C   UNL     1      -8.487  16.068  69.028  1.00  0.00    -0.244 A  
HETATM   31  C   UNL     1      -8.622  17.430  68.758  1.00  0.00    -0.221 A  
HETATM   32  C   UNL     1      -9.880  17.972  68.505  1.00  0.00    -0.383 A  
HETATM   33  C   UNL     1     -11.008  17.154  68.525  1.00  0.00    -0.204 A  
ENDBRANCH  27  28
ENDBRANCH  26  27
ENDBRANCH  25  26
ENDBRANCH  24  25
ENDBRANCH  15  24
TORSDOF 5
ENDMDL
MODEL      119
REMARK 921   NORMALIZED FREE ENERGY PREDICTED BY IDOCK:   -3.45 KCAL/MOL
REMARK 922        TOTAL FREE ENERGY PREDICTED BY IDOCK:   -5.93 KCAL/MOL
REMARK 923 INTER-LIGAND FREE ENERGY PREDICTED BY IDOCK:   -5.56 KCAL/MOL
REMARK 924 INTRA-LIGAND FREE ENERGY PREDICTED BY IDOCK:   -0.37 KCAL/MOL
REMARK 927      BINDING AFFINITY PREDICTED BY RF-SCORE:    0.00 PKD
ROOT
HETATM    1  O   UNL     1      -7.950  11.873  66.819  1.00  0.00    -0.246 OA 
HETATM    2  C   UNL     1      -8.602  10.750  66.155  1.00  0.00    -0.168 C  
HETATM    3  H   UNL     1      -7.257  11.468  67.327  1.00  0.00     0.000 HD 
HETATM    4  C   UNL     1      -9.134   9.888  67.398  1.00  0.00    -0.147 C  
HETATM    5  C   UNL     1      -7.467  10.106  65.304  1.00  0.00    -0.145 A  
HETATM    6  C   UNL     1      -9.737  11.413  65.326  1.00  0.00    -0.276 A  
HETATM    7  C   UNL     1     -10.090  10.748  68.284  1.00  0.00    -0.187 C  
HETATM    8  C   UNL     1      -6.186  10.708  65.227  1.00  0.00    -0.046 A  
HETATM    9  C   UNL     1     -10.281  10.853  64.160  1.00  0.00    -0.424 A  
HETATM   10  C   UNL     1      -5.175  10.228  64.386  1.00  0.00    -0.123 A  
HETATM   11  C   UNL     1     -11.305  11.498  63.450  1.00  0.00    -0.303 A  
HETATM   12  C   UNL     1     -10.530  10.044  69.553  1.00  0.00    -0.240 C  
HETATM   13  C   UNL     1     -11.823  12.710  63.891  1.00  0.00    -0.544 A  
HETATM   14  C   UNL     1      -5.405   9.110  63.600  1.00  0.00    -0.062 A  
HETATM   15  N   UNL     1      -9.893   8.667  69.621  1.00  0.00    -0.183 N  
HETATM   16  C   UNL     1     -11.312  13.292  65.042  1.00  0.00    -0.326 A  
HETATM   17  C   UNL     1      -7.643   8.942  64.532  1.00  0.00    -0.109 A  
HETATM   18  C   UNL     1      -8.373   8.781  69.577  1.00  0.00    -0.119 C  
HETATM   19  C   UNL     1     -10.352   7.867  68.388  1.00  0.00    -0.199 C  
HETATM   20  C   UNL     1      -6.630   8.459  63.685  1.00  0.00    -0.076 A  
HETATM   21  C   UNL     1     -10.285  12.654  65.739  1.00  0.00    -0.288 A  
HETATM   22  C   UNL     1      -7.937   9.472  68.296  1.00  0.00    -0.094 C  
HETATM   23  C   UNL     1      -9.925   8.598  67.091  1.00  0.00    -0.297 C  
ENDROOT
BRANCH  15  24
HETATM   24  C   UNL     1     -10.341   7.936  70.922  1.00  0.00    -0.200 C  
BRANCH  24  25
HETATM   25  C   UNL     1     -10.410   6.402  70.766  1.00  0.00    -0.201 C  
BRANCH  25  26
HETATM   26  O   UNL     1      -9.172   5.810  71.137  1.00  0.00    -0.150 OA 
BRANCH  26  27
HETATM   27  C   UNL     1      -9.378   4.503  71.689  1.00  0.00    -0.140 C  
BRANCH  27  28
HETATM   28  C   UNL     1      -8.078   4.046  72.277  1.00  0.00    -0.086 A  
HETATM   29  C   UNL     1      -7.816   2.679  72.443  1.00  0.00    -0.054 A  
HETATM   30  C   UNL     1      -6.626   2.256  73.029  1.00  0.00    -0.018 A  
HETATM   31  C   UNL     1      -5.688   3.196  73.459  1.00  0.00     0.000 A  
HETATM   32  C   UNL     1      -5.940   4.556  73.302  1.00  0.00    -0.020 A  
HETATM   33  C   UNL     1      -7.130   4.983  72.717  1.00  0.00    -0.083 A  
ENDBRANCH  27  28
ENDBRANCH  26  27
ENDBRANCH  25  26
ENDBRANCH  24  25
ENDBRANCH  15  24
TORSDOF 5
ENDMDL
MODEL      120
REMARK 921   NORMALIZED FREE ENERGY PREDICTED BY IDOCK:   -3.44 KCAL/MOL
REMARK 922        TOTAL FREE ENERGY PREDICTED BY IDOCK:   -5.91 KCAL/MOL
REMARK 923 INTER-LIGAND FREE ENERGY PREDICTED BY IDOCK:   -5.11 KCAL/MOL
REMARK 924 INTRA-LIGAND FREE ENERGY PREDICTED BY IDOCK:   -0.80 KCAL/MOL
REMARK 927      BINDING AFFINITY PREDICTED BY RF-SCORE:    0.00 PKD
ROOT
HETATM    1  O   UNL     1      -8.449   8.866  69.639  1.00  0.00    -0.121 OA 
HETATM    2  C   UNL     1      -9.795   8.870  69.078  1.00  0.00    -0.180 C  
HETATM    3  H   UNL     1      -7.883   8.875  68.876  1.00  0.00     0.000 HD 
HETATM    4  C   UNL     1      -9.816   7.499  68.247  1.00  0.00    -0.177 C  
HETATM    5  C   UNL     1      -9.852  10.184  68.243  1.00  0.00    -0.162 A  
HETATM    6  C   UNL     1     -10.721   8.856  70.326  1.00  0.00    -0.248 A  
HETATM    7  C   UNL     1      -9.521   6.290  69.189  1.00  0.00    -0.139 C  
HETATM    8  C   UNL     1      -8.772  11.102  68.259  1.00  0.00    -0.151 A  
HETATM    9  C   UNL     1     -12.029   9.364  70.334  1.00  0.00    -0.080 A  
HETATM   10  C   UNL     1      -8.827  12.345  67.618  1.00  0.00    -0.177 A  
HETATM   11  C   UNL     1     -12.820   9.326  71.493  1.00  0.00    -0.427 A  
HETATM   12  C   UNL     1      -9.392   4.970  68.453  1.00  0.00    -0.126 C  
HETATM   13  C   UNL     1     -12.333   8.767  72.668  1.00  0.00    -0.254 A  
HETATM   14  C   UNL     1      -9.965  12.709  66.916  1.00  0.00    -0.232 A  
HETATM   15  N   UNL     1      -9.577   5.196  66.963  1.00  0.00    -0.137 N  
HETATM   16  C   UNL     1     -11.045   8.252  72.697  1.00  0.00    -0.400 A  
HETATM   17  C   UNL     1     -10.967  10.567  67.474  1.00  0.00    -0.365 A  
HETATM   18  C   UNL     1      -8.549   6.196  66.445  1.00  0.00    -0.131 C  
HETATM   19  C   UNL     1     -10.981   5.789  66.740  1.00  0.00    -0.154 C  
HETATM   20  C   UNL     1     -11.026  11.815  66.830  1.00  0.00    -0.336 A  
HETATM   21  C   UNL     1     -10.257   8.302  71.546  1.00  0.00    -0.277 A  
HETATM   22  C   UNL     1      -8.693   7.521  67.174  1.00  0.00    -0.121 C  
HETATM   23  C   UNL     1     -11.122   7.124  67.512  1.00  0.00    -0.170 C  
ENDROOT
BRANCH  15  24
HETATM   24  C   UNL     1      -9.447   3.845  66.198  1.00  0.00    -0.184 C  
BRANCH  24  25
HETATM   25  C   UNL     1      -8.048   3.624  65.584  1.00  0.00    -0.093 C  
BRANCH  25  26
HETATM   26  O   UNL     1      -7.336   2.636  66.316  1.00  0.00    -0.064 OA 
BRANCH  26  27
HETATM   27  C   UNL     1      -6.253   3.226  67.047  1.00  0.00    -0.032 C  
BRANCH  27  28
HETATM   28  C   UNL     1      -6.428   2.867  68.491  1.00  0.00    -0.029 A  
HETATM   29  C   UNL     1      -7.532   2.109  68.905  1.00  0.00    -0.043 A  
HETATM   30  C   UNL     1      -7.716   1.810  70.253  1.00  0.00    -0.039 A  
HETATM   31  C   UNL     1      -6.802   2.271  71.200  1.00  0.00    -0.032 A  
HETATM   32  C   UNL     1      -5.703   3.028  70.801  1.00  0.00    -0.013 A  
HETATM   33  C   UNL     1      -5.517   3.329  69.453  1.00  0.00    -0.016 A  
ENDBRANCH  27  28
ENDBRANCH  26  27
ENDBRANCH  25  26
ENDBRANCH  24  25
ENDBRANCH  15  24
TORSDOF 5
ENDMDL
MODEL      121
REMARK 921   NORMALIZED FREE ENERGY PREDICTED BY IDOCK:   -3.44 KCAL/MOL
REMARK 922        TOTAL FREE ENERGY PREDICTED BY IDOCK:   -5.91 KCAL/MOL
REMARK 923 INTER-LIGAND FREE ENERGY PREDICTED BY IDOCK:   -5.61 KCAL/MOL
REMARK 924 INTRA-LIGAND FREE ENERGY PREDICTED BY IDOCK:   -0.30 KCAL/MOL
REMARK 927      BINDING AFFINITY PREDICTED BY RF-SCORE:    0.00 PKD
ROOT
HETATM    1  O   UNL     1      -6.321   7.725  67.498  1.00  0.00    -0.051 OA 
HETATM    2  C   UNL     1      -7.490   8.001  66.671  1.00  0.00    -0.089 C  
HETATM    3  H   UNL     1      -6.594   7.979  68.372  1.00  0.00     0.000 HD 
HETATM    4  C   UNL     1      -7.664   9.584  66.854  1.00  0.00    -0.098 C  
HETATM    5  C   UNL     1      -8.608   7.108  67.286  1.00  0.00    -0.121 A  
HETATM    6  C   UNL     1      -7.044   7.587  65.241  1.00  0.00    -0.063 A  
HETATM    7  C   UNL     1      -6.369  10.329  66.399  1.00  0.00    -0.085 C  
HETATM    8  C   UNL     1      -8.316   6.199  68.335  1.00  0.00    -0.114 A  
HETATM    9  C   UNL     1      -7.931   7.179  64.233  1.00  0.00    -0.088 A  
HETATM   10  C   UNL     1      -9.260   5.298  68.839  1.00  0.00    -0.150 A  
HETATM   11  C   UNL     1      -7.470   6.813  62.959  1.00  0.00    -0.082 A  
HETATM   12  C   UNL     1      -6.407  11.821  66.668  1.00  0.00    -0.011 C  
HETATM   13  C   UNL     1      -6.116   6.859  62.652  1.00  0.00    -0.040 A  
HETATM   14  C   UNL     1     -10.546   5.286  68.320  1.00  0.00    -0.074 A  
HETATM   15  N   UNL     1      -7.721  12.188  67.334  1.00  0.00    -0.156 N  
HETATM   16  C   UNL     1      -5.209   7.260  63.622  1.00  0.00    -0.033 A  
HETATM   17  C   UNL     1      -9.937   7.102  66.826  1.00  0.00    -0.278 A  
HETATM   18  C   UNL     1      -7.893  11.409  68.634  1.00  0.00    -0.139 C  
HETATM   19  C   UNL     1      -8.866  11.794  66.382  1.00  0.00    -0.170 C  
HETATM   20  C   UNL     1     -10.888   6.196  67.328  1.00  0.00    -0.438 A  
HETATM   21  C   UNL     1      -5.669   7.611  64.892  1.00  0.00    -0.037 A  
HETATM   22  C   UNL     1      -7.871   9.916  68.358  1.00  0.00    -0.085 C  
HETATM   23  C   UNL     1      -8.813  10.275  66.088  1.00  0.00    -0.166 C  
ENDROOT
BRANCH  15  24
HETATM   24  C   UNL     1      -7.769  13.720  67.613  1.00  0.00    -0.179 C  
BRANCH  24  25
HETATM   25  C   UNL     1      -9.097  14.377  67.182  1.00  0.00    -0.227 C  
BRANCH  25  26
HETATM   26  O   UNL     1      -8.857  15.398  66.224  1.00  0.00    -0.304 OA 
BRANCH  26  27
HETATM   27  C   UNL     1      -9.883  16.398  66.278  1.00  0.00    -0.314 C  
BRANCH  27  28
HETATM   28  C   UNL     1      -9.403  17.496  67.178  1.00  0.00    -0.250 A  
HETATM   29  C   UNL     1      -8.037  17.637  67.459  1.00  0.00    -0.217 A  
HETATM   30  C   UNL     1      -7.596  18.631  68.330  1.00  0.00    -0.307 A  
HETATM   31  C   UNL     1      -8.517  19.490  68.931  1.00  0.00    -0.291 A  
HETATM   32  C   UNL     1      -9.877  19.357  68.661  1.00  0.00    -0.522 A  
HETATM   33  C   UNL     1     -10.321  18.363  67.792  1.00  0.00    -0.428 A  
ENDBRANCH  27  28
ENDBRANCH  26  27
ENDBRANCH  25  26
ENDBRANCH  24  25
ENDBRANCH  15  24
TORSDOF 5
ENDMDL
MODEL      122
REMARK 921   NORMALIZED FREE ENERGY PREDICTED BY IDOCK:   -3.38 KCAL/MOL
REMARK 922        TOTAL FREE ENERGY PREDICTED BY IDOCK:   -5.84 KCAL/MOL
REMARK 923 INTER-LIGAND FREE ENERGY PREDICTED BY IDOCK:   -5.59 KCAL/MOL
REMARK 924 INTRA-LIGAND FREE ENERGY PREDICTED BY IDOCK:   -0.25 KCAL/MOL
REMARK 927      BINDING AFFINITY PREDICTED BY RF-SCORE:    0.00 PKD
ROOT
HETATM    1  O   UNL     1      -9.780  14.216  69.198  1.00  0.00    -0.415 OA 
HETATM    2  C   UNL     1      -9.092  14.082  67.919  1.00  0.00    -0.188 C  
HETATM    3  H   UNL     1      -9.081  14.164  69.840  1.00  0.00     0.000 HD 
HETATM    4  C   UNL     1      -8.439  12.622  68.041  1.00  0.00    -0.177 C  
HETATM    5  C   UNL     1      -8.099  15.282  67.896  1.00  0.00    -0.146 A  
HETATM    6  C   UNL     1     -10.234  14.166  66.869  1.00  0.00    -0.267 A  
HETATM    7  C   UNL     1      -9.548  11.551  68.285  1.00  0.00    -0.189 C  
HETATM    8  C   UNL     1      -8.109  16.252  68.930  1.00  0.00    -0.231 A  
HETATM    9  C   UNL     1     -10.050  14.602  65.548  1.00  0.00    -0.405 A  
HETATM   10  C   UNL     1      -7.316  17.405  68.892  1.00  0.00    -0.244 A  
HETATM   11  C   UNL     1     -11.121  14.660  64.642  1.00  0.00    -0.345 A  
HETATM   12  C   UNL     1      -8.997  10.162  68.544  1.00  0.00    -0.127 C  
HETATM   13  C   UNL     1     -12.398  14.271  65.026  1.00  0.00    -0.434 A  
HETATM   14  C   UNL     1      -6.465  17.621  67.820  1.00  0.00    -0.181 A  
HETATM   15  N   UNL     1      -7.480  10.198  68.508  1.00  0.00    -0.084 N  
HETATM   16  C   UNL     1     -12.618  13.832  66.323  1.00  0.00    -0.372 A  
HETATM   17  C   UNL     1      -7.182  15.510  66.853  1.00  0.00     0.008 A  
HETATM   18  C   UNL     1      -6.946  11.184  69.542  1.00  0.00    -0.111 C  
HETATM   19  C   UNL     1      -7.048  10.685  67.112  1.00  0.00    -0.093 C  
HETATM   20  C   UNL     1      -6.386  16.669  66.811  1.00  0.00    -0.157 A  
HETATM   21  C   UNL     1     -11.554  13.787  67.225  1.00  0.00    -0.391 A  
HETATM   22  C   UNL     1      -7.488  12.576  69.268  1.00  0.00     0.290 C  
HETATM   23  C   UNL     1      -7.631  12.093  66.836  1.00  0.00    -0.029 C  
ENDROOT
BRANCH  15  24
HETATM   24  C   UNL     1      -6.905   8.775  68.772  1.00  0.00    -0.062 C  
BRANCH  24  25
HETATM   25  C   UNL     1      -7.972   7.663  68.695  1.00  0.00    -0.122 C  
BRANCH  25  26
HETATM   26  O   UNL     1      -8.404   7.299  69.999  1.00  0.00    -0.133 OA 
BRANCH  26  27
HETATM   27  C   UNL     1      -9.512   6.391  69.934  1.00  0.00    -0.154 C  
BRANCH  27  28
HETATM   28  C   UNL     1      -9.165   5.188  70.756  1.00  0.00    -0.188 A  
HETATM   29  C   UNL     1     -10.161   4.498  71.460  1.00  0.00    -0.195 A  
HETATM   30  C   UNL     1      -9.831   3.405  72.258  1.00  0.00    -0.231 A  
HETATM   31  C   UNL     1      -8.502   2.995  72.364  1.00  0.00    -0.079 A  
HETATM   32  C   UNL     1      -7.504   3.675  71.672  1.00  0.00    -0.052 A  
HETATM   33  C   UNL     1      -7.830   4.769  70.873  1.00  0.00    -0.081 A  
ENDBRANCH  27  28
ENDBRANCH  26  27
ENDBRANCH  25  26
ENDBRANCH  24  25
ENDBRANCH  15  24
TORSDOF 5
ENDMDL
MODEL      123
REMARK 921   NORMALIZED FREE ENERGY PREDICTED BY IDOCK:   -3.38 KCAL/MOL
REMARK 922        TOTAL FREE ENERGY PREDICTED BY IDOCK:   -5.84 KCAL/MOL
REMARK 923 INTER-LIGAND FREE ENERGY PREDICTED BY IDOCK:   -5.49 KCAL/MOL
REMARK 924 INTRA-LIGAND FREE ENERGY PREDICTED BY IDOCK:   -0.34 KCAL/MOL
REMARK 927      BINDING AFFINITY PREDICTED BY RF-SCORE:    0.00 PKD
ROOT
HETATM    1  O   UNL     1     -10.052  14.072  68.863  1.00  0.00    -0.333 OA 
HETATM    2  C   UNL     1      -9.295  14.040  67.617  1.00  0.00    -0.203 C  
HETATM    3  H   UNL     1      -9.394  14.236  69.527  1.00  0.00     0.000 HD 
HETATM    4  C   UNL     1      -8.305  12.802  67.858  1.00  0.00    -0.172 C  
HETATM    5  C   UNL     1      -8.633  15.448  67.541  1.00  0.00    -0.187 A  
HETATM    6  C   UNL     1     -10.372  13.771  66.530  1.00  0.00    -0.286 A  
HETATM    7  C   UNL     1      -9.121  11.503  68.143  1.00  0.00    -0.181 C  
HETATM    8  C   UNL     1      -8.933  16.444  68.505  1.00  0.00    -0.224 A  
HETATM    9  C   UNL     1     -10.242  14.160  65.188  1.00  0.00    -0.411 A  
HETATM   10  C   UNL     1      -8.453  17.755  68.411  1.00  0.00    -0.295 A  
HETATM   11  C   UNL     1     -11.251  13.892  64.249  1.00  0.00    -0.278 A  
HETATM   12  C   UNL     1      -8.253  10.315  68.513  1.00  0.00    -0.111 C  
HETATM   13  C   UNL     1     -12.407  13.217  64.620  1.00  0.00    -0.447 A  
HETATM   14  C   UNL     1      -7.634  18.115  67.352  1.00  0.00    -0.220 A  
HETATM   15  N   UNL     1      -6.793  10.731  68.519  1.00  0.00    -0.060 N  
HETATM   16  C   UNL     1     -12.570  12.815  65.938  1.00  0.00     0.041 A  
HETATM   17  C   UNL     1      -7.756  15.838  66.512  1.00  0.00    -0.018 A  
HETATM   18  C   UNL     1      -6.570  11.878  69.499  1.00  0.00    -0.093 C  
HETATM   19  C   UNL     1      -6.432  11.228  67.106  1.00  0.00    -0.099 C  
HETATM   20  C   UNL     1      -7.273  17.156  66.414  1.00  0.00    -0.325 A  
HETATM   21  C   UNL     1     -11.571  13.093  66.872  1.00  0.00    -0.417 A  
HETATM   22  C   UNL     1      -7.430  13.070  69.113  1.00  0.00     0.196 C  
HETATM   23  C   UNL     1      -7.335  12.424  66.717  1.00  0.00     0.194 C  
ENDROOT
BRANCH  15  24
HETATM   24  C   UNL     1      -5.893   9.517  68.898  1.00  0.00    -0.039 C  
BRANCH  24  25
HETATM   25  C   UNL     1      -6.693   8.305  69.420  1.00  0.00    -0.042 C  
BRANCH  25  26
HETATM   26  O   UNL     1      -6.629   7.231  68.493  1.00  0.00    -0.042 OA 
BRANCH  26  27
HETATM   27  C   UNL     1      -6.894   5.981  69.142  1.00  0.00    -0.062 C  
BRANCH  27  28
HETATM   28  C   UNL     1      -8.325   5.991  69.585  1.00  0.00    -0.119 A  
HETATM   29  C   UNL     1      -9.356   6.148  68.649  1.00  0.00    -0.121 A  
HETATM   30  C   UNL     1     -10.684   6.200  69.066  1.00  0.00    -0.377 A  
HETATM   31  C   UNL     1     -10.994   6.099  70.423  1.00  0.00    -0.404 A  
HETATM   32  C   UNL     1      -9.977   5.946  71.362  1.00  0.00    -0.228 A  
HETATM   33  C   UNL     1      -8.647   5.895  70.948  1.00  0.00    -0.131 A  
ENDBRANCH  27  28
ENDBRANCH  26  27
ENDBRANCH  25  26
ENDBRANCH  24  25
ENDBRANCH  15  24
TORSDOF 5
ENDMDL
MODEL      124
REMARK 921   NORMALIZED FREE ENERGY PREDICTED BY IDOCK:   -3.35 KCAL/MOL
REMARK 922        TOTAL FREE ENERGY PREDICTED BY IDOCK:   -5.79 KCAL/MOL
REMARK 923 INTER-LIGAND FREE ENERGY PREDICTED BY IDOCK:   -4.50 KCAL/MOL
REMARK 924 INTRA-LIGAND FREE ENERGY PREDICTED BY IDOCK:   -1.29 KCAL/MOL
REMARK 927      BINDING AFFINITY PREDICTED BY RF-SCORE:    0.00 PKD
ROOT
HETATM    1  O   UNL     1      -7.654   8.505  69.948  1.00  0.00    -0.068 OA 
HETATM    2  C   UNL     1      -8.925   8.155  69.324  1.00  0.00    -0.148 C  
HETATM    3  H   UNL     1      -7.028   8.455  69.236  1.00  0.00     0.000 HD 
HETATM    4  C   UNL     1      -8.649   6.659  68.817  1.00  0.00    -0.122 C  
HETATM    5  C   UNL     1      -9.112   9.236  68.218  1.00  0.00    -0.128 A  
HETATM    6  C   UNL     1      -9.950   8.237  70.489  1.00  0.00    -0.198 A  
HETATM    7  C   UNL     1      -8.253   5.744  70.018  1.00  0.00    -0.115 C  
HETATM    8  C   UNL     1      -8.200  10.313  68.093  1.00  0.00    -0.114 A  
HETATM    9  C   UNL     1     -11.317   8.497  70.310  1.00  0.00    -0.135 A  
HETATM   10  C   UNL     1      -8.392  11.366  67.191  1.00  0.00    -0.155 A  
HETATM   11  C   UNL     1     -12.197   8.562  71.402  1.00  0.00    -0.343 A  
HETATM   12  C   UNL     1      -7.847   4.344  69.600  1.00  0.00    -0.057 C  
HETATM   13  C   UNL     1     -11.740   8.354  72.697  1.00  0.00    -0.364 A  
HETATM   14  C   UNL     1      -9.503  11.369  66.362  1.00  0.00    -0.224 A  
HETATM   15  N   UNL     1      -7.924   4.219  68.089  1.00  0.00    -0.078 N  
HETATM   16  C   UNL     1     -10.395   8.091  72.913  1.00  0.00    -0.397 A  
HETATM   17  C   UNL     1     -10.197   9.247  67.321  1.00  0.00    -0.315 A  
HETATM   18  C   UNL     1      -7.026   5.255  67.422  1.00  0.00    -0.065 C  
HETATM   19  C   UNL     1      -9.377   4.496  67.661  1.00  0.00    -0.147 C  
HETATM   20  C   UNL     1     -10.394  10.304  66.415  1.00  0.00    -0.262 A  
HETATM   21  C   UNL     1      -9.520   8.040  71.827  1.00  0.00    -0.223 A  
HETATM   22  C   UNL     1      -7.448   6.656  67.831  1.00  0.00    -0.098 C  
HETATM   23  C   UNL     1      -9.802   5.916  68.109  1.00  0.00    -0.155 C  
ENDROOT
BRANCH  15  24
HETATM   24  C   UNL     1      -7.508   2.783  67.650  1.00  0.00    -0.057 C  
BRANCH  24  25
HETATM   25  C   UNL     1      -8.197   2.320  66.349  1.00  0.00    -0.088 C  
BRANCH  25  26
HETATM   26  O   UNL     1      -7.357   2.561  65.229  1.00  0.00    -0.061 OA 
BRANCH  26  27
HETATM   27  C   UNL     1      -8.072   3.250  64.195  1.00  0.00    -0.082 C  
BRANCH  27  28
HETATM   28  C   UNL     1      -7.485   4.623  64.071  1.00  0.00    -0.059 A  
HETATM   29  C   UNL     1      -6.096   4.808  64.115  1.00  0.00    -0.022 A  
HETATM   30  C   UNL     1      -5.553   6.088  64.041  1.00  0.00    -0.018 A  
HETATM   31  C   UNL     1      -6.393   7.196  63.928  1.00  0.00    -0.044 A  
HETATM   32  C   UNL     1      -7.775   7.025  63.886  1.00  0.00    -0.119 A  
HETATM   33  C   UNL     1      -8.321   5.745  63.961  1.00  0.00    -0.036 A  
ENDBRANCH  27  28
ENDBRANCH  26  27
ENDBRANCH  25  26
ENDBRANCH  24  25
ENDBRANCH  15  24
TORSDOF 5
ENDMDL
MODEL      125
REMARK 921   NORMALIZED FREE ENERGY PREDICTED BY IDOCK:   -3.32 KCAL/MOL
REMARK 922        TOTAL FREE ENERGY PREDICTED BY IDOCK:   -5.75 KCAL/MOL
REMARK 923 INTER-LIGAND FREE ENERGY PREDICTED BY IDOCK:   -5.23 KCAL/MOL
REMARK 924 INTRA-LIGAND FREE ENERGY PREDICTED BY IDOCK:   -0.52 KCAL/MOL
REMARK 927      BINDING AFFINITY PREDICTED BY RF-SCORE:    0.00 PKD
ROOT
HETATM    1  O   UNL     1      -5.802   8.383  67.871  1.00  0.00    -0.041 OA 
HETATM    2  C   UNL     1      -7.107   8.774  67.350  1.00  0.00    -0.079 C  
HETATM    3  H   UNL     1      -5.866   8.556  68.803  1.00  0.00     0.000 HD 
HETATM    4  C   UNL     1      -7.158  10.335  67.711  1.00  0.00    -0.085 C  
HETATM    5  C   UNL     1      -8.108   7.856  68.113  1.00  0.00    -0.123 A  
HETATM    6  C   UNL     1      -7.002   8.492  65.825  1.00  0.00    -0.071 A  
HETATM    7  C   UNL     1      -5.957  11.084  67.053  1.00  0.00    -0.077 C  
HETATM    8  C   UNL     1      -7.642   6.839  68.984  1.00  0.00    -0.101 A  
HETATM    9  C   UNL     1      -8.105   8.213  65.005  1.00  0.00    -0.155 A  
HETATM   10  C   UNL     1      -8.499   5.920  69.599  1.00  0.00    -0.117 A  
HETATM   11  C   UNL     1      -7.950   7.963  63.633  1.00  0.00    -0.118 A  
HETATM   12  C   UNL     1      -5.861  12.542  67.458  1.00  0.00    -0.145 C  
HETATM   13  C   UNL     1      -6.694   8.000  63.041  1.00  0.00    -0.084 A  
HETATM   14  C   UNL     1      -9.865   5.996  69.377  1.00  0.00    -0.203 A  
HETATM   15  N   UNL     1      -6.979  12.879  68.428  1.00  0.00    -0.087 N  
HETATM   16  C   UNL     1      -5.580   8.276  63.820  1.00  0.00    -0.061 A  
HETATM   17  C   UNL     1      -9.504   7.935  67.958  1.00  0.00    -0.159 A  
HETATM   18  C   UNL     1      -6.905  11.979  69.657  1.00  0.00     0.085 C  
HETATM   19  C   UNL     1      -8.321  12.615  67.720  1.00  0.00    -0.172 C  
HETATM   20  C   UNL     1     -10.368   7.011  68.573  1.00  0.00    -0.204 A  
HETATM   21  C   UNL     1      -5.736   8.512  65.186  1.00  0.00    -0.047 A  
HETATM   22  C   UNL     1      -7.018  10.521  69.248  1.00  0.00    -0.086 C  
HETATM   23  C   UNL     1      -8.409  11.132  67.283  1.00  0.00    -0.135 C  
ENDROOT
BRANCH  15  24
HETATM   24  C   UNL     1      -6.889  14.376  68.849  1.00  0.00    -0.102 C  
BRANCH  24  25
HETATM   25  C   UNL     1      -8.265  15.067  68.943  1.00  0.00    -0.178 C  
BRANCH  25  26
HETATM   26  O   UNL     1      -8.602  15.672  67.702  1.00  0.00    -0.162 OA 
BRANCH  26  27
HETATM   27  C   UNL     1      -9.990  16.026  67.668  1.00  0.00    -0.239 C  
BRANCH  27  28
HETATM   28  C   UNL     1     -10.687  15.056  66.764  1.00  0.00    -0.308 A  
HETATM   29  C   UNL     1     -11.404  13.977  67.298  1.00  0.00    -0.350 A  
HETATM   30  C   UNL     1     -12.016  13.052  66.456  1.00  0.00    -0.457 A  
HETATM   31  C   UNL     1     -11.912  13.193  65.072  1.00  0.00    -0.423 A  
HETATM   32  C   UNL     1     -11.199  14.259  64.530  1.00  0.00    -0.331 A  
HETATM   33  C   UNL     1     -10.585  15.186  65.370  1.00  0.00    -0.410 A  
ENDBRANCH  27  28
ENDBRANCH  26  27
ENDBRANCH  25  26
ENDBRANCH  24  25
ENDBRANCH  15  24
TORSDOF 5
ENDMDL
MODEL      126
REMARK 921   NORMALIZED FREE ENERGY PREDICTED BY IDOCK:   -3.30 KCAL/MOL
REMARK 922        TOTAL FREE ENERGY PREDICTED BY IDOCK:   -5.72 KCAL/MOL
REMARK 923 INTER-LIGAND FREE ENERGY PREDICTED BY IDOCK:   -5.27 KCAL/MOL
REMARK 924 INTRA-LIGAND FREE ENERGY PREDICTED BY IDOCK:   -0.46 KCAL/MOL
REMARK 927      BINDING AFFINITY PREDICTED BY RF-SCORE:    0.00 PKD
ROOT
HETATM    1  O   UNL     1      -6.553   5.768  69.093  1.00  0.00    -0.046 OA 
HETATM    2  C   UNL     1      -7.846   5.106  69.223  1.00  0.00    -0.080 C  
HETATM    3  H   UNL     1      -6.324   6.000  69.986  1.00  0.00     0.000 HD 
HETATM    4  C   UNL     1      -8.759   6.271  69.839  1.00  0.00    -0.141 C  
HETATM    5  C   UNL     1      -7.556   3.891  70.154  1.00  0.00    -0.048 A  
HETATM    6  C   UNL     1      -8.222   4.728  67.763  1.00  0.00    -0.100 A  
HETATM    7  C   UNL     1      -8.768   7.511  68.890  1.00  0.00    -0.132 C  
HETATM    8  C   UNL     1      -6.234   3.595  70.571  1.00  0.00    -0.019 A  
HETATM    9  C   UNL     1      -9.069   3.661  67.426  1.00  0.00    -0.186 A  
HETATM   10  C   UNL     1      -5.913   2.451  71.311  1.00  0.00    -0.014 A  
HETATM   11  C   UNL     1      -9.371   3.364  66.088  1.00  0.00    -0.151 A  
HETATM   12  C   UNL     1      -9.503   8.705  69.467  1.00  0.00    -0.162 C  
HETATM   13  C   UNL     1      -8.850   4.131  65.054  1.00  0.00    -0.131 A  
HETATM   14  C   UNL     1      -6.914   1.566  71.679  1.00  0.00    -0.023 A  
HETATM   15  N   UNL     1     -10.029   8.363  70.850  1.00  0.00    -0.185 N  
HETATM   16  C   UNL     1      -8.010   5.195  65.349  1.00  0.00    -0.110 A  
HETATM   17  C   UNL     1      -8.550   2.998  70.595  1.00  0.00    -0.113 A  
HETATM   18  C   UNL     1      -8.883   7.950  71.768  1.00  0.00    -0.126 C  
HETATM   19  C   UNL     1     -10.991   7.168  70.713  1.00  0.00    -0.252 C  
HETATM   20  C   UNL     1      -8.231   1.847  71.337  1.00  0.00    -0.055 A  
HETATM   21  C   UNL     1      -7.701   5.481  66.680  1.00  0.00    -0.100 A  
HETATM   22  C   UNL     1      -8.161   6.743  71.193  1.00  0.00    -0.119 C  
HETATM   23  C   UNL     1     -10.248   5.956  70.100  1.00  0.00    -0.281 C  
ENDROOT
BRANCH  15  24
HETATM   24  C   UNL     1     -10.786   9.585  71.451  1.00  0.00    -0.312 C  
BRANCH  24  25
HETATM   25  C   UNL     1     -12.252   9.685  70.981  1.00  0.00    -0.323 C  
BRANCH  25  26
HETATM   26  O   UNL     1     -12.473  10.913  70.301  1.00  0.00    -0.312 OA 
BRANCH  26  27
HETATM   27  C   UNL     1     -12.024  10.831  68.943  1.00  0.00    -0.139 C  
BRANCH  27  28
HETATM   28  C   UNL     1     -11.374  12.137  68.598  1.00  0.00    -0.330 A  
HETATM   29  C   UNL     1     -12.139  13.307  68.502  1.00  0.00    -0.256 A  
HETATM   30  C   UNL     1     -11.541  14.512  68.140  1.00  0.00    -0.359 A  
HETATM   31  C   UNL     1     -10.174  14.557  67.865  1.00  0.00    -0.231 A  
HETATM   32  C   UNL     1      -9.405  13.399  67.954  1.00  0.00    -0.216 A  
HETATM   33  C   UNL     1     -10.000  12.192  68.315  1.00  0.00    -0.212 A  
ENDBRANCH  27  28
ENDBRANCH  26  27
ENDBRANCH  25  26
ENDBRANCH  24  25
ENDBRANCH  15  24
TORSDOF 5
ENDMDL
MODEL      127
REMARK 921   NORMALIZED FREE ENERGY PREDICTED BY IDOCK:   -3.29 KCAL/MOL
REMARK 922        TOTAL FREE ENERGY PREDICTED BY IDOCK:   -5.72 KCAL/MOL
REMARK 923 INTER-LIGAND FREE ENERGY PREDICTED BY IDOCK:   -5.86 KCAL/MOL
REMARK 924 INTRA-LIGAND FREE ENERGY PREDICTED BY IDOCK:    0.14 KCAL/MOL
REMARK 927      BINDING AFFINITY PREDICTED BY RF-SCORE:    0.00 PKD
ROOT
HETATM    1  O   UNL     1     -10.870  10.046  67.090  1.00  0.00    -0.243 OA 
HETATM    2  C   UNL     1      -9.591  10.086  67.791  1.00  0.00    -0.148 C  
HETATM    3  H   UNL     1     -11.435  10.601  67.614  1.00  0.00     0.000 HD 
HETATM    4  C   UNL     1      -9.970   9.456  69.215  1.00  0.00    -0.182 C  
HETATM    5  C   UNL     1      -9.205  11.595  67.784  1.00  0.00    -0.178 A  
HETATM    6  C   UNL     1      -8.666   9.177  66.935  1.00  0.00    -0.133 A  
HETATM    7  C   UNL     1     -10.554   8.020  69.035  1.00  0.00    -0.169 C  
HETATM    8  C   UNL     1      -9.993  12.544  67.084  1.00  0.00    -0.217 A  
HETATM    9  C   UNL     1      -7.270   9.306  66.888  1.00  0.00    -0.086 A  
HETATM   10  C   UNL     1      -9.622  13.887  66.956  1.00  0.00    -0.254 A  
HETATM   11  C   UNL     1      -6.484   8.457  66.094  1.00  0.00    -0.053 A  
HETATM   12  C   UNL     1     -11.060   7.409  70.328  1.00  0.00    -0.258 C  
HETATM   13  C   UNL     1      -7.068   7.448  65.338  1.00  0.00    -0.061 A  
HETATM   14  C   UNL     1      -8.449  14.337  67.543  1.00  0.00    -0.195 A  
HETATM   15  N   UNL     1     -10.867   8.392  71.469  1.00  0.00    -0.243 N  
HETATM   16  C   UNL     1      -8.446   7.288  65.361  1.00  0.00    -0.096 A  
HETATM   17  C   UNL     1      -8.052  12.103  68.412  1.00  0.00    -0.149 A  
HETATM   18  C   UNL     1     -11.599   9.697  71.175  1.00  0.00    -0.381 C  
HETATM   19  C   UNL     1      -9.362   8.699  71.584  1.00  0.00    -0.263 C  
HETATM   20  C   UNL     1      -7.675  13.452  68.283  1.00  0.00    -0.141 A  
HETATM   21  C   UNL     1      -9.226   8.142  66.143  1.00  0.00    -0.230 A  
HETATM   22  C   UNL     1     -11.077  10.313  69.888  1.00  0.00    -0.362 C  
HETATM   23  C   UNL     1      -8.839   9.300  70.256  1.00  0.00    -0.254 C  
ENDROOT
BRANCH  15  24
HETATM   24  C   UNL     1     -11.383   7.772  72.801  1.00  0.00    -0.389 C  
BRANCH  24  25
HETATM   25  C   UNL     1     -10.566   6.547  73.260  1.00  0.00    -0.276 C  
BRANCH  25  26
HETATM   26  O   UNL     1      -9.971   6.793  74.527  1.00  0.00    -0.319 OA 
BRANCH  26  27
HETATM   27  C   UNL     1      -8.620   7.245  74.376  1.00  0.00    -0.206 C  
BRANCH  27  28
HETATM   28  C   UNL     1      -7.725   6.046  74.459  1.00  0.00    -0.096 A  
HETATM   29  C   UNL     1      -6.332   6.197  74.436  1.00  0.00    -0.070 A  
HETATM   30  C   UNL     1      -5.502   5.079  74.471  1.00  0.00    -0.022 A  
HETATM   31  C   UNL     1      -6.056   3.800  74.524  1.00  0.00    -0.021 A  
HETATM   32  C   UNL     1      -7.439   3.638  74.545  1.00  0.00    -0.061 A  
HETATM   33  C   UNL     1      -8.272   4.755  74.509  1.00  0.00    -0.098 A  
ENDBRANCH  27  28
ENDBRANCH  26  27
ENDBRANCH  25  26
ENDBRANCH  24  25
ENDBRANCH  15  24
TORSDOF 5
ENDMDL
MODEL      128
REMARK 921   NORMALIZED FREE ENERGY PREDICTED BY IDOCK:   -3.28 KCAL/MOL
REMARK 922        TOTAL FREE ENERGY PREDICTED BY IDOCK:   -5.71 KCAL/MOL
REMARK 923 INTER-LIGAND FREE ENERGY PREDICTED BY IDOCK:   -4.93 KCAL/MOL
REMARK 924 INTRA-LIGAND FREE ENERGY PREDICTED BY IDOCK:   -0.78 KCAL/MOL
REMARK 927      BINDING AFFINITY PREDICTED BY RF-SCORE:    0.00 PKD
ROOT
HETATM    1  O   UNL     1     -11.374   7.513  68.961  1.00  0.00    -0.410 OA 
HETATM    2  C   UNL     1      -9.984   7.893  69.178  1.00  0.00    -0.184 C  
HETATM    3  H   UNL     1     -11.434   6.640  69.332  1.00  0.00     0.000 HD 
HETATM    4  C   UNL     1      -9.196   6.781  68.334  1.00  0.00    -0.123 C  
HETATM    5  C   UNL     1      -9.813   7.834  70.726  1.00  0.00    -0.183 A  
HETATM    6  C   UNL     1      -9.886   9.320  68.570  1.00  0.00    -0.173 A  
HETATM    7  C   UNL     1      -9.642   6.818  66.839  1.00  0.00    -0.200 C  
HETATM    8  C   UNL     1     -10.923   7.574  71.569  1.00  0.00    -0.256 A  
HETATM    9  C   UNL     1      -8.949  10.281  68.979  1.00  0.00    -0.175 A  
HETATM   10  C   UNL     1     -10.840   7.625  72.965  1.00  0.00    -0.457 A  
HETATM   11  C   UNL     1      -8.909  11.556  68.395  1.00  0.00    -0.163 A  
HETATM   12  C   UNL     1      -9.039   5.706  66.002  1.00  0.00    -0.156 C  
HETATM   13  C   UNL     1      -9.790  11.901  67.378  1.00  0.00    -0.192 A  
HETATM   14  C   UNL     1      -9.630   7.922  73.573  1.00  0.00    -0.281 A  
HETATM   15  N   UNL     1      -8.155   4.832  66.874  1.00  0.00    -0.106 N  
HETATM   16  C   UNL     1     -10.729  10.976  66.946  1.00  0.00    -0.325 A  
HETATM   17  C   UNL     1      -8.592   8.077  71.381  1.00  0.00    -0.156 A  
HETATM   18  C   UNL     1      -8.960   4.250  68.032  1.00  0.00    -0.122 C  
HETATM   19  C   UNL     1      -7.039   5.716  67.460  1.00  0.00    -0.074 C  
HETATM   20  C   UNL     1      -8.505   8.131  72.784  1.00  0.00    -0.250 A  
HETATM   21  C   UNL     1     -10.775   9.712  67.537  1.00  0.00    -0.321 A  
HETATM   22  C   UNL     1      -9.548   5.368  68.875  1.00  0.00    -0.188 C  
HETATM   23  C   UNL     1      -7.654   6.866  68.294  1.00  0.00    -0.107 C  
ENDROOT
BRANCH  15  24
HETATM   24  C   UNL     1      -7.531   3.687  66.022  1.00  0.00    -0.077 C  
BRANCH  24  25
HETATM   25  C   UNL     1      -7.400   2.356  66.793  1.00  0.00    -0.061 C  
BRANCH  25  26
HETATM   26  O   UNL     1      -6.356   2.439  67.753  1.00  0.00    -0.027 OA 
BRANCH  26  27
HETATM   27  C   UNL     1      -6.559   1.491  68.809  1.00  0.00    -0.029 C  
BRANCH  27  28
HETATM   28  C   UNL     1      -6.496   2.235  70.109  1.00  0.00    -0.028 A  
HETATM   29  C   UNL     1      -5.486   3.179  70.337  1.00  0.00    -0.012 A  
HETATM   30  C   UNL     1      -5.404   3.839  71.561  1.00  0.00    -0.004 A  
HETATM   31  C   UNL     1      -6.326   3.558  72.569  1.00  0.00    -0.014 A  
HETATM   32  C   UNL     1      -7.332   2.619  72.353  1.00  0.00    -0.039 A  
HETATM   33  C   UNL     1      -7.416   1.956  71.131  1.00  0.00    -0.033 A  
ENDBRANCH  27  28
ENDBRANCH  26  27
ENDBRANCH  25  26
ENDBRANCH  24  25
ENDBRANCH  15  24
TORSDOF 5
ENDMDL
MODEL      129
REMARK 921   NORMALIZED FREE ENERGY PREDICTED BY IDOCK:   -3.24 KCAL/MOL
REMARK 922        TOTAL FREE ENERGY PREDICTED BY IDOCK:   -5.65 KCAL/MOL
REMARK 923 INTER-LIGAND FREE ENERGY PREDICTED BY IDOCK:   -5.19 KCAL/MOL
REMARK 924 INTRA-LIGAND FREE ENERGY PREDICTED BY IDOCK:   -0.46 KCAL/MOL
REMARK 927      BINDING AFFINITY PREDICTED BY RF-SCORE:    0.00 PKD
ROOT
HETATM    1  O   UNL     1     -10.927  12.174  68.373  1.00  0.00    -0.209 OA 
HETATM    2  C   UNL     1      -9.876  12.231  67.364  1.00  0.00    -0.198 C  
HETATM    3  H   UNL     1     -10.457  12.025  69.185  1.00  0.00     0.000 HD 
HETATM    4  C   UNL     1      -9.228  10.768  67.472  1.00  0.00    -0.150 C  
HETATM    5  C   UNL     1      -8.979  13.419  67.821  1.00  0.00    -0.205 A  
HETATM    6  C   UNL     1     -10.645  12.473  66.035  1.00  0.00    -0.289 A  
HETATM    7  C   UNL     1     -10.309   9.675  67.207  1.00  0.00    -0.310 C  
HETATM    8  C   UNL     1      -9.347  14.224  68.928  1.00  0.00    -0.054 A  
HETATM    9  C   UNL     1     -10.085  13.101  64.912  1.00  0.00    -0.236 A  
HETATM   10  C   UNL     1      -8.634  15.368  69.302  1.00  0.00    -0.252 A  
HETATM   11  C   UNL     1     -10.829  13.295  63.738  1.00  0.00    -0.049 A  
HETATM   12  C   UNL     1      -9.803   8.262  67.422  1.00  0.00    -0.188 C  
HETATM   13  C   UNL     1     -12.144  12.856  63.648  1.00  0.00    -0.611 A  
HETATM   14  C   UNL     1      -7.506  15.741  68.587  1.00  0.00    -0.151 A  
HETATM   15  N   UNL     1      -8.350   8.300  67.862  1.00  0.00    -0.127 N  
HETATM   16  C   UNL     1     -12.730  12.228  64.738  1.00  0.00    -0.198 A  
HETATM   17  C   UNL     1      -7.798  13.799  67.156  1.00  0.00    -0.030 A  
HETATM   18  C   UNL     1      -8.203   9.119  69.140  1.00  0.00    -0.117 C  
HETATM   19  C   UNL     1      -7.534   8.990  66.753  1.00  0.00    -0.086 C  
HETATM   20  C   UNL     1      -7.079  14.950  67.528  1.00  0.00    -0.215 A  
HETATM   21  C   UNL     1     -11.992  12.047  65.908  1.00  0.00    -0.125 A  
HETATM   22  C   UNL     1      -8.696  10.538  68.914  1.00  0.00    -0.154 C  
HETATM   23  C   UNL     1      -8.067  10.424  66.514  1.00  0.00    -0.122 C  
ENDROOT
BRANCH  15  24
HETATM   24  C   UNL     1      -7.821   6.853  68.086  1.00  0.00    -0.114 C  
BRANCH  24  25
HETATM   25  C   UNL     1      -8.730   6.005  68.999  1.00  0.00    -0.122 C  
BRANCH  25  26
HETATM   26  O   UNL     1      -8.514   4.620  68.768  1.00  0.00    -0.084 OA 
BRANCH  26  27
HETATM   27  C   UNL     1      -9.570   4.066  67.973  1.00  0.00    -0.136 C  
BRANCH  27  28
HETATM   28  C   UNL     1      -8.976   3.626  66.669  1.00  0.00    -0.149 A  
HETATM   29  C   UNL     1      -7.948   2.674  66.643  1.00  0.00    -0.080 A  
HETATM   30  C   UNL     1      -7.368   2.297  65.434  1.00  0.00    -0.062 A  
HETATM   31  C   UNL     1      -7.807   2.872  64.241  1.00  0.00    -0.078 A  
HETATM   32  C   UNL     1      -8.826   3.821  64.255  1.00  0.00    -0.120 A  
HETATM   33  C   UNL     1      -9.408   4.201  65.463  1.00  0.00    -0.162 A  
ENDBRANCH  27  28
ENDBRANCH  26  27
ENDBRANCH  25  26
ENDBRANCH  24  25
ENDBRANCH  15  24
TORSDOF 5
ENDMDL
MODEL      130
REMARK 921   NORMALIZED FREE ENERGY PREDICTED BY IDOCK:   -3.22 KCAL/MOL
REMARK 922        TOTAL FREE ENERGY PREDICTED BY IDOCK:   -5.63 KCAL/MOL
REMARK 923 INTER-LIGAND FREE ENERGY PREDICTED BY IDOCK:   -5.48 KCAL/MOL
REMARK 924 INTRA-LIGAND FREE ENERGY PREDICTED BY IDOCK:   -0.15 KCAL/MOL
REMARK 927      BINDING AFFINITY PREDICTED BY RF-SCORE:    0.00 PKD
ROOT
HETATM    1  O   UNL     1      -6.263   5.992  69.556  1.00  0.00    -0.027 OA 
HETATM    2  C   UNL     1      -7.425   5.770  68.704  1.00  0.00    -0.085 C  
HETATM    3  H   UNL     1      -6.585   5.821  70.433  1.00  0.00     0.000 HD 
HETATM    4  C   UNL     1      -8.450   6.881  69.239  1.00  0.00    -0.129 C  
HETATM    5  C   UNL     1      -7.813   4.286  68.974  1.00  0.00    -0.061 A  
HETATM    6  C   UNL     1      -6.898   6.051  67.269  1.00  0.00    -0.063 A  
HETATM    7  C   UNL     1      -7.824   8.305  69.107  1.00  0.00    -0.106 C  
HETATM    8  C   UNL     1      -7.007   3.464  69.802  1.00  0.00    -0.041 A  
HETATM    9  C   UNL     1      -7.453   5.488  66.109  1.00  0.00    -0.082 A  
HETATM   10  C   UNL     1      -7.254   2.098  69.979  1.00  0.00    -0.033 A  
HETATM   11  C   UNL     1      -6.933   5.776  64.838  1.00  0.00    -0.052 A  
HETATM   12  C   UNL     1      -8.681   9.398  69.716  1.00  0.00    -0.181 C  
HETATM   13  C   UNL     1      -5.857   6.643  64.689  1.00  0.00    -0.031 A  
HETATM   14  C   UNL     1      -8.334   1.504  69.346  1.00  0.00    -0.068 A  
HETATM   15  N   UNL     1      -9.937   8.790  70.315  1.00  0.00    -0.180 N  
HETATM   16  C   UNL     1      -5.284   7.220  65.813  1.00  0.00    -0.024 A  
HETATM   17  C   UNL     1      -8.931   3.658  68.394  1.00  0.00    -0.176 A  
HETATM   18  C   UNL     1      -9.574   7.750  71.369  1.00  0.00    -0.155 C  
HETATM   19  C   UNL     1     -10.709   8.083  69.186  1.00  0.00    -0.106 C  
HETATM   20  C   UNL     1      -9.181   2.285  68.569  1.00  0.00    -0.235 A  
HETATM   21  C   UNL     1      -5.796   6.922  67.077  1.00  0.00    -0.018 A  
HETATM   22  C   UNL     1      -8.730   6.649  70.750  1.00  0.00    -0.143 C  
HETATM   23  C   UNL     1      -9.826   6.983  68.546  1.00  0.00    -0.147 C  
ENDROOT
BRANCH  15  24
HETATM   24  C   UNL     1     -10.823   9.907  70.942  1.00  0.00    -0.286 C  
BRANCH  24  25
HETATM   25  C   UNL     1     -11.801  10.547  69.935  1.00  0.00    -0.282 C  
BRANCH  25  26
HETATM   26  O   UNL     1     -11.086  11.175  68.880  1.00  0.00    -0.199 OA 
BRANCH  26  27
HETATM   27  C   UNL     1     -11.799  12.319  68.392  1.00  0.00    -0.304 C  
BRANCH  27  28
HETATM   28  C   UNL     1     -11.686  12.324  66.898  1.00  0.00    -0.404 A  
HETATM   29  C   UNL     1     -10.757  11.496  66.254  1.00  0.00    -0.321 A  
HETATM   30  C   UNL     1     -10.623  11.532  64.868  1.00  0.00    -0.360 A  
HETATM   31  C   UNL     1     -11.413  12.400  64.113  1.00  0.00    -0.448 A  
HETATM   32  C   UNL     1     -12.338  13.230  64.743  1.00  0.00    -0.454 A  
HETATM   33  C   UNL     1     -12.473  13.197  66.130  1.00  0.00    -0.274 A  
ENDBRANCH  27  28
ENDBRANCH  26  27
ENDBRANCH  25  26
ENDBRANCH  24  25
ENDBRANCH  15  24
TORSDOF 5
ENDMDL
MODEL      131
REMARK 921   NORMALIZED FREE ENERGY PREDICTED BY IDOCK:   -3.21 KCAL/MOL
REMARK 922        TOTAL FREE ENERGY PREDICTED BY IDOCK:   -5.61 KCAL/MOL
REMARK 923 INTER-LIGAND FREE ENERGY PREDICTED BY IDOCK:   -4.54 KCAL/MOL
REMARK 924 INTRA-LIGAND FREE ENERGY PREDICTED BY IDOCK:   -1.07 KCAL/MOL
REMARK 927      BINDING AFFINITY PREDICTED BY RF-SCORE:    0.00 PKD
ROOT
HETATM    1  O   UNL     1      -9.987   3.105  67.047  1.00  0.00    -0.286 OA 
HETATM    2  C   UNL     1      -8.943   4.121  66.971  1.00  0.00    -0.127 C  
HETATM    3  H   UNL     1     -10.767   3.555  66.746  1.00  0.00     0.000 HD 
HETATM    4  C   UNL     1      -9.480   5.230  67.997  1.00  0.00    -0.147 C  
HETATM    5  C   UNL     1      -8.919   4.525  65.467  1.00  0.00    -0.138 A  
HETATM    6  C   UNL     1      -7.666   3.385  67.464  1.00  0.00    -0.077 A  
HETATM    7  C   UNL     1      -9.666   4.610  69.417  1.00  0.00    -0.272 C  
HETATM    8  C   UNL     1      -9.724   3.844  64.519  1.00  0.00    -0.183 A  
HETATM    9  C   UNL     1      -6.363   3.748  67.093  1.00  0.00    -0.037 A  
HETATM   10  C   UNL     1      -9.649   4.096  63.144  1.00  0.00    -0.132 A  
HETATM   11  C   UNL     1      -5.246   3.044  67.569  1.00  0.00    -0.012 A  
HETATM   12  C   UNL     1     -10.298   5.565  70.413  1.00  0.00    -0.276 C  
HETATM   13  C   UNL     1      -5.398   1.970  68.437  1.00  0.00    -0.013 A  
HETATM   14  C   UNL     1      -8.774   5.059  62.667  1.00  0.00    -0.107 A  
HETATM   15  N   UNL     1     -10.597   6.889  69.733  1.00  0.00    -0.223 N  
HETATM   16  C   UNL     1      -6.672   1.583  68.827  1.00  0.00    -0.029 A  
HETATM   17  C   UNL     1      -8.085   5.533  64.948  1.00  0.00    -0.124 A  
HETATM   18  C   UNL     1     -11.521   6.677  68.539  1.00  0.00     0.126 C  
HETATM   19  C   UNL     1      -9.268   7.471  69.216  1.00  0.00    -0.144 C  
HETATM   20  C   UNL     1      -8.006   5.788  63.567  1.00  0.00    -0.109 A  
HETATM   21  C   UNL     1      -7.782   2.278  68.344  1.00  0.00    -0.054 A  
HETATM   22  C   UNL     1     -10.876   5.734  67.538  1.00  0.00    -0.268 C  
HETATM   23  C   UNL     1      -8.609   6.486  68.218  1.00  0.00    -0.115 C  
ENDROOT
BRANCH  15  24
HETATM   24  C   UNL     1     -11.246   7.876  70.748  1.00  0.00    -0.266 C  
BRANCH  24  25
HETATM   25  C   UNL     1     -11.489   7.249  72.137  1.00  0.00    -0.273 C  
BRANCH  25  26
HETATM   26  O   UNL     1     -10.568   7.770  73.085  1.00  0.00    -0.359 OA 
BRANCH  26  27
HETATM   27  C   UNL     1     -10.394   6.861  74.180  1.00  0.00    -0.243 C  
BRANCH  27  28
HETATM   28  C   UNL     1      -9.382   5.836  73.767  1.00  0.00    -0.138 A  
HETATM   29  C   UNL     1      -8.118   6.232  73.309  1.00  0.00    -0.109 A  
HETATM   30  C   UNL     1      -7.193   5.280  72.886  1.00  0.00    -0.090 A  
HETATM   31  C   UNL     1      -7.525   3.925  72.911  1.00  0.00    -0.072 A  
HETATM   32  C   UNL     1      -8.780   3.522  73.361  1.00  0.00    -0.085 A  
HETATM   33  C   UNL     1      -9.708   4.471  73.784  1.00  0.00    -0.155 A  
ENDBRANCH  27  28
ENDBRANCH  26  27
ENDBRANCH  25  26
ENDBRANCH  24  25
ENDBRANCH  15  24
TORSDOF 5
ENDMDL
MODEL      132
REMARK 921   NORMALIZED FREE ENERGY PREDICTED BY IDOCK:   -3.17 KCAL/MOL
REMARK 922        TOTAL FREE ENERGY PREDICTED BY IDOCK:   -5.56 KCAL/MOL
REMARK 923 INTER-LIGAND FREE ENERGY PREDICTED BY IDOCK:   -4.81 KCAL/MOL
REMARK 924 INTRA-LIGAND FREE ENERGY PREDICTED BY IDOCK:   -0.75 KCAL/MOL
REMARK 927      BINDING AFFINITY PREDICTED BY RF-SCORE:    0.00 PKD
ROOT
HETATM    1  O   UNL     1     -10.698   8.187  70.775  1.00  0.00    -0.215 OA 
HETATM    2  C   UNL     1      -9.481   8.497  70.034  1.00  0.00    -0.164 C  
HETATM    3  H   UNL     1     -10.531   7.325  71.139  1.00  0.00     0.000 HD 
HETATM    4  C   UNL     1      -9.450   7.330  68.935  1.00  0.00    -0.143 C  
HETATM    5  C   UNL     1      -8.360   8.456  71.115  1.00  0.00    -0.163 A  
HETATM    6  C   UNL     1      -9.754   9.906  69.438  1.00  0.00    -0.228 A  
HETATM    7  C   UNL     1     -10.750   7.366  68.071  1.00  0.00    -0.191 C  
HETATM    8  C   UNL     1      -8.678   8.269  72.484  1.00  0.00    -0.284 A  
HETATM    9  C   UNL     1      -8.745  10.823  69.108  1.00  0.00    -0.101 A  
HETATM   10  C   UNL     1      -7.718   8.339  73.500  1.00  0.00    -0.193 A  
HETATM   11  C   UNL     1      -9.051  12.085  68.574  1.00  0.00    -0.107 A  
HETATM   12  C   UNL     1     -10.856   6.209  67.095  1.00  0.00    -0.360 C  
HETATM   13  C   UNL     1     -10.369  12.457  68.341  1.00  0.00    -0.236 A  
HETATM   14  C   UNL     1      -6.392   8.583  73.179  1.00  0.00    -0.104 A  
HETATM   15  N   UNL     1      -9.645   5.304  67.240  1.00  0.00    -0.130 N  
HETATM   16  C   UNL     1     -11.393  11.576  68.653  1.00  0.00    -0.330 A  
HETATM   17  C   UNL     1      -6.996   8.646  70.826  1.00  0.00    -0.059 A  
HETATM   18  C   UNL     1      -9.537   4.786  68.670  1.00  0.00    -0.160 C  
HETATM   19  C   UNL     1      -8.387   6.139  66.935  1.00  0.00    -0.106 C  
HETATM   20  C   UNL     1      -6.029   8.719  71.844  1.00  0.00    -0.063 A  
HETATM   21  C   UNL     1     -11.087  10.327  69.195  1.00  0.00    -0.283 A  
HETATM   22  C   UNL     1      -9.415   5.947  69.641  1.00  0.00    -0.172 C  
HETATM   23  C   UNL     1      -8.291   7.334  67.914  1.00  0.00    -0.119 C  
ENDROOT
BRANCH  15  24
HETATM   24  C   UNL     1      -9.746   4.114  66.241  1.00  0.00    -0.206 C  
BRANCH  24  25
HETATM   25  C   UNL     1      -8.392   3.739  65.601  1.00  0.00    -0.105 C  
BRANCH  25  26
HETATM   26  O   UNL     1      -8.430   3.958  64.198  1.00  0.00    -0.090 OA 
BRANCH  26  27
HETATM   27  C   UNL     1      -7.143   4.360  63.710  1.00  0.00    -0.046 C  
BRANCH  27  28
HETATM   28  C   UNL     1      -7.084   5.857  63.758  1.00  0.00    -0.052 A  
HETATM   29  C   UNL     1      -7.979   6.627  63.004  1.00  0.00    -0.082 A  
HETATM   30  C   UNL     1      -7.896   8.017  63.016  1.00  0.00    -0.148 A  
HETATM   31  C   UNL     1      -6.915   8.650  63.779  1.00  0.00    -0.087 A  
HETATM   32  C   UNL     1      -6.018   7.894  64.530  1.00  0.00    -0.048 A  
HETATM   33  C   UNL     1      -6.098   6.503  64.519  1.00  0.00    -0.034 A  
ENDBRANCH  27  28
ENDBRANCH  26  27
ENDBRANCH  25  26
ENDBRANCH  24  25
ENDBRANCH  15  24
TORSDOF 5
ENDMDL
MODEL      133
REMARK 921   NORMALIZED FREE ENERGY PREDICTED BY IDOCK:   -3.15 KCAL/MOL
REMARK 922        TOTAL FREE ENERGY PREDICTED BY IDOCK:   -5.54 KCAL/MOL
REMARK 923 INTER-LIGAND FREE ENERGY PREDICTED BY IDOCK:   -5.37 KCAL/MOL
REMARK 924 INTRA-LIGAND FREE ENERGY PREDICTED BY IDOCK:   -0.17 KCAL/MOL
REMARK 927      BINDING AFFINITY PREDICTED BY RF-SCORE:    0.00 PKD
ROOT
HETATM    1  O   UNL     1      -8.341   5.027  72.410  1.00  0.00    -0.117 OA 
HETATM    2  C   UNL     1      -8.636   5.421  71.037  1.00  0.00    -0.124 C  
HETATM    3  H   UNL     1      -9.092   4.502  72.663  1.00  0.00     0.000 HD 
HETATM    4  C   UNL     1      -9.984   6.271  71.213  1.00  0.00    -0.207 C  
HETATM    5  C   UNL     1      -8.766   4.068  70.276  1.00  0.00    -0.120 A  
HETATM    6  C   UNL     1      -7.409   6.281  70.622  1.00  0.00    -0.082 A  
HETATM    7  C   UNL     1      -9.747   7.469  72.184  1.00  0.00    -0.204 C  
HETATM    8  C   UNL     1      -8.494   2.839  70.928  1.00  0.00    -0.094 A  
HETATM    9  C   UNL     1      -6.980   6.442  69.296  1.00  0.00    -0.067 A  
HETATM   10  C   UNL     1      -8.487   1.612  70.255  1.00  0.00    -0.078 A  
HETATM   11  C   UNL     1      -5.862   7.230  68.981  1.00  0.00    -0.019 A  
HETATM   12  C   UNL     1     -11.011   8.243  72.506  1.00  0.00    -0.354 C  
HETATM   13  C   UNL     1      -5.153   7.889  69.978  1.00  0.00    -0.023 A  
HETATM   14  C   UNL     1      -8.773   1.568  68.899  1.00  0.00    -0.102 A  
HETATM   15  N   UNL     1     -12.192   7.614  71.788  1.00  0.00    -0.300 N  
HETATM   16  C   UNL     1      -5.550   7.757  71.300  1.00  0.00    -0.034 A  
HETATM   17  C   UNL     1      -9.106   3.975  68.913  1.00  0.00    -0.191 A  
HETATM   18  C   UNL     1     -12.345   6.152  72.194  1.00  0.00    -0.068 C  
HETATM   19  C   UNL     1     -11.913   7.666  70.274  1.00  0.00     0.182 C  
HETATM   20  C   UNL     1      -9.098   2.743  68.233  1.00  0.00    -0.227 A  
HETATM   21  C   UNL     1      -6.655   6.962  71.612  1.00  0.00    -0.049 A  
HETATM   22  C   UNL     1     -11.083   5.379  71.855  1.00  0.00    -0.179 C  
HETATM   23  C   UNL     1     -10.609   6.898  69.948  1.00  0.00    -0.256 C  
ENDROOT
BRANCH  15  24
HETATM   24  C   UNL     1     -13.496   8.403  72.113  1.00  0.00    -0.315 C  
BRANCH  24  25
HETATM   25  C   UNL     1     -13.555   9.787  71.434  1.00  0.00    -0.249 C  
BRANCH  25  26
HETATM   26  O   UNL     1     -12.246  10.309  71.253  1.00  0.00    -0.346 OA 
BRANCH  26  27
HETATM   27  C   UNL     1     -12.229  11.296  70.214  1.00  0.00    -0.345 C  
BRANCH  27  28
HETATM   28  C   UNL     1     -11.112  10.954  69.277  1.00  0.00    -0.305 A  
HETATM   29  C   UNL     1      -9.965  10.300  69.748  1.00  0.00    -0.222 A  
HETATM   30  C   UNL     1      -8.909  10.020  68.884  1.00  0.00    -0.148 A  
HETATM   31  C   UNL     1      -8.987  10.395  67.543  1.00  0.00    -0.138 A  
HETATM   32  C   UNL     1     -10.120  11.049  67.065  1.00  0.00    -0.232 A  
HETATM   33  C   UNL     1     -11.178  11.331  67.927  1.00  0.00    -0.353 A  
ENDBRANCH  27  28
ENDBRANCH  26  27
ENDBRANCH  25  26
ENDBRANCH  24  25
ENDBRANCH  15  24
TORSDOF 5
ENDMDL
MODEL      134
REMARK 921   NORMALIZED FREE ENERGY PREDICTED BY IDOCK:   -3.15 KCAL/MOL
REMARK 922        TOTAL FREE ENERGY PREDICTED BY IDOCK:   -5.53 KCAL/MOL
REMARK 923 INTER-LIGAND FREE ENERGY PREDICTED BY IDOCK:   -3.88 KCAL/MOL
REMARK 924 INTRA-LIGAND FREE ENERGY PREDICTED BY IDOCK:   -1.65 KCAL/MOL
REMARK 927      BINDING AFFINITY PREDICTED BY RF-SCORE:    0.00 PKD
ROOT
HETATM    1  O   UNL     1      -6.105   9.946  65.378  1.00  0.00    -0.071 OA 
HETATM    2  C   UNL     1      -7.237   9.467  66.163  1.00  0.00    -0.093 C  
HETATM    3  H   UNL     1      -6.161  10.892  65.450  1.00  0.00     0.000 HD 
HETATM    4  C   UNL     1      -8.483  10.100  65.377  1.00  0.00    -0.162 C  
HETATM    5  C   UNL     1      -6.967  10.026  67.593  1.00  0.00    -0.085 A  
HETATM    6  C   UNL     1      -7.148   7.920  66.045  1.00  0.00    -0.062 A  
HETATM    7  C   UNL     1      -8.487   9.619  63.892  1.00  0.00    -0.190 C  
HETATM    8  C   UNL     1      -5.764  10.714  67.888  1.00  0.00    -0.043 A  
HETATM    9  C   UNL     1      -7.660   7.033  67.004  1.00  0.00    -0.102 A  
HETATM   10  C   UNL     1      -5.429  11.131  69.181  1.00  0.00    -0.040 A  
HETATM   11  C   UNL     1      -7.548   5.643  66.845  1.00  0.00    -0.096 A  
HETATM   12  C   UNL     1      -9.560  10.280  63.049  1.00  0.00    -0.254 C  
HETATM   13  C   UNL     1      -6.937   5.102  65.720  1.00  0.00    -0.066 A  
HETATM   14  C   UNL     1      -6.302  10.889  70.230  1.00  0.00    -0.135 A  
HETATM   15  N   UNL     1     -10.346  11.263  63.898  1.00  0.00    -0.348 N  
HETATM   16  C   UNL     1      -6.420   5.949  64.750  1.00  0.00    -0.038 A  
HETATM   17  C   UNL     1      -7.850   9.848  68.674  1.00  0.00    -0.086 A  
HETATM   18  C   UNL     1      -9.415  12.314  64.493  1.00  0.00     0.255 C  
HETATM   19  C   UNL     1     -10.993  10.482  65.057  1.00  0.00     0.463 C  
HETATM   20  C   UNL     1      -7.516  10.264  69.975  1.00  0.00    -0.143 A  
HETATM   21  C   UNL     1      -6.522   7.331  64.917  1.00  0.00    -0.037 A  
HETATM   22  C   UNL     1      -8.353  11.647  65.350  1.00  0.00     0.553 C  
HETATM   23  C   UNL     1      -9.900   9.785  65.904  1.00  0.00    -0.352 C  
ENDROOT
BRANCH  15  24
HETATM   24  C   UNL     1     -11.451  11.947  63.039  1.00  0.00     0.055 C  
BRANCH  24  25
HETATM   25  C   UNL     1     -12.731  12.271  63.838  1.00  0.00    -0.382 C  
BRANCH  25  26
HETATM   26  O   UNL     1     -12.616  13.540  64.466  1.00  0.00    -0.602 OA 
BRANCH  26  27
HETATM   27  C   UNL     1     -13.028  13.470  65.837  1.00  0.00    -0.015 C  
BRANCH  27  28
HETATM   28  C   UNL     1     -11.840  13.799  66.689  1.00  0.00    -0.445 A  
HETATM   29  C   UNL     1     -11.137  14.996  66.494  1.00  0.00    -0.329 A  
HETATM   30  C   UNL     1     -10.008  15.282  67.258  1.00  0.00    -0.226 A  
HETATM   31  C   UNL     1      -9.568  14.372  68.220  1.00  0.00    -0.211 A  
HETATM   32  C   UNL     1     -10.257  13.178  68.419  1.00  0.00    -0.247 A  
HETATM   33  C   UNL     1     -11.386  12.888  67.656  1.00  0.00    -0.349 A  
ENDBRANCH  27  28
ENDBRANCH  26  27
ENDBRANCH  25  26
ENDBRANCH  24  25
ENDBRANCH  15  24
TORSDOF 5
ENDMDL
MODEL      135
REMARK 921   NORMALIZED FREE ENERGY PREDICTED BY IDOCK:   -3.13 KCAL/MOL
REMARK 922        TOTAL FREE ENERGY PREDICTED BY IDOCK:   -5.50 KCAL/MOL
REMARK 923 INTER-LIGAND FREE ENERGY PREDICTED BY IDOCK:   -5.17 KCAL/MOL
REMARK 924 INTRA-LIGAND FREE ENERGY PREDICTED BY IDOCK:   -0.33 KCAL/MOL
REMARK 927      BINDING AFFINITY PREDICTED BY RF-SCORE:    0.00 PKD
ROOT
HETATM    1  O   UNL     1      -9.877   4.039  67.476  1.00  0.00    -0.163 OA 
HETATM    2  C   UNL     1      -8.775   4.715  66.802  1.00  0.00    -0.111 C  
HETATM    3  H   UNL     1     -10.643   4.543  67.226  1.00  0.00     0.000 HD 
HETATM    4  C   UNL     1      -8.824   6.176  67.459  1.00  0.00    -0.106 C  
HETATM    5  C   UNL     1      -9.145   4.625  65.291  1.00  0.00    -0.151 A  
HETATM    6  C   UNL     1      -7.523   3.891  67.211  1.00  0.00    -0.072 A  
HETATM    7  C   UNL     1      -8.661   6.079  69.009  1.00  0.00    -0.122 C  
HETATM    8  C   UNL     1     -10.281   3.892  64.864  1.00  0.00    -0.172 A  
HETATM    9  C   UNL     1      -6.352   3.813  66.442  1.00  0.00    -0.033 A  
HETATM   10  C   UNL     1     -10.586   3.689  63.513  1.00  0.00    -0.266 A  
HETATM   11  C   UNL     1      -5.252   3.050  66.862  1.00  0.00    -0.008 A  
HETATM   12  C   UNL     1      -8.831   7.409  69.717  1.00  0.00    -0.141 C  
HETATM   13  C   UNL     1      -5.284   2.357  68.065  1.00  0.00    -0.012 A  
HETATM   14  C   UNL     1      -9.769   4.232  62.534  1.00  0.00    -0.129 A  
HETATM   15  N   UNL     1      -9.134   8.495  68.700  1.00  0.00    -0.139 N  
HETATM   16  C   UNL     1      -6.424   2.412  68.854  1.00  0.00    -0.029 A  
HETATM   17  C   UNL     1      -8.374   5.206  64.268  1.00  0.00    -0.137 A  
HETATM   18  C   UNL     1     -10.392   8.148  67.911  1.00  0.00    -0.220 C  
HETATM   19  C   UNL     1      -7.953   8.569  67.714  1.00  0.00    -0.107 C  
HETATM   20  C   UNL     1      -8.676   5.003  62.909  1.00  0.00    -0.096 A  
HETATM   21  C   UNL     1      -7.521   3.162  68.428  1.00  0.00    -0.049 A  
HETATM   22  C   UNL     1     -10.211   6.823  67.191  1.00  0.00    -0.291 C  
HETATM   23  C   UNL     1      -7.763   7.203  67.009  1.00  0.00    -0.107 C  
ENDROOT
BRANCH  15  24
HETATM   24  C   UNL     1      -9.309   9.866  69.419  1.00  0.00    -0.214 C  
BRANCH  24  25
HETATM   25  C   UNL     1      -8.614  11.032  68.685  1.00  0.00    -0.157 C  
BRANCH  25  26
HETATM   26  O   UNL     1      -9.494  11.616  67.735  1.00  0.00    -0.170 OA 
BRANCH  26  27
HETATM   27  C   UNL     1      -8.982  12.872  67.270  1.00  0.00    -0.208 C  
BRANCH  27  28
HETATM   28  C   UNL     1      -9.915  13.947  67.738  1.00  0.00    -0.241 A  
HETATM   29  C   UNL     1      -9.651  15.292  67.444  1.00  0.00    -0.207 A  
HETATM   30  C   UNL     1     -10.496  16.294  67.915  1.00  0.00    -0.295 A  
HETATM   31  C   UNL     1     -11.609  15.962  68.687  1.00  0.00    -0.383 A  
HETATM   32  C   UNL     1     -11.880  14.629  68.986  1.00  0.00    -0.346 A  
HETATM   33  C   UNL     1     -11.036  13.624  68.518  1.00  0.00    -0.289 A  
ENDBRANCH  27  28
ENDBRANCH  26  27
ENDBRANCH  25  26
ENDBRANCH  24  25
ENDBRANCH  15  24
TORSDOF 5
ENDMDL
MODEL      136
REMARK 921   NORMALIZED FREE ENERGY PREDICTED BY IDOCK:   -3.12 KCAL/MOL
REMARK 922        TOTAL FREE ENERGY PREDICTED BY IDOCK:   -5.49 KCAL/MOL
REMARK 923 INTER-LIGAND FREE ENERGY PREDICTED BY IDOCK:   -5.11 KCAL/MOL
REMARK 924 INTRA-LIGAND FREE ENERGY PREDICTED BY IDOCK:   -0.38 KCAL/MOL
REMARK 927      BINDING AFFINITY PREDICTED BY RF-SCORE:    0.00 PKD
ROOT
HETATM    1  O   UNL     1      -6.353   5.498  68.480  1.00  0.00    -0.034 OA 
HETATM    2  C   UNL     1      -7.774   5.302  68.217  1.00  0.00    -0.080 C  
HETATM    3  H   UNL     1      -6.329   6.252  69.058  1.00  0.00     0.000 HD 
HETATM    4  C   UNL     1      -8.175   6.676  67.497  1.00  0.00    -0.122 C  
HETATM    5  C   UNL     1      -8.388   5.057  69.628  1.00  0.00    -0.088 A  
HETATM    6  C   UNL     1      -7.813   4.069  67.271  1.00  0.00    -0.091 A  
HETATM    7  C   UNL     1      -7.312   6.888  66.214  1.00  0.00    -0.076 C  
HETATM    8  C   UNL     1      -7.559   4.957  70.774  1.00  0.00    -0.066 A  
HETATM    9  C   UNL     1      -8.910   3.201  67.165  1.00  0.00    -0.155 A  
HETATM   10  C   UNL     1      -8.055   4.624  72.039  1.00  0.00    -0.101 A  
HETATM   11  C   UNL     1      -8.888   2.100  66.294  1.00  0.00    -0.121 A  
HETATM   12  C   UNL     1      -7.540   8.232  65.549  1.00  0.00    -0.087 C  
HETATM   13  C   UNL     1      -7.779   1.847  65.496  1.00  0.00    -0.072 A  
HETATM   14  C   UNL     1      -9.412   4.396  72.209  1.00  0.00    -0.183 A  
HETATM   15  N   UNL     1      -8.561   9.028  66.342  1.00  0.00    -0.122 N  
HETATM   16  C   UNL     1      -6.676   2.685  65.573  1.00  0.00    -0.039 A  
HETATM   17  C   UNL     1      -9.765   4.873  69.853  1.00  0.00    -0.276 A  
HETATM   18  C   UNL     1      -8.087   9.219  67.779  1.00  0.00    -0.104 C  
HETATM   19  C   UNL     1      -9.875   8.224  66.371  1.00  0.00    -0.213 C  
HETATM   20  C   UNL     1     -10.267   4.537  71.123  1.00  0.00    -0.163 A  
HETATM   21  C   UNL     1      -6.696   3.772  66.449  1.00  0.00    -0.049 A  
HETATM   22  C   UNL     1      -7.876   7.870  68.445  1.00  0.00    -0.120 C  
HETATM   23  C   UNL     1      -9.637   6.842  67.027  1.00  0.00    -0.188 C  
ENDROOT
BRANCH  15  24
HETATM   24  C   UNL     1      -8.802  10.411  65.666  1.00  0.00    -0.173 C  
BRANCH  24  25
HETATM   25  C   UNL     1      -8.551  11.604  66.612  1.00  0.00    -0.179 C  
BRANCH  25  26
HETATM   26  O   UNL     1      -9.760  12.314  66.846  1.00  0.00    -0.204 OA 
BRANCH  26  27
HETATM   27  C   UNL     1      -9.505  13.716  66.997  1.00  0.00    -0.252 C  
BRANCH  27  28
HETATM   28  C   UNL     1     -10.391  14.448  66.035  1.00  0.00    -0.319 A  
HETATM   29  C   UNL     1     -11.475  13.795  65.432  1.00  0.00    -0.318 A  
HETATM   30  C   UNL     1     -12.272  14.463  64.506  1.00  0.00    -0.483 A  
HETATM   31  C   UNL     1     -11.990  15.787  64.169  1.00  0.00     0.012 A  
HETATM   32  C   UNL     1     -10.913  16.444  64.760  1.00  0.00    -0.246 A  
HETATM   33  C   UNL     1     -10.113  15.778  65.686  1.00  0.00    -0.401 A  
ENDBRANCH  27  28
ENDBRANCH  26  27
ENDBRANCH  25  26
ENDBRANCH  24  25
ENDBRANCH  15  24
TORSDOF 5
ENDMDL
MODEL      137
REMARK 921   NORMALIZED FREE ENERGY PREDICTED BY IDOCK:   -3.10 KCAL/MOL
REMARK 922        TOTAL FREE ENERGY PREDICTED BY IDOCK:   -5.47 KCAL/MOL
REMARK 923 INTER-LIGAND FREE ENERGY PREDICTED BY IDOCK:   -5.14 KCAL/MOL
REMARK 924 INTRA-LIGAND FREE ENERGY PREDICTED BY IDOCK:   -0.33 KCAL/MOL
REMARK 927      BINDING AFFINITY PREDICTED BY RF-SCORE:    0.00 PKD
ROOT
HETATM    1  O   UNL     1      -6.309   8.073  66.450  1.00  0.00    -0.045 OA 
HETATM    2  C   UNL     1      -7.541   8.852  66.489  1.00  0.00    -0.092 C  
HETATM    3  H   UNL     1      -6.213   7.751  67.339  1.00  0.00     0.000 HD 
HETATM    4  C   UNL     1      -7.180   9.998  67.550  1.00  0.00    -0.089 C  
HETATM    5  C   UNL     1      -8.625   7.822  66.926  1.00  0.00    -0.130 A  
HETATM    6  C   UNL     1      -7.697   9.379  65.035  1.00  0.00    -0.110 A  
HETATM    7  C   UNL     1      -5.930  10.803  67.076  1.00  0.00    -0.063 C  
HETATM    8  C   UNL     1      -8.304   6.450  67.077  1.00  0.00    -0.112 A  
HETATM    9  C   UNL     1      -8.929   9.715  64.454  1.00  0.00    -0.276 A  
HETATM   10  C   UNL     1      -9.268   5.474  67.356  1.00  0.00    -0.110 A  
HETATM   11  C   UNL     1      -9.009  10.184  63.133  1.00  0.00    -0.260 A  
HETATM   12  C   UNL     1      -5.446  11.819  68.092  1.00  0.00    -0.044 C  
HETATM   13  C   UNL     1      -7.864  10.344  62.364  1.00  0.00    -0.182 A  
HETATM   14  C   UNL     1     -10.595   5.842  67.512  1.00  0.00    -0.347 A  
HETATM   15  N   UNL     1      -6.324  11.763  69.330  1.00  0.00    -0.093 N  
HETATM   16  C   UNL     1      -6.627  10.024  62.906  1.00  0.00    -0.127 A  
HETATM   17  C   UNL     1      -9.973   8.162  67.147  1.00  0.00    -0.304 A  
HETATM   18  C   UNL     1      -6.308  10.361  69.930  1.00  0.00    -0.095 C  
HETATM   19  C   UNL     1      -7.768  12.088  68.905  1.00  0.00     0.014 C  
HETATM   20  C   UNL     1     -10.945   7.184  67.425  1.00  0.00    -0.296 A  
HETATM   21  C   UNL     1      -6.551   9.546  64.215  1.00  0.00    -0.100 A  
HETATM   22  C   UNL     1      -6.810   9.350  68.913  1.00  0.00    -0.055 C  
HETATM   23  C   UNL     1      -8.255  11.066  67.848  1.00  0.00    -0.119 C  
ENDROOT
BRANCH  15  24
HETATM   24  C   UNL     1      -5.834  12.804  70.380  1.00  0.00    -0.153 C  
BRANCH  24  25
HETATM   25  C   UNL     1      -5.430  14.155  69.755  1.00  0.00    -0.096 C  
BRANCH  25  26
HETATM   26  O   UNL     1      -6.578  14.963  69.534  1.00  0.00    -0.129 OA 
BRANCH  26  27
HETATM   27  C   UNL     1      -6.791  15.173  68.132  1.00  0.00    -0.128 C  
BRANCH  27  28
HETATM   28  C   UNL     1      -8.063  15.950  67.975  1.00  0.00    -0.144 A  
HETATM   29  C   UNL     1      -8.412  16.494  66.731  1.00  0.00    -0.273 A  
HETATM   30  C   UNL     1      -9.573  17.252  66.596  1.00  0.00    -0.286 A  
HETATM   31  C   UNL     1     -10.392  17.477  67.702  1.00  0.00    -0.360 A  
HETATM   32  C   UNL     1     -10.053  16.943  68.943  1.00  0.00    -0.297 A  
HETATM   33  C   UNL     1      -8.892  16.186  69.082  1.00  0.00    -0.239 A  
ENDBRANCH  27  28
ENDBRANCH  26  27
ENDBRANCH  25  26
ENDBRANCH  24  25
ENDBRANCH  15  24
TORSDOF 5
ENDMDL
MODEL      138
REMARK 921   NORMALIZED FREE ENERGY PREDICTED BY IDOCK:   -3.09 KCAL/MOL
REMARK 922        TOTAL FREE ENERGY PREDICTED BY IDOCK:   -5.46 KCAL/MOL
REMARK 923 INTER-LIGAND FREE ENERGY PREDICTED BY IDOCK:   -5.10 KCAL/MOL
REMARK 924 INTRA-LIGAND FREE ENERGY PREDICTED BY IDOCK:   -0.36 KCAL/MOL
REMARK 927      BINDING AFFINITY PREDICTED BY RF-SCORE:    0.00 PKD
ROOT
HETATM    1  O   UNL     1      -8.848  14.008  66.872  1.00  0.00    -0.252 OA 
HETATM    2  C   UNL     1      -9.958  13.133  67.229  1.00  0.00    -0.230 C  
HETATM    3  H   UNL     1      -8.429  13.562  66.145  1.00  0.00     0.000 HD 
HETATM    4  C   UNL     1      -9.201  11.785  67.653  1.00  0.00    -0.180 C  
HETATM    5  C   UNL     1     -10.816  13.063  65.930  1.00  0.00    -0.291 A  
HETATM    6  C   UNL     1     -10.643  13.862  68.418  1.00  0.00    -0.262 A  
HETATM    7  C   UNL     1      -8.208  12.067  68.824  1.00  0.00     0.027 C  
HETATM    8  C   UNL     1     -10.488  13.854  64.800  1.00  0.00    -0.451 A  
HETATM    9  C   UNL     1     -11.997  13.708  68.754  1.00  0.00    -0.394 A  
HETATM   10  C   UNL     1     -11.293  13.910  63.657  1.00  0.00     0.387 A  
HETATM   11  C   UNL     1     -12.562  14.395  69.839  1.00  0.00    -0.217 A  
HETATM   12  C   UNL     1      -7.356  10.868  69.193  1.00  0.00    -0.126 C  
HETATM   13  C   UNL     1     -11.790  15.240  70.627  1.00  0.00    -0.376 A  
HETATM   14  C   UNL     1     -12.455  13.156  63.595  1.00  0.00    -0.374 A  
HETATM   15  N   UNL     1      -7.701   9.697  68.289  1.00  0.00    -0.082 N  
HETATM   16  C   UNL     1     -10.447  15.415  70.327  1.00  0.00    -0.264 A  
HETATM   17  C   UNL     1     -11.973  12.272  65.806  1.00  0.00    -0.362 A  
HETATM   18  C   UNL     1      -7.486  10.073  66.827  1.00  0.00    -0.096 C  
HETATM   19  C   UNL     1      -9.192   9.366  68.487  1.00  0.00    -0.131 C  
HETATM   20  C   UNL     1     -12.785  12.327  64.660  1.00  0.00    -0.275 A  
HETATM   21  C   UNL     1      -9.890  14.740  69.239  1.00  0.00    -0.123 A  
HETATM   22  C   UNL     1      -8.354  11.264  66.459  1.00  0.00    -0.168 C  
HETATM   23  C   UNL     1     -10.062  10.598  68.135  1.00  0.00    -0.179 C  
ENDROOT
BRANCH  15  24
HETATM   24  C   UNL     1      -6.831   8.460  68.661  1.00  0.00    -0.063 C  
BRANCH  24  25
HETATM   25  C   UNL     1      -7.657   7.271  69.193  1.00  0.00    -0.102 C  
BRANCH  25  26
HETATM   26  O   UNL     1      -7.459   7.114  70.591  1.00  0.00    -0.078 OA 
BRANCH  26  27
HETATM   27  C   UNL     1      -8.359   6.136  71.127  1.00  0.00    -0.124 C  
BRANCH  27  28
HETATM   28  C   UNL     1      -7.563   5.211  71.997  1.00  0.00    -0.097 A  
HETATM   29  C   UNL     1      -7.247   5.572  73.313  1.00  0.00    -0.090 A  
HETATM   30  C   UNL     1      -6.471   4.731  74.107  1.00  0.00    -0.062 A  
HETATM   31  C   UNL     1      -6.001   3.523  73.591  1.00  0.00    -0.007 A  
HETATM   32  C   UNL     1      -6.308   3.155  72.283  1.00  0.00    -0.014 A  
HETATM   33  C   UNL     1      -7.082   3.995  71.486  1.00  0.00    -0.038 A  
ENDBRANCH  27  28
ENDBRANCH  26  27
ENDBRANCH  25  26
ENDBRANCH  24  25
ENDBRANCH  15  24
TORSDOF 5
ENDMDL
MODEL      139
REMARK 921   NORMALIZED FREE ENERGY PREDICTED BY IDOCK:   -2.91 KCAL/MOL
REMARK 922        TOTAL FREE ENERGY PREDICTED BY IDOCK:   -5.23 KCAL/MOL
REMARK 923 INTER-LIGAND FREE ENERGY PREDICTED BY IDOCK:   -4.84 KCAL/MOL
REMARK 924 INTRA-LIGAND FREE ENERGY PREDICTED BY IDOCK:   -0.39 KCAL/MOL
REMARK 927      BINDING AFFINITY PREDICTED BY RF-SCORE:    0.00 PKD
ROOT
HETATM    1  O   UNL     1      -7.404   8.534  70.108  1.00  0.00    -0.049 OA 
HETATM    2  C   UNL     1      -8.578   8.018  69.413  1.00  0.00    -0.136 C  
HETATM    3  H   UNL     1      -6.724   8.525  69.445  1.00  0.00     0.000 HD 
HETATM    4  C   UNL     1      -8.103   6.543  69.002  1.00  0.00    -0.112 C  
HETATM    5  C   UNL     1      -8.797   9.023  68.243  1.00  0.00    -0.134 A  
HETATM    6  C   UNL     1      -9.692   8.032  70.497  1.00  0.00    -0.179 A  
HETATM    7  C   UNL     1      -7.702   5.728  70.272  1.00  0.00    -0.095 C  
HETATM    8  C   UNL     1      -8.000  10.190  68.130  1.00  0.00    -0.104 A  
HETATM    9  C   UNL     1     -11.061   8.130  70.208  1.00  0.00    -0.221 A  
HETATM   10  C   UNL     1      -8.237  11.176  67.166  1.00  0.00    -0.137 A  
HETATM   11  C   UNL     1     -12.024   8.141  71.230  1.00  0.00    -0.318 A  
HETATM   12  C   UNL     1      -7.115   4.367  69.954  1.00  0.00    -0.046 C  
HETATM   13  C   UNL     1     -11.646   8.039  72.563  1.00  0.00    -0.464 A  
HETATM   14  C   UNL     1      -9.275  11.020  66.261  1.00  0.00    -0.200 A  
HETATM   15  N   UNL     1      -7.063   4.170  68.449  1.00  0.00    -0.054 N  
HETATM   16  C   UNL     1     -10.301   7.939  72.887  1.00  0.00    -0.413 A  
HETATM   17  C   UNL     1      -9.805   8.876  67.272  1.00  0.00    -0.256 A  
HETATM   18  C   UNL     1      -6.235   5.273  67.797  1.00  0.00    -0.038 C  
HETATM   19  C   UNL     1      -8.501   4.264  67.906  1.00  0.00    -0.095 C  
HETATM   20  C   UNL     1     -10.047   9.865  66.303  1.00  0.00    -0.311 A  
HETATM   21  C   UNL     1      -9.346   7.940  71.869  1.00  0.00    -0.204 A  
HETATM   22  C   UNL     1      -6.837   6.633  68.105  1.00  0.00    -0.074 C  
HETATM   23  C   UNL     1      -9.111   5.645  68.252  1.00  0.00    -0.112 C  
ENDROOT
BRANCH  15  24
HETATM   24  C   UNL     1      -6.461   2.774  68.113  1.00  0.00    -0.032 C  
BRANCH  24  25
HETATM   25  C   UNL     1      -7.330   1.955  67.136  1.00  0.00    -0.059 C  
BRANCH  25  26
HETATM   26  O   UNL     1      -7.146   2.413  65.804  1.00  0.00    -0.057 OA 
BRANCH  26  27
HETATM   27  C   UNL     1      -7.744   1.508  64.866  1.00  0.00    -0.063 C  
BRANCH  27  28
HETATM   28  C   UNL     1      -8.735   2.283  64.052  1.00  0.00    -0.091 A  
HETATM   29  C   UNL     1      -8.468   3.609  63.683  1.00  0.00    -0.091 A  
HETATM   30  C   UNL     1      -9.407   4.342  62.962  1.00  0.00    -0.134 A  
HETATM   31  C   UNL     1     -10.624   3.759  62.608  1.00  0.00    -0.204 A  
HETATM   32  C   UNL     1     -10.901   2.443  62.972  1.00  0.00    -0.224 A  
HETATM   33  C   UNL     1      -9.964   1.708  63.694  1.00  0.00    -0.130 A  
ENDBRANCH  27  28
ENDBRANCH  26  27
ENDBRANCH  25  26
ENDBRANCH  24  25
ENDBRANCH  15  24
TORSDOF 5
ENDMDL
MODEL      140
REMARK 921   NORMALIZED FREE ENERGY PREDICTED BY IDOCK:   -2.91 KCAL/MOL
REMARK 922        TOTAL FREE ENERGY PREDICTED BY IDOCK:   -5.22 KCAL/MOL
REMARK 923 INTER-LIGAND FREE ENERGY PREDICTED BY IDOCK:   -5.29 KCAL/MOL
REMARK 924 INTRA-LIGAND FREE ENERGY PREDICTED BY IDOCK:    0.07 KCAL/MOL
REMARK 927      BINDING AFFINITY PREDICTED BY RF-SCORE:    0.00 PKD
ROOT
HETATM    1  O   UNL     1      -6.159   7.670  67.246  1.00  0.00    -0.045 OA 
HETATM    2  C   UNL     1      -7.342   8.261  66.632  1.00  0.00    -0.082 C  
HETATM    3  H   UNL     1      -6.302   7.789  68.178  1.00  0.00     0.000 HD 
HETATM    4  C   UNL     1      -7.239   9.789  67.107  1.00  0.00    -0.087 C  
HETATM    5  C   UNL     1      -8.526   7.435  67.218  1.00  0.00    -0.118 A  
HETATM    6  C   UNL     1      -7.110   8.067  65.107  1.00  0.00    -0.063 A  
HETATM    7  C   UNL     1      -5.891  10.415  66.630  1.00  0.00    -0.061 C  
HETATM    8  C   UNL     1      -8.285   6.312  68.049  1.00  0.00    -0.115 A  
HETATM    9  C   UNL     1      -8.145   7.988  64.163  1.00  0.00    -0.102 A  
HETATM   10  C   UNL     1      -9.310   5.474  68.503  1.00  0.00    -0.143 A  
HETATM   11  C   UNL     1      -7.875   7.810  62.798  1.00  0.00    -0.135 A  
HETATM   12  C   UNL     1      -5.660  11.819  67.154  1.00  0.00    -0.121 C  
HETATM   13  C   UNL     1      -6.567   7.721  62.337  1.00  0.00    -0.080 A  
HETATM   14  C   UNL     1     -10.625   5.743  68.155  1.00  0.00    -0.286 A  
HETATM   15  N   UNL     1      -6.826  12.235  68.033  1.00  0.00    -0.073 N  
HETATM   16  C   UNL     1      -5.518   7.797  63.241  1.00  0.00    -0.050 A  
HETATM   17  C   UNL     1      -9.877   7.705  66.933  1.00  0.00    -0.304 A  
HETATM   18  C   UNL     1      -6.996  11.256  69.190  1.00  0.00    -0.114 C  
HETATM   19  C   UNL     1      -8.106  12.196  67.178  1.00  0.00    -0.175 C  
HETATM   20  C   UNL     1     -10.909   6.865  67.386  1.00  0.00    -0.396 A  
HETATM   21  C   UNL     1      -5.790   7.963  64.600  1.00  0.00    -0.045 A  
HETATM   22  C   UNL     1      -7.243   9.855  68.659  1.00  0.00    -0.072 C  
HETATM   23  C   UNL     1      -8.329  10.769  66.621  1.00  0.00    -0.141 C  
ENDROOT
BRANCH  15  24
HETATM   24  C   UNL     1      -6.597  13.677  68.577  1.00  0.00    -0.088 C  
BRANCH  24  25
HETATM   25  C   UNL     1      -7.759  14.190  69.453  1.00  0.00     0.188 C  
BRANCH  25  26
HETATM   26  O   UNL     1      -8.569  15.100  68.721  1.00  0.00    -0.162 OA 
BRANCH  26  27
HETATM   27  C   UNL     1      -9.754  14.453  68.241  1.00  0.00    -0.222 C  
BRANCH  27  28
HETATM   28  C   UNL     1     -10.833  14.662  69.259  1.00  0.00    -0.272 A  
HETATM   29  C   UNL     1     -10.972  15.900  69.901  1.00  0.00    -0.343 A  
HETATM   30  C   UNL     1     -11.948  16.081  70.878  1.00  0.00    -0.376 A  
HETATM   31  C   UNL     1     -12.791  15.025  71.226  1.00  0.00    -0.438 A  
HETATM   32  C   UNL     1     -12.660  13.790  70.596  1.00  0.00    -0.386 A  
HETATM   33  C   UNL     1     -11.683  13.605  69.620  1.00  0.00    -0.383 A  
ENDBRANCH  27  28
ENDBRANCH  26  27
ENDBRANCH  25  26
ENDBRANCH  24  25
ENDBRANCH  15  24
TORSDOF 5
ENDMDL
MODEL      141
REMARK 921   NORMALIZED FREE ENERGY PREDICTED BY IDOCK:   -2.90 KCAL/MOL
REMARK 922        TOTAL FREE ENERGY PREDICTED BY IDOCK:   -5.21 KCAL/MOL
REMARK 923 INTER-LIGAND FREE ENERGY PREDICTED BY IDOCK:   -3.65 KCAL/MOL
REMARK 924 INTRA-LIGAND FREE ENERGY PREDICTED BY IDOCK:   -1.56 KCAL/MOL
REMARK 927      BINDING AFFINITY PREDICTED BY RF-SCORE:    0.00 PKD
ROOT
HETATM    1  O   UNL     1     -10.699   8.181  70.805  1.00  0.00    -0.215 OA 
HETATM    2  C   UNL     1      -9.494   8.461  70.033  1.00  0.00    -0.164 C  
HETATM    3  H   UNL     1     -10.577   7.287  71.103  1.00  0.00     0.000 HD 
HETATM    4  C   UNL     1      -9.589   7.375  68.858  1.00  0.00    -0.148 C  
HETATM    5  C   UNL     1      -8.336   8.271  71.057  1.00  0.00    -0.138 A  
HETATM    6  C   UNL     1      -9.692   9.924  69.545  1.00  0.00    -0.238 A  
HETATM    7  C   UNL     1     -10.917   7.556  68.057  1.00  0.00     0.004 C  
HETATM    8  C   UNL     1      -8.611   8.010  72.424  1.00  0.00    -0.220 A  
HETATM    9  C   UNL     1      -8.636  10.793  69.232  1.00  0.00    -0.047 A  
HETATM   10  C   UNL     1      -7.608   7.946  73.397  1.00  0.00    -0.184 A  
HETATM   11  C   UNL     1      -8.876  12.106  68.798  1.00  0.00     0.108 A  
HETATM   12  C   UNL     1     -11.142   6.481  67.012  1.00  0.00    -0.339 C  
HETATM   13  C   UNL     1     -10.173  12.580  68.650  1.00  0.00    -0.166 A  
HETATM   14  C   UNL     1      -6.282   8.123  73.034  1.00  0.00    -0.081 A  
HETATM   15  N   UNL     1      -9.992   5.490  67.042  1.00  0.00    -0.155 N  
HETATM   16  C   UNL     1     -11.243  11.749  68.948  1.00  0.00    -0.311 A  
HETATM   17  C   UNL     1      -6.975   8.389  70.720  1.00  0.00    -0.045 A  
HETATM   18  C   UNL     1      -9.862   4.866  68.428  1.00  0.00    -0.136 C  
HETATM   19  C   UNL     1      -8.692   6.258  66.737  1.00  0.00    -0.117 C  
HETATM   20  C   UNL     1      -5.965   8.327  71.697  1.00  0.00    -0.040 A  
HETATM   21  C   UNL     1     -11.002  10.448  69.391  1.00  0.00    -0.296 A  
HETATM   22  C   UNL     1      -9.620   5.947  69.468  1.00  0.00    -0.174 C  
HETATM   23  C   UNL     1      -8.474   7.373  67.789  1.00  0.00    -0.118 C  
ENDROOT
BRANCH  15  24
HETATM   24  C   UNL     1     -10.214   4.381  65.971  1.00  0.00    -0.219 C  
BRANCH  24  25
HETATM   25  C   UNL     1      -9.659   3.005  66.393  1.00  0.00     0.100 C  
BRANCH  25  26
HETATM   26  O   UNL     1      -8.498   2.685  65.638  1.00  0.00    -0.094 OA 
BRANCH  26  27
HETATM   27  C   UNL     1      -7.491   2.102  66.474  1.00  0.00    -0.065 C  
BRANCH  27  28
HETATM   28  C   UNL     1      -6.709   3.220  67.094  1.00  0.00    -0.045 A  
HETATM   29  C   UNL     1      -5.929   4.068  66.296  1.00  0.00    -0.027 A  
HETATM   30  C   UNL     1      -5.170   5.081  66.878  1.00  0.00    -0.008 A  
HETATM   31  C   UNL     1      -5.179   5.251  68.263  1.00  0.00    -0.003 A  
HETATM   32  C   UNL     1      -5.948   4.412  69.065  1.00  0.00    -0.022 A  
HETATM   33  C   UNL     1      -6.707   3.397  68.486  1.00  0.00    -0.045 A  
ENDBRANCH  27  28
ENDBRANCH  26  27
ENDBRANCH  25  26
ENDBRANCH  24  25
ENDBRANCH  15  24
TORSDOF 5
ENDMDL
MODEL      142
REMARK 921   NORMALIZED FREE ENERGY PREDICTED BY IDOCK:   -2.86 KCAL/MOL
REMARK 922        TOTAL FREE ENERGY PREDICTED BY IDOCK:   -5.17 KCAL/MOL
REMARK 923 INTER-LIGAND FREE ENERGY PREDICTED BY IDOCK:   -4.36 KCAL/MOL
REMARK 924 INTRA-LIGAND FREE ENERGY PREDICTED BY IDOCK:   -0.81 KCAL/MOL
REMARK 927      BINDING AFFINITY PREDICTED BY RF-SCORE:    0.00 PKD
ROOT
HETATM    1  O   UNL     1      -9.124   9.599  66.501  1.00  0.00    -0.146 OA 
HETATM    2  C   UNL     1      -8.139   8.528  66.409  1.00  0.00    -0.103 C  
HETATM    3  H   UNL     1      -8.600  10.388  66.574  1.00  0.00     0.000 HD 
HETATM    4  C   UNL     1      -7.369   8.660  67.809  1.00  0.00    -0.092 C  
HETATM    5  C   UNL     1      -7.317   8.881  65.133  1.00  0.00    -0.092 A  
HETATM    6  C   UNL     1      -8.997   7.238  66.290  1.00  0.00    -0.185 A  
HETATM    7  C   UNL     1      -8.371   8.504  68.995  1.00  0.00    -0.118 C  
HETATM    8  C   UNL     1      -7.688   9.973  64.309  1.00  0.00    -0.141 A  
HETATM    9  C   UNL     1      -8.553   6.058  65.673  1.00  0.00    -0.154 A  
HETATM   10  C   UNL     1      -7.050  10.256  63.096  1.00  0.00    -0.110 A  
HETATM   11  C   UNL     1      -9.374   4.923  65.593  1.00  0.00    -0.167 A  
HETATM   12  C   UNL     1      -7.739   8.749  70.353  1.00  0.00    -0.091 C  
HETATM   13  C   UNL     1     -10.651   4.929  66.139  1.00  0.00    -0.322 A  
HETATM   14  C   UNL     1      -5.998   9.461  62.670  1.00  0.00    -0.093 A  
HETATM   15  N   UNL     1      -6.273   9.101  70.179  1.00  0.00    -0.041 N  
HETATM   16  C   UNL     1     -11.124   6.076  66.759  1.00  0.00    -0.201 A  
HETATM   17  C   UNL     1      -6.210   8.133  64.693  1.00  0.00    -0.056 A  
HETATM   18  C   UNL     1      -6.122  10.333  69.292  1.00  0.00    -0.037 C  
HETATM   19  C   UNL     1      -5.578   7.917  69.480  1.00  0.00    -0.026 C  
HETATM   20  C   UNL     1      -5.567   8.412  63.473  1.00  0.00    -0.067 A  
HETATM   21  C   UNL     1     -10.310   7.208  66.826  1.00  0.00    -0.297 A  
HETATM   22  C   UNL     1      -6.741  10.076  67.929  1.00  0.00    -0.067 C  
HETATM   23  C   UNL     1      -6.238   7.650  68.105  1.00  0.00    -0.044 C  
ENDROOT
BRANCH  15  24
HETATM   24  C   UNL     1      -5.616   9.354  71.568  1.00  0.00    -0.073 C  
BRANCH  24  25
HETATM   25  C   UNL     1      -6.504   8.915  72.751  1.00  0.00     0.090 C  
BRANCH  25  26
HETATM   26  O   UNL     1      -6.348   7.525  73.000  1.00  0.00    -0.058 OA 
BRANCH  26  27
HETATM   27  C   UNL     1      -7.360   7.051  73.898  1.00  0.00    -0.090 C  
BRANCH  27  28
HETATM   28  C   UNL     1      -8.638   6.934  73.125  1.00  0.00    -0.135 A  
HETATM   29  C   UNL     1      -9.736   7.747  73.440  1.00  0.00    -0.353 A  
HETATM   30  C   UNL     1     -10.937   7.608  72.748  1.00  0.00    -0.432 A  
HETATM   31  C   UNL     1     -11.053   6.652  71.739  1.00  0.00    -0.287 A  
HETATM   32  C   UNL     1      -9.970   5.837  71.419  1.00  0.00    -0.234 A  
HETATM   33  C   UNL     1      -8.768   5.973  72.110  1.00  0.00    -0.132 A  
ENDBRANCH  27  28
ENDBRANCH  26  27
ENDBRANCH  25  26
ENDBRANCH  24  25
ENDBRANCH  15  24
TORSDOF 5
ENDMDL
MODEL      143
REMARK 921   NORMALIZED FREE ENERGY PREDICTED BY IDOCK:   -2.85 KCAL/MOL
REMARK 922        TOTAL FREE ENERGY PREDICTED BY IDOCK:   -5.15 KCAL/MOL
REMARK 923 INTER-LIGAND FREE ENERGY PREDICTED BY IDOCK:   -6.13 KCAL/MOL
REMARK 924 INTRA-LIGAND FREE ENERGY PREDICTED BY IDOCK:    0.98 KCAL/MOL
REMARK 927      BINDING AFFINITY PREDICTED BY RF-SCORE:    0.00 PKD
ROOT
HETATM    1  O   UNL     1     -11.536  10.065  67.290  1.00  0.00    -0.351 OA 
HETATM    2  C   UNL     1     -10.210  10.629  67.515  1.00  0.00    -0.199 C  
HETATM    3  H   UNL     1     -11.381   9.129  67.239  1.00  0.00     0.000 HD 
HETATM    4  C   UNL     1      -9.425  10.179  66.192  1.00  0.00    -0.238 C  
HETATM    5  C   UNL     1      -9.744   9.975  68.850  1.00  0.00    -0.181 A  
HETATM    6  C   UNL     1     -10.463  12.160  67.597  1.00  0.00    -0.225 A  
HETATM    7  C   UNL     1     -10.145  10.728  64.921  1.00  0.00    -0.387 C  
HETATM    8  C   UNL     1     -10.617   9.142  69.595  1.00  0.00    -0.237 A  
HETATM    9  C   UNL     1      -9.635  13.052  68.296  1.00  0.00    -0.213 A  
HETATM   10  C   UNL     1     -10.282   8.629  70.852  1.00  0.00    -0.261 A  
HETATM   11  C   UNL     1      -9.915  14.426  68.338  1.00  0.00    -0.241 A  
HETATM   12  C   UNL     1      -9.537  10.233  63.622  1.00  0.00    -0.277 C  
HETATM   13  C   UNL     1     -11.016  14.949  67.673  1.00  0.00    -0.300 A  
HETATM   14  C   UNL     1      -9.044   8.916  71.406  1.00  0.00    -0.318 A  
HETATM   15  N   UNL     1      -8.374   9.304  63.923  1.00  0.00    -0.169 N  
HETATM   16  C   UNL     1     -11.856  14.098  66.969  1.00  0.00    -0.458 A  
HETATM   17  C   UNL     1      -8.477  10.197  69.422  1.00  0.00    -0.179 A  
HETATM   18  C   UNL     1      -8.840   8.128  64.775  1.00  0.00     0.243 C  
HETATM   19  C   UNL     1      -7.327  10.096  64.728  1.00  0.00    -0.134 C  
HETATM   20  C   UNL     1      -8.138   9.684  70.686  1.00  0.00    -0.068 A  
HETATM   21  C   UNL     1     -11.583  12.730  66.939  1.00  0.00    -0.428 A  
HETATM   22  C   UNL     1      -9.433   8.629  66.081  1.00  0.00    -0.308 C  
HETATM   23  C   UNL     1      -7.954  10.624  66.042  1.00  0.00    -0.159 C  
ENDROOT
BRANCH  15  24
HETATM   24  C   UNL     1      -7.743   8.791  62.595  1.00  0.00    -0.121 C  
BRANCH  24  25
HETATM   25  C   UNL     1      -6.737   7.640  62.803  1.00  0.00    -0.071 C  
BRANCH  25  26
HETATM   26  O   UNL     1      -6.961   7.005  64.055  1.00  0.00    -0.052 OA 
BRANCH  26  27
HETATM   27  C   UNL     1      -6.532   5.638  64.017  1.00  0.00    -0.032 C  
BRANCH  27  28
HETATM   28  C   UNL     1      -7.756   4.775  64.004  1.00  0.00    -0.079 A  
HETATM   29  C   UNL     1      -8.076   4.014  62.872  1.00  0.00    -0.076 A  
HETATM   30  C   UNL     1      -9.237   3.245  62.845  1.00  0.00    -0.092 A  
HETATM   31  C   UNL     1     -10.091   3.233  63.947  1.00  0.00    -0.189 A  
HETATM   32  C   UNL     1      -9.785   3.988  65.077  1.00  0.00    -0.195 A  
HETATM   33  C   UNL     1      -8.625   4.759  65.106  1.00  0.00    -0.140 A  
ENDBRANCH  27  28
ENDBRANCH  26  27
ENDBRANCH  25  26
ENDBRANCH  24  25
ENDBRANCH  15  24
TORSDOF 5
ENDMDL
MODEL      144
REMARK 921   NORMALIZED FREE ENERGY PREDICTED BY IDOCK:   -2.84 KCAL/MOL
REMARK 922        TOTAL FREE ENERGY PREDICTED BY IDOCK:   -5.14 KCAL/MOL
REMARK 923 INTER-LIGAND FREE ENERGY PREDICTED BY IDOCK:   -4.71 KCAL/MOL
REMARK 924 INTRA-LIGAND FREE ENERGY PREDICTED BY IDOCK:   -0.43 KCAL/MOL
REMARK 927      BINDING AFFINITY PREDICTED BY RF-SCORE:    0.00 PKD
ROOT
HETATM    1  O   UNL     1      -8.985   5.643  68.810  1.00  0.00    -0.114 OA 
HETATM    2  C   UNL     1      -8.352   6.431  69.860  1.00  0.00    -0.130 C  
HETATM    3  H   UNL     1      -8.295   5.517  68.170  1.00  0.00     0.000 HD 
HETATM    4  C   UNL     1      -7.949   7.771  69.077  1.00  0.00    -0.123 C  
HETATM    5  C   UNL     1      -7.173   5.535  70.346  1.00  0.00    -0.067 A  
HETATM    6  C   UNL     1      -9.481   6.639  70.907  1.00  0.00    -0.169 A  
HETATM    7  C   UNL     1      -9.216   8.437  68.455  1.00  0.00    -0.135 C  
HETATM    8  C   UNL     1      -7.004   4.221  69.840  1.00  0.00    -0.042 A  
HETATM    9  C   UNL     1      -9.250   6.862  72.272  1.00  0.00    -0.144 A  
HETATM   10  C   UNL     1      -6.032   3.343  70.330  1.00  0.00    -0.018 A  
HETATM   11  C   UNL     1     -10.311   7.041  73.173  1.00  0.00    -0.314 A  
HETATM   12  C   UNL     1      -8.900   9.639  67.585  1.00  0.00    -0.125 C  
HETATM   13  C   UNL     1     -11.629   7.016  72.734  1.00  0.00    -0.144 A  
HETATM   14  C   UNL     1      -5.175   3.756  71.339  1.00  0.00     0.000 A  
HETATM   15  N   UNL     1      -7.398   9.861  67.546  1.00  0.00    -0.090 N  
HETATM   16  C   UNL     1     -11.896   6.800  71.390  1.00  0.00    -0.385 A  
HETATM   17  C   UNL     1      -6.249   5.935  71.329  1.00  0.00    -0.039 A  
HETATM   18  C   UNL     1      -6.691   8.619  67.015  1.00  0.00    -0.062 C  
HETATM   19  C   UNL     1      -6.915  10.111  68.987  1.00  0.00    -0.058 C  
HETATM   20  C   UNL     1      -5.272   5.054  71.825  1.00  0.00    -0.005 A  
HETATM   21  C   UNL     1     -10.840   6.611  70.498  1.00  0.00    -0.310 A  
HETATM   22  C   UNL     1      -6.998   7.422  67.899  1.00  0.00    -0.072 C  
HETATM   23  C   UNL     1      -7.260   8.895  69.882  1.00  0.00    -0.052 C  
ENDROOT
BRANCH  15  24
HETATM   24  C   UNL     1      -7.064  11.094  66.655  1.00  0.00    -0.141 C  
BRANCH  24  25
HETATM   25  C   UNL     1      -7.740  12.395  67.136  1.00  0.00    -0.122 C  
BRANCH  25  26
HETATM   26  O   UNL     1      -8.612  12.900  66.135  1.00  0.00     0.248 OA 
BRANCH  26  27
HETATM   27  C   UNL     1      -9.889  13.236  66.693  1.00  0.00    -0.276 C  
BRANCH  27  28
HETATM   28  C   UNL     1      -9.901  14.713  66.948  1.00  0.00    -0.252 A  
HETATM   29  C   UNL     1      -9.175  15.582  66.123  1.00  0.00    -0.379 A  
HETATM   30  C   UNL     1      -9.154  16.949  66.386  1.00  0.00    -0.315 A  
HETATM   31  C   UNL     1      -9.854  17.460  67.479  1.00  0.00    -0.277 A  
HETATM   32  C   UNL     1     -10.577  16.606  68.307  1.00  0.00    -0.338 A  
HETATM   33  C   UNL     1     -10.599  15.237  68.048  1.00  0.00    -0.261 A  
ENDBRANCH  27  28
ENDBRANCH  26  27
ENDBRANCH  25  26
ENDBRANCH  24  25
ENDBRANCH  15  24
TORSDOF 5
ENDMDL
MODEL      145
REMARK 921   NORMALIZED FREE ENERGY PREDICTED BY IDOCK:   -2.78 KCAL/MOL
REMARK 922        TOTAL FREE ENERGY PREDICTED BY IDOCK:   -5.06 KCAL/MOL
REMARK 923 INTER-LIGAND FREE ENERGY PREDICTED BY IDOCK:   -4.66 KCAL/MOL
REMARK 924 INTRA-LIGAND FREE ENERGY PREDICTED BY IDOCK:   -0.40 KCAL/MOL
REMARK 927      BINDING AFFINITY PREDICTED BY RF-SCORE:    0.00 PKD
ROOT
HETATM    1  O   UNL     1      -6.706   4.810  71.291  1.00  0.00    -0.032 OA 
HETATM    2  C   UNL     1      -8.127   4.791  70.966  1.00  0.00    -0.088 C  
HETATM    3  H   UNL     1      -6.652   5.381  72.049  1.00  0.00     0.000 HD 
HETATM    4  C   UNL     1      -8.415   6.333  70.631  1.00  0.00    -0.134 C  
HETATM    5  C   UNL     1      -8.802   4.227  72.252  1.00  0.00    -0.123 A  
HETATM    6  C   UNL     1      -8.216   3.859  69.726  1.00  0.00    -0.067 A  
HETATM    7  C   UNL     1      -7.499   6.814  69.462  1.00  0.00    -0.093 C  
HETATM    8  C   UNL     1      -8.018   3.769  73.341  1.00  0.00    -0.087 A  
HETATM    9  C   UNL     1      -9.363   3.130  69.377  1.00  0.00    -0.225 A  
HETATM   10  C   UNL     1      -8.576   3.150  74.465  1.00  0.00    -0.076 A  
HETATM   11  C   UNL     1      -9.384   2.300  68.245  1.00  0.00    -0.267 A  
HETATM   12  C   UNL     1      -7.618   8.298  69.176  1.00  0.00    -0.088 C  
HETATM   13  C   UNL     1      -8.269   2.188  67.424  1.00  0.00    -0.073 A  
HETATM   14  C   UNL     1      -9.950   2.983  74.549  1.00  0.00    -0.176 A  
HETATM   15  N   UNL     1      -8.610   8.927  70.138  1.00  0.00    -0.142 N  
HETATM   16  C   UNL     1      -7.117   2.896  67.736  1.00  0.00    -0.049 A  
HETATM   17  C   UNL     1     -10.194   4.089  72.400  1.00  0.00    -0.232 A  
HETATM   18  C   UNL     1      -8.171   8.697  71.580  1.00  0.00    -0.144 C  
HETATM   19  C   UNL     1      -9.973   8.240  69.934  1.00  0.00    -0.190 C  
HETATM   20  C   UNL     1     -10.758   3.466  73.528  1.00  0.00    -0.306 A  
HETATM   21  C   UNL     1      -7.095   3.710  68.869  1.00  0.00    -0.050 A  
HETATM   22  C   UNL     1      -8.070   7.209  71.866  1.00  0.00    -0.097 C  
HETATM   23  C   UNL     1      -9.847   6.720  70.202  1.00  0.00    -0.187 C  
ENDROOT
BRANCH  15  24
HETATM   24  C   UNL     1      -8.739  10.453  69.850  1.00  0.00     0.170 C  
BRANCH  24  25
HETATM   25  C   UNL     1      -9.979  10.811  69.006  1.00  0.00    -0.199 C  
BRANCH  25  26
HETATM   26  O   UNL     1      -9.790  12.057  68.350  1.00  0.00    -0.207 OA 
BRANCH  26  27
HETATM   27  C   UNL     1      -8.500  12.116  67.729  1.00  0.00    -0.160 C  
BRANCH  27  28
HETATM   28  C   UNL     1      -8.606  11.450  66.391  1.00  0.00    -0.174 A  
HETATM   29  C   UNL     1      -9.810  11.486  65.675  1.00  0.00    -0.269 A  
HETATM   30  C   UNL     1      -9.921  10.831  64.450  1.00  0.00    -0.400 A  
HETATM   31  C   UNL     1      -8.831  10.130  63.933  1.00  0.00    -0.248 A  
HETATM   32  C   UNL     1      -7.631  10.085  64.638  1.00  0.00    -0.143 A  
HETATM   33  C   UNL     1      -7.517  10.738  65.864  1.00  0.00    -0.099 A  
ENDBRANCH  27  28
ENDBRANCH  26  27
ENDBRANCH  25  26
ENDBRANCH  24  25
ENDBRANCH  15  24
TORSDOF 5
ENDMDL
MODEL      146
REMARK 921   NORMALIZED FREE ENERGY PREDICTED BY IDOCK:   -2.78 KCAL/MOL
REMARK 922        TOTAL FREE ENERGY PREDICTED BY IDOCK:   -5.05 KCAL/MOL
REMARK 923 INTER-LIGAND FREE ENERGY PREDICTED BY IDOCK:   -4.45 KCAL/MOL
REMARK 924 INTRA-LIGAND FREE ENERGY PREDICTED BY IDOCK:   -0.61 KCAL/MOL
REMARK 927      BINDING AFFINITY PREDICTED BY RF-SCORE:    0.00 PKD
ROOT
HETATM    1  O   UNL     1      -9.823  10.944  67.276  1.00  0.00    -0.171 OA 
HETATM    2  C   UNL     1      -8.502  10.646  66.735  1.00  0.00    -0.134 C  
HETATM    3  H   UNL     1      -9.705  10.882  68.217  1.00  0.00     0.000 HD 
HETATM    4  C   UNL     1      -8.257   9.149  67.254  1.00  0.00    -0.114 C  
HETATM    5  C   UNL     1      -7.585  11.747  67.348  1.00  0.00    -0.143 A  
HETATM    6  C   UNL     1      -8.695  10.747  65.197  1.00  0.00    -0.174 A  
HETATM    7  C   UNL     1      -9.387   8.204  66.737  1.00  0.00    -0.233 C  
HETATM    8  C   UNL     1      -8.133  12.795  68.131  1.00  0.00    -0.158 A  
HETATM    9  C   UNL     1      -7.662  11.056  64.298  1.00  0.00     0.618 A  
HETATM   10  C   UNL     1      -7.366  13.865  68.604  1.00  0.00    -0.117 A  
HETATM   11  C   UNL     1      -7.896  11.136  62.917  1.00  0.00     0.271 A  
HETATM   12  C   UNL     1      -9.298   6.797  67.295  1.00  0.00    -0.134 C  
HETATM   13  C   UNL     1      -9.160  10.895  62.394  1.00  0.00    -0.336 A  
HETATM   14  C   UNL     1      -6.010  13.917  68.324  1.00  0.00    -0.117 A  
HETATM   15  N   UNL     1      -8.114   6.695  68.239  1.00  0.00    -0.110 N  
HETATM   16  C   UNL     1     -10.205  10.584  63.252  1.00  0.00     0.004 A  
HETATM   17  C   UNL     1      -6.196  11.808  67.134  1.00  0.00    -0.147 A  
HETATM   18  C   UNL     1      -8.246   7.709  69.371  1.00  0.00    -0.129 C  
HETATM   19  C   UNL     1      -6.838   7.027  67.442  1.00  0.00    -0.073 C  
HETATM   20  C   UNL     1      -5.423  12.883  67.606  1.00  0.00    -0.109 A  
HETATM   21  C   UNL     1      -9.973  10.517  64.626  1.00  0.00    -0.415 A  
HETATM   22  C   UNL     1      -8.317   9.117  68.806  1.00  0.00    -0.121 C  
HETATM   23  C   UNL     1      -6.938   8.454  66.850  1.00  0.00    -0.074 C  
ENDROOT
BRANCH  15  24
HETATM   24  C   UNL     1      -8.015   5.252  68.818  1.00  0.00    -0.086 C  
BRANCH  24  25
HETATM   25  C   UNL     1      -9.181   4.340  68.383  1.00  0.00    -0.139 C  
BRANCH  25  26
HETATM   26  O   UNL     1     -10.351   4.640  69.132  1.00  0.00    -0.081 OA 
BRANCH  26  27
HETATM   27  C   UNL     1     -10.049   4.739  70.530  1.00  0.00    -0.220 C  
BRANCH  27  28
HETATM   28  C   UNL     1     -10.804   5.911  71.079  1.00  0.00    -0.339 A  
HETATM   29  C   UNL     1     -10.535   6.387  72.369  1.00  0.00    -0.222 A  
HETATM   30  C   UNL     1     -11.266   7.451  72.894  1.00  0.00    -0.368 A  
HETATM   31  C   UNL     1     -12.276   8.044  72.136  1.00  0.00    -0.377 A  
HETATM   32  C   UNL     1     -12.553   7.577  70.853  1.00  0.00    -0.139 A  
HETATM   33  C   UNL     1     -11.825   6.513  70.326  1.00  0.00    -0.361 A  
ENDBRANCH  27  28
ENDBRANCH  26  27
ENDBRANCH  25  26
ENDBRANCH  24  25
ENDBRANCH  15  24
TORSDOF 5
ENDMDL
MODEL      147
REMARK 921   NORMALIZED FREE ENERGY PREDICTED BY IDOCK:   -2.56 KCAL/MOL
REMARK 922        TOTAL FREE ENERGY PREDICTED BY IDOCK:   -4.77 KCAL/MOL
REMARK 923 INTER-LIGAND FREE ENERGY PREDICTED BY IDOCK:   -3.26 KCAL/MOL
REMARK 924 INTRA-LIGAND FREE ENERGY PREDICTED BY IDOCK:   -1.51 KCAL/MOL
REMARK 927      BINDING AFFINITY PREDICTED BY RF-SCORE:    0.00 PKD
ROOT
HETATM    1  O   UNL     1      -6.363  10.969  65.777  1.00  0.00    -0.321 OA 
HETATM    2  C   UNL     1      -7.338  11.017  66.861  1.00  0.00    -0.133 C  
HETATM    3  H   UNL     1      -6.452  11.814  65.352  1.00  0.00     0.000 HD 
HETATM    4  C   UNL     1      -8.718  11.193  66.063  1.00  0.00    -0.185 C  
HETATM    5  C   UNL     1      -6.882  12.230  67.726  1.00  0.00    -0.109 A  
HETATM    6  C   UNL     1      -7.194   9.635  67.556  1.00  0.00    -0.090 A  
HETATM    7  C   UNL     1      -8.925  10.007  65.070  1.00  0.00    -0.234 C  
HETATM    8  C   UNL     1      -5.682  12.924  67.428  1.00  0.00    -0.045 A  
HETATM    9  C   UNL     1      -7.512   9.401  68.903  1.00  0.00    -0.074 A  
HETATM   10  C   UNL     1      -5.175  13.942  68.243  1.00  0.00    -0.110 A  
HETATM   11  C   UNL     1      -7.359   8.131  69.479  1.00  0.00    -0.081 A  
HETATM   12  C   UNL     1     -10.144  10.170  64.182  1.00  0.00     0.114 C  
HETATM   13  C   UNL     1      -6.900   7.058  68.724  1.00  0.00    -0.076 A  
HETATM   14  C   UNL     1      -5.866  14.319  69.384  1.00  0.00    -0.095 A  
HETATM   15  N   UNL     1     -10.837  11.482  64.502  1.00  0.00    -0.328 N  
HETATM   16  C   UNL     1      -6.578   7.251  67.389  1.00  0.00    -0.063 A  
HETATM   17  C   UNL     1      -7.581  12.680  68.861  1.00  0.00     0.055 A  
HETATM   18  C   UNL     1      -9.878  12.652  64.308  1.00  0.00    -0.059 C  
HETATM   19  C   UNL     1     -11.263  11.449  65.982  1.00  0.00    -0.112 C  
HETATM   20  C   UNL     1      -7.074  13.702  69.683  1.00  0.00     0.243 A  
HETATM   21  C   UNL     1      -6.720   8.518  66.822  1.00  0.00    -0.061 A  
HETATM   22  C   UNL     1      -8.667  12.492  65.212  1.00  0.00     1.249 C  
HETATM   23  C   UNL     1     -10.022  11.257  66.888  1.00  0.00    -0.238 C  
ENDROOT
BRANCH  15  24
HETATM   24  C   UNL     1     -12.092  11.658  63.595  1.00  0.00    -0.254 C  
BRANCH  24  25
HETATM   25  C   UNL     1     -13.008  12.816  64.040  1.00  0.00     0.049 C  
BRANCH  25  26
HETATM   26  O   UNL     1     -12.412  14.068  63.731  1.00  0.00    -0.753 OA 
BRANCH  26  27
HETATM   27  C   UNL     1     -12.779  15.060  64.699  1.00  0.00     0.212 C  
BRANCH  27  28
HETATM   28  C   UNL     1     -11.634  15.211  65.655  1.00  0.00    -0.118 A  
HETATM   29  C   UNL     1     -10.445  15.829  65.245  1.00  0.00    -0.427 A  
HETATM   30  C   UNL     1      -9.366  15.932  66.120  1.00  0.00    -0.385 A  
HETATM   31  C   UNL     1      -9.465  15.413  67.412  1.00  0.00    -0.207 A  
HETATM   32  C   UNL     1     -10.641  14.795  67.828  1.00  0.00    -0.257 A  
HETATM   33  C   UNL     1     -11.721  14.689  66.954  1.00  0.00    -0.366 A  
ENDBRANCH  27  28
ENDBRANCH  26  27
ENDBRANCH  25  26
ENDBRANCH  24  25
ENDBRANCH  15  24
TORSDOF 5
ENDMDL
MODEL      148
REMARK 921   NORMALIZED FREE ENERGY PREDICTED BY IDOCK:   -2.43 KCAL/MOL
REMARK 922        TOTAL FREE ENERGY PREDICTED BY IDOCK:   -4.60 KCAL/MOL
REMARK 923 INTER-LIGAND FREE ENERGY PREDICTED BY IDOCK:   -4.43 KCAL/MOL
REMARK 924 INTRA-LIGAND FREE ENERGY PREDICTED BY IDOCK:   -0.17 KCAL/MOL
REMARK 927      BINDING AFFINITY PREDICTED BY RF-SCORE:    0.00 PKD
ROOT
HETATM    1  O   UNL     1      -8.191  12.375  66.115  1.00  0.00    -0.295 OA 
HETATM    2  C   UNL     1      -8.574  12.402  67.521  1.00  0.00    -0.177 C  
HETATM    3  H   UNL     1      -8.867  11.850  65.703  1.00  0.00     0.000 HD 
HETATM    4  C   UNL     1      -8.511  10.849  67.916  1.00  0.00    -0.129 C  
HETATM    5  C   UNL     1      -9.989  13.056  67.514  1.00  0.00    -0.212 A  
HETATM    6  C   UNL     1      -7.468  13.260  68.196  1.00  0.00    -0.128 A  
HETATM    7  C   UNL     1      -7.081  10.281  67.655  1.00  0.00    -0.086 C  
HETATM    8  C   UNL     1     -10.548  13.563  66.315  1.00  0.00    -0.288 A  
HETATM    9  C   UNL     1      -7.657  13.989  69.380  1.00  0.00     0.193 A  
HETATM   10  C   UNL     1     -11.762  14.259  66.282  1.00  0.00    -0.404 A  
HETATM   11  C   UNL     1      -6.621  14.750  69.942  1.00  0.00    -0.175 A  
HETATM   12  C   UNL     1      -6.978   8.785  67.878  1.00  0.00    -0.078 C  
HETATM   13  C   UNL     1      -5.366  14.791  69.348  1.00  0.00    -0.086 A  
HETATM   14  C   UNL     1     -12.474  14.458  67.454  1.00  0.00     0.148 A  
HETATM   15  N   UNL     1      -8.331   8.234  68.291  1.00  0.00    -0.131 N  
HETATM   16  C   UNL     1      -5.140  14.081  68.178  1.00  0.00    -0.112 A  
HETATM   17  C   UNL     1     -10.768  13.230  68.673  1.00  0.00    -0.281 A  
HETATM   18  C   UNL     1      -9.378   8.542  67.226  1.00  0.00    -0.149 C  
HETATM   19  C   UNL     1      -8.753   8.934  69.596  1.00  0.00    -0.140 C  
HETATM   20  C   UNL     1     -11.987  13.930  68.644  1.00  0.00    -0.401 A  
HETATM   21  C   UNL     1      -6.176  13.335  67.614  1.00  0.00    -0.153 A  
HETATM   22  C   UNL     1      -9.489  10.042  67.018  1.00  0.00    -0.197 C  
HETATM   23  C   UNL     1      -8.835  10.465  69.376  1.00  0.00    -0.138 C  
ENDROOT
BRANCH  15  24
HETATM   24  C   UNL     1      -8.234   6.697  68.523  1.00  0.00    -0.119 C  
BRANCH  24  25
HETATM   25  C   UNL     1      -8.211   5.883  67.213  1.00  0.00    -0.105 C  
BRANCH  25  26
HETATM   26  O   UNL     1      -7.350   6.496  66.263  1.00  0.00    -0.071 OA 
BRANCH  26  27
HETATM   27  C   UNL     1      -7.977   6.562  64.976  1.00  0.00    -0.121 C  
BRANCH  27  28
HETATM   28  C   UNL     1      -7.406   7.742  64.250  1.00  0.00    -0.089 A  
HETATM   29  C   UNL     1      -8.108   8.329  63.188  1.00  0.00    -0.142 A  
HETATM   30  C   UNL     1      -7.558   9.400  62.487  1.00  0.00    -0.110 A  
HETATM   31  C   UNL     1      -6.300   9.890  62.838  1.00  0.00    -0.120 A  
HETATM   32  C   UNL     1      -5.592   9.313  63.889  1.00  0.00    -0.070 A  
HETATM   33  C   UNL     1      -6.139   8.241  64.592  1.00  0.00    -0.060 A  
ENDBRANCH  27  28
ENDBRANCH  26  27
ENDBRANCH  25  26
ENDBRANCH  24  25
ENDBRANCH  15  24
TORSDOF 5
ENDMDL
MODEL      149
REMARK 921   NORMALIZED FREE ENERGY PREDICTED BY IDOCK:   -2.33 KCAL/MOL
REMARK 922        TOTAL FREE ENERGY PREDICTED BY IDOCK:   -4.48 KCAL/MOL
REMARK 923 INTER-LIGAND FREE ENERGY PREDICTED BY IDOCK:   -4.53 KCAL/MOL
REMARK 924 INTRA-LIGAND FREE ENERGY PREDICTED BY IDOCK:    0.05 KCAL/MOL
REMARK 927      BINDING AFFINITY PREDICTED BY RF-SCORE:    0.00 PKD
ROOT
HETATM    1  O   UNL     1     -11.105  10.141  67.989  1.00  0.00    -0.355 OA 
HETATM    2  C   UNL     1     -10.068   9.937  66.984  1.00  0.00    -0.218 C  
HETATM    3  H   UNL     1     -11.085  11.077  68.152  1.00  0.00     0.000 HD 
HETATM    4  C   UNL     1      -8.751  10.426  67.756  1.00  0.00    -0.122 C  
HETATM    5  C   UNL     1     -10.530  10.813  65.782  1.00  0.00    -0.256 A  
HETATM    6  C   UNL     1     -10.100   8.406  66.719  1.00  0.00    -0.373 A  
HETATM    7  C   UNL     1      -8.547   9.595  69.062  1.00  0.00    -0.133 C  
HETATM    8  C   UNL     1     -11.779  11.483  65.810  1.00  0.00     0.181 A  
HETATM    9  C   UNL     1      -9.688   7.813  65.515  1.00  0.00     0.815 A  
HETATM   10  C   UNL     1     -12.285  12.186  64.710  1.00  0.00    -0.341 A  
HETATM   11  C   UNL     1      -9.741   6.422  65.331  1.00  0.00     0.837 A  
HETATM   12  C   UNL     1      -7.395  10.089  69.916  1.00  0.00    -0.161 C  
HETATM   13  C   UNL     1     -10.192   5.587  66.346  1.00  0.00    -0.247 A  
HETATM   14  C   UNL     1     -11.544  12.260  63.541  1.00  0.00    -0.570 A  
HETATM   15  N   UNL     1      -6.749  11.295  69.257  1.00  0.00    -0.099 N  
HETATM   16  C   UNL     1     -10.605   6.137  67.550  1.00  0.00    -0.344 A  
HETATM   17  C   UNL     1      -9.785  10.959  64.597  1.00  0.00    -0.333 A  
HETATM   18  C   UNL     1      -7.776  12.404  69.056  1.00  0.00     0.170 C  
HETATM   19  C   UNL     1      -6.232  10.862  67.872  1.00  0.00    -0.054 C  
HETATM   20  C   UNL     1     -10.291  11.663  63.490  1.00  0.00    -0.488 A  
HETATM   21  C   UNL     1     -10.562   7.521  67.727  1.00  0.00    -0.274 A  
HETATM   22  C   UNL     1      -8.919  11.910  68.186  1.00  0.00    -0.185 C  
HETATM   23  C   UNL     1      -7.403  10.334  67.008  1.00  0.00    -0.092 C  
ENDROOT
BRANCH  15  24
HETATM   24  C   UNL     1      -5.564  11.808  70.127  1.00  0.00    -0.131 C  
BRANCH  24  25
HETATM   25  C   UNL     1      -5.675  13.305  70.486  1.00  0.00    -0.176 C  
BRANCH  25  26
HETATM   26  O   UNL     1      -5.701  14.097  69.307  1.00  0.00    -0.081 OA 
BRANCH  26  27
HETATM   27  C   UNL     1      -6.220  15.404  69.583  1.00  0.00    -0.153 C  
BRANCH  27  28
HETATM   28  C   UNL     1      -7.442  15.598  68.737  1.00  0.00    -0.151 A  
HETATM   29  C   UNL     1      -8.618  16.115  69.297  1.00  0.00    -0.191 A  
HETATM   30  C   UNL     1      -9.765  16.256  68.519  1.00  0.00    -0.224 A  
HETATM   31  C   UNL     1      -9.748  15.877  67.177  1.00  0.00    -0.227 A  
HETATM   32  C   UNL     1      -8.585  15.359  66.611  1.00  0.00    -0.318 A  
HETATM   33  C   UNL     1      -7.437  15.216  67.387  1.00  0.00    -0.239 A  
ENDBRANCH  27  28
ENDBRANCH  26  27
ENDBRANCH  25  26
ENDBRANCH  24  25
ENDBRANCH  15  24
TORSDOF 5
ENDMDL
MODEL      150
REMARK 921   NORMALIZED FREE ENERGY PREDICTED BY IDOCK:   -2.24 KCAL/MOL
REMARK 922        TOTAL FREE ENERGY PREDICTED BY IDOCK:   -4.36 KCAL/MOL
REMARK 923 INTER-LIGAND FREE ENERGY PREDICTED BY IDOCK:   -4.12 KCAL/MOL
REMARK 924 INTRA-LIGAND FREE ENERGY PREDICTED BY IDOCK:   -0.23 KCAL/MOL
REMARK 927      BINDING AFFINITY PREDICTED BY RF-SCORE:    0.00 PKD
ROOT
HETATM    1  O   UNL     1      -8.612  16.064  69.822  1.00  0.00    -0.012 OA 
HETATM    2  C   UNL     1      -9.627  15.771  68.817  1.00  0.00    -0.216 C  
HETATM    3  H   UNL     1      -7.826  16.226  69.312  1.00  0.00     0.000 HD 
HETATM    4  C   UNL     1      -9.035  14.457  68.114  1.00  0.00    -0.185 C  
HETATM    5  C   UNL     1      -9.676  17.060  67.943  1.00  0.00    -0.263 A  
HETATM    6  C   UNL     1     -10.912  15.504  69.650  1.00  0.00    -0.288 A  
HETATM    7  C   UNL     1      -8.833  13.323  69.167  1.00  0.00     0.637 C  
HETATM    8  C   UNL     1      -8.914  18.203  68.292  1.00  0.00    -0.306 A  
HETATM    9  C   UNL     1     -12.214  15.695  69.161  1.00  0.00    -0.149 A  
HETATM   10  C   UNL     1      -9.015  19.417  67.604  1.00  0.00    -0.357 A  
HETATM   11  C   UNL     1     -13.338  15.440  69.960  1.00  0.00     0.422 A  
HETATM   12  C   UNL     1      -8.151  12.092  68.602  1.00  0.00    -0.069 C  
HETATM   13  C   UNL     1     -13.195  14.974  71.261  1.00  0.00    -0.502 A  
HETATM   14  C   UNL     1      -9.873  19.526  66.521  1.00  0.00    -0.498 A  
HETATM   15  N   UNL     1      -7.831  12.312  67.134  1.00  0.00    -0.166 N  
HETATM   16  C   UNL     1     -11.924  14.772  71.778  1.00  0.00    -0.409 A  
HETATM   17  C   UNL     1     -10.494  17.195  66.806  1.00  0.00    -0.263 A  
HETATM   18  C   UNL     1      -6.942  13.539  66.962  1.00  0.00     0.578 C  
HETATM   19  C   UNL     1      -9.155  12.569  66.391  1.00  0.00    -0.127 C  
HETATM   20  C   UNL     1     -10.599  18.414  66.113  1.00  0.00    -0.346 A  
HETATM   21  C   UNL     1     -10.807  15.038  70.985  1.00  0.00    -0.040 A  
HETATM   22  C   UNL     1      -7.637  14.772  67.514  1.00  0.00    -0.215 C  
HETATM   23  C   UNL     1      -9.865  13.811  66.983  1.00  0.00    -0.251 C  
ENDROOT
BRANCH  15  24
HETATM   24  C   UNL     1      -7.130  11.052  66.545  1.00  0.00    -0.136 C  
BRANCH  24  25
HETATM   25  C   UNL     1      -8.122   9.987  66.031  1.00  0.00    -0.124 C  
BRANCH  25  26
HETATM   26  O   UNL     1      -7.527   8.697  66.064  1.00  0.00    -0.083 OA 
BRANCH  26  27
HETATM   27  C   UNL     1      -8.529   7.673  66.051  1.00  0.00    -0.144 C  
BRANCH  27  28
HETATM   28  C   UNL     1      -8.283   6.808  64.853  1.00  0.00    -0.082 A  
HETATM   29  C   UNL     1      -7.785   7.364  63.667  1.00  0.00    -0.125 A  
HETATM   30  C   UNL     1      -7.596   6.566  62.540  1.00  0.00    -0.080 A  
HETATM   31  C   UNL     1      -7.908   5.208  62.588  1.00  0.00    -0.075 A  
HETATM   32  C   UNL     1      -8.406   4.645  63.760  1.00  0.00    -0.117 A  
HETATM   33  C   UNL     1      -8.598   5.441  64.888  1.00  0.00    -0.131 A  
ENDBRANCH  27  28
ENDBRANCH  26  27
ENDBRANCH  25  26
ENDBRANCH  24  25
ENDBRANCH  15  24
TORSDOF 5
ENDMDL
MODEL      151
REMARK 921   NORMALIZED FREE ENERGY PREDICTED BY IDOCK:   -2.23 KCAL/MOL
REMARK 922        TOTAL FREE ENERGY PREDICTED BY IDOCK:   -4.34 KCAL/MOL
REMARK 923 INTER-LIGAND FREE ENERGY PREDICTED BY IDOCK:   -3.96 KCAL/MOL
REMARK 924 INTRA-LIGAND FREE ENERGY PREDICTED BY IDOCK:   -0.38 KCAL/MOL
REMARK 927      BINDING AFFINITY PREDICTED BY RF-SCORE:    0.00 PKD
ROOT
HETATM    1  O   UNL     1      -6.174   5.051  68.378  1.00  0.00    -0.029 OA 
HETATM    2  C   UNL     1      -7.514   5.444  67.957  1.00  0.00    -0.077 C  
HETATM    3  H   UNL     1      -5.959   5.670  69.066  1.00  0.00     0.000 HD 
HETATM    4  C   UNL     1      -7.275   6.937  67.426  1.00  0.00    -0.090 C  
HETATM    5  C   UNL     1      -8.372   5.300  69.250  1.00  0.00    -0.091 A  
HETATM    6  C   UNL     1      -7.866   4.432  66.831  1.00  0.00    -0.098 A  
HETATM    7  C   UNL     1      -6.218   6.941  66.277  1.00  0.00    -0.045 C  
HETATM    8  C   UNL     1      -7.812   4.765  70.437  1.00  0.00    -0.061 A  
HETATM    9  C   UNL     1      -9.177   4.068  66.490  1.00  0.00    -0.171 A  
HETATM   10  C   UNL     1      -8.573   4.512  71.584  1.00  0.00    -0.125 A  
HETATM   11  C   UNL     1      -9.434   3.146  65.464  1.00  0.00    -0.077 A  
HETATM   12  C   UNL     1      -5.839   8.334  65.812  1.00  0.00    -0.041 C  
HETATM   13  C   UNL     1      -8.393   2.575  64.742  1.00  0.00    -0.088 A  
HETATM   14  C   UNL     1      -9.928   4.805  71.591  1.00  0.00    -0.257 A  
HETATM   15  N   UNL     1      -6.600   9.369  66.622  1.00  0.00    -0.067 N  
HETATM   16  C   UNL     1      -7.084   2.913  65.050  1.00  0.00    -0.054 A  
HETATM   17  C   UNL     1      -9.737   5.635  69.315  1.00  0.00    -0.205 A  
HETATM   18  C   UNL     1      -6.302   9.205  68.108  1.00  0.00    -0.055 C  
HETATM   19  C   UNL     1      -8.106   9.132  66.404  1.00  0.00    -0.107 C  
HETATM   20  C   UNL     1     -10.506   5.380  70.465  1.00  0.00    -0.335 A  
HETATM   21  C   UNL     1      -6.830   3.821  66.079  1.00  0.00    -0.060 A  
HETATM   22  C   UNL     1      -6.699   7.814  68.572  1.00  0.00    -0.058 C  
HETATM   23  C   UNL     1      -8.490   7.701  66.855  1.00  0.00    -0.126 C  
ENDROOT
BRANCH  15  24
HETATM   24  C   UNL     1      -6.217  10.803  66.150  1.00  0.00    -0.134 C  
BRANCH  24  25
HETATM   25  C   UNL     1      -6.018  11.795  67.315  1.00  0.00    -0.124 C  
BRANCH  25  26
HETATM   26  O   UNL     1      -7.086  12.731  67.358  1.00  0.00    -0.148 OA 
BRANCH  26  27
HETATM   27  C   UNL     1      -7.247  13.259  68.681  1.00  0.00    -0.106 C  
BRANCH  27  28
HETATM   28  C   UNL     1      -7.667  14.692  68.553  1.00  0.00    -0.126 A  
HETATM   29  C   UNL     1      -6.714  15.691  68.313  1.00  0.00    -0.124 A  
HETATM   30  C   UNL     1      -7.100  17.028  68.236  1.00  0.00    -0.190 A  
HETATM   31  C   UNL     1      -8.440  17.377  68.403  1.00  0.00    -0.263 A  
HETATM   32  C   UNL     1      -9.394  16.393  68.644  1.00  0.00    -0.233 A  
HETATM   33  C   UNL     1      -9.012  15.055  68.723  1.00  0.00    -0.196 A  
ENDBRANCH  27  28
ENDBRANCH  26  27
ENDBRANCH  25  26
ENDBRANCH  24  25
ENDBRANCH  15  24
TORSDOF 5
ENDMDL
MODEL      152
REMARK 921   NORMALIZED FREE ENERGY PREDICTED BY IDOCK:   -2.17 KCAL/MOL
REMARK 922        TOTAL FREE ENERGY PREDICTED BY IDOCK:   -4.27 KCAL/MOL
REMARK 923 INTER-LIGAND FREE ENERGY PREDICTED BY IDOCK:   -3.82 KCAL/MOL
REMARK 924 INTRA-LIGAND FREE ENERGY PREDICTED BY IDOCK:   -0.46 KCAL/MOL
REMARK 927      BINDING AFFINITY PREDICTED BY RF-SCORE:    0.00 PKD
ROOT
HETATM    1  O   UNL     1      -9.162   9.269  71.073  1.00  0.00    -0.246 OA 
HETATM    2  C   UNL     1     -10.218   8.912  70.133  1.00  0.00    -0.196 C  
HETATM    3  H   UNL     1      -8.372   9.254  70.546  1.00  0.00     0.000 HD 
HETATM    4  C   UNL     1      -9.779   7.439  69.678  1.00  0.00    -0.163 C  
HETATM    5  C   UNL     1     -10.144  10.022  69.042  1.00  0.00    -0.211 A  
HETATM    6  C   UNL     1     -11.511   8.937  70.995  1.00  0.00    -0.351 A  
HETATM    7  C   UNL     1      -9.682   6.496  70.918  1.00  0.00    -0.190 C  
HETATM    8  C   UNL     1      -9.261  11.122  69.184  1.00  0.00     0.038 A  
HETATM    9  C   UNL     1     -12.793   9.175  70.475  1.00  0.00     0.399 A  
HETATM   10  C   UNL     1      -9.243  12.197  68.289  1.00  0.00    -0.192 A  
HETATM   11  C   UNL     1     -13.926   9.188  71.303  1.00  0.00    -0.165 A  
HETATM   12  C   UNL     1      -9.142   5.118  70.585  1.00  0.00    -0.141 C  
HETATM   13  C   UNL     1     -13.813   8.949  72.667  1.00  0.00    -0.393 A  
HETATM   14  C   UNL     1     -10.102  12.203  67.202  1.00  0.00    -0.220 A  
HETATM   15  N   UNL     1      -8.823   5.037  69.103  1.00  0.00    -0.091 N  
HETATM   16  C   UNL     1     -12.562   8.708  73.217  1.00  0.00     1.229 A  
HETATM   17  C   UNL     1     -10.960  10.039  67.896  1.00  0.00    -0.311 A  
HETATM   18  C   UNL     1      -7.813   6.112  68.717  1.00  0.00    -0.101 C  
HETATM   19  C   UNL     1     -10.124   5.297  68.321  1.00  0.00    -0.155 C  
HETATM   20  C   UNL     1     -10.947  11.119  66.996  1.00  0.00    -0.348 A  
HETATM   21  C   UNL     1     -11.436   8.708  72.393  1.00  0.00    -0.369 A  
HETATM   22  C   UNL     1      -8.365   7.490  69.037  1.00  0.00    -0.129 C  
HETATM   23  C   UNL     1     -10.690   6.694  68.679  1.00  0.00    -0.303 C  
ENDROOT
BRANCH  15  24
HETATM   24  C   UNL     1      -8.269   3.625  68.752  1.00  0.00    -0.072 C  
BRANCH  24  25
HETATM   25  C   UNL     1      -9.300   2.496  68.961  1.00  0.00    -0.141 C  
BRANCH  25  26
HETATM   26  O   UNL     1      -9.374   1.671  67.806  1.00  0.00    -0.153 OA 
BRANCH  26  27
HETATM   27  C   UNL     1      -8.420   2.088  66.820  1.00  0.00    -0.099 C  
BRANCH  27  28
HETATM   28  C   UNL     1      -9.178   2.477  65.587  1.00  0.00    -0.068 A  
HETATM   29  C   UNL     1      -9.582   1.501  64.666  1.00  0.00    -0.037 A  
HETATM   30  C   UNL     1     -10.250   1.868  63.500  1.00  0.00    -0.133 A  
HETATM   31  C   UNL     1     -10.515   3.213  63.241  1.00  0.00    -0.219 A  
HETATM   32  C   UNL     1     -10.116   4.191  64.149  1.00  0.00    -0.118 A  
HETATM   33  C   UNL     1      -9.447   3.827  65.316  1.00  0.00    -0.168 A  
ENDBRANCH  27  28
ENDBRANCH  26  27
ENDBRANCH  25  26
ENDBRANCH  24  25
ENDBRANCH  15  24
TORSDOF 5
ENDMDL
MODEL      153
REMARK 921   NORMALIZED FREE ENERGY PREDICTED BY IDOCK:   -2.07 KCAL/MOL
REMARK 922        TOTAL FREE ENERGY PREDICTED BY IDOCK:   -4.14 KCAL/MOL
REMARK 923 INTER-LIGAND FREE ENERGY PREDICTED BY IDOCK:   -4.66 KCAL/MOL
REMARK 924 INTRA-LIGAND FREE ENERGY PREDICTED BY IDOCK:    0.52 KCAL/MOL
REMARK 927      BINDING AFFINITY PREDICTED BY RF-SCORE:    0.00 PKD
ROOT
HETATM    1  O   UNL     1      -8.205  10.852  66.152  1.00  0.00    -0.163 OA 
HETATM    2  C   UNL     1      -9.299  11.463  66.898  1.00  0.00    -0.181 C  
HETATM    3  H   UNL     1      -7.583  10.598  66.824  1.00  0.00     0.000 HD 
HETATM    4  C   UNL     1      -8.572  12.706  67.603  1.00  0.00    -0.180 C  
HETATM    5  C   UNL     1      -9.792  10.326  67.843  1.00  0.00    -0.181 A  
HETATM    6  C   UNL     1     -10.317  11.879  65.800  1.00  0.00    -0.285 A  
HETATM    7  C   UNL     1      -7.933  13.640  66.528  1.00  0.00     0.860 C  
HETATM    8  C   UNL     1      -9.251   9.019  67.750  1.00  0.00    -0.152 A  
HETATM    9  C   UNL     1     -11.695  12.014  66.023  1.00  0.00    -0.311 A  
HETATM   10  C   UNL     1      -9.742   7.942  68.497  1.00  0.00    -0.167 A  
HETATM   11  C   UNL     1     -12.568  12.391  64.990  1.00  0.00    -0.305 A  
HETATM   12  C   UNL     1      -7.112  14.768  67.122  1.00  0.00     0.148 C  
HETATM   13  C   UNL     1     -12.088  12.656  63.714  1.00  0.00    -0.604 A  
HETATM   14  C   UNL     1     -10.789   8.140  69.384  1.00  0.00    -0.096 A  
HETATM   15  N   UNL     1      -7.126  14.669  68.637  1.00  0.00    -0.108 N  
HETATM   16  C   UNL     1     -10.730  12.535  63.457  1.00  0.00    -0.417 A  
HETATM   17  C   UNL     1     -10.816  10.497  68.793  1.00  0.00    -0.269 A  
HETATM   18  C   UNL     1      -6.578  13.318  69.086  1.00  0.00    -0.105 C  
HETATM   19  C   UNL     1      -8.589  14.775  69.109  1.00  0.00    -0.089 C  
HETATM   20  C   UNL     1     -11.314   9.417  69.544  1.00  0.00     0.026 A  
HETATM   21  C   UNL     1      -9.866  12.149  64.482  1.00  0.00    -0.151 A  
HETATM   22  C   UNL     1      -7.414  12.193  68.502  1.00  0.00    -0.117 C  
HETATM   23  C   UNL     1      -9.433  13.638  68.483  1.00  0.00    -0.143 C  
ENDROOT
BRANCH  15  24
HETATM   24  C   UNL     1      -6.286  15.825  69.257  1.00  0.00    -0.138 C  
BRANCH  24  25
HETATM   25  C   UNL     1      -6.853  17.225  68.944  1.00  0.00    -0.226 C  
BRANCH  25  26
HETATM   26  O   UNL     1      -8.234  17.287  69.273  1.00  0.00    -0.059 OA 
BRANCH  26  27
HETATM   27  C   UNL     1      -8.651  18.644  69.471  1.00  0.00     0.572 C  
BRANCH  27  28
HETATM   28  C   UNL     1      -9.079  19.188  68.142  1.00  0.00    -0.371 A  
HETATM   29  C   UNL     1      -8.167  19.877  67.330  1.00  0.00    -0.356 A  
HETATM   30  C   UNL     1      -8.577  20.419  66.114  1.00  0.00    -0.041 A  
HETATM   31  C   UNL     1      -9.902  20.281  65.700  1.00  0.00    -0.095 A  
HETATM   32  C   UNL     1     -10.817  19.600  66.500  1.00  0.00    -0.454 A  
HETATM   33  C   UNL     1     -10.411  19.058  67.718  1.00  0.00    -0.498 A  
ENDBRANCH  27  28
ENDBRANCH  26  27
ENDBRANCH  25  26
ENDBRANCH  24  25
ENDBRANCH  15  24
TORSDOF 5
ENDMDL
MODEL      154
REMARK 921   NORMALIZED FREE ENERGY PREDICTED BY IDOCK:   -2.05 KCAL/MOL
REMARK 922        TOTAL FREE ENERGY PREDICTED BY IDOCK:   -4.11 KCAL/MOL
REMARK 923 INTER-LIGAND FREE ENERGY PREDICTED BY IDOCK:   -3.23 KCAL/MOL
REMARK 924 INTRA-LIGAND FREE ENERGY PREDICTED BY IDOCK:   -0.89 KCAL/MOL
REMARK 927      BINDING AFFINITY PREDICTED BY RF-SCORE:    0.00 PKD
ROOT
HETATM    1  O   UNL     1     -13.598  13.369  69.272  1.00  0.00     2.118 OA 
HETATM    2  C   UNL     1     -12.343  13.281  70.008  1.00  0.00    -0.200 C  
HETATM    3  H   UNL     1     -13.449  12.835  68.500  1.00  0.00     0.000 HD 
HETATM    4  C   UNL     1     -11.301  13.924  68.974  1.00  0.00    -0.324 C  
HETATM    5  C   UNL     1     -12.180  11.759  70.296  1.00  0.00    -0.381 A  
HETATM    6  C   UNL     1     -12.586  14.156  71.270  1.00  0.00    -0.438 A  
HETATM    7  C   UNL     1     -11.727  15.381  68.610  1.00  0.00    -0.371 C  
HETATM    8  C   UNL     1     -13.202  10.840  69.948  1.00  0.00     0.525 A  
HETATM    9  C   UNL     1     -11.913  13.974  72.488  1.00  0.00     0.585 A  
HETATM   10  C   UNL     1     -13.149   9.484  70.289  1.00  0.00     0.563 A  
HETATM   11  C   UNL     1     -12.176  14.794  73.596  1.00  0.00    -0.431 A  
HETATM   12  C   UNL     1     -10.864  16.010  67.533  1.00  0.00    -0.292 C  
HETATM   13  C   UNL     1     -13.104  15.824  73.514  1.00  0.00    -0.665 A  
HETATM   14  C   UNL     1     -12.053   8.991  70.980  1.00  0.00    -0.304 A  
HETATM   15  N   UNL     1      -9.805  15.020  67.083  1.00  0.00    -0.231 N  
HETATM   16  C   UNL     1     -13.787  16.036  72.326  1.00  0.00    -0.106 A  
HETATM   17  C   UNL     1     -11.060  11.208  70.947  1.00  0.00     1.052 A  
HETATM   18  C   UNL     1     -10.457  13.743  66.564  1.00  0.00    -0.282 C  
HETATM   19  C   UNL     1      -8.941  14.656  68.305  1.00  0.00    -0.184 C  
HETATM   20  C   UNL     1     -11.004   9.846  71.293  1.00  0.00    -0.225 A  
HETATM   21  C   UNL     1     -13.532  15.211  71.229  1.00  0.00    -0.559 A  
HETATM   22  C   UNL     1     -11.306  13.109  67.651  1.00  0.00    -0.335 C  
HETATM   23  C   UNL     1      -9.825  14.037  69.416  1.00  0.00     0.362 C  
ENDROOT
BRANCH  15  24
HETATM   24  C   UNL     1      -8.913  15.658  65.977  1.00  0.00    -0.262 C  
BRANCH  24  25
HETATM   25  C   UNL     1      -7.563  16.183  66.509  1.00  0.00    -0.133 C  
BRANCH  25  26
HETATM   26  O   UNL     1      -7.233  17.419  65.892  1.00  0.00    -0.344 OA 
BRANCH  26  27
HETATM   27  C   UNL     1      -7.048  18.446  66.875  1.00  0.00    -0.200 C  
BRANCH  27  28
HETATM   28  C   UNL     1      -8.403  18.952  67.267  1.00  0.00    -0.288 A  
HETATM   29  C   UNL     1      -9.340  19.303  66.286  1.00  0.00    -0.375 A  
HETATM   30  C   UNL     1     -10.584  19.813  66.651  1.00  0.00    -0.578 A  
HETATM   31  C   UNL     1     -10.900  19.982  68.000  1.00  0.00    -0.047 A  
HETATM   32  C   UNL     1      -9.974  19.639  68.982  1.00  0.00    -0.482 A  
HETATM   33  C   UNL     1      -8.729  19.130  68.620  1.00  0.00    -0.394 A  
ENDBRANCH  27  28
ENDBRANCH  26  27
ENDBRANCH  25  26
ENDBRANCH  24  25
ENDBRANCH  15  24
TORSDOF 5
ENDMDL
MODEL      155
REMARK 921   NORMALIZED FREE ENERGY PREDICTED BY IDOCK:   -1.68 KCAL/MOL
REMARK 922        TOTAL FREE ENERGY PREDICTED BY IDOCK:   -3.64 KCAL/MOL
REMARK 923 INTER-LIGAND FREE ENERGY PREDICTED BY IDOCK:   -3.41 KCAL/MOL
REMARK 924 INTRA-LIGAND FREE ENERGY PREDICTED BY IDOCK:   -0.23 KCAL/MOL
REMARK 927      BINDING AFFINITY PREDICTED BY RF-SCORE:    0.00 PKD
ROOT
HETATM    1  O   UNL     1      -8.652   5.394  69.676  1.00  0.00    -0.101 OA 
HETATM    2  C   UNL     1      -8.702   5.923  71.034  1.00  0.00    -0.135 C  
HETATM    3  H   UNL     1      -7.731   5.206  69.538  1.00  0.00     0.000 HD 
HETATM    4  C   UNL     1      -7.791   7.236  70.916  1.00  0.00    -0.094 C  
HETATM    5  C   UNL     1      -8.137   4.766  71.911  1.00  0.00    -0.109 A  
HETATM    6  C   UNL     1     -10.209   6.231  71.261  1.00  0.00    -0.238 A  
HETATM    7  C   UNL     1      -8.367   8.201  69.833  1.00  0.00    -0.123 C  
HETATM    8  C   UNL     1      -7.821   3.509  71.339  1.00  0.00    -0.060 A  
HETATM    9  C   UNL     1     -10.820   6.253  72.524  1.00  0.00    -0.273 A  
HETATM   10  C   UNL     1      -7.420   2.408  72.105  1.00  0.00    -0.044 A  
HETATM   11  C   UNL     1     -12.187   6.535  72.668  1.00  0.00     0.170 A  
HETATM   12  C   UNL     1      -7.484   9.406  69.569  1.00  0.00    -0.083 C  
HETATM   13  C   UNL     1     -12.976   6.816  71.560  1.00  0.00    -0.281 A  
HETATM   14  C   UNL     1      -7.303   2.533  73.481  1.00  0.00    -0.041 A  
HETATM   15  N   UNL     1      -6.245   9.334  70.442  1.00  0.00    -0.046 N  
HETATM   16  C   UNL     1     -12.406   6.806  70.295  1.00  0.00     0.032 A  
HETATM   17  C   UNL     1      -7.952   4.868  73.303  1.00  0.00    -0.100 A  
HETATM   18  C   UNL     1      -5.478   8.043  70.172  1.00  0.00    -0.023 C  
HETATM   19  C   UNL     1      -6.698   9.325  71.914  1.00  0.00     0.219 C  
HETATM   20  C   UNL     1      -7.551   3.764  74.076  1.00  0.00    -0.074 A  
HETATM   21  C   UNL     1     -11.049   6.513  70.153  1.00  0.00    -0.410 A  
HETATM   22  C   UNL     1      -6.361   6.840  70.454  1.00  0.00    -0.042 C  
HETATM   23  C   UNL     1      -7.620   8.109  72.179  1.00  0.00    -0.142 C  
ENDROOT
BRANCH  15  24
HETATM   24  C   UNL     1      -5.332  10.568  70.178  1.00  0.00    -0.046 C  
BRANCH  24  25
HETATM   25  C   UNL     1      -6.120  11.884  70.012  1.00  0.00    -0.153 C  
BRANCH  25  26
HETATM   26  O   UNL     1      -6.155  12.273  68.645  1.00  0.00    -0.054 OA 
BRANCH  26  27
HETATM   27  C   UNL     1      -7.493  12.586  68.238  1.00  0.00    -0.122 C  
BRANCH  27  28
HETATM   28  C   UNL     1      -7.617  14.079  68.188  1.00  0.00    -0.141 A  
HETATM   29  C   UNL     1      -6.507  14.873  67.871  1.00  0.00    -0.177 A  
HETATM   30  C   UNL     1      -6.613  16.262  67.866  1.00  0.00    -0.150 A  
HETATM   31  C   UNL     1      -7.828  16.870  68.182  1.00  0.00    -0.189 A  
HETATM   32  C   UNL     1      -8.937  16.090  68.502  1.00  0.00    -0.200 A  
HETATM   33  C   UNL     1      -8.834  14.701  68.509  1.00  0.00    -0.182 A  
ENDBRANCH  27  28
ENDBRANCH  26  27
ENDBRANCH  25  26
ENDBRANCH  24  25
ENDBRANCH  15  24
TORSDOF 5
ENDMDL
MODEL      156
REMARK 921   NORMALIZED FREE ENERGY PREDICTED BY IDOCK:   -1.66 KCAL/MOL
REMARK 922        TOTAL FREE ENERGY PREDICTED BY IDOCK:   -3.60 KCAL/MOL
REMARK 923 INTER-LIGAND FREE ENERGY PREDICTED BY IDOCK:   -3.07 KCAL/MOL
REMARK 924 INTRA-LIGAND FREE ENERGY PREDICTED BY IDOCK:   -0.53 KCAL/MOL
REMARK 927      BINDING AFFINITY PREDICTED BY RF-SCORE:    0.00 PKD
ROOT
HETATM    1  O   UNL     1     -10.751  13.670  68.004  1.00  0.00    -0.238 OA 
HETATM    2  C   UNL     1     -10.097  12.476  67.481  1.00  0.00    -0.207 C  
HETATM    3  H   UNL     1     -10.391  13.764  68.878  1.00  0.00     0.000 HD 
HETATM    4  C   UNL     1     -10.594  11.346  68.504  1.00  0.00    -0.225 C  
HETATM    5  C   UNL     1      -8.580  12.827  67.523  1.00  0.00    -0.187 A  
HETATM    6  C   UNL     1     -10.686  12.322  66.051  1.00  0.00    -0.296 A  
HETATM    7  C   UNL     1     -12.153  11.270  68.512  1.00  0.00    -0.161 C  
HETATM    8  C   UNL     1      -8.145  14.123  67.899  1.00  0.00    -0.154 A  
HETATM    9  C   UNL     1     -10.022  11.675  64.998  1.00  0.00    -0.297 A  
HETATM   10  C   UNL     1      -6.803  14.516  67.841  1.00  0.00    -0.177 A  
HETATM   11  C   UNL     1     -10.603  11.568  63.725  1.00  0.00    -0.465 A  
HETATM   12  C   UNL     1     -12.703  10.315  69.555  1.00  0.00     0.628 C  
HETATM   13  C   UNL     1     -11.866  12.089  63.473  1.00  0.00    -0.587 A  
HETATM   14  C   UNL     1      -5.838  13.614  67.419  1.00  0.00     0.182 A  
HETATM   15  N   UNL     1     -11.558   9.692  70.333  1.00  0.00    -0.255 N  
HETATM   16  C   UNL     1     -12.554  12.734  64.491  1.00  0.00    -0.463 A  
HETATM   17  C   UNL     1      -7.564  11.925  67.155  1.00  0.00    -0.154 A  
HETATM   18  C   UNL     1     -10.714  10.775  70.997  1.00  0.00     1.438 C  
HETATM   19  C   UNL     1     -10.665   8.928  69.338  1.00  0.00    -0.181 C  
HETATM   20  C   UNL     1      -6.215  12.317  67.093  1.00  0.00    -0.118 A  
HETATM   21  C   UNL     1     -11.969  12.850  65.753  1.00  0.00    -0.496 A  
HETATM   22  C   UNL     1     -10.152  11.718  69.947  1.00  0.00     1.362 C  
HETATM   23  C   UNL     1     -10.122   9.897  68.259  1.00  0.00    -0.185 C  
ENDROOT
BRANCH  15  24
HETATM   24  C   UNL     1     -12.115   8.709  71.406  1.00  0.00    -0.303 C  
BRANCH  24  25
HETATM   25  C   UNL     1     -12.488   7.327  70.831  1.00  0.00    -0.227 C  
BRANCH  25  26
HETATM   26  O   UNL     1     -11.914   6.291  71.616  1.00  0.00    -0.305 OA 
BRANCH  26  27
HETATM   27  C   UNL     1     -11.186   6.836  72.724  1.00  0.00    -0.231 C  
BRANCH  27  28
HETATM   28  C   UNL     1      -9.837   6.183  72.750  1.00  0.00    -0.176 A  
HETATM   29  C   UNL     1      -8.673   6.962  72.784  1.00  0.00    -0.133 A  
HETATM   30  C   UNL     1      -7.419   6.356  72.765  1.00  0.00    -0.095 A  
HETATM   31  C   UNL     1      -7.318   4.966  72.707  1.00  0.00    -0.089 A  
HETATM   32  C   UNL     1      -8.468   4.182  72.670  1.00  0.00    -0.101 A  
HETATM   33  C   UNL     1      -9.724   4.786  72.688  1.00  0.00    -0.179 A  
ENDBRANCH  27  28
ENDBRANCH  26  27
ENDBRANCH  25  26
ENDBRANCH  24  25
ENDBRANCH  15  24
TORSDOF 5
ENDMDL
MODEL      157
REMARK 921   NORMALIZED FREE ENERGY PREDICTED BY IDOCK:   -1.28 KCAL/MOL
REMARK 922        TOTAL FREE ENERGY PREDICTED BY IDOCK:   -3.12 KCAL/MOL
REMARK 923 INTER-LIGAND FREE ENERGY PREDICTED BY IDOCK:   -3.18 KCAL/MOL
REMARK 924 INTRA-LIGAND FREE ENERGY PREDICTED BY IDOCK:    0.06 KCAL/MOL
REMARK 927      BINDING AFFINITY PREDICTED BY RF-SCORE:    0.00 PKD
ROOT
HETATM    1  O   UNL     1      -7.878  11.678  69.386  1.00  0.00    -0.355 OA 
HETATM    2  C   UNL     1      -9.225  11.173  69.143  1.00  0.00     0.056 C  
HETATM    3  H   UNL     1      -7.732  12.292  68.676  1.00  0.00     0.000 HD 
HETATM    4  C   UNL     1      -9.066  10.471  67.710  1.00  0.00    -0.140 C  
HETATM    5  C   UNL     1     -10.120  12.447  69.192  1.00  0.00     0.276 A  
HETATM    6  C   UNL     1      -9.464  10.169  70.304  1.00  0.00     0.105 A  
HETATM    7  C   UNL     1      -7.969   9.362  67.768  1.00  0.00    -0.096 C  
HETATM    8  C   UNL     1      -9.571  13.708  69.540  1.00  0.00     0.956 A  
HETATM    9  C   UNL     1     -10.734   9.835  70.800  1.00  0.00    -0.393 A  
HETATM   10  C   UNL     1     -10.357  14.853  69.708  1.00  0.00    -0.111 A  
HETATM   11  C   UNL     1     -10.889   8.922  71.854  1.00  0.00    -0.433 A  
HETATM   12  C   UNL     1      -7.667   8.743  66.417  1.00  0.00    -0.099 C  
HETATM   13  C   UNL     1      -9.785   8.307  72.430  1.00  0.00    -0.373 A  
HETATM   14  C   UNL     1     -11.728  14.783  69.515  1.00  0.00    -0.358 A  
HETATM   15  N   UNL     1      -8.527   9.398  65.350  1.00  0.00    -0.139 N  
HETATM   16  C   UNL     1      -8.514   8.610  71.965  1.00  0.00    -0.191 A  
HETATM   17  C   UNL     1     -11.506  12.431  68.951  1.00  0.00    -0.355 A  
HETATM   18  C   UNL     1      -8.275  10.901  65.314  1.00  0.00     0.022 C  
HETATM   19  C   UNL     1     -10.004   9.166  65.719  1.00  0.00    -0.075 C  
HETATM   20  C   UNL     1     -12.299  13.580  69.121  1.00  0.00    -0.080 A  
HETATM   21  C   UNL     1      -8.361   9.528  70.925  1.00  0.00     0.019 A  
HETATM   22  C   UNL     1      -8.595  11.519  66.665  1.00  0.00    -0.176 C  
HETATM   23  C   UNL     1     -10.307   9.776  67.109  1.00  0.00    -0.311 C  
ENDROOT
BRANCH  15  24
HETATM   24  C   UNL     1      -8.223   8.767  63.959  1.00  0.00    -0.161 C  
BRANCH  24  25
HETATM   25  C   UNL     1      -9.094   9.345  62.824  1.00  0.00    -0.096 C  
BRANCH  25  26
HETATM   26  O   UNL     1      -9.501  10.670  63.138  1.00  0.00    -0.269 OA 
BRANCH  26  27
HETATM   27  C   UNL     1     -10.899  10.850  62.873  1.00  0.00     0.679 C  
BRANCH  27  28
HETATM   28  C   UNL     1     -11.364  12.036  63.661  1.00  0.00    -0.536 A  
HETATM   29  C   UNL     1     -11.846  11.875  64.967  1.00  0.00    -0.213 A  
HETATM   30  C   UNL     1     -12.318  12.973  65.684  1.00  0.00    -0.504 A  
HETATM   31  C   UNL     1     -12.317  14.240  65.100  1.00  0.00    -0.427 A  
HETATM   32  C   UNL     1     -11.843  14.410  63.802  1.00  0.00     0.087 A  
HETATM   33  C   UNL     1     -11.371  13.314  63.082  1.00  0.00     0.511 A  
ENDBRANCH  27  28
ENDBRANCH  26  27
ENDBRANCH  25  26
ENDBRANCH  24  25
ENDBRANCH  15  24
TORSDOF 5
ENDMDL
MODEL      158
REMARK 921   NORMALIZED FREE ENERGY PREDICTED BY IDOCK:   -0.87 KCAL/MOL
REMARK 922        TOTAL FREE ENERGY PREDICTED BY IDOCK:   -2.59 KCAL/MOL
REMARK 923 INTER-LIGAND FREE ENERGY PREDICTED BY IDOCK:   -3.19 KCAL/MOL
REMARK 924 INTRA-LIGAND FREE ENERGY PREDICTED BY IDOCK:    0.60 KCAL/MOL
REMARK 927      BINDING AFFINITY PREDICTED BY RF-SCORE:    0.00 PKD
ROOT
HETATM    1  O   UNL     1      -6.498   9.057  67.552  1.00  0.00    -0.062 OA 
HETATM    2  C   UNL     1      -7.571   9.402  68.478  1.00  0.00    -0.081 C  
HETATM    3  H   UNL     1      -5.782   9.626  67.810  1.00  0.00     0.000 HD 
HETATM    4  C   UNL     1      -7.826  10.947  68.136  1.00  0.00    -0.114 C  
HETATM    5  C   UNL     1      -6.972   9.095  69.883  1.00  0.00    -0.054 A  
HETATM    6  C   UNL     1      -8.743   8.471  68.056  1.00  0.00    -0.142 A  
HETATM    7  C   UNL     1      -8.202  11.115  66.630  1.00  0.00    -0.158 C  
HETATM    8  C   UNL     1      -5.694   8.495  70.011  1.00  0.00    -0.024 A  
HETATM    9  C   UNL     1      -9.764   8.057  68.925  1.00  0.00    -0.159 A  
HETATM   10  C   UNL     1      -5.166   8.097  71.245  1.00  0.00    -0.029 A  
HETATM   11  C   UNL     1     -10.796   7.213  68.489  1.00  0.00    -0.141 A  
HETATM   12  C   UNL     1      -8.328  12.563  66.199  1.00  0.00     0.579 C  
HETATM   13  C   UNL     1     -10.846   6.772  67.173  1.00  0.00    -0.462 A  
HETATM   14  C   UNL     1      -5.896   8.304  72.405  1.00  0.00    -0.052 A  
HETATM   15  N   UNL     1      -8.032  13.476  67.376  1.00  0.00    -0.168 N  
HETATM   16  C   UNL     1      -9.855   7.162  66.284  1.00  0.00    -0.021 A  
HETATM   17  C   UNL     1      -7.657   9.338  71.088  1.00  0.00    -0.045 A  
HETATM   18  C   UNL     1      -6.634  13.203  67.922  1.00  0.00    -0.137 C  
HETATM   19  C   UNL     1      -9.052  13.166  68.488  1.00  0.00    -0.053 C  
HETATM   20  C   UNL     1      -7.130   8.938  72.329  1.00  0.00     0.104 A  
HETATM   21  C   UNL     1      -8.823   7.992  66.723  1.00  0.00    -0.157 A  
HETATM   22  C   UNL     1      -6.519  11.755  68.368  1.00  0.00    -0.053 C  
HETATM   23  C   UNL     1      -8.942  11.681  68.912  1.00  0.00     0.074 C  
ENDROOT
BRANCH  15  24
HETATM   24  C   UNL     1      -8.159  14.966  66.942  1.00  0.00    -0.084 C  
BRANCH  24  25
HETATM   25  C   UNL     1      -9.618  15.467  66.903  1.00  0.00    -0.226 C  
BRANCH  25  26
HETATM   26  O   UNL     1      -9.842  16.253  65.740  1.00  0.00    -0.380 OA 
BRANCH  26  27
HETATM   27  C   UNL     1      -8.933  17.361  65.691  1.00  0.00     0.516 C  
BRANCH  27  28
HETATM   28  C   UNL     1      -9.375  18.359  66.718  1.00  0.00    -0.296 A  
HETATM   29  C   UNL     1     -10.202  17.967  67.779  1.00  0.00    -0.372 A  
HETATM   30  C   UNL     1     -10.647  18.904  68.708  1.00  0.00     0.169 A  
HETATM   31  C   UNL     1     -10.273  20.242  68.583  1.00  0.00    -0.261 A  
HETATM   32  C   UNL     1      -9.454  20.643  67.530  1.00  0.00    -0.479 A  
HETATM   33  C   UNL     1      -9.009  19.709  66.598  1.00  0.00    -0.419 A  
ENDBRANCH  27  28
ENDBRANCH  26  27
ENDBRANCH  25  26
ENDBRANCH  24  25
ENDBRANCH  15  24
TORSDOF 5
ENDMDL
MODEL      159
REMARK 921   NORMALIZED FREE ENERGY PREDICTED BY IDOCK:   -0.57 KCAL/MOL
REMARK 922        TOTAL FREE ENERGY PREDICTED BY IDOCK:   -2.20 KCAL/MOL
REMARK 923 INTER-LIGAND FREE ENERGY PREDICTED BY IDOCK:   -3.25 KCAL/MOL
REMARK 924 INTRA-LIGAND FREE ENERGY PREDICTED BY IDOCK:    1.05 KCAL/MOL
REMARK 927      BINDING AFFINITY PREDICTED BY RF-SCORE:    0.00 PKD
ROOT
HETATM    1  O   UNL     1      -7.837  13.074  65.990  1.00  0.00     0.807 OA 
HETATM    2  C   UNL     1      -8.576  13.043  67.247  1.00  0.00    -0.206 C  
HETATM    3  H   UNL     1      -8.274  12.424  65.452  1.00  0.00     0.000 HD 
HETATM    4  C   UNL     1      -8.338  11.535  67.739  1.00  0.00    -0.136 C  
HETATM    5  C   UNL     1     -10.033  13.414  66.838  1.00  0.00    -0.252 A  
HETATM    6  C   UNL     1      -7.861  14.104  68.129  1.00  0.00    -0.142 A  
HETATM    7  C   UNL     1      -6.811  11.248  67.888  1.00  0.00    -0.068 C  
HETATM    8  C   UNL     1     -10.339  13.791  65.506  1.00  0.00    -0.333 A  
HETATM    9  C   UNL     1      -8.484  14.797  69.178  1.00  0.00    -0.096 A  
HETATM   10  C   UNL     1     -11.606  14.242  65.121  1.00  0.00    -0.355 A  
HETATM   11  C   UNL     1      -7.788  15.748  69.940  1.00  0.00     0.272 A  
HETATM   12  C   UNL     1      -6.500   9.802  68.222  1.00  0.00    -0.056 C  
HETATM   13  C   UNL     1      -6.450  16.021  69.686  1.00  0.00    -0.190 A  
HETATM   14  C   UNL     1     -12.626  14.314  66.057  1.00  0.00    -0.335 A  
HETATM   15  N   UNL     1      -7.792   9.007  68.307  1.00  0.00    -0.099 N  
HETATM   16  C   UNL     1      -5.799  15.354  68.658  1.00  0.00    -0.095 A  
HETATM   17  C   UNL     1     -11.108  13.449  67.745  1.00  0.00    -0.292 A  
HETATM   18  C   UNL     1      -8.559   9.097  66.992  1.00  0.00    -0.123 C  
HETATM   19  C   UNL     1      -8.662   9.629  69.415  1.00  0.00    -0.171 C  
HETATM   20  C   UNL     1     -12.382  13.903  67.362  1.00  0.00    -0.152 A  
HETATM   21  C   UNL     1      -6.497  14.418  67.894  1.00  0.00    -0.175 A  
HETATM   22  C   UNL     1      -8.882  10.546  66.671  1.00  0.00    -0.145 C  
HETATM   23  C   UNL     1      -8.959  11.113  69.088  1.00  0.00     0.057 C  
ENDROOT
BRANCH  15  24
HETATM   24  C   UNL     1      -7.482   7.520  68.650  1.00  0.00    -0.101 C  
BRANCH  24  25
HETATM   25  C   UNL     1      -7.695   7.181  70.140  1.00  0.00    -0.095 C  
BRANCH  25  26
HETATM   26  O   UNL     1      -8.038   5.810  70.293  1.00  0.00    -0.101 OA 
BRANCH  26  27
HETATM   27  C   UNL     1      -7.701   5.066  69.116  1.00  0.00    -0.076 C  
BRANCH  27  28
HETATM   28  C   UNL     1      -8.814   5.244  68.128  1.00  0.00    -0.107 A  
HETATM   29  C   UNL     1     -10.090   5.631  68.560  1.00  0.00    -0.236 A  
HETATM   30  C   UNL     1     -11.135   5.755  67.647  1.00  0.00     0.052 A  
HETATM   31  C   UNL     1     -10.915   5.490  66.295  1.00  0.00    -0.031 A  
HETATM   32  C   UNL     1      -9.651   5.102  65.856  1.00  0.00    -0.163 A  
HETATM   33  C   UNL     1      -8.605   4.976  66.767  1.00  0.00    -0.109 A  
ENDBRANCH  27  28
ENDBRANCH  26  27
ENDBRANCH  25  26
ENDBRANCH  24  25
ENDBRANCH  15  24
TORSDOF 5
ENDMDL
MODEL      160
REMARK 921   NORMALIZED FREE ENERGY PREDICTED BY IDOCK:   -0.51 KCAL/MOL
REMARK 922        TOTAL FREE ENERGY PREDICTED BY IDOCK:   -2.13 KCAL/MOL
REMARK 923 INTER-LIGAND FREE ENERGY PREDICTED BY IDOCK:   -2.62 KCAL/MOL
REMARK 924 INTRA-LIGAND FREE ENERGY PREDICTED BY IDOCK:    0.50 KCAL/MOL
REMARK 927      BINDING AFFINITY PREDICTED BY RF-SCORE:    0.00 PKD
ROOT
HETATM    1  O   UNL     1      -9.144  13.263  65.945  1.00  0.00    -0.450 OA 
HETATM    2  C   UNL     1      -8.618  12.764  67.210  1.00  0.00    -0.197 C  
HETATM    3  H   UNL     1      -8.368  13.528  65.464  1.00  0.00     0.000 HD 
HETATM    4  C   UNL     1      -7.902  14.066  67.813  1.00  0.00    -0.176 C  
HETATM    5  C   UNL     1      -7.681  11.591  66.794  1.00  0.00    -0.136 A  
HETATM    6  C   UNL     1      -9.886  12.331  67.998  1.00  0.00    -0.204 A  
HETATM    7  C   UNL     1      -8.931  15.230  67.964  1.00  0.00    -0.171 C  
HETATM    8  C   UNL     1      -7.596  11.175  65.441  1.00  0.00     0.369 A  
HETATM    9  C   UNL     1      -9.886  11.348  68.999  1.00  0.00    -0.056 A  
HETATM   10  C   UNL     1      -6.858  10.056  65.040  1.00  0.00    -0.132 A  
HETATM   11  C   UNL     1     -11.063  10.996  69.677  1.00  0.00    -0.320 A  
HETATM   12  C   UNL     1      -8.301  16.537  68.403  1.00  0.00    -0.200 C  
HETATM   13  C   UNL     1     -12.267  11.624  69.384  1.00  0.00    -0.246 A  
HETATM   14  C   UNL     1      -6.157   9.319  65.982  1.00  0.00    -0.059 A  
HETATM   15  N   UNL     1      -6.803  16.354  68.566  1.00  0.00    -0.139 N  
HETATM   16  C   UNL     1     -12.305  12.603  68.402  1.00  0.00     0.305 A  
HETATM   17  C   UNL     1      -6.912  10.850  67.710  1.00  0.00    -0.077 A  
HETATM   18  C   UNL     1      -6.180  15.877  67.259  1.00  0.00    -0.082 C  
HETATM   19  C   UNL     1      -6.568  15.271  69.635  1.00  0.00    -0.174 C  
HETATM   20  C   UNL     1      -6.170   9.724  67.310  1.00  0.00    -0.067 A  
HETATM   21  C   UNL     1     -11.135  12.943  67.722  1.00  0.00    -0.291 A  
HETATM   22  C   UNL     1      -6.803  14.559  66.832  1.00  0.00     1.019 C  
HETATM   23  C   UNL     1      -7.233  13.941  69.199  1.00  0.00    -0.038 C  
ENDROOT
BRANCH  15  24
HETATM   24  C   UNL     1      -6.147  17.693  69.018  1.00  0.00    -0.206 C  
BRANCH  24  25
HETATM   25  C   UNL     1      -7.079  18.913  68.857  1.00  0.00    -0.321 C  
BRANCH  25  26
HETATM   26  O   UNL     1      -6.408  20.104  69.245  1.00  0.00    -0.310 OA 
BRANCH  26  27
HETATM   27  C   UNL     1      -6.474  21.087  68.204  1.00  0.00    -0.204 C  
BRANCH  27  28
HETATM   28  C   UNL     1      -6.368  20.372  66.892  1.00  0.00    -0.257 A  
HETATM   29  C   UNL     1      -7.423  20.419  65.971  1.00  0.00    -0.175 A  
HETATM   30  C   UNL     1      -7.342  19.719  64.770  1.00  0.00     0.729 A  
HETATM   31  C   UNL     1      -6.207  18.961  64.480  1.00  0.00    -0.005 A  
HETATM   32  C   UNL     1      -5.153  18.905  65.389  1.00  0.00    -0.190 A  
HETATM   33  C   UNL     1      -5.233  19.603  66.593  1.00  0.00    -0.163 A  
ENDBRANCH  27  28
ENDBRANCH  26  27
ENDBRANCH  25  26
ENDBRANCH  24  25
ENDBRANCH  15  24
TORSDOF 5
ENDMDL
MODEL      161
REMARK 921   NORMALIZED FREE ENERGY PREDICTED BY IDOCK:   -0.11 KCAL/MOL
REMARK 922        TOTAL FREE ENERGY PREDICTED BY IDOCK:   -1.61 KCAL/MOL
REMARK 923 INTER-LIGAND FREE ENERGY PREDICTED BY IDOCK:   -2.93 KCAL/MOL
REMARK 924 INTRA-LIGAND FREE ENERGY PREDICTED BY IDOCK:    1.31 KCAL/MOL
REMARK 927      BINDING AFFINITY PREDICTED BY RF-SCORE:    0.00 PKD
ROOT
HETATM    1  O   UNL     1     -11.057   7.069  68.816  1.00  0.00    -0.441 OA 
HETATM    2  C   UNL     1     -10.364   7.702  69.932  1.00  0.00    -0.225 C  
HETATM    3  H   UNL     1     -11.594   6.403  69.229  1.00  0.00     0.000 HD 
HETATM    4  C   UNL     1      -9.519   6.482  70.538  1.00  0.00    -0.173 C  
HETATM    5  C   UNL     1     -11.514   8.256  70.825  1.00  0.00    -0.268 A  
HETATM    6  C   UNL     1      -9.485   8.792  69.258  1.00  0.00    -0.161 A  
HETATM    7  C   UNL     1      -8.570   5.887  69.451  1.00  0.00    -0.113 C  
HETATM    8  C   UNL     1     -12.865   8.174  70.404  1.00  0.00     0.883 A  
HETATM    9  C   UNL     1      -9.059   9.963  69.904  1.00  0.00    -0.241 A  
HETATM   10  C   UNL     1     -13.917   8.759  71.118  1.00  0.00    -0.120 A  
HETATM   11  C   UNL     1      -8.268  10.915  69.244  1.00  0.00    -0.046 A  
HETATM   12  C   UNL     1      -7.833   4.643  69.910  1.00  0.00    -0.061 C  
HETATM   13  C   UNL     1      -7.869  10.718  67.928  1.00  0.00    -0.109 A  
HETATM   14  C   UNL     1     -13.655   9.437  72.298  1.00  0.00    -0.532 A  
HETATM   15  N   UNL     1      -8.243   4.301  71.331  1.00  0.00    -0.081 N  
HETATM   16  C   UNL     1      -8.268   9.572  67.257  1.00  0.00    -0.114 A  
HETATM   17  C   UNL     1     -11.297   8.904  72.056  1.00  0.00    -0.427 A  
HETATM   18  C   UNL     1      -9.751   4.088  71.413  1.00  0.00    -0.183 C  
HETATM   19  C   UNL     1      -7.876   5.494  72.234  1.00  0.00    -0.103 C  
HETATM   20  C   UNL     1     -12.351   9.495  72.775  1.00  0.00     0.605 A  
HETATM   21  C   UNL     1      -9.065   8.632  67.912  1.00  0.00    -0.145 A  
HETATM   22  C   UNL     1     -10.483   5.342  70.968  1.00  0.00    -0.302 C  
HETATM   23  C   UNL     1      -8.608   6.770  71.751  1.00  0.00    -0.121 C  
ENDROOT
BRANCH  15  24
HETATM   24  C   UNL     1      -7.491   3.024  71.811  1.00  0.00    -0.047 C  
BRANCH  24  25
HETATM   25  C   UNL     1      -7.282   1.983  70.691  1.00  0.00    -0.033 C  
BRANCH  25  26
HETATM   26  O   UNL     1      -6.781   2.610  69.518  1.00  0.00    -0.033 OA 
BRANCH  26  27
HETATM   27  C   UNL     1      -7.552   2.233  68.370  1.00  0.00    -0.050 C  
BRANCH  27  28
HETATM   28  C   UNL     1      -7.075   3.053  67.210  1.00  0.00    -0.054 A  
HETATM   29  C   UNL     1      -5.734   3.451  67.126  1.00  0.00    -0.022 A  
HETATM   30  C   UNL     1      -5.301   4.249  66.069  1.00  0.00    -0.009 A  
HETATM   31  C   UNL     1      -6.206   4.659  65.090  1.00  0.00    -0.034 A  
HETATM   32  C   UNL     1      -7.541   4.272  65.165  1.00  0.00    -0.078 A  
HETATM   33  C   UNL     1      -7.978   3.475  66.221  1.00  0.00    -0.089 A  
ENDBRANCH  27  28
ENDBRANCH  26  27
ENDBRANCH  25  26
ENDBRANCH  24  25
ENDBRANCH  15  24
TORSDOF 5
ENDMDL
MODEL      162
REMARK 921   NORMALIZED FREE ENERGY PREDICTED BY IDOCK:    0.25 KCAL/MOL
REMARK 922        TOTAL FREE ENERGY PREDICTED BY IDOCK:   -1.14 KCAL/MOL
REMARK 923 INTER-LIGAND FREE ENERGY PREDICTED BY IDOCK:   -0.62 KCAL/MOL
REMARK 924 INTRA-LIGAND FREE ENERGY PREDICTED BY IDOCK:   -0.52 KCAL/MOL
REMARK 927      BINDING AFFINITY PREDICTED BY RF-SCORE:    0.00 PKD
ROOT
HETATM    1  O   UNL     1      -8.304  12.567  69.755  1.00  0.00     0.938 OA 
HETATM    2  C   UNL     1      -8.335  12.998  68.362  1.00  0.00    -0.118 C  
HETATM    3  H   UNL     1      -7.427  12.219  69.868  1.00  0.00     0.000 HD 
HETATM    4  C   UNL     1      -8.087  11.620  67.580  1.00  0.00    -0.140 C  
HETATM    5  C   UNL     1      -7.199  14.059  68.269  1.00  0.00    -0.114 A  
HETATM    6  C   UNL     1      -9.770  13.567  68.178  1.00  0.00    -0.233 A  
HETATM    7  C   UNL     1      -9.189  10.579  67.952  1.00  0.00    -0.143 C  
HETATM    8  C   UNL     1      -6.493  14.470  69.428  1.00  0.00    -0.132 A  
HETATM    9  C   UNL     1     -10.108  14.539  67.224  1.00  0.00    -0.247 A  
HETATM   10  C   UNL     1      -5.546  15.501  69.410  1.00  0.00    -0.109 A  
HETATM   11  C   UNL     1     -11.422  15.018  67.105  1.00  0.00    -0.304 A  
HETATM   12  C   UNL     1      -8.946   9.207  67.354  1.00  0.00    -0.117 C  
HETATM   13  C   UNL     1     -12.434  14.530  67.922  1.00  0.00     0.250 A  
HETATM   14  C   UNL     1      -5.256  16.150  68.220  1.00  0.00    -0.105 A  
HETATM   15  N   UNL     1      -7.658   9.219  66.550  1.00  0.00    -0.093 N  
HETATM   16  C   UNL     1     -12.138  13.567  68.875  1.00  0.00    -0.315 A  
HETATM   17  C   UNL     1      -6.836  14.704  67.072  1.00  0.00     0.603 A  
HETATM   18  C   UNL     1      -6.484   9.630  67.431  1.00  0.00    -0.069 C  
HETATM   19  C   UNL     1      -7.807  10.264  65.428  1.00  0.00    -0.149 C  
HETATM   20  C   UNL     1      -5.887  15.742  67.051  1.00  0.00     0.353 A  
HETATM   21  C   UNL     1     -10.828  13.101  69.000  1.00  0.00    -0.202 A  
HETATM   22  C   UNL     1      -6.725  11.012  68.014  1.00  0.00    -0.063 C  
HETATM   23  C   UNL     1      -8.079  11.662  66.036  1.00  0.00     0.216 C  
ENDROOT
BRANCH  15  24
HETATM   24  C   UNL     1      -7.402   7.812  65.931  1.00  0.00    -0.073 C  
BRANCH  24  25
HETATM   25  C   UNL     1      -5.915   7.547  65.617  1.00  0.00    -0.038 C  
BRANCH  25  26
HETATM   26  O   UNL     1      -5.427   6.466  66.399  1.00  0.00    -0.013 OA 
BRANCH  26  27
HETATM   27  C   UNL     1      -6.489   5.566  66.741  1.00  0.00    -0.047 C  
BRANCH  27  28
HETATM   28  C   UNL     1      -6.386   5.276  68.208  1.00  0.00    -0.035 A  
HETATM   29  C   UNL     1      -5.357   5.842  68.973  1.00  0.00    -0.004 A  
HETATM   30  C   UNL     1      -5.238   5.538  70.327  1.00  0.00    -0.005 A  
HETATM   31  C   UNL     1      -6.143   4.663  70.928  1.00  0.00    -0.018 A  
HETATM   32  C   UNL     1      -7.168   4.093  70.177  1.00  0.00    -0.042 A  
HETATM   33  C   UNL     1      -7.289   4.393  68.822  1.00  0.00    -0.056 A  
ENDBRANCH  27  28
ENDBRANCH  26  27
ENDBRANCH  25  26
ENDBRANCH  24  25
ENDBRANCH  15  24
TORSDOF 5
ENDMDL
MODEL      163
REMARK 921   NORMALIZED FREE ENERGY PREDICTED BY IDOCK:    0.26 KCAL/MOL
REMARK 922        TOTAL FREE ENERGY PREDICTED BY IDOCK:   -1.13 KCAL/MOL
REMARK 923 INTER-LIGAND FREE ENERGY PREDICTED BY IDOCK:   -2.83 KCAL/MOL
REMARK 924 INTRA-LIGAND FREE ENERGY PREDICTED BY IDOCK:    1.71 KCAL/MOL
REMARK 927      BINDING AFFINITY PREDICTED BY RF-SCORE:    0.00 PKD
ROOT
HETATM    1  O   UNL     1      -9.871   8.591  70.737  1.00  0.00    -0.170 OA 
HETATM    2  C   UNL     1      -8.762   9.028  69.897  1.00  0.00    -0.156 C  
HETATM    3  H   UNL     1      -9.604   7.732  71.041  1.00  0.00     0.000 HD 
HETATM    4  C   UNL     1      -8.755   7.913  68.744  1.00  0.00    -0.128 C  
HETATM    5  C   UNL     1      -7.537   9.032  70.860  1.00  0.00    -0.141 A  
HETATM    6  C   UNL     1      -9.199  10.434  69.399  1.00  0.00    -0.177 A  
HETATM    7  C   UNL     1     -10.135   7.880  68.014  1.00  0.00    -0.235 C  
HETATM    8  C   UNL     1      -7.701   8.764  72.243  1.00  0.00     0.034 A  
HETATM    9  C   UNL     1      -8.300  11.441  69.017  1.00  0.00     0.036 A  
HETATM   10  C   UNL     1      -6.651   8.869  73.162  1.00  0.00     0.124 A  
HETATM   11  C   UNL     1      -8.752  12.695  68.577  1.00  0.00    -0.048 A  
HETATM   12  C   UNL     1     -10.252   6.760  66.999  1.00  0.00    -0.237 C  
HETATM   13  C   UNL     1     -10.111  12.971  68.493  1.00  0.00    -0.195 A  
HETATM   14  C   UNL     1      -5.386   9.231  72.725  1.00  0.00    -0.073 A  
HETATM   15  N   UNL     1      -8.968   5.949  66.981  1.00  0.00    -0.115 N  
HETATM   16  C   UNL     1     -11.030  11.998  68.860  1.00  0.00    -0.277 A  
HETATM   17  C   UNL     1      -6.228   9.341  70.449  1.00  0.00    -0.052 A  
HETATM   18  C   UNL     1      -8.677   5.382  68.367  1.00  0.00    -0.098 C  
HETATM   19  C   UNL     1      -7.813   6.892  66.595  1.00  0.00    -0.107 C  
HETATM   20  C   UNL     1      -5.171   9.450  71.370  1.00  0.00    -0.054 A  
HETATM   21  C   UNL     1     -10.577  10.757  69.309  1.00  0.00    -0.261 A  
HETATM   22  C   UNL     1      -8.545   6.509  69.376  1.00  0.00    -0.134 C  
HETATM   23  C   UNL     1      -7.709   8.051  67.617  1.00  0.00    -0.110 C  
ENDROOT
BRANCH  15  24
HETATM   24  C   UNL     1      -9.079   4.796  65.940  1.00  0.00    -0.137 C  
BRANCH  24  25
HETATM   25  C   UNL     1      -8.638   3.426  66.497  1.00  0.00    -0.115 C  
BRANCH  25  26
HETATM   26  O   UNL     1      -9.716   2.502  66.454  1.00  0.00     0.193 OA 
BRANCH  26  27
HETATM   27  C   UNL     1      -9.491   1.504  65.449  1.00  0.00     0.117 C  
BRANCH  27  28
HETATM   28  C   UNL     1      -8.451   2.030  64.508  1.00  0.00    -0.088 A  
HETATM   29  C   UNL     1      -7.164   1.477  64.492  1.00  0.00    -0.051 A  
HETATM   30  C   UNL     1      -6.186   1.994  63.646  1.00  0.00    -0.014 A  
HETATM   31  C   UNL     1      -6.484   3.072  62.812  1.00  0.00    -0.018 A  
HETATM   32  C   UNL     1      -7.759   3.632  62.822  1.00  0.00    -0.059 A  
HETATM   33  C   UNL     1      -8.739   3.117  63.668  1.00  0.00    -0.089 A  
ENDBRANCH  27  28
ENDBRANCH  26  27
ENDBRANCH  25  26
ENDBRANCH  24  25
ENDBRANCH  15  24
TORSDOF 5
ENDMDL
MODEL      164
REMARK 921   NORMALIZED FREE ENERGY PREDICTED BY IDOCK:    0.70 KCAL/MOL
REMARK 922        TOTAL FREE ENERGY PREDICTED BY IDOCK:   -0.56 KCAL/MOL
REMARK 923 INTER-LIGAND FREE ENERGY PREDICTED BY IDOCK:   -0.82 KCAL/MOL
REMARK 924 INTRA-LIGAND FREE ENERGY PREDICTED BY IDOCK:    0.26 KCAL/MOL
REMARK 927      BINDING AFFINITY PREDICTED BY RF-SCORE:    0.00 PKD
ROOT
HETATM    1  O   UNL     1      -7.360  11.225  67.603  1.00  0.00    -0.092 OA 
HETATM    2  C   UNL     1      -8.405  11.851  68.405  1.00  0.00    -0.157 C  
HETATM    3  H   UNL     1      -7.826  10.585  67.078  1.00  0.00     0.000 HD 
HETATM    4  C   UNL     1      -8.965  10.611  69.252  1.00  0.00    -0.098 C  
HETATM    5  C   UNL     1      -9.375  12.461  67.350  1.00  0.00    -0.181 A  
HETATM    6  C   UNL     1      -7.642  12.897  69.264  1.00  0.00     0.383 A  
HETATM    7  C   UNL     1      -7.818   9.964  70.090  1.00  0.00    -0.186 C  
HETATM    8  C   UNL     1      -9.064  12.421  65.967  1.00  0.00     0.023 A  
HETATM    9  C   UNL     1      -8.229  14.061  69.781  1.00  0.00     0.985 A  
HETATM   10  C   UNL     1      -9.848  13.055  64.997  1.00  0.00    -0.059 A  
HETATM   11  C   UNL     1      -7.489  14.973  70.550  1.00  0.00     0.767 A  
HETATM   12  C   UNL     1      -8.241   8.702  70.817  1.00  0.00    -0.142 C  
HETATM   13  C   UNL     1      -6.150  14.740  70.836  1.00  0.00    -0.019 A  
HETATM   14  C   UNL     1     -10.990  13.743  65.376  1.00  0.00    -0.309 A  
HETATM   15  N   UNL     1      -9.697   8.398  70.510  1.00  0.00    -0.171 N  
HETATM   16  C   UNL     1      -5.536  13.597  70.344  1.00  0.00    -0.131 A  
HETATM   17  C   UNL     1     -10.572  13.121  67.687  1.00  0.00    -0.235 A  
HETATM   18  C   UNL     1      -9.903   8.241  69.007  1.00  0.00    -0.176 C  
HETATM   19  C   UNL     1     -10.544   9.592  70.990  1.00  0.00    -0.322 C  
HETATM   20  C   UNL     1     -11.361  13.762  66.715  1.00  0.00    -0.345 A  
HETATM   21  C   UNL     1      -6.271  12.699  69.569  1.00  0.00    -0.121 A  
HETATM   22  C   UNL     1      -9.493   9.514  68.287  1.00  0.00    -0.143 C  
HETATM   23  C   UNL     1     -10.096  10.886  70.267  1.00  0.00     0.916 C  
ENDROOT
BRANCH  15  24
HETATM   24  C   UNL     1     -10.140   7.103  71.253  1.00  0.00    -0.189 C  
BRANCH  24  25
HETATM   25  C   UNL     1      -8.957   6.289  71.818  1.00  0.00    -0.140 C  
BRANCH  25  26
HETATM   26  O   UNL     1      -8.729   5.131  71.026  1.00  0.00    -0.124 OA 
BRANCH  26  27
HETATM   27  C   UNL     1      -9.394   5.240  69.761  1.00  0.00    -0.134 C  
BRANCH  27  28
HETATM   28  C   UNL     1      -8.342   5.283  68.694  1.00  0.00    -0.089 A  
HETATM   29  C   UNL     1      -8.552   6.020  67.520  1.00  0.00    -0.106 A  
HETATM   30  C   UNL     1      -7.592   6.025  66.511  1.00  0.00    -0.094 A  
HETATM   31  C   UNL     1      -6.416   5.290  66.664  1.00  0.00    -0.041 A  
HETATM   32  C   UNL     1      -6.199   4.552  67.825  1.00  0.00    -0.036 A  
HETATM   33  C   UNL     1      -7.158   4.543  68.836  1.00  0.00    -0.052 A  
ENDBRANCH  27  28
ENDBRANCH  26  27
ENDBRANCH  25  26
ENDBRANCH  24  25
ENDBRANCH  15  24
TORSDOF 5
ENDMDL
MODEL      165
REMARK 921   NORMALIZED FREE ENERGY PREDICTED BY IDOCK:    1.96 KCAL/MOL
REMARK 922        TOTAL FREE ENERGY PREDICTED BY IDOCK:    1.07 KCAL/MOL
REMARK 923 INTER-LIGAND FREE ENERGY PREDICTED BY IDOCK:   -0.14 KCAL/MOL
REMARK 924 INTRA-LIGAND FREE ENERGY PREDICTED BY IDOCK:    1.22 KCAL/MOL
REMARK 927      BINDING AFFINITY PREDICTED BY RF-SCORE:    0.00 PKD
ROOT
HETATM    1  O   UNL     1      -8.358  12.576  70.227  1.00  0.00     2.561 OA 
HETATM    2  C   UNL     1      -8.672  13.402  69.067  1.00  0.00     0.413 C  
HETATM    3  H   UNL     1      -7.522  12.182  70.009  1.00  0.00     0.000 HD 
HETATM    4  C   UNL     1      -8.761  12.313  67.894  1.00  0.00    -0.177 C  
HETATM    5  C   UNL     1      -7.483  14.406  68.987  1.00  0.00    -0.119 A  
HETATM    6  C   UNL     1     -10.040  14.045  69.424  1.00  0.00     0.245 A  
HETATM    7  C   UNL     1      -9.848  11.243  68.229  1.00  0.00    -0.201 C  
HETATM    8  C   UNL     1      -6.484  14.431  69.993  1.00  0.00    -0.146 A  
HETATM    9  C   UNL     1     -10.489  15.267  68.900  1.00  0.00    -0.241 A  
HETATM   10  C   UNL     1      -5.465  15.390  70.022  1.00  0.00    -0.123 A  
HETATM   11  C   UNL     1     -11.736  15.802  69.261  1.00  0.00    -0.384 A  
HETATM   12  C   UNL     1      -9.900  10.104  67.229  1.00  0.00    -0.183 C  
HETATM   13  C   UNL     1     -12.572  15.125  70.140  1.00  0.00    -0.319 A  
HETATM   14  C   UNL     1      -5.397  16.354  69.029  1.00  0.00    -0.118 A  
HETATM   15  N   UNL     1      -8.844  10.314  66.158  1.00  0.00    -0.148 N  
HETATM   16  C   UNL     1     -12.164  13.913  70.676  1.00  0.00    -0.443 A  
HETATM   17  C   UNL     1      -7.347  15.367  67.967  1.00  0.00    -0.131 A  
HETATM   18  C   UNL     1      -7.459  10.407  66.788  1.00  0.00    -0.110 C  
HETATM   19  C   UNL     1      -9.142  11.650  65.451  1.00  0.00     0.002 C  
HETATM   20  C   UNL     1      -6.326  16.333  67.995  1.00  0.00    -0.144 A  
HETATM   21  C   UNL     1     -10.918  13.390  70.325  1.00  0.00     0.811 A  
HETATM   22  C   UNL     1      -7.408  11.559  67.776  1.00  0.00    -0.096 C  
HETATM   23  C   UNL     1      -9.114  12.811  66.476  1.00  0.00    -0.150 C  
ENDROOT
BRANCH  15  24
HETATM   24  C   UNL     1      -8.891   9.148  65.126  1.00  0.00    -0.200 C  
BRANCH  24  25
HETATM   25  C   UNL     1      -9.188   9.619  63.687  1.00  0.00    -0.110 C  
BRANCH  25  26
HETATM   26  O   UNL     1      -7.977   9.840  62.978  1.00  0.00    -0.126 OA 
BRANCH  26  27
HETATM   27  C   UNL     1      -6.879   9.185  63.627  1.00  0.00    -0.090 C  
BRANCH  27  28
HETATM   28  C   UNL     1      -7.041   7.710  63.420  1.00  0.00    -0.071 A  
HETATM   29  C   UNL     1      -8.014   7.219  62.539  1.00  0.00    -0.131 A  
HETATM   30  C   UNL     1      -8.191   5.847  62.379  1.00  0.00    -0.101 A  
HETATM   31  C   UNL     1      -7.401   4.953  63.101  1.00  0.00    -0.049 A  
HETATM   32  C   UNL     1      -6.433   5.429  63.982  1.00  0.00    -0.029 A  
HETATM   33  C   UNL     1      -6.254   6.801  64.145  1.00  0.00    -0.035 A  
ENDBRANCH  27  28
ENDBRANCH  26  27
ENDBRANCH  25  26
ENDBRANCH  24  25
ENDBRANCH  15  24
TORSDOF 5
ENDMDL
MODEL      166
REMARK 921   NORMALIZED FREE ENERGY PREDICTED BY IDOCK:    2.28 KCAL/MOL
REMARK 922        TOTAL FREE ENERGY PREDICTED BY IDOCK:    1.48 KCAL/MOL
REMARK 923 INTER-LIGAND FREE ENERGY PREDICTED BY IDOCK:    1.28 KCAL/MOL
REMARK 924 INTRA-LIGAND FREE ENERGY PREDICTED BY IDOCK:    0.21 KCAL/MOL
REMARK 927      BINDING AFFINITY PREDICTED BY RF-SCORE:    0.00 PKD
ROOT
HETATM    1  O   UNL     1     -11.813  15.910  68.080  1.00  0.00    -0.241 OA 
HETATM    2  C   UNL     1     -10.733  15.909  67.101  1.00  0.00    -0.301 C  
HETATM    3  H   UNL     1     -11.477  16.442  68.791  1.00  0.00     0.000 HD 
HETATM    4  C   UNL     1      -9.541  15.213  67.916  1.00  0.00    -0.203 C  
HETATM    5  C   UNL     1     -10.541  17.415  66.749  1.00  0.00    -0.194 A  
HETATM    6  C   UNL     1     -11.282  15.038  65.937  1.00  0.00    -0.313 A  
HETATM    7  C   UNL     1      -9.970  13.790  68.394  1.00  0.00    -0.229 C  
HETATM    8  C   UNL     1     -11.414  18.400  67.276  1.00  0.00     0.969 A  
HETATM    9  C   UNL     1     -10.864  15.162  64.603  1.00  0.00    -0.285 A  
HETATM   10  C   UNL     1     -11.350  19.746  66.898  1.00  0.00     0.303 A  
HETATM   11  C   UNL     1     -11.397  14.348  63.592  1.00  0.00     0.876 A  
HETATM   12  C   UNL     1      -8.944  13.120  69.287  1.00  0.00     0.926 C  
HETATM   13  C   UNL     1     -12.349  13.380  63.887  1.00  0.00    -0.410 A  
HETATM   14  C   UNL     1     -10.392  20.161  65.987  1.00  0.00    -0.483 A  
HETATM   15  N   UNL     1      -7.757  14.046  69.488  1.00  0.00     0.250 N  
HETATM   16  C   UNL     1     -12.785  13.226  65.194  1.00  0.00    -0.464 A  
HETATM   17  C   UNL     1      -9.548  17.886  65.870  1.00  0.00     0.034 A  
HETATM   18  C   UNL     1      -8.211  15.368  70.098  1.00  0.00     0.577 C  
HETATM   19  C   UNL     1      -7.143  14.340  68.106  1.00  0.00    -0.126 C  
HETATM   20  C   UNL     1      -9.483  19.237  65.487  1.00  0.00     0.694 A  
HETATM   21  C   UNL     1     -12.261  14.045  66.196  1.00  0.00    -0.494 A  
HETATM   22  C   UNL     1      -9.226  16.042  69.192  1.00  0.00    -0.247 C  
HETATM   23  C   UNL     1      -8.197  15.001  67.185  1.00  0.00    -0.251 C  
ENDROOT
BRANCH  15  24
HETATM   24  C   UNL     1      -6.697  13.365  70.404  1.00  0.00     0.586 C  
BRANCH  24  25
HETATM   25  C   UNL     1      -5.524  14.296  70.774  1.00  0.00    -0.153 C  
BRANCH  25  26
HETATM   26  O   UNL     1      -5.999  15.446  71.458  1.00  0.00     0.387 OA 
BRANCH  26  27
HETATM   27  C   UNL     1      -5.137  16.568  71.230  1.00  0.00    -0.061 C  
BRANCH  27  28
HETATM   28  C   UNL     1      -5.851  17.516  70.316  1.00  0.00    -0.126 A  
HETATM   29  C   UNL     1      -6.415  18.697  70.817  1.00  0.00     0.911 A  
HETATM   30  C   UNL     1      -7.115  19.556  69.974  1.00  0.00     0.092 A  
HETATM   31  C   UNL     1      -7.264  19.240  68.623  1.00  0.00    -0.367 A  
HETATM   32  C   UNL     1      -6.711  18.068  68.115  1.00  0.00    -0.201 A  
HETATM   33  C   UNL     1      -6.010  17.205  68.956  1.00  0.00    -0.174 A  
ENDBRANCH  27  28
ENDBRANCH  26  27
ENDBRANCH  25  26
ENDBRANCH  24  25
ENDBRANCH  15  24
TORSDOF 5
ENDMDL
MODEL      167
REMARK 921   NORMALIZED FREE ENERGY PREDICTED BY IDOCK:    2.52 KCAL/MOL
REMARK 922        TOTAL FREE ENERGY PREDICTED BY IDOCK:    1.79 KCAL/MOL
REMARK 923 INTER-LIGAND FREE ENERGY PREDICTED BY IDOCK:    2.01 KCAL/MOL
REMARK 924 INTRA-LIGAND FREE ENERGY PREDICTED BY IDOCK:   -0.21 KCAL/MOL
REMARK 927      BINDING AFFINITY PREDICTED BY RF-SCORE:    0.00 PKD
ROOT
HETATM    1  O   UNL     1      -7.355  17.124  70.093  1.00  0.00     0.931 OA 
HETATM    2  C   UNL     1      -8.175  16.697  68.964  1.00  0.00    -0.190 C  
HETATM    3  H   UNL     1      -6.482  17.199  69.726  1.00  0.00     0.000 HD 
HETATM    4  C   UNL     1      -7.515  15.286  68.585  1.00  0.00    -0.126 C  
HETATM    5  C   UNL     1      -8.005  17.841  67.920  1.00  0.00    -0.233 A  
HETATM    6  C   UNL     1      -9.603  16.574  69.564  1.00  0.00    -0.004 A  
HETATM    7  C   UNL     1      -7.561  14.320  69.810  1.00  0.00     0.327 C  
HETATM    8  C   UNL     1      -7.277  19.015  68.241  1.00  0.00    -0.306 A  
HETATM    9  C   UNL     1     -10.780  16.706  68.812  1.00  0.00    -0.342 A  
HETATM   10  C   UNL     1      -7.196  20.113  67.378  1.00  0.00    -0.311 A  
HETATM   11  C   UNL     1     -12.045  16.587  69.408  1.00  0.00     0.687 A  
HETATM   12  C   UNL     1      -6.836  13.009  69.571  1.00  0.00     0.099 C  
HETATM   13  C   UNL     1     -12.169  16.320  70.766  1.00  0.00     0.187 A  
HETATM   14  C   UNL     1      -7.830  20.070  66.146  1.00  0.00    -0.316 A  
HETATM   15  N   UNL     1      -6.237  13.003  68.175  1.00  0.00    -0.089 N  
HETATM   16  C   UNL     1     -11.027  16.181  71.541  1.00  0.00     0.310 A  
HETATM   17  C   UNL     1      -8.588  17.815  66.640  1.00  0.00    -0.280 A  
HETATM   18  C   UNL     1      -5.282  14.180  68.002  1.00  0.00    -0.100 C  
HETATM   19  C   UNL     1      -7.385  13.163  67.162  1.00  0.00     0.067 C  
HETATM   20  C   UNL     1      -8.510  18.918  65.771  1.00  0.00     0.305 A  
HETATM   21  C   UNL     1      -9.771  16.312  70.948  1.00  0.00     2.376 A  
HETATM   22  C   UNL     1      -6.017  15.490  68.226  1.00  0.00    -0.119 C  
HETATM   23  C   UNL     1      -8.143  14.488  67.422  1.00  0.00    -0.219 C  
ENDROOT
BRANCH  15  24
HETATM   24  C   UNL     1      -5.490  11.661  67.921  1.00  0.00    -0.048 C  
BRANCH  24  25
HETATM   25  C   UNL     1      -6.439  10.483  67.616  1.00  0.00    -0.057 C  
BRANCH  25  26
HETATM   26  O   UNL     1      -5.743   9.447  66.937  1.00  0.00    -0.049 OA 
BRANCH  26  27
HETATM   27  C   UNL     1      -5.347   8.416  67.850  1.00  0.00    -0.035 C  
BRANCH  27  28
HETATM   28  C   UNL     1      -6.253   7.241  67.633  1.00  0.00    -0.046 A  
HETATM   29  C   UNL     1      -5.845   6.171  66.826  1.00  0.00    -0.020 A  
HETATM   30  C   UNL     1      -6.703   5.099  66.591  1.00  0.00    -0.061 A  
HETATM   31  C   UNL     1      -7.979   5.091  67.156  1.00  0.00    -0.100 A  
HETATM   32  C   UNL     1      -8.395   6.151  67.958  1.00  0.00    -0.117 A  
HETATM   33  C   UNL     1      -7.539   7.224  68.194  1.00  0.00    -0.115 A  
ENDBRANCH  27  28
ENDBRANCH  26  27
ENDBRANCH  25  26
ENDBRANCH  24  25
ENDBRANCH  15  24
TORSDOF 5
ENDMDL
MODEL      168
REMARK 921   NORMALIZED FREE ENERGY PREDICTED BY IDOCK:    2.74 KCAL/MOL
REMARK 922        TOTAL FREE ENERGY PREDICTED BY IDOCK:    2.08 KCAL/MOL
REMARK 923 INTER-LIGAND FREE ENERGY PREDICTED BY IDOCK:    0.24 KCAL/MOL
REMARK 924 INTRA-LIGAND FREE ENERGY PREDICTED BY IDOCK:    1.84 KCAL/MOL
REMARK 927      BINDING AFFINITY PREDICTED BY RF-SCORE:    0.00 PKD
ROOT
HETATM    1  O   UNL     1      -6.768   9.370  64.426  1.00  0.00    -0.085 OA 
HETATM    2  C   UNL     1      -7.923   9.100  65.273  1.00  0.00    -0.111 C  
HETATM    3  H   UNL     1      -6.151   8.685  64.654  1.00  0.00     0.000 HD 
HETATM    4  C   UNL     1      -7.305   9.257  66.744  1.00  0.00    -0.086 C  
HETATM    5  C   UNL     1      -8.367   7.665  64.860  1.00  0.00    -0.054 A  
HETATM    6  C   UNL     1      -8.932  10.222  64.900  1.00  0.00    -0.231 A  
HETATM    7  C   UNL     1      -6.698  10.684  66.928  1.00  0.00    -0.091 C  
HETATM    8  C   UNL     1      -7.734   6.991  63.785  1.00  0.00    -0.111 A  
HETATM    9  C   UNL     1     -10.323  10.099  65.038  1.00  0.00    -0.059 A  
HETATM   10  C   UNL     1      -8.175   5.751  63.307  1.00  0.00    -0.075 A  
HETATM   11  C   UNL     1     -11.187  11.146  64.682  1.00  0.00    -0.052 A  
HETATM   12  C   UNL     1      -5.975  10.865  68.248  1.00  0.00    -0.046 C  
HETATM   13  C   UNL     1     -10.687  12.346  64.194  1.00  0.00    -0.414 A  
HETATM   14  C   UNL     1      -9.259   5.128  63.904  1.00  0.00     0.270 A  
HETATM   15  N   UNL     1      -6.029   9.572  69.043  1.00  0.00    -0.042 N  
HETATM   16  C   UNL     1      -9.317  12.506  64.047  1.00  0.00     0.641 A  
HETATM   17  C   UNL     1      -9.428   6.974  65.474  1.00  0.00     0.553 A  
HETATM   18  C   UNL     1      -5.404   8.432  68.247  1.00  0.00    -0.034 C  
HETATM   19  C   UNL     1      -7.509   9.229  69.295  1.00  0.00    -0.075 C  
HETATM   20  C   UNL     1      -9.874   5.730  64.995  1.00  0.00     0.941 A  
HETATM   21  C   UNL     1      -8.460  11.458  64.390  1.00  0.00     0.619 A  
HETATM   22  C   UNL     1      -6.143   8.244  66.933  1.00  0.00    -0.054 C  
HETATM   23  C   UNL     1      -8.255   9.068  67.947  1.00  0.00    -0.110 C  
ENDROOT
BRANCH  15  24
HETATM   24  C   UNL     1      -5.289   9.750  70.402  1.00  0.00    -0.039 C  
BRANCH  24  25
HETATM   25  C   UNL     1      -6.027   9.094  71.588  1.00  0.00    -0.072 C  
BRANCH  25  26
HETATM   26  O   UNL     1      -6.493   7.801  71.229  1.00  0.00    -0.038 OA 
BRANCH  26  27
HETATM   27  C   UNL     1      -7.925   7.778  71.155  1.00  0.00    -0.090 C  
BRANCH  27  28
HETATM   28  C   UNL     1      -8.350   6.352  70.977  1.00  0.00    -0.123 A  
HETATM   29  C   UNL     1      -8.519   5.518  72.091  1.00  0.00    -0.126 A  
HETATM   30  C   UNL     1      -8.873   4.182  71.922  1.00  0.00    -0.141 A  
HETATM   31  C   UNL     1      -9.056   3.665  70.639  1.00  0.00    -0.184 A  
HETATM   32  C   UNL     1      -8.888   4.484  69.525  1.00  0.00    -0.129 A  
HETATM   33  C   UNL     1      -8.532   5.821  69.691  1.00  0.00    -0.112 A  
ENDBRANCH  27  28
ENDBRANCH  26  27
ENDBRANCH  25  26
ENDBRANCH  24  25
ENDBRANCH  15  24
TORSDOF 5
ENDMDL
MODEL      169
REMARK 921   NORMALIZED FREE ENERGY PREDICTED BY IDOCK:    3.56 KCAL/MOL
REMARK 922        TOTAL FREE ENERGY PREDICTED BY IDOCK:    3.14 KCAL/MOL
REMARK 923 INTER-LIGAND FREE ENERGY PREDICTED BY IDOCK:    3.08 KCAL/MOL
REMARK 924 INTRA-LIGAND FREE ENERGY PREDICTED BY IDOCK:    0.06 KCAL/MOL
REMARK 927      BINDING AFFINITY PREDICTED BY RF-SCORE:    0.00 PKD
ROOT
HETATM    1  O   UNL     1      -9.683  14.802  70.016  1.00  0.00    -0.419 OA 
HETATM    2  C   UNL     1      -8.881  15.216  68.870  1.00  0.00    -0.205 C  
HETATM    3  H   UNL     1      -9.184  14.090  70.399  1.00  0.00     0.000 HD 
HETATM    4  C   UNL     1      -8.866  13.887  67.974  1.00  0.00    -0.184 C  
HETATM    5  C   UNL     1      -7.520  15.643  69.496  1.00  0.00    -0.192 A  
HETATM    6  C   UNL     1      -9.698  16.380  68.243  1.00  0.00    -0.224 A  
HETATM    7  C   UNL     1     -10.323  13.460  67.612  1.00  0.00    -0.238 C  
HETATM    8  C   UNL     1      -7.345  15.671  70.903  1.00  0.00     1.963 A  
HETATM    9  C   UNL     1      -9.129  17.411  67.479  1.00  0.00    -0.232 A  
HETATM   10  C   UNL     1      -6.181  16.155  71.510  1.00  0.00     1.782 A  
HETATM   11  C   UNL     1      -9.917  18.439  66.939  1.00  0.00    -0.367 A  
HETATM   12  C   UNL     1     -10.397  12.136  66.877  1.00  0.00    -0.212 C  
HETATM   13  C   UNL     1     -11.292  18.457  67.132  1.00  0.00     0.676 A  
HETATM   14  C   UNL     1      -5.135  16.615  70.726  1.00  0.00    -0.219 A  
HETATM   15  N   UNL     1      -8.999  11.568  66.702  1.00  0.00    -0.180 N  
HETATM   16  C   UNL     1     -11.890  17.453  67.879  1.00  0.00     1.455 A  
HETATM   17  C   UNL     1      -6.415  16.065  68.735  1.00  0.00    -0.119 A  
HETATM   18  C   UNL     1      -8.326  11.386  68.058  1.00  0.00    -0.143 C  
HETATM   19  C   UNL     1      -8.173  12.579  65.886  1.00  0.00     1.150 C  
HETATM   20  C   UNL     1      -5.244  16.555  69.342  1.00  0.00    -0.134 A  
HETATM   21  C   UNL     1     -11.103  16.439  68.426  1.00  0.00    -0.351 A  
HETATM   22  C   UNL     1      -8.239  12.718  68.783  1.00  0.00     0.117 C  
HETATM   23  C   UNL     1      -8.117  13.940  66.624  1.00  0.00     0.484 C  
ENDROOT
BRANCH  15  24
HETATM   24  C   UNL     1      -9.066  10.208  65.946  1.00  0.00    -0.156 C  
BRANCH  24  25
HETATM   25  C   UNL     1      -9.587   9.049  66.822  1.00  0.00    -0.200 C  
BRANCH  25  26
HETATM   26  O   UNL     1      -8.513   8.434  67.521  1.00  0.00    -0.127 OA 
BRANCH  26  27
HETATM   27  C   UNL     1      -7.605   7.805  66.608  1.00  0.00    -0.097 C  
BRANCH  27  28
HETATM   28  C   UNL     1      -7.725   6.323  66.793  1.00  0.00    -0.100 A  
HETATM   29  C   UNL     1      -6.595   5.501  66.684  1.00  0.00    -0.056 A  
HETATM   30  C   UNL     1      -6.715   4.119  66.814  1.00  0.00    -0.050 A  
HETATM   31  C   UNL     1      -7.965   3.546  67.049  1.00  0.00    -0.083 A  
HETATM   32  C   UNL     1      -9.095   4.353  67.156  1.00  0.00    -0.143 A  
HETATM   33  C   UNL     1      -8.979   5.736  67.025  1.00  0.00    -0.114 A  
ENDBRANCH  27  28
ENDBRANCH  26  27
ENDBRANCH  25  26
ENDBRANCH  24  25
ENDBRANCH  15  24
TORSDOF 5
ENDMDL
MODEL      170
REMARK 921   NORMALIZED FREE ENERGY PREDICTED BY IDOCK:    3.70 KCAL/MOL
REMARK 922        TOTAL FREE ENERGY PREDICTED BY IDOCK:    3.32 KCAL/MOL
REMARK 923 INTER-LIGAND FREE ENERGY PREDICTED BY IDOCK:    2.50 KCAL/MOL
REMARK 924 INTRA-LIGAND FREE ENERGY PREDICTED BY IDOCK:    0.82 KCAL/MOL
REMARK 927      BINDING AFFINITY PREDICTED BY RF-SCORE:    0.00 PKD
ROOT
HETATM    1  O   UNL     1      -9.435  13.083  66.349  1.00  0.00    -0.261 OA 
HETATM    2  C   UNL     1     -10.674  13.680  66.833  1.00  0.00    -0.275 C  
HETATM    3  H   UNL     1      -9.703  12.233  66.020  1.00  0.00     0.000 HD 
HETATM    4  C   UNL     1     -11.113  12.654  67.985  1.00  0.00    -0.288 C  
HETATM    5  C   UNL     1     -11.586  13.732  65.571  1.00  0.00    -0.335 A  
HETATM    6  C   UNL     1     -10.235  15.069  67.373  1.00  0.00    -0.234 A  
HETATM    7  C   UNL     1      -9.993  12.542  69.066  1.00  0.00     0.209 C  
HETATM    8  C   UNL     1     -11.088  13.354  64.299  1.00  0.00    -0.396 A  
HETATM    9  C   UNL     1     -11.086  16.182  67.451  1.00  0.00    -0.134 A  
HETATM   10  C   UNL     1     -11.834  13.494  63.123  1.00  0.00     0.130 A  
HETATM   11  C   UNL     1     -10.633  17.414  67.946  1.00  0.00    -0.383 A  
HETATM   12  C   UNL     1     -10.277  11.489  70.121  1.00  0.00     1.582 C  
HETATM   13  C   UNL     1      -9.325  17.566  68.389  1.00  0.00    -0.287 A  
HETATM   14  C   UNL     1     -13.121  14.003  63.181  1.00  0.00     2.232 A  
HETATM   15  N   UNL     1     -11.600  10.807  69.819  1.00  0.00    -0.289 N  
HETATM   16  C   UNL     1      -8.455  16.487  68.329  1.00  0.00    -0.199 A  
HETATM   17  C   UNL     1     -12.916  14.192  65.594  1.00  0.00    -0.284 A  
HETATM   18  C   UNL     1     -11.568  10.175  68.432  1.00  0.00     0.120 C  
HETATM   19  C   UNL     1     -12.704  11.880  69.834  1.00  0.00     0.310 C  
HETATM   20  C   UNL     1     -13.667  14.336  64.414  1.00  0.00     3.006 A  
HETATM   21  C   UNL     1      -8.905  15.266  67.825  1.00  0.00    -0.174 A  
HETATM   22  C   UNL     1     -11.299  11.236  67.378  1.00  0.00    -0.349 C  
HETATM   23  C   UNL     1     -12.402  12.969  68.775  1.00  0.00     0.140 C  
ENDROOT
BRANCH  15  24
HETATM   24  C   UNL     1     -11.900   9.724  70.898  1.00  0.00    -0.336 C  
BRANCH  24  25
HETATM   25  C   UNL     1     -10.774   8.680  71.043  1.00  0.00    -0.228 C  
BRANCH  25  26
HETATM   26  O   UNL     1      -9.506   9.284  70.828  1.00  0.00    -0.247 OA 
BRANCH  26  27
HETATM   27  C   UNL     1      -8.560   8.324  70.340  1.00  0.00    -0.134 C  
BRANCH  27  28
HETATM   28  C   UNL     1      -7.453   9.075  69.666  1.00  0.00    -0.076 A  
HETATM   29  C   UNL     1      -6.384   8.387  69.077  1.00  0.00    -0.044 A  
HETATM   30  C   UNL     1      -5.334   9.087  68.488  1.00  0.00    -0.037 A  
HETATM   31  C   UNL     1      -5.340  10.482  68.487  1.00  0.00    -0.037 A  
HETATM   32  C   UNL     1      -6.396  11.177  69.072  1.00  0.00    -0.054 A  
HETATM   33  C   UNL     1      -7.447  10.479  69.663  1.00  0.00    -0.145 A  
ENDBRANCH  27  28
ENDBRANCH  26  27
ENDBRANCH  25  26
ENDBRANCH  24  25
ENDBRANCH  15  24
TORSDOF 5
ENDMDL
MODEL      171
REMARK 921   NORMALIZED FREE ENERGY PREDICTED BY IDOCK:    4.06 KCAL/MOL
REMARK 922        TOTAL FREE ENERGY PREDICTED BY IDOCK:    3.78 KCAL/MOL
REMARK 923 INTER-LIGAND FREE ENERGY PREDICTED BY IDOCK:    3.29 KCAL/MOL
REMARK 924 INTRA-LIGAND FREE ENERGY PREDICTED BY IDOCK:    0.49 KCAL/MOL
REMARK 927      BINDING AFFINITY PREDICTED BY RF-SCORE:    0.00 PKD
ROOT
HETATM    1  O   UNL     1      -9.963  14.884  70.102  1.00  0.00    -0.473 OA 
HETATM    2  C   UNL     1      -9.008  15.266  69.069  1.00  0.00    -0.225 C  
HETATM    3  H   UNL     1      -9.643  14.044  70.411  1.00  0.00     0.000 HD 
HETATM    4  C   UNL     1      -9.177  14.083  68.001  1.00  0.00    -0.201 C  
HETATM    5  C   UNL     1      -7.644  15.328  69.820  1.00  0.00    -0.101 A  
HETATM    6  C   UNL     1      -9.531  16.639  68.564  1.00  0.00    -0.239 A  
HETATM    7  C   UNL     1     -10.656  14.006  67.506  1.00  0.00    -0.260 C  
HETATM    8  C   UNL     1      -7.580  15.146  71.225  1.00  0.00     2.590 A  
HETATM    9  C   UNL     1      -8.715  17.620  67.981  1.00  0.00    -0.253 A  
HETATM   10  C   UNL     1      -6.397  15.307  71.955  1.00  0.00     1.368 A  
HETATM   11  C   UNL     1      -9.243  18.845  67.544  1.00  0.00    -0.319 A  
HETATM   12  C   UNL     1     -10.925  12.826  66.593  1.00  0.00    -0.270 C  
HETATM   13  C   UNL     1     -10.601  19.117  67.664  1.00  0.00    -0.546 A  
HETATM   14  C   UNL     1      -5.223  15.639  71.298  1.00  0.00    -0.073 A  
HETATM   15  N   UNL     1      -9.654  12.014  66.418  1.00  0.00    -0.224 N  
HETATM   16  C   UNL     1     -11.439  18.170  68.233  1.00  0.00     1.276 A  
HETATM   17  C   UNL     1      -6.421  15.610  69.185  1.00  0.00    -0.131 A  
HETATM   18  C   UNL     1      -9.139  11.534  67.770  1.00  0.00    -0.165 C  
HETATM   19  C   UNL     1      -8.585  12.930  65.794  1.00  0.00     1.154 C  
HETATM   20  C   UNL     1      -5.230  15.774  69.915  1.00  0.00    -0.119 A  
HETATM   21  C   UNL     1     -10.909  16.958  68.677  1.00  0.00    -0.314 A  
HETATM   22  C   UNL     1      -8.855  12.721  68.675  1.00  0.00     0.058 C  
HETATM   23  C   UNL     1      -8.327  14.150  66.713  1.00  0.00     0.054 C  
ENDROOT
BRANCH  15  24
HETATM   24  C   UNL     1      -9.921  10.799  65.480  1.00  0.00    -0.263 C  
BRANCH  24  25
HETATM   25  C   UNL     1     -11.033   9.862  65.999  1.00  0.00     0.613 C  
BRANCH  25  26
HETATM   26  O   UNL     1     -10.466   8.729  66.642  1.00  0.00    -0.264 OA 
BRANCH  26  27
HETATM   27  C   UNL     1     -10.021   7.766  65.678  1.00  0.00     1.077 C  
BRANCH  27  28
HETATM   28  C   UNL     1      -8.636   8.150  65.255  1.00  0.00    -0.132 A  
HETATM   29  C   UNL     1      -8.217   7.949  63.933  1.00  0.00    -0.020 A  
HETATM   30  C   UNL     1      -6.915   8.267  63.551  1.00  0.00    -0.085 A  
HETATM   31  C   UNL     1      -6.020   8.784  64.488  1.00  0.00    -0.065 A  
HETATM   32  C   UNL     1      -6.425   8.984  65.805  1.00  0.00    -0.064 A  
HETATM   33  C   UNL     1      -7.726   8.666  66.191  1.00  0.00    -0.097 A  
ENDBRANCH  27  28
ENDBRANCH  26  27
ENDBRANCH  25  26
ENDBRANCH  24  25
ENDBRANCH  15  24
TORSDOF 5
ENDMDL
MODEL      172
REMARK 921   NORMALIZED FREE ENERGY PREDICTED BY IDOCK:    4.24 KCAL/MOL
REMARK 922        TOTAL FREE ENERGY PREDICTED BY IDOCK:    4.02 KCAL/MOL
REMARK 923 INTER-LIGAND FREE ENERGY PREDICTED BY IDOCK:    0.47 KCAL/MOL
REMARK 924 INTRA-LIGAND FREE ENERGY PREDICTED BY IDOCK:    3.54 KCAL/MOL
REMARK 927      BINDING AFFINITY PREDICTED BY RF-SCORE:    0.00 PKD
ROOT
HETATM    1  O   UNL     1     -10.553  11.459  69.385  1.00  0.00    -0.390 OA 
HETATM    2  C   UNL     1      -9.189  11.095  69.021  1.00  0.00    -0.031 C  
HETATM    3  H   UNL     1     -11.062  10.685  69.170  1.00  0.00     0.000 HD 
HETATM    4  C   UNL     1      -9.321  10.831  67.445  1.00  0.00    -0.163 C  
HETATM    5  C   UNL     1      -8.882   9.850  69.906  1.00  0.00    -0.222 A  
HETATM    6  C   UNL     1      -8.357  12.360  69.372  1.00  0.00     1.041 A  
HETATM    7  C   UNL     1      -9.855  12.109  66.725  1.00  0.00    -0.218 C  
HETATM    8  C   UNL     1      -9.810   9.405  70.881  1.00  0.00    -0.338 A  
HETATM    9  C   UNL     1      -6.991  12.333  69.691  1.00  0.00     0.226 A  
HETATM   10  C   UNL     1      -9.528   8.364  71.773  1.00  0.00    -0.302 A  
HETATM   11  C   UNL     1      -6.291  13.508  70.003  1.00  0.00    -0.045 A  
HETATM   12  C   UNL     1     -10.134  11.896  65.249  1.00  0.00    -0.257 C  
HETATM   13  C   UNL     1      -6.930  14.742  69.990  1.00  0.00    -0.083 A  
HETATM   14  C   UNL     1      -8.305   7.715  71.710  1.00  0.00    -0.121 A  
HETATM   15  N   UNL     1      -9.822  10.459  64.872  1.00  0.00    -0.312 N  
HETATM   16  C   UNL     1      -8.280  14.808  69.676  1.00  0.00     0.124 A  
HETATM   17  C   UNL     1      -7.675   9.129  69.837  1.00  0.00    -0.087 A  
HETATM   18  C   UNL     1     -10.652   9.496  65.714  1.00  0.00     0.571 C  
HETATM   19  C   UNL     1      -8.334  10.199  65.170  1.00  0.00    -0.161 C  
HETATM   20  C   UNL     1      -7.387   8.084  70.734  1.00  0.00    -0.057 A  
HETATM   21  C   UNL     1      -8.977  13.636  69.379  1.00  0.00     0.891 A  
HETATM   22  C   UNL     1     -10.357   9.702  67.189  1.00  0.00    -0.319 C  
HETATM   23  C   UNL     1      -8.043  10.440  66.672  1.00  0.00    -0.122 C  
ENDROOT
BRANCH  15  24
HETATM   24  C   UNL     1     -10.105  10.232  63.357  1.00  0.00     0.251 C  
BRANCH  24  25
HETATM   25  C   UNL     1     -10.129  11.539  62.538  1.00  0.00     0.487 C  
BRANCH  25  26
HETATM   26  O   UNL     1     -11.467  11.979  62.345  1.00  0.00     1.040 OA 
BRANCH  26  27
HETATM   27  C   UNL     1     -12.219  11.872  63.561  1.00  0.00    -0.482 C  
BRANCH  27  28
HETATM   28  C   UNL     1     -12.065  13.161  64.309  1.00  0.00    -0.477 A  
HETATM   29  C   UNL     1     -12.597  13.302  65.598  1.00  0.00    -0.469 A  
HETATM   30  C   UNL     1     -12.490  14.514  66.275  1.00  0.00    -0.126 A  
HETATM   31  C   UNL     1     -11.855  15.598  65.669  1.00  0.00     0.520 A  
HETATM   32  C   UNL     1     -11.325  15.470  64.388  1.00  0.00    -0.260 A  
HETATM   33  C   UNL     1     -11.431  14.259  63.707  1.00  0.00     0.361 A  
ENDBRANCH  27  28
ENDBRANCH  26  27
ENDBRANCH  25  26
ENDBRANCH  24  25
ENDBRANCH  15  24
TORSDOF 5
ENDMDL
MODEL      173
REMARK 921   NORMALIZED FREE ENERGY PREDICTED BY IDOCK:    5.37 KCAL/MOL
REMARK 922        TOTAL FREE ENERGY PREDICTED BY IDOCK:    5.48 KCAL/MOL
REMARK 923 INTER-LIGAND FREE ENERGY PREDICTED BY IDOCK:    4.73 KCAL/MOL
REMARK 924 INTRA-LIGAND FREE ENERGY PREDICTED BY IDOCK:    0.75 KCAL/MOL
REMARK 927      BINDING AFFINITY PREDICTED BY RF-SCORE:    0.00 PKD
ROOT
HETATM    1  O   UNL     1     -11.331   8.955  66.748  1.00  0.00     0.365 OA 
HETATM    2  C   UNL     1      -9.927   9.224  66.457  1.00  0.00    -0.274 C  
HETATM    3  H   UNL     1     -11.558   9.606  67.402  1.00  0.00     0.000 HD 
HETATM    4  C   UNL     1      -9.235   8.972  67.881  1.00  0.00    -0.151 C  
HETATM    5  C   UNL     1      -9.924  10.693  65.938  1.00  0.00    -0.312 A  
HETATM    6  C   UNL     1      -9.556   8.159  65.388  1.00  0.00     0.599 A  
HETATM    7  C   UNL     1      -9.519   7.518  68.372  1.00  0.00    -0.148 C  
HETATM    8  C   UNL     1     -11.139  11.397  65.743  1.00  0.00    -0.217 A  
HETATM    9  C   UNL     1      -8.531   8.324  64.444  1.00  0.00    -0.022 A  
HETATM   10  C   UNL     1     -11.190  12.673  65.171  1.00  0.00    -0.336 A  
HETATM   11  C   UNL     1      -8.241   7.327  63.500  1.00  0.00     0.086 A  
HETATM   12  C   UNL     1      -9.009   7.246  69.774  1.00  0.00    -0.142 C  
HETATM   13  C   UNL     1      -8.954   6.135  63.482  1.00  0.00     0.786 A  
HETATM   14  C   UNL     1     -10.016  13.304  64.789  1.00  0.00    -0.150 A  
HETATM   15  N   UNL     1      -8.359   8.498  70.335  1.00  0.00    -0.117 N  
HETATM   16  C   UNL     1      -9.973   5.935  64.402  1.00  0.00     2.284 A  
HETATM   17  C   UNL     1      -8.752  11.389  65.588  1.00  0.00    -0.016 A  
HETATM   18  C   UNL     1      -9.353   9.654  70.346  1.00  0.00    -0.211 C  
HETATM   19  C   UNL     1      -7.186   8.881  69.412  1.00  0.00    -0.061 C  
HETATM   20  C   UNL     1      -8.799  12.671  65.012  1.00  0.00     1.400 A  
HETATM   21  C   UNL     1     -10.267   6.933  65.332  1.00  0.00     2.242 A  
HETATM   22  C   UNL     1      -9.848   9.933  68.937  1.00  0.00    -0.179 C  
HETATM   23  C   UNL     1      -7.702   9.135  67.974  1.00  0.00    -0.092 C  
ENDROOT
BRANCH  15  24
HETATM   24  C   UNL     1      -7.831   8.227  71.775  1.00  0.00    -0.118 C  
BRANCH  24  25
HETATM   25  C   UNL     1      -7.620   6.729  72.075  1.00  0.00    -0.094 C  
BRANCH  25  26
HETATM   26  O   UNL     1      -6.664   6.560  73.113  1.00  0.00    -0.071 OA 
BRANCH  26  27
HETATM   27  C   UNL     1      -6.616   5.194  73.544  1.00  0.00    -0.071 C  
BRANCH  27  28
HETATM   28  C   UNL     1      -6.758   4.327  72.330  1.00  0.00    -0.038 A  
HETATM   29  C   UNL     1      -7.976   4.267  71.640  1.00  0.00    -0.086 A  
HETATM   30  C   UNL     1      -8.121   3.429  70.537  1.00  0.00    -0.063 A  
HETATM   31  C   UNL     1      -7.050   2.639  70.117  1.00  0.00    -0.033 A  
HETATM   32  C   UNL     1      -5.836   2.689  70.797  1.00  0.00    -0.017 A  
HETATM   33  C   UNL     1      -5.689   3.525  71.902  1.00  0.00    -0.008 A  
ENDBRANCH  27  28
ENDBRANCH  26  27
ENDBRANCH  25  26
ENDBRANCH  24  25
ENDBRANCH  15  24
TORSDOF 5
ENDMDL
MODEL      174
REMARK 921   NORMALIZED FREE ENERGY PREDICTED BY IDOCK:    5.59 KCAL/MOL
REMARK 922        TOTAL FREE ENERGY PREDICTED BY IDOCK:    5.75 KCAL/MOL
REMARK 923 INTER-LIGAND FREE ENERGY PREDICTED BY IDOCK:    5.50 KCAL/MOL
REMARK 924 INTRA-LIGAND FREE ENERGY PREDICTED BY IDOCK:    0.26 KCAL/MOL
REMARK 927      BINDING AFFINITY PREDICTED BY RF-SCORE:    0.00 PKD
ROOT
HETATM    1  O   UNL     1      -5.536   7.771  69.205  1.00  0.00    -0.022 OA 
HETATM    2  C   UNL     1      -6.994   7.789  69.188  1.00  0.00    -0.065 C  
HETATM    3  H   UNL     1      -5.303   7.306  68.410  1.00  0.00     0.000 HD 
HETATM    4  C   UNL     1      -7.349   6.226  69.232  1.00  0.00    -0.092 C  
HETATM    5  C   UNL     1      -7.347   8.540  67.870  1.00  0.00    -0.093 A  
HETATM    6  C   UNL     1      -7.375   8.549  70.489  1.00  0.00    -0.060 A  
HETATM    7  C   UNL     1      -6.732   5.566  70.505  1.00  0.00    -0.047 C  
HETATM    8  C   UNL     1      -6.330   9.116  67.068  1.00  0.00    -0.063 A  
HETATM    9  C   UNL     1      -8.574   9.259  70.657  1.00  0.00    -0.270 A  
HETATM   10  C   UNL     1      -6.609   9.897  65.940  1.00  0.00    -0.091 A  
HETATM   11  C   UNL     1      -8.863   9.930  71.855  1.00  0.00     3.027 A  
HETATM   12  C   UNL     1      -6.912   4.060  70.549  1.00  0.00    -0.034 C  
HETATM   13  C   UNL     1      -7.973   9.898  72.921  1.00  0.00     4.348 A  
HETATM   14  C   UNL     1      -7.924  10.115  65.560  1.00  0.00    -0.146 A  
HETATM   15  N   UNL     1      -7.648   3.596  69.305  1.00  0.00    -0.052 N  
HETATM   16  C   UNL     1      -6.779   9.204  72.793  1.00  0.00     0.365 A  
HETATM   17  C   UNL     1      -8.666   8.739  67.420  1.00  0.00    -0.132 A  
HETATM   18  C   UNL     1      -6.882   4.003  68.051  1.00  0.00    -0.047 C  
HETATM   19  C   UNL     1      -9.022   4.290  69.276  1.00  0.00    -0.102 C  
HETATM   20  C   UNL     1      -8.949   9.524  66.288  1.00  0.00    -0.188 A  
HETATM   21  C   UNL     1      -6.488   8.548  71.596  1.00  0.00    -0.067 A  
HETATM   22  C   UNL     1      -6.720   5.513  68.003  1.00  0.00    -0.055 C  
HETATM   23  C   UNL     1      -8.841   5.828  69.257  1.00  0.00    -0.116 C  
ENDROOT
BRANCH  15  24
HETATM   24  C   UNL     1      -7.837   2.050  69.342  1.00  0.00    -0.042 C  
BRANCH  24  25
HETATM   25  C   UNL     1      -8.440   1.478  68.042  1.00  0.00    -0.063 C  
BRANCH  25  26
HETATM   26  O   UNL     1      -7.644   1.843  66.923  1.00  0.00    -0.063 OA 
BRANCH  26  27
HETATM   27  C   UNL     1      -8.467   2.142  65.788  1.00  0.00    -0.101 C  
BRANCH  27  28
HETATM   28  C   UNL     1      -7.561   2.444  64.634  1.00  0.00    -0.072 A  
HETATM   29  C   UNL     1      -6.183   2.210  64.733  1.00  0.00    -0.019 A  
HETATM   30  C   UNL     1      -5.336   2.531  63.675  1.00  0.00    -0.008 A  
HETATM   31  C   UNL     1      -5.858   3.093  62.510  1.00  0.00    -0.009 A  
HETATM   32  C   UNL     1      -7.226   3.333  62.402  1.00  0.00    -0.040 A  
HETATM   33  C   UNL     1      -8.075   3.015  63.459  1.00  0.00    -0.085 A  
ENDBRANCH  27  28
ENDBRANCH  26  27
ENDBRANCH  25  26
ENDBRANCH  24  25
ENDBRANCH  15  24
TORSDOF 5
ENDMDL
MODEL      175
REMARK 921   NORMALIZED FREE ENERGY PREDICTED BY IDOCK:    5.64 KCAL/MOL
REMARK 922        TOTAL FREE ENERGY PREDICTED BY IDOCK:    5.83 KCAL/MOL
REMARK 923 INTER-LIGAND FREE ENERGY PREDICTED BY IDOCK:    4.91 KCAL/MOL
REMARK 924 INTRA-LIGAND FREE ENERGY PREDICTED BY IDOCK:    0.92 KCAL/MOL
REMARK 927      BINDING AFFINITY PREDICTED BY RF-SCORE:    0.00 PKD
ROOT
HETATM    1  O   UNL     1     -11.217   7.213  69.017  1.00  0.00    -0.460 OA 
HETATM    2  C   UNL     1     -10.339   7.208  70.181  1.00  0.00    -0.206 C  
HETATM    3  H   UNL     1     -11.723   6.414  69.109  1.00  0.00     0.000 HD 
HETATM    4  C   UNL     1      -9.481   5.874  69.950  1.00  0.00    -0.180 C  
HETATM    5  C   UNL     1     -11.319   7.197  71.393  1.00  0.00    -0.288 A  
HETATM    6  C   UNL     1      -9.510   8.514  70.031  1.00  0.00    -0.165 A  
HETATM    7  C   UNL     1      -8.730   5.943  68.583  1.00  0.00    -0.109 C  
HETATM    8  C   UNL     1     -12.719   7.303  71.196  1.00  0.00    -0.349 A  
HETATM    9  C   UNL     1      -8.935   9.203  71.109  1.00  0.00    -0.249 A  
HETATM   10  C   UNL     1     -13.625   7.413  72.256  1.00  0.00     0.071 A  
HETATM   11  C   UNL     1      -8.197  10.381  70.913  1.00  0.00     2.051 A  
HETATM   12  C   UNL     1      -8.002   4.660  68.231  1.00  0.00    -0.084 C  
HETATM   13  C   UNL     1      -8.001  10.893  69.637  1.00  0.00     0.159 A  
HETATM   14  C   UNL     1     -13.162   7.402  73.562  1.00  0.00     3.591 A  
HETATM   15  N   UNL     1      -8.221   3.630  69.325  1.00  0.00    -0.056 N  
HETATM   16  C   UNL     1      -8.553  10.237  68.546  1.00  0.00    -0.126 A  
HETATM   17  C   UNL     1     -10.894   7.134  72.733  1.00  0.00    -0.337 A  
HETATM   18  C   UNL     1      -9.711   3.362  69.512  1.00  0.00     0.038 C  
HETATM   19  C   UNL     1      -7.667   4.206  70.641  1.00  0.00    -0.048 C  
HETATM   20  C   UNL     1     -11.802   7.246  73.801  1.00  0.00     2.342 A  
HETATM   21  C   UNL     1      -9.296   9.073  68.745  1.00  0.00    -0.140 A  
HETATM   22  C   UNL     1     -10.432   4.647  69.881  1.00  0.00     0.191 C  
HETATM   23  C   UNL     1      -8.392   5.529  70.989  1.00  0.00    -0.121 C  
ENDROOT
BRANCH  15  24
HETATM   24  C   UNL     1      -7.476   2.308  68.971  1.00  0.00    -0.043 C  
BRANCH  24  25
HETATM   25  C   UNL     1      -7.591   1.924  67.481  1.00  0.00    -0.059 C  
BRANCH  25  26
HETATM   26  O   UNL     1      -6.976   2.911  66.665  1.00  0.00    -0.051 OA 
BRANCH  26  27
HETATM   27  C   UNL     1      -7.889   3.389  65.669  1.00  0.00    -0.085 C  
BRANCH  27  28
HETATM   28  C   UNL     1      -7.287   4.613  65.047  1.00  0.00    -0.072 A  
HETATM   29  C   UNL     1      -5.895   4.752  64.961  1.00  0.00    -0.014 A  
HETATM   30  C   UNL     1      -5.335   5.908  64.421  1.00  0.00    -0.017 A  
HETATM   31  C   UNL     1      -6.161   6.937  63.968  1.00  0.00    -0.036 A  
HETATM   32  C   UNL     1      -7.546   6.810  64.052  1.00  0.00    -0.108 A  
HETATM   33  C   UNL     1      -8.109   5.655  64.592  1.00  0.00    -0.128 A  
ENDBRANCH  27  28
ENDBRANCH  26  27
ENDBRANCH  25  26
ENDBRANCH  24  25
ENDBRANCH  15  24
TORSDOF 5
ENDMDL
MODEL      176
REMARK 921   NORMALIZED FREE ENERGY PREDICTED BY IDOCK:    7.14 KCAL/MOL
REMARK 922        TOTAL FREE ENERGY PREDICTED BY IDOCK:    7.77 KCAL/MOL
REMARK 923 INTER-LIGAND FREE ENERGY PREDICTED BY IDOCK:    8.22 KCAL/MOL
REMARK 924 INTRA-LIGAND FREE ENERGY PREDICTED BY IDOCK:   -0.46 KCAL/MOL
REMARK 927      BINDING AFFINITY PREDICTED BY RF-SCORE:    0.00 PKD
ROOT
HETATM    1  O   UNL     1      -6.376  12.306  68.037  1.00  0.00    -0.060 OA 
HETATM    2  C   UNL     1      -7.520  12.253  68.940  1.00  0.00    -0.012 C  
HETATM    3  H   UNL     1      -6.660  11.811  67.278  1.00  0.00     0.000 HD 
HETATM    4  C   UNL     1      -7.657  10.679  69.214  1.00  0.00    -0.138 C  
HETATM    5  C   UNL     1      -8.673  12.915  68.128  1.00  0.00    -0.190 A  
HETATM    6  C   UNL     1      -7.055  13.062  70.183  1.00  0.00     1.082 A  
HETATM    7  C   UNL     1      -6.335  10.118  69.824  1.00  0.00    -0.064 C  
HETATM    8  C   UNL     1      -8.427  13.496  66.859  1.00  0.00    -0.066 A  
HETATM    9  C   UNL     1      -7.931  13.721  71.058  1.00  0.00     4.945 A  
HETATM   10  C   UNL     1      -9.404  14.201  66.148  1.00  0.00    -0.166 A  
HETATM   11  C   UNL     1      -7.454  14.440  72.165  1.00  0.00     4.410 A  
HETATM   12  C   UNL     1      -6.340   8.610  69.988  1.00  0.00    -0.034 C  
HETATM   13  C   UNL     1      -6.093  14.507  72.435  1.00  0.00     0.505 A  
HETATM   14  C   UNL     1     -10.678  14.335  66.676  1.00  0.00    -0.290 A  
HETATM   15  N   UNL     1      -7.657   8.045  69.488  1.00  0.00    -0.098 N  
HETATM   16  C   UNL     1      -5.196  13.866  71.593  1.00  0.00    -0.194 A  
HETATM   17  C   UNL     1      -9.993  13.026  68.604  1.00  0.00    -0.114 A  
HETATM   18  C   UNL     1      -7.877   8.422  68.026  1.00  0.00    -0.111 C  
HETATM   19  C   UNL     1      -8.792   8.670  70.321  1.00  0.00    -0.152 C  
HETATM   20  C   UNL     1     -10.977  13.735  67.893  1.00  0.00    -0.270 A  
HETATM   21  C   UNL     1      -5.673  13.162  70.486  1.00  0.00    -0.176 A  
HETATM   22  C   UNL     1      -7.887   9.933  67.871  1.00  0.00    -0.090 C  
HETATM   23  C   UNL     1      -8.772  10.211  70.175  1.00  0.00     0.090 C  
ENDROOT
BRANCH  15  24
HETATM   24  C   UNL     1      -7.671   6.496  69.653  1.00  0.00    -0.103 C  
BRANCH  24  25
HETATM   25  C   UNL     1      -6.260   5.872  69.672  1.00  0.00    -0.030 C  
BRANCH  25  26
HETATM   26  O   UNL     1      -6.161   4.840  68.701  1.00  0.00    -0.028 OA 
BRANCH  26  27
HETATM   27  C   UNL     1      -7.410   4.655  68.024  1.00  0.00    -0.066 C  
BRANCH  27  28
HETATM   28  C   UNL     1      -7.182   4.915  66.565  1.00  0.00    -0.077 A  
HETATM   29  C   UNL     1      -7.783   4.099  65.597  1.00  0.00    -0.090 A  
HETATM   30  C   UNL     1      -7.536   4.315  64.243  1.00  0.00    -0.072 A  
HETATM   31  C   UNL     1      -6.684   5.345  63.845  1.00  0.00    -0.045 A  
HETATM   32  C   UNL     1      -6.080   6.160  64.799  1.00  0.00    -0.030 A  
HETATM   33  C   UNL     1      -6.323   5.946  66.154  1.00  0.00    -0.042 A  
ENDBRANCH  27  28
ENDBRANCH  26  27
ENDBRANCH  25  26
ENDBRANCH  24  25
ENDBRANCH  15  24
TORSDOF 5
ENDMDL
MODEL      177
REMARK 921   NORMALIZED FREE ENERGY PREDICTED BY IDOCK:    7.82 KCAL/MOL
REMARK 922        TOTAL FREE ENERGY PREDICTED BY IDOCK:    8.64 KCAL/MOL
REMARK 923 INTER-LIGAND FREE ENERGY PREDICTED BY IDOCK:    8.13 KCAL/MOL
REMARK 924 INTRA-LIGAND FREE ENERGY PREDICTED BY IDOCK:    0.51 KCAL/MOL
REMARK 927      BINDING AFFINITY PREDICTED BY RF-SCORE:    0.00 PKD
ROOT
HETATM    1  O   UNL     1      -9.426  13.136  65.670  1.00  0.00    -0.474 OA 
HETATM    2  C   UNL     1     -10.742  13.046  66.293  1.00  0.00    -0.276 C  
HETATM    3  H   UNL     1      -9.457  12.488  64.976  1.00  0.00     0.000 HD 
HETATM    4  C   UNL     1     -10.759  11.534  66.825  1.00  0.00    -0.311 C  
HETATM    5  C   UNL     1     -11.730  13.382  65.136  1.00  0.00    -0.345 A  
HETATM    6  C   UNL     1     -10.691  14.105  67.430  1.00  0.00    -0.284 A  
HETATM    7  C   UNL     1      -9.570  11.291  67.807  1.00  0.00    -0.181 C  
HETATM    8  C   UNL     1     -11.249  13.787  63.865  1.00  0.00     0.026 A  
HETATM    9  C   UNL     1     -11.825  14.748  67.949  1.00  0.00    -0.327 A  
HETATM   10  C   UNL     1     -12.098  14.208  62.835  1.00  0.00     1.450 A  
HETATM   11  C   UNL     1     -11.718  15.699  68.976  1.00  0.00    -0.408 A  
HETATM   12  C   UNL     1      -9.441   9.847  68.250  1.00  0.00    -0.139 C  
HETATM   13  C   UNL     1     -10.482  16.022  69.521  1.00  0.00    -0.286 A  
HETATM   14  C   UNL     1     -13.470  14.222  63.036  1.00  0.00     4.382 A  
HETATM   15  N   UNL     1     -10.521   9.010  67.589  1.00  0.00    -0.259 N  
HETATM   16  C   UNL     1      -9.339  15.404  69.034  1.00  0.00    -0.232 A  
HETATM   17  C   UNL     1     -13.129  13.358  65.281  1.00  0.00    -0.083 A  
HETATM   18  C   UNL     1     -10.419   9.111  66.071  1.00  0.00     0.356 C  
HETATM   19  C   UNL     1     -11.889   9.572  68.018  1.00  0.00     2.010 C  
HETATM   20  C   UNL     1     -13.985  13.782  64.249  1.00  0.00     4.434 A  
HETATM   21  C   UNL     1      -9.446  14.468  68.005  1.00  0.00    -0.209 A  
HETATM   22  C   UNL     1     -10.566  10.558  65.632  1.00  0.00    -0.132 C  
HETATM   23  C   UNL     1     -12.013  11.055  67.588  1.00  0.00     0.322 C  
ENDROOT
BRANCH  15  24
HETATM   24  C   UNL     1     -10.396   7.524  68.039  1.00  0.00    -0.204 C  
BRANCH  24  25
HETATM   25  C   UNL     1      -8.997   7.168  68.584  1.00  0.00    -0.131 C  
BRANCH  25  26
HETATM   26  O   UNL     1      -8.802   5.760  68.569  1.00  0.00    -0.111 OA 
BRANCH  26  27
HETATM   27  C   UNL     1      -8.656   5.280  67.226  1.00  0.00    -0.105 C  
BRANCH  27  28
HETATM   28  C   UNL     1      -7.596   6.103  66.559  1.00  0.00    -0.094 A  
HETATM   29  C   UNL     1      -6.663   6.813  67.326  1.00  0.00    -0.067 A  
HETATM   30  C   UNL     1      -5.704   7.612  66.706  1.00  0.00    -0.028 A  
HETATM   31  C   UNL     1      -5.673   7.711  65.315  1.00  0.00    -0.037 A  
HETATM   32  C   UNL     1      -6.598   7.012  64.544  1.00  0.00    -0.042 A  
HETATM   33  C   UNL     1      -7.559   6.214  65.161  1.00  0.00    -0.090 A  
ENDBRANCH  27  28
ENDBRANCH  26  27
ENDBRANCH  25  26
ENDBRANCH  24  25
ENDBRANCH  15  24
TORSDOF 5
ENDMDL
MODEL      178
REMARK 921   NORMALIZED FREE ENERGY PREDICTED BY IDOCK:    9.55 KCAL/MOL
REMARK 922        TOTAL FREE ENERGY PREDICTED BY IDOCK:   10.87 KCAL/MOL
REMARK 923 INTER-LIGAND FREE ENERGY PREDICTED BY IDOCK:    9.39 KCAL/MOL
REMARK 924 INTRA-LIGAND FREE ENERGY PREDICTED BY IDOCK:    1.48 KCAL/MOL
REMARK 927      BINDING AFFINITY PREDICTED BY RF-SCORE:    0.00 PKD
ROOT
HETATM    1  O   UNL     1      -9.546  13.028  66.546  1.00  0.00    -0.252 OA 
HETATM    2  C   UNL     1     -10.319  14.054  67.238  1.00  0.00    -0.264 C  
HETATM    3  H   UNL     1      -9.162  12.518  67.249  1.00  0.00     0.000 HD 
HETATM    4  C   UNL     1      -9.182  14.837  68.053  1.00  0.00    -0.194 C  
HETATM    5  C   UNL     1     -11.344  13.245  68.087  1.00  0.00    -0.323 A  
HETATM    6  C   UNL     1     -10.947  14.889  66.088  1.00  0.00    -0.334 A  
HETATM    7  C   UNL     1      -8.104  15.401  67.074  1.00  0.00    -0.265 C  
HETATM    8  C   UNL     1     -11.430  11.834  67.972  1.00  0.00    -0.388 A  
HETATM    9  C   UNL     1     -12.137  15.621  66.214  1.00  0.00     0.955 A  
HETATM   10  C   UNL     1     -12.410  11.081  68.628  1.00  0.00     0.274 A  
HETATM   11  C   UNL     1     -12.660  16.357  65.139  1.00  0.00     2.897 A  
HETATM   12  C   UNL     1      -6.925  16.041  67.782  1.00  0.00    -0.143 C  
HETATM   13  C   UNL     1     -12.001  16.394  63.916  1.00  0.00     1.235 A  
HETATM   14  C   UNL     1     -13.335  11.714  69.443  1.00  0.00     2.599 A  
HETATM   15  N   UNL     1      -7.115  15.943  69.285  1.00  0.00    -0.195 N  
HETATM   16  C   UNL     1     -10.820  15.685  63.755  1.00  0.00     2.081 A  
HETATM   17  C   UNL     1     -12.266  13.843  68.966  1.00  0.00    -0.274 A  
HETATM   18  C   UNL     1      -7.262  14.485  69.708  1.00  0.00    -0.005 C  
HETATM   19  C   UNL     1      -8.415  16.683  69.651  1.00  0.00     0.586 C  
HETATM   20  C   UNL     1     -13.253  13.089  69.625  1.00  0.00     1.728 A  
HETATM   21  C   UNL     1     -10.310  14.944  64.822  1.00  0.00    -0.233 A  
HETATM   22  C   UNL     1      -8.454  13.854  69.010  1.00  0.00     0.197 C  
HETATM   23  C   UNL     1      -9.616  16.046  68.910  1.00  0.00    -0.236 C  
ENDROOT
BRANCH  15  24
HETATM   24  C   UNL     1      -5.908  16.599  70.019  1.00  0.00    -0.206 C  
BRANCH  24  25
HETATM   25  C   UNL     1      -6.331  17.526  71.178  1.00  0.00     2.049 C  
BRANCH  25  26
HETATM   26  O   UNL     1      -6.231  18.888  70.786  1.00  0.00     0.087 OA 
BRANCH  26  27
HETATM   27  C   UNL     1      -5.490  19.014  69.565  1.00  0.00    -0.208 C  
BRANCH  27  28
HETATM   28  C   UNL     1      -6.475  19.095  68.439  1.00  0.00    -0.263 A  
HETATM   29  C   UNL     1      -6.032  19.120  67.110  1.00  0.00    -0.174 A  
HETATM   30  C   UNL     1      -6.945  19.238  66.065  1.00  0.00    -0.283 A  
HETATM   31  C   UNL     1      -8.309  19.338  66.339  1.00  0.00    -0.330 A  
HETATM   32  C   UNL     1      -8.760  19.317  67.657  1.00  0.00    -0.335 A  
HETATM   33  C   UNL     1      -7.849  19.200  68.704  1.00  0.00    -0.390 A  
ENDBRANCH  27  28
ENDBRANCH  26  27
ENDBRANCH  25  26
ENDBRANCH  24  25
ENDBRANCH  15  24
TORSDOF 5
ENDMDL
MODEL      179
REMARK 921   NORMALIZED FREE ENERGY PREDICTED BY IDOCK:    9.71 KCAL/MOL
REMARK 922        TOTAL FREE ENERGY PREDICTED BY IDOCK:   11.09 KCAL/MOL
REMARK 923 INTER-LIGAND FREE ENERGY PREDICTED BY IDOCK:    2.12 KCAL/MOL
REMARK 924 INTRA-LIGAND FREE ENERGY PREDICTED BY IDOCK:    8.97 KCAL/MOL
REMARK 927      BINDING AFFINITY PREDICTED BY RF-SCORE:    0.00 PKD
ROOT
HETATM    1  O   UNL     1      -6.381   5.435  67.884  1.00  0.00    -0.036 OA 
HETATM    2  C   UNL     1      -7.692   5.771  67.340  1.00  0.00    -0.097 C  
HETATM    3  H   UNL     1      -6.107   6.228  68.329  1.00  0.00     0.000 HD 
HETATM    4  C   UNL     1      -7.341   6.978  66.344  1.00  0.00    -0.080 C  
HETATM    5  C   UNL     1      -8.539   6.136  68.596  1.00  0.00    -0.113 A  
HETATM    6  C   UNL     1      -8.140   4.474  66.612  1.00  0.00    -0.103 A  
HETATM    7  C   UNL     1      -6.305   6.513  65.273  1.00  0.00    -0.034 C  
HETATM    8  C   UNL     1      -8.006   5.985  69.901  1.00  0.00    -0.113 A  
HETATM    9  C   UNL     1      -9.481   4.123  66.395  1.00  0.00    -0.199 A  
HETATM   10  C   UNL     1      -8.768   6.190  71.057  1.00  0.00    -0.132 A  
HETATM   11  C   UNL     1      -9.827   2.936  65.732  1.00  0.00     0.355 A  
HETATM   12  C   UNL     1      -5.823   7.636  64.375  1.00  0.00    -0.041 C  
HETATM   13  C   UNL     1      -8.845   2.075  65.255  1.00  0.00    -0.120 A  
HETATM   14  C   UNL     1     -10.095   6.576  70.948  1.00  0.00    -0.210 A  
HETATM   15  N   UNL     1      -6.486   8.939  64.784  1.00  0.00    -0.066 N  
HETATM   16  C   UNL     1      -7.508   2.390  65.449  1.00  0.00    -0.071 A  
HETATM   17  C   UNL     1      -9.872   6.582  68.529  1.00  0.00    -0.140 A  
HETATM   18  C   UNL     1      -6.180   9.257  66.244  1.00  0.00    -0.064 C  
HETATM   19  C   UNL     1      -8.010   8.765  64.639  1.00  0.00    -0.135 C  
HETATM   20  C   UNL     1     -10.641   6.788  69.688  1.00  0.00    -0.267 A  
HETATM   21  C   UNL     1      -7.167   3.566  66.119  1.00  0.00    -0.068 A  
HETATM   22  C   UNL     1      -6.680   8.137  67.140  1.00  0.00    -0.065 C  
HETATM   23  C   UNL     1      -8.500   7.602  65.536  1.00  0.00    -0.132 C  
ENDROOT
BRANCH  15  24
HETATM   24  C   UNL     1      -5.997  10.099  63.866  1.00  0.00    -0.140 C  
BRANCH  24  25
HETATM   25  C   UNL     1      -5.750  11.417  64.629  1.00  0.00     1.445 C  
BRANCH  25  26
HETATM   26  O   UNL     1      -6.900  11.779  65.381  1.00  0.00     1.109 OA 
BRANCH  26  27
HETATM   27  C   UNL     1      -7.523  10.619  65.948  1.00  0.00    -0.131 C  
BRANCH  27  28
HETATM   28  C   UNL     1      -7.874  10.938  67.369  1.00  0.00    -0.113 A  
HETATM   29  C   UNL     1      -6.872  11.281  68.287  1.00  0.00    -0.064 A  
HETATM   30  C   UNL     1      -7.194  11.536  69.618  1.00  0.00     0.153 A  
HETATM   31  C   UNL     1      -8.519  11.446  70.045  1.00  0.00     1.945 A  
HETATM   32  C   UNL     1      -9.523  11.103  69.141  1.00  0.00    -0.000 A  
HETATM   33  C   UNL     1      -9.203  10.846  67.810  1.00  0.00    -0.155 A  
ENDBRANCH  27  28
ENDBRANCH  26  27
ENDBRANCH  25  26
ENDBRANCH  24  25
ENDBRANCH  15  24
TORSDOF 5
ENDMDL
MODEL      180
REMARK 921   NORMALIZED FREE ENERGY PREDICTED BY IDOCK:   10.08 KCAL/MOL
REMARK 922        TOTAL FREE ENERGY PREDICTED BY IDOCK:   11.56 KCAL/MOL
REMARK 923 INTER-LIGAND FREE ENERGY PREDICTED BY IDOCK:   11.21 KCAL/MOL
REMARK 924 INTRA-LIGAND FREE ENERGY PREDICTED BY IDOCK:    0.35 KCAL/MOL
REMARK 927      BINDING AFFINITY PREDICTED BY RF-SCORE:    0.00 PKD
ROOT
HETATM    1  O   UNL     1      -5.609  12.202  68.216  1.00  0.00    -0.052 OA 
HETATM    2  C   UNL     1      -6.940  12.318  68.800  1.00  0.00    -0.098 C  
HETATM    3  H   UNL     1      -5.765  11.802  67.368  1.00  0.00     0.000 HD 
HETATM    4  C   UNL     1      -7.403  10.786  68.887  1.00  0.00    -0.104 C  
HETATM    5  C   UNL     1      -7.717  13.217  67.792  1.00  0.00    -0.159 A  
HETATM    6  C   UNL     1      -6.686  12.971  70.187  1.00  0.00     0.452 A  
HETATM    7  C   UNL     1      -6.397   9.964  69.752  1.00  0.00    -0.054 C  
HETATM    8  C   UNL     1      -7.057  13.800  66.681  1.00  0.00     1.704 A  
HETATM    9  C   UNL     1      -7.637  13.739  70.876  1.00  0.00     3.331 A  
HETATM   10  C   UNL     1      -7.686  14.705  65.818  1.00  0.00     4.266 A  
HETATM   11  C   UNL     1      -7.350  14.307  72.127  1.00  0.00     4.229 A  
HETATM   12  C   UNL     1      -6.694   8.477  69.772  1.00  0.00    -0.039 C  
HETATM   13  C   UNL     1      -6.114  14.111  72.730  1.00  0.00     0.614 A  
HETATM   14  C   UNL     1      -9.013  15.046  66.026  1.00  0.00    -0.033 A  
HETATM   15  N   UNL     1      -7.912   8.187  68.912  1.00  0.00    -0.113 N  
HETATM   16  C   UNL     1      -5.149  13.355  72.080  1.00  0.00    -0.133 A  
HETATM   17  C   UNL     1      -9.078  13.547  67.936  1.00  0.00    -0.204 A  
HETATM   18  C   UNL     1      -7.679   8.664  67.482  1.00  0.00    -0.098 C  
HETATM   19  C   UNL     1      -9.103   8.971  69.493  1.00  0.00    -0.151 C  
HETATM   20  C   UNL     1      -9.712  14.456  67.072  1.00  0.00    -0.256 A  
HETATM   21  C   UNL     1      -5.433  12.802  70.831  1.00  0.00    -0.173 A  
HETATM   22  C   UNL     1      -7.398  10.156  67.467  1.00  0.00    -0.089 C  
HETATM   23  C   UNL     1      -8.791  10.488  69.497  1.00  0.00    -0.043 C  
ENDROOT
BRANCH  15  24
HETATM   24  C   UNL     1      -8.225   6.661  68.927  1.00  0.00    -0.120 C  
BRANCH  24  25
HETATM   25  C   UNL     1      -9.342   6.258  67.941  1.00  0.00    -0.114 C  
BRANCH  25  26
HETATM   26  O   UNL     1     -10.525   5.911  68.647  1.00  0.00    -0.192 OA 
BRANCH  26  27
HETATM   27  C   UNL     1     -10.295   5.916  70.062  1.00  0.00    -0.244 C  
BRANCH  27  28
HETATM   28  C   UNL     1     -11.204   6.941  70.669  1.00  0.00    -0.346 A  
HETATM   29  C   UNL     1     -12.532   7.056  70.237  1.00  0.00     0.151 A  
HETATM   30  C   UNL     1     -13.365   8.036  70.772  1.00  0.00     0.382 A  
HETATM   31  C   UNL     1     -12.876   8.913  71.740  1.00  0.00    -0.419 A  
HETATM   32  C   UNL     1     -11.557   8.810  72.175  1.00  0.00    -0.434 A  
HETATM   33  C   UNL     1     -10.722   7.831  71.641  1.00  0.00    -0.257 A  
ENDBRANCH  27  28
ENDBRANCH  26  27
ENDBRANCH  25  26
ENDBRANCH  24  25
ENDBRANCH  15  24
TORSDOF 5
ENDMDL
MODEL      181
REMARK 921   NORMALIZED FREE ENERGY PREDICTED BY IDOCK:   10.51 KCAL/MOL
REMARK 922        TOTAL FREE ENERGY PREDICTED BY IDOCK:   12.11 KCAL/MOL
REMARK 923 INTER-LIGAND FREE ENERGY PREDICTED BY IDOCK:   12.59 KCAL/MOL
REMARK 924 INTRA-LIGAND FREE ENERGY PREDICTED BY IDOCK:   -0.48 KCAL/MOL
REMARK 927      BINDING AFFINITY PREDICTED BY RF-SCORE:    0.00 PKD
ROOT
HETATM    1  O   UNL     1      -7.286  17.214  70.095  1.00  0.00     0.931 OA 
HETATM    2  C   UNL     1      -8.408  16.766  69.279  1.00  0.00     0.031 C  
HETATM    3  H   UNL     1      -6.554  17.228  69.490  1.00  0.00     0.000 HD 
HETATM    4  C   UNL     1      -7.928  15.307  68.820  1.00  0.00    -0.158 C  
HETATM    5  C   UNL     1      -8.513  17.843  68.158  1.00  0.00    -0.268 A  
HETATM    6  C   UNL     1      -9.607  16.743  70.268  1.00  0.00     1.622 A  
HETATM    7  C   UNL     1      -7.647  14.412  70.067  1.00  0.00     0.456 C  
HETATM    8  C   UNL     1      -7.689  18.997  68.180  1.00  0.00    -0.326 A  
HETATM    9  C   UNL     1     -10.946  16.889  69.877  1.00  0.00     0.090 A  
HETATM   10  C   UNL     1      -7.828  20.042  67.260  1.00  0.00    -0.334 A  
HETATM   11  C   UNL     1     -11.988  16.862  70.817  1.00  0.00     1.607 A  
HETATM   12  C   UNL     1      -7.061  13.058  69.716  1.00  0.00     0.511 C  
HETATM   13  C   UNL     1     -11.723  16.674  72.167  1.00  0.00    -0.168 A  
HETATM   14  C   UNL     1      -8.792  19.962  66.267  1.00  0.00    -0.402 A  
HETATM   15  N   UNL     1      -6.889  12.948  68.211  1.00  0.00    -0.082 N  
HETATM   16  C   UNL     1     -10.411  16.524  72.592  1.00  0.00     4.485 A  
HETATM   17  C   UNL     1      -9.441  17.775  67.102  1.00  0.00    -0.265 A  
HETATM   18  C   UNL     1      -5.991  14.067  67.696  1.00  0.00    -0.033 C  
HETATM   19  C   UNL     1      -8.276  13.107  67.561  1.00  0.00    -0.183 C  
HETATM   20  C   UNL     1      -9.585  18.825  66.177  1.00  0.00    -0.238 A  
HETATM   21  C   UNL     1      -9.376  16.564  71.657  1.00  0.00     7.018 A  
HETATM   22  C   UNL     1      -6.592  15.421  68.035  1.00  0.00    -0.160 C  
HETATM   23  C   UNL     1      -8.887  14.478  67.939  1.00  0.00    -0.176 C  
ENDROOT
BRANCH  15  24
HETATM   24  C   UNL     1      -6.287  11.560  67.842  1.00  0.00    -0.056 C  
BRANCH  24  25
HETATM   25  C   UNL     1      -7.277  10.394  68.043  1.00  0.00    -0.084 C  
BRANCH  25  26
HETATM   26  O   UNL     1      -6.866   9.259  67.292  1.00  0.00    -0.078 OA 
BRANCH  26  27
HETATM   27  C   UNL     1      -7.983   8.656  66.627  1.00  0.00    -0.096 C  
BRANCH  27  28
HETATM   28  C   UNL     1      -8.025   9.189  65.228  1.00  0.00    -0.111 A  
HETATM   29  C   UNL     1      -9.161   9.862  64.758  1.00  0.00    -0.283 A  
HETATM   30  C   UNL     1      -9.215  10.320  63.444  1.00  0.00    -0.321 A  
HETATM   31  C   UNL     1      -8.136  10.105  62.586  1.00  0.00    -0.153 A  
HETATM   32  C   UNL     1      -7.003   9.435  63.041  1.00  0.00    -0.097 A  
HETATM   33  C   UNL     1      -6.947   8.974  64.355  1.00  0.00    -0.089 A  
ENDBRANCH  27  28
ENDBRANCH  26  27
ENDBRANCH  25  26
ENDBRANCH  24  25
ENDBRANCH  15  24
TORSDOF 5
ENDMDL
MODEL      182
REMARK 921   NORMALIZED FREE ENERGY PREDICTED BY IDOCK:   15.44 KCAL/MOL
REMARK 922        TOTAL FREE ENERGY PREDICTED BY IDOCK:   18.49 KCAL/MOL
REMARK 923 INTER-LIGAND FREE ENERGY PREDICTED BY IDOCK:    4.15 KCAL/MOL
REMARK 924 INTRA-LIGAND FREE ENERGY PREDICTED BY IDOCK:   14.34 KCAL/MOL
REMARK 927      BINDING AFFINITY PREDICTED BY RF-SCORE:    0.00 PKD
ROOT
HETATM    1  O   UNL     1      -6.469   9.435  70.031  1.00  0.00    -0.048 OA 
HETATM    2  C   UNL     1      -7.759   8.766  69.904  1.00  0.00    -0.081 C  
HETATM    3  H   UNL     1      -6.093   9.372  69.161  1.00  0.00     0.000 HD 
HETATM    4  C   UNL     1      -7.326   7.277  69.497  1.00  0.00    -0.086 C  
HETATM    5  C   UNL     1      -8.506   9.590  68.813  1.00  0.00    -0.122 A  
HETATM    6  C   UNL     1      -8.376   8.867  71.327  1.00  0.00    -0.223 A  
HETATM    7  C   UNL     1      -6.395   6.665  70.590  1.00  0.00    -0.040 C  
HETATM    8  C   UNL     1      -7.935  10.773  68.279  1.00  0.00    -0.118 A  
HETATM    9  C   UNL     1      -9.755   8.850  71.584  1.00  0.00    -0.379 A  
HETATM   10  C   UNL     1      -8.618  11.605  67.384  1.00  0.00    -0.149 A  
HETATM   11  C   UNL     1     -10.255   8.947  72.892  1.00  0.00     0.739 A  
HETATM   12  C   UNL     1      -5.835   5.307  70.213  1.00  0.00    -0.017 C  
HETATM   13  C   UNL     1      -9.394   9.048  73.977  1.00  0.00     3.235 A  
HETATM   14  C   UNL     1      -9.899  11.271  66.975  1.00  0.00    -0.217 A  
HETATM   15  N   UNL     1      -6.336   4.912  68.835  1.00  0.00    -0.031 N  
HETATM   16  C   UNL     1      -8.024   9.065  73.762  1.00  0.00     0.775 A  
HETATM   17  C   UNL     1      -9.785   9.258  68.330  1.00  0.00    -0.168 A  
HETATM   18  C   UNL     1      -5.933   5.959  67.802  1.00  0.00    -0.017 C  
HETATM   19  C   UNL     1      -7.874   4.853  68.885  1.00  0.00    -0.077 C  
HETATM   20  C   UNL     1     -10.475  10.093  67.433  1.00  0.00    -0.310 A  
HETATM   21  C   UNL     1      -7.529   8.981  72.460  1.00  0.00     0.394 A  
HETATM   22  C   UNL     1      -6.510   7.313  68.176  1.00  0.00    -0.045 C  
HETATM   23  C   UNL     1      -8.446   6.233  69.295  1.00  0.00    -0.124 C  
ENDROOT
BRANCH  15  24
HETATM   24  C   UNL     1      -5.767   3.517  68.439  1.00  0.00    -0.022 C  
BRANCH  24  25
HETATM   25  C   UNL     1      -5.776   3.264  66.917  1.00  0.00    -0.022 C  
BRANCH  25  26
HETATM   26  O   UNL     1      -7.092   2.969  66.471  1.00  0.00    -0.052 OA 
BRANCH  26  27
HETATM   27  C   UNL     1      -8.052   3.806  67.127  1.00  0.00    -0.091 C  
BRANCH  27  28
HETATM   28  C   UNL     1      -8.530   3.082  68.349  1.00  0.00    -0.103 A  
HETATM   29  C   UNL     1      -9.892   2.795  68.517  1.00  0.00     0.292 A  
HETATM   30  C   UNL     1     -10.341   2.159  69.672  1.00  0.00     1.536 A  
HETATM   31  C   UNL     1      -9.434   1.809  70.672  1.00  0.00    -0.179 A  
HETATM   32  C   UNL     1      -8.079   2.091  70.517  1.00  0.00    -0.054 A  
HETATM   33  C   UNL     1      -7.627   2.728  69.363  1.00  0.00    -0.043 A  
ENDBRANCH  27  28
ENDBRANCH  26  27
ENDBRANCH  25  26
ENDBRANCH  24  25
ENDBRANCH  15  24
TORSDOF 5
ENDMDL
MODEL      183
REMARK 921   NORMALIZED FREE ENERGY PREDICTED BY IDOCK:   21.72 KCAL/MOL
REMARK 922        TOTAL FREE ENERGY PREDICTED BY IDOCK:   26.61 KCAL/MOL
REMARK 923 INTER-LIGAND FREE ENERGY PREDICTED BY IDOCK:   21.73 KCAL/MOL
REMARK 924 INTRA-LIGAND FREE ENERGY PREDICTED BY IDOCK:    4.88 KCAL/MOL
REMARK 927      BINDING AFFINITY PREDICTED BY RF-SCORE:    0.00 PKD
ROOT
HETATM    1  O   UNL     1      -9.193  15.524  65.585  1.00  0.00    -0.334 OA 
HETATM    2  C   UNL     1     -10.459  16.180  65.891  1.00  0.00    -0.352 C  
HETATM    3  H   UNL     1      -9.369  14.604  65.742  1.00  0.00     0.000 HD 
HETATM    4  C   UNL     1     -10.658  15.819  67.441  1.00  0.00    -0.313 C  
HETATM    5  C   UNL     1     -11.470  15.535  64.897  1.00  0.00    -0.279 A  
HETATM    6  C   UNL     1     -10.172  17.686  65.636  1.00  0.00    -0.057 A  
HETATM    7  C   UNL     1      -9.449  16.341  68.278  1.00  0.00    -0.214 C  
HETATM    8  C   UNL     1     -11.030  14.623  63.904  1.00  0.00     0.969 A  
HETATM    9  C   UNL     1     -11.158  18.622  65.291  1.00  0.00     0.886 A  
HETATM   10  C   UNL     1     -11.881  14.109  62.920  1.00  0.00     1.779 A  
HETATM   11  C   UNL     1     -10.840  19.971  65.069  1.00  0.00     0.514 A  
HETATM   12  C   UNL     1      -9.500  15.921  69.735  1.00  0.00    -0.036 C  
HETATM   13  C   UNL     1      -9.533  20.424  65.201  1.00  0.00     0.984 A  
HETATM   14  C   UNL     1     -13.217  14.476  62.904  1.00  0.00     3.740 A  
HETATM   15  N   UNL     1     -10.736  15.075  69.981  1.00  0.00    -0.226 N  
HETATM   16  C   UNL     1      -8.531  19.528  65.544  1.00  0.00     0.512 A  
HETATM   17  C   UNL     1     -12.843  15.839  64.880  1.00  0.00     1.297 A  
HETATM   18  C   UNL     1     -10.732  13.850  69.074  1.00  0.00    -0.195 C  
HETATM   19  C   UNL     1     -11.973  15.926  69.634  1.00  0.00    -0.260 C  
HETATM   20  C   UNL     1     -13.701  15.326  63.891  1.00  0.00     3.886 A  
HETATM   21  C   UNL     1      -8.849  18.185  65.751  1.00  0.00     0.409 A  
HETATM   22  C   UNL     1     -10.697  14.276  67.616  1.00  0.00    -0.259 C  
HETATM   23  C   UNL     1     -11.909  16.376  68.154  1.00  0.00     0.343 C  
ENDROOT
BRANCH  15  24
HETATM   24  C   UNL     1     -10.797  14.640  71.475  1.00  0.00     1.000 C  
BRANCH  24  25
HETATM   25  C   UNL     1      -9.899  15.493  72.395  1.00  0.00     4.863 C  
BRANCH  25  26
HETATM   26  O   UNL     1     -10.510  15.662  73.667  1.00  0.00     3.408 OA 
BRANCH  26  27
HETATM   27  C   UNL     1     -11.855  16.136  73.527  1.00  0.00    -0.231 C  
BRANCH  27  28
HETATM   28  C   UNL     1     -12.639  15.078  72.811  1.00  0.00    -0.484 A  
HETATM   29  C   UNL     1     -13.637  15.433  71.893  1.00  0.00    -0.590 A  
HETATM   30  C   UNL     1     -14.394  14.450  71.260  1.00  0.00    -0.212 A  
HETATM   31  C   UNL     1     -14.164  13.104  71.543  1.00  0.00     0.899 A  
HETATM   32  C   UNL     1     -13.177  12.739  72.455  1.00  0.00    -0.228 A  
HETATM   33  C   UNL     1     -12.419  13.720  73.091  1.00  0.00     0.507 A  
ENDBRANCH  27  28
ENDBRANCH  26  27
ENDBRANCH  25  26
ENDBRANCH  24  25
ENDBRANCH  15  24
TORSDOF 5
ENDMDL
MODEL      184
REMARK 921   NORMALIZED FREE ENERGY PREDICTED BY IDOCK:   27.90 KCAL/MOL
REMARK 922        TOTAL FREE ENERGY PREDICTED BY IDOCK:   34.58 KCAL/MOL
REMARK 923 INTER-LIGAND FREE ENERGY PREDICTED BY IDOCK:   32.21 KCAL/MOL
REMARK 924 INTRA-LIGAND FREE ENERGY PREDICTED BY IDOCK:    2.38 KCAL/MOL
REMARK 927      BINDING AFFINITY PREDICTED BY RF-SCORE:    0.00 PKD
ROOT
HETATM    1  O   UNL     1      -7.063  12.915  66.849  1.00  0.00    -0.349 OA 
HETATM    2  C   UNL     1      -8.517  12.806  66.866  1.00  0.00    -0.102 C  
HETATM    3  H   UNL     1      -6.843  12.917  65.925  1.00  0.00     0.000 HD 
HETATM    4  C   UNL     1      -8.755  11.393  66.146  1.00  0.00    -0.153 C  
HETATM    5  C   UNL     1      -8.999  14.066  66.088  1.00  0.00     0.179 A  
HETATM    6  C   UNL     1      -8.875  12.801  68.378  1.00  0.00    -0.117 A  
HETATM    7  C   UNL     1      -8.020  10.257  66.925  1.00  0.00    -0.112 C  
HETATM    8  C   UNL     1      -8.074  15.049  65.653  1.00  0.00     3.071 A  
HETATM    9  C   UNL     1     -10.110  13.228  68.889  1.00  0.00     0.012 A  
HETATM   10  C   UNL     1      -8.472  16.250  65.054  1.00  0.00     3.740 A  
HETATM   11  C   UNL     1     -10.378  13.204  70.266  1.00  0.00     2.451 A  
HETATM   12  C   UNL     1      -8.088   8.910  66.232  1.00  0.00    -0.110 C  
HETATM   13  C   UNL     1      -9.428  12.741  71.167  1.00  0.00    11.508 A  
HETATM   14  C   UNL     1      -9.819  16.504  64.850  1.00  0.00     1.230 A  
HETATM   15  N   UNL     1      -8.859   9.043  64.930  1.00  0.00    -0.179 N  
HETATM   16  C   UNL     1      -8.196  12.308  70.699  1.00  0.00     6.389 A  
HETATM   17  C   UNL     1     -10.352  14.337  65.812  1.00  0.00    -0.341 A  
HETATM   18  C   UNL     1      -8.198  10.075  64.023  1.00  0.00    -0.156 C  
HETATM   19  C   UNL     1     -10.279   9.535  65.265  1.00  0.00     0.417 C  
HETATM   20  C   UNL     1     -10.756  15.543  65.212  1.00  0.00    -0.440 A  
HETATM   21  C   UNL     1      -7.928  12.344  69.330  1.00  0.00     0.570 A  
HETATM   22  C   UNL     1      -8.148  11.426  64.716  1.00  0.00     0.834 C  
HETATM   23  C   UNL     1     -10.210  10.899  65.996  1.00  0.00    -0.311 C  
ENDROOT
BRANCH  15  24
HETATM   24  C   UNL     1      -8.934   7.663  64.211  1.00  0.00     1.008 C  
BRANCH  24  25
HETATM   25  C   UNL     1     -10.102   6.782  64.703  1.00  0.00     4.089 C  
BRANCH  25  26
HETATM   26  O   UNL     1      -9.706   6.021  65.836  1.00  0.00    -0.022 OA 
BRANCH  26  27
HETATM   27  C   UNL     1      -8.542   6.589  66.449  1.00  0.00    -0.136 C  
BRANCH  27  28
HETATM   28  C   UNL     1      -8.702   6.466  67.934  1.00  0.00    -0.115 A  
HETATM   29  C   UNL     1      -8.496   5.235  68.571  1.00  0.00    -0.092 A  
HETATM   30  C   UNL     1      -8.686   5.113  69.946  1.00  0.00    -0.119 A  
HETATM   31  C   UNL     1      -9.089   6.218  70.695  1.00  0.00    -0.153 A  
HETATM   32  C   UNL     1      -9.300   7.446  70.072  1.00  0.00    -0.151 A  
HETATM   33  C   UNL     1      -9.111   7.571  68.697  1.00  0.00    -0.134 A  
ENDBRANCH  27  28
ENDBRANCH  26  27
ENDBRANCH  25  26
ENDBRANCH  24  25
ENDBRANCH  15  24
TORSDOF 5
ENDMDL
MODEL      185
REMARK 921   NORMALIZED FREE ENERGY PREDICTED BY IDOCK:   31.55 KCAL/MOL
REMARK 922        TOTAL FREE ENERGY PREDICTED BY IDOCK:   39.31 KCAL/MOL
REMARK 923 INTER-LIGAND FREE ENERGY PREDICTED BY IDOCK:   32.67 KCAL/MOL
REMARK 924 INTRA-LIGAND FREE ENERGY PREDICTED BY IDOCK:    6.65 KCAL/MOL
REMARK 927      BINDING AFFINITY PREDICTED BY RF-SCORE:    0.00 PKD
ROOT
HETATM    1  O   UNL     1     -10.284  12.740  69.756  1.00  0.00     0.284 OA 
HETATM    2  C   UNL     1      -8.985  13.257  69.345  1.00  0.00     1.147 C  
HETATM    3  H   UNL     1     -10.071  12.025  70.344  1.00  0.00     0.000 HD 
HETATM    4  C   UNL     1      -8.337  11.990  68.607  1.00  0.00    -0.036 C  
HETATM    5  C   UNL     1      -8.314  13.696  70.681  1.00  0.00     4.614 A  
HETATM    6  C   UNL     1      -9.334  14.426  68.382  1.00  0.00    -0.206 A  
HETATM    7  C   UNL     1      -9.244  11.530  67.423  1.00  0.00    -0.166 C  
HETATM    8  C   UNL     1      -9.028  13.641  71.904  1.00  0.00    12.262 A  
HETATM    9  C   UNL     1      -8.493  15.525  68.150  1.00  0.00    -0.147 A  
HETATM   10  C   UNL     1      -8.506  14.131  73.107  1.00  0.00     9.937 A  
HETATM   11  C   UNL     1      -8.862  16.554  67.269  1.00  0.00    -0.206 A  
HETATM   12  C   UNL     1      -8.765  10.253  66.759  1.00  0.00    -0.126 C  
HETATM   13  C   UNL     1     -10.071  16.506  66.587  1.00  0.00    -0.299 A  
HETATM   14  C   UNL     1      -7.234  14.681  73.132  1.00  0.00     4.581 A  
HETATM   15  N   UNL     1      -7.511   9.753  67.454  1.00  0.00    -0.091 N  
HETATM   16  C   UNL     1     -10.928  15.433  66.789  1.00  0.00    -0.282 A  
HETATM   17  C   UNL     1      -7.006  14.210  70.760  1.00  0.00     0.840 A  
HETATM   18  C   UNL     1      -7.784   9.512  68.935  1.00  0.00    -0.076 C  
HETATM   19  C   UNL     1      -6.432  10.846  67.336  1.00  0.00    -0.065 C  
HETATM   20  C   UNL     1      -6.479  14.705  71.966  1.00  0.00     1.070 A  
HETATM   21  C   UNL     1     -10.563  14.418  67.674  1.00  0.00    -0.260 A  
HETATM   22  C   UNL     1      -8.248  10.797  69.599  1.00  0.00     0.142 C  
HETATM   23  C   UNL     1      -6.930  12.158  67.992  1.00  0.00    -0.090 C  
ENDROOT
BRANCH  15  24
HETATM   24  C   UNL     1      -7.011   8.442  66.778  1.00  0.00    -0.073 C  
BRANCH  24  25
HETATM   25  C   UNL     1      -6.208   7.533  67.730  1.00  0.00    -0.048 C  
BRANCH  25  26
HETATM   26  O   UNL     1      -7.080   6.665  68.441  1.00  0.00    -0.077 OA 
BRANCH  26  27
HETATM   27  C   UNL     1      -6.477   6.230  69.667  1.00  0.00    -0.043 C  
BRANCH  27  28
HETATM   28  C   UNL     1      -6.987   7.114  70.765  1.00  0.00    -0.061 A  
HETATM   29  C   UNL     1      -7.467   8.398  70.476  1.00  0.00    -0.065 A  
HETATM   30  C   UNL     1      -7.902   9.235  71.502  1.00  0.00     0.220 A  
HETATM   31  C   UNL     1      -7.855   8.797  72.826  1.00  0.00     0.154 A  
HETATM   32  C   UNL     1      -7.376   7.523  73.124  1.00  0.00    -0.092 A  
HETATM   33  C   UNL     1      -6.940   6.685  72.100  1.00  0.00    -0.072 A  
ENDBRANCH  27  28
ENDBRANCH  26  27
ENDBRANCH  25  26
ENDBRANCH  24  25
ENDBRANCH  15  24
TORSDOF 5
ENDMDL
MODEL      186
REMARK 921   NORMALIZED FREE ENERGY PREDICTED BY IDOCK:   34.85 KCAL/MOL
REMARK 922        TOTAL FREE ENERGY PREDICTED BY IDOCK:   43.57 KCAL/MOL
REMARK 923 INTER-LIGAND FREE ENERGY PREDICTED BY IDOCK:   42.65 KCAL/MOL
REMARK 924 INTRA-LIGAND FREE ENERGY PREDICTED BY IDOCK:    0.92 KCAL/MOL
REMARK 927      BINDING AFFINITY PREDICTED BY RF-SCORE:    0.00 PKD
ROOT
HETATM    1  O   UNL     1      -9.442  13.267  66.055  1.00  0.00    -0.439 OA 
HETATM    2  C   UNL     1      -9.210  12.396  67.201  1.00  0.00    -0.199 C  
HETATM    3  H   UNL     1      -8.768  13.932  66.133  1.00  0.00     0.000 HD 
HETATM    4  C   UNL     1      -9.435  13.397  68.434  1.00  0.00    -0.176 C  
HETATM    5  C   UNL     1      -7.757  11.875  66.992  1.00  0.00    -0.146 A  
HETATM    6  C   UNL     1     -10.313  11.308  67.075  1.00  0.00    -0.263 A  
HETATM    7  C   UNL     1     -10.869  14.012  68.378  1.00  0.00    -0.263 C  
HETATM    8  C   UNL     1      -7.035  12.193  65.814  1.00  0.00     2.170 A  
HETATM    9  C   UNL     1     -10.196  10.012  67.599  1.00  0.00    -0.249 A  
HETATM   10  C   UNL     1      -5.774  11.654  65.532  1.00  0.00     1.209 A  
HETATM   11  C   UNL     1     -11.225   9.069  67.452  1.00  0.00     0.574 A  
HETATM   12  C   UNL     1     -11.112  15.071  69.436  1.00  0.00    -0.278 C  
HETATM   13  C   UNL     1     -12.402   9.398  66.792  1.00  0.00     8.296 A  
HETATM   14  C   UNL     1      -5.179  10.786  66.434  1.00  0.00    -0.080 A  
HETATM   15  N   UNL     1      -9.857  15.257  70.271  1.00  0.00     0.008 N  
HETATM   16  C   UNL     1     -12.555  10.671  66.262  1.00  0.00     6.175 A  
HETATM   17  C   UNL     1      -7.095  11.035  67.906  1.00  0.00    -0.081 A  
HETATM   18  C   UNL     1      -8.681  15.651  69.383  1.00  0.00    -0.249 C  
HETATM   19  C   UNL     1      -9.524  13.910  70.939  1.00  0.00     5.147 C  
HETATM   20  C   UNL     1      -5.829  10.491  67.625  1.00  0.00    -0.044 A  
HETATM   21  C   UNL     1     -11.525  11.603  66.399  1.00  0.00    -0.238 A  
HETATM   22  C   UNL     1      -8.433  14.580  68.336  1.00  0.00    -0.163 C  
HETATM   23  C   UNL     1      -9.301  12.822  69.860  1.00  0.00     2.869 C  
ENDROOT
BRANCH  15  24
HETATM   24  C   UNL     1     -10.097  16.343  71.361  1.00  0.00     2.992 C  
BRANCH  24  25
HETATM   25  C   UNL     1     -11.490  17.001  71.270  1.00  0.00     0.923 C  
BRANCH  25  26
HETATM   26  O   UNL     1     -11.613  18.039  72.232  1.00  0.00     1.992 OA 
BRANCH  26  27
HETATM   27  C   UNL     1     -11.544  19.326  71.605  1.00  0.00     8.612 C  
BRANCH  27  28
HETATM   28  C   UNL     1     -10.649  19.203  70.409  1.00  0.00     1.865 A  
HETATM   29  C   UNL     1     -11.151  18.717  69.194  1.00  0.00     1.791 A  
HETATM   30  C   UNL     1     -10.308  18.564  68.095  1.00  0.00    -0.391 A  
HETATM   31  C   UNL     1      -8.956  18.891  68.202  1.00  0.00    -0.346 A  
HETATM   32  C   UNL     1      -8.447  19.372  69.405  1.00  0.00     0.100 A  
HETATM   33  C   UNL     1      -9.286  19.526  70.506  1.00  0.00     1.529 A  
ENDBRANCH  27  28
ENDBRANCH  26  27
ENDBRANCH  25  26
ENDBRANCH  24  25
ENDBRANCH  15  24
TORSDOF 5
ENDMDL
MODEL      187
REMARK 921   NORMALIZED FREE ENERGY PREDICTED BY IDOCK:   38.86 KCAL/MOL
REMARK 922        TOTAL FREE ENERGY PREDICTED BY IDOCK:   48.75 KCAL/MOL
REMARK 923 INTER-LIGAND FREE ENERGY PREDICTED BY IDOCK:   49.13 KCAL/MOL
REMARK 924 INTRA-LIGAND FREE ENERGY PREDICTED BY IDOCK:   -0.37 KCAL/MOL
REMARK 927      BINDING AFFINITY PREDICTED BY RF-SCORE:    0.00 PKD
ROOT
HETATM    1  O   UNL     1      -7.310  17.733  69.965  1.00  0.00     0.710 OA 
HETATM    2  C   UNL     1      -8.651  17.406  69.494  1.00  0.00     0.661 C  
HETATM    3  H   UNL     1      -6.739  17.374  69.297  1.00  0.00     0.000 HD 
HETATM    4  C   UNL     1      -8.617  15.803  69.472  1.00  0.00    -0.144 C  
HETATM    5  C   UNL     1      -8.748  18.113  68.109  1.00  0.00    -0.285 A  
HETATM    6  C   UNL     1      -9.586  17.993  70.588  1.00  0.00     3.461 A  
HETATM    7  C   UNL     1      -8.286  15.248  70.894  1.00  0.00     2.403 C  
HETATM    8  C   UNL     1      -7.701  18.950  67.647  1.00  0.00    -0.259 A  
HETATM    9  C   UNL     1     -10.911  18.390  70.351  1.00  0.00     2.751 A  
HETATM   10  C   UNL     1      -7.795  19.694  66.465  1.00  0.00    -0.311 A  
HETATM   11  C   UNL     1     -11.709  18.917  71.379  1.00  0.00     8.417 A  
HETATM   12  C   UNL     1      -8.105  13.743  70.926  1.00  0.00     4.825 C  
HETATM   13  C   UNL     1     -11.213  19.047  72.670  1.00  0.00     4.777 A  
HETATM   14  C   UNL     1      -8.940  19.612  65.688  1.00  0.00     0.273 A  
HETATM   15  N   UNL     1      -8.285  13.176  69.529  1.00  0.00     0.998 N  
HETATM   16  C   UNL     1      -9.908  18.662  72.941  1.00  0.00     6.367 A  
HETATM   17  C   UNL     1      -9.869  18.014  67.265  1.00  0.00    -0.306 A  
HETATM   18  C   UNL     1      -7.289  13.812  68.564  1.00  0.00    -0.117 C  
HETATM   19  C   UNL     1      -9.707  13.526  69.052  1.00  0.00     0.229 C  
HETATM   20  C   UNL     1      -9.967  18.762  66.078  1.00  0.00    -0.286 A  
HETATM   21  C   UNL     1      -9.113  18.150  71.915  1.00  0.00    11.683 A  
HETATM   22  C   UNL     1      -7.487  15.317  68.524  1.00  0.00    -0.121 C  
HETATM   23  C   UNL     1      -9.902  15.062  69.043  1.00  0.00    -0.236 C  
ENDROOT
BRANCH  15  24
HETATM   24  C   UNL     1      -8.101  11.630  69.552  1.00  0.00     0.717 C  
BRANCH  24  25
HETATM   25  C   UNL     1      -9.104  10.910  70.478  1.00  0.00     2.661 C  
BRANCH  25  26
HETATM   26  O   UNL     1      -9.356   9.593  70.008  1.00  0.00    -0.213 OA 
BRANCH  26  27
HETATM   27  C   UNL     1     -10.748   9.413  69.719  1.00  0.00    -0.234 C  
BRANCH  27  28
HETATM   28  C   UNL     1     -10.978   9.834  68.299  1.00  0.00    -0.215 A  
HETATM   29  C   UNL     1     -10.520   9.038  67.240  1.00  0.00    -0.343 A  
HETATM   30  C   UNL     1     -10.697   9.451  65.922  1.00  0.00     0.754 A  
HETATM   31  C   UNL     1     -11.328  10.665  65.650  1.00  0.00     0.656 A  
HETATM   32  C   UNL     1     -11.785  11.464  66.694  1.00  0.00     0.178 A  
HETATM   33  C   UNL     1     -11.608  11.055  68.015  1.00  0.00    -0.326 A  
ENDBRANCH  27  28
ENDBRANCH  26  27
ENDBRANCH  25  26
ENDBRANCH  24  25
ENDBRANCH  15  24
TORSDOF 5
ENDMDL
MODEL      188
REMARK 921   NORMALIZED FREE ENERGY PREDICTED BY IDOCK:   54.58 KCAL/MOL
REMARK 922        TOTAL FREE ENERGY PREDICTED BY IDOCK:   69.07 KCAL/MOL
REMARK 923 INTER-LIGAND FREE ENERGY PREDICTED BY IDOCK:   64.99 KCAL/MOL
REMARK 924 INTRA-LIGAND FREE ENERGY PREDICTED BY IDOCK:    4.07 KCAL/MOL
REMARK 927      BINDING AFFINITY PREDICTED BY RF-SCORE:    0.00 PKD
ROOT
HETATM    1  O   UNL     1     -12.613  12.038  70.690  1.00  0.00    -0.261 OA 
HETATM    2  C   UNL     1     -11.165  12.130  70.836  1.00  0.00     2.065 C  
HETATM    3  H   UNL     1     -12.731  11.498  69.917  1.00  0.00     0.000 HD 
HETATM    4  C   UNL     1     -10.736  12.857  69.473  1.00  0.00     0.269 C  
HETATM    5  C   UNL     1     -10.708  10.650  71.003  1.00  0.00     1.066 A  
HETATM    6  C   UNL     1     -10.971  13.014  72.100  1.00  0.00     7.122 A  
HETATM    7  C   UNL     1     -11.453  14.237  69.345  1.00  0.00    -0.337 C  
HETATM    8  C   UNL     1     -11.659   9.602  71.096  1.00  0.00    -0.456 A  
HETATM    9  C   UNL     1      -9.837  12.960  72.924  1.00  0.00    18.792 A  
HETATM   10  C   UNL     1     -11.299   8.276  71.360  1.00  0.00    -0.309 A  
HETATM   11  C   UNL     1      -9.717  13.781  74.056  1.00  0.00    10.825 A  
HETATM   12  C   UNL     1     -11.201  14.926  68.018  1.00  0.00    -0.308 C  
HETATM   13  C   UNL     1     -10.717  14.688  74.385  1.00  0.00     4.987 A  
HETATM   14  C   UNL     1      -9.963   7.945  71.524  1.00  0.00    -0.214 A  
HETATM   15  N   UNL     1     -10.309  14.056  67.151  1.00  0.00    -0.264 N  
HETATM   16  C   UNL     1     -11.852  14.772  73.592  1.00  0.00    -0.173 A  
HETATM   17  C   UNL     1      -9.360  10.263  71.120  1.00  0.00     2.283 A  
HETATM   18  C   UNL     1     -10.952  12.691  66.928  1.00  0.00    -0.262 C  
HETATM   19  C   UNL     1      -8.978  13.845  67.897  1.00  0.00    -0.191 C  
HETATM   20  C   UNL     1      -8.995   8.932  71.388  1.00  0.00    -0.300 A  
HETATM   21  C   UNL     1     -11.974  13.945  72.474  1.00  0.00     0.787 A  
HETATM   22  C   UNL     1     -11.187  11.999  68.259  1.00  0.00    -0.315 C  
HETATM   23  C   UNL     1      -9.237  13.164  69.263  1.00  0.00     0.868 C  
ENDROOT
BRANCH  15  24
HETATM   24  C   UNL     1     -10.044  14.757  65.785  1.00  0.00    -0.339 C  
BRANCH  24  25
HETATM   25  C   UNL     1      -8.556  15.091  65.550  1.00  0.00     1.926 C  
BRANCH  25  26
HETATM   26  O   UNL     1      -8.361  15.588  64.233  1.00  0.00     6.881 OA 
BRANCH  26  27
HETATM   27  C   UNL     1      -7.373  16.626  64.222  1.00  0.00    11.065 C  
BRANCH  27  28
HETATM   28  C   UNL     1      -7.084  16.998  65.644  1.00  0.00     0.820 A  
HETATM   29  C   UNL     1      -6.292  18.115  65.939  1.00  0.00    -0.293 A  
HETATM   30  C   UNL     1      -5.989  18.435  67.260  1.00  0.00    -0.166 A  
HETATM   31  C   UNL     1      -6.472  17.639  68.299  1.00  0.00    -0.188 A  
HETATM   32  C   UNL     1      -7.258  16.524  68.017  1.00  0.00    -0.152 A  
HETATM   33  C   UNL     1      -7.561  16.201  66.697  1.00  0.00    -0.238 A  
ENDBRANCH  27  28
ENDBRANCH  26  27
ENDBRANCH  25  26
ENDBRANCH  24  25
ENDBRANCH  15  24
TORSDOF 5
ENDMDL
MODEL      189
REMARK 921   NORMALIZED FREE ENERGY PREDICTED BY IDOCK:   56.96 KCAL/MOL
REMARK 922        TOTAL FREE ENERGY PREDICTED BY IDOCK:   72.14 KCAL/MOL
REMARK 923 INTER-LIGAND FREE ENERGY PREDICTED BY IDOCK:   65.51 KCAL/MOL
REMARK 924 INTRA-LIGAND FREE ENERGY PREDICTED BY IDOCK:    6.63 KCAL/MOL
REMARK 927      BINDING AFFINITY PREDICTED BY RF-SCORE:    0.00 PKD
ROOT
HETATM    1  O   UNL     1      -9.242  15.817  65.246  1.00  0.00    -0.216 OA 
HETATM    2  C   UNL     1     -10.494  16.265  65.845  1.00  0.00    -0.345 C  
HETATM    3  H   UNL     1      -9.165  14.912  65.526  1.00  0.00     0.000 HD 
HETATM    4  C   UNL     1     -10.194  16.101  67.412  1.00  0.00    -0.272 C  
HETATM    5  C   UNL     1     -11.564  15.306  65.243  1.00  0.00    -0.139 A  
HETATM    6  C   UNL     1     -10.620  17.745  65.388  1.00  0.00     0.074 A  
HETATM    7  C   UNL     1      -8.951  16.953  67.818  1.00  0.00    -0.225 C  
HETATM    8  C   UNL     1     -11.213  14.358  64.249  1.00  0.00    -0.111 A  
HETATM    9  C   UNL     1     -11.842  18.422  65.261  1.00  0.00     4.044 A  
HETATM   10  C   UNL     1     -12.160  13.558  63.600  1.00  0.00    -0.459 A  
HETATM   11  C   UNL     1     -11.895  19.760  64.841  1.00  0.00     3.526 A  
HETATM   12  C   UNL     1      -8.523  16.746  69.258  1.00  0.00     0.037 C  
HETATM   13  C   UNL     1     -10.731  20.461  64.552  1.00  0.00     2.043 A  
HETATM   14  C   UNL     1     -13.500  13.666  63.937  1.00  0.00     2.452 A  
HETATM   15  N   UNL     1      -9.436  15.730  69.922  1.00  0.00    -0.112 N  
HETATM   16  C   UNL     1      -9.504  19.825  64.668  1.00  0.00     3.528 A  
HETATM   17  C   UNL     1     -12.926  15.345  65.596  1.00  0.00     1.473 A  
HETATM   18  C   UNL     1      -9.403  14.408  69.162  1.00  0.00     0.064 C  
HETATM   19  C   UNL     1     -10.875  16.278  69.872  1.00  0.00    -0.352 C  
HETATM   20  C   UNL     1     -13.881  14.544  64.944  1.00  0.00     2.524 A  
HETATM   21  C   UNL     1      -9.455  18.491  65.075  1.00  0.00     2.872 A  
HETATM   22  C   UNL     1      -9.848  14.619  67.725  1.00  0.00    -0.216 C  
HETATM   23  C   UNL     1     -11.304  16.513  68.403  1.00  0.00    -0.209 C  
ENDROOT
BRANCH  15  24
HETATM   24  C   UNL     1      -9.005  15.511  71.403  1.00  0.00     4.078 C  
BRANCH  24  25
HETATM   25  C   UNL     1     -10.196  15.301  72.360  1.00  0.00     3.062 C  
BRANCH  25  26
HETATM   26  O   UNL     1      -9.982  14.157  73.175  1.00  0.00     5.519 OA 
BRANCH  26  27
HETATM   27  C   UNL     1      -9.175  13.189  72.492  1.00  0.00    18.574 C  
BRANCH  27  28
HETATM   28  C   UNL     1      -7.875  13.845  72.140  1.00  0.00     7.676 A  
HETATM   29  C   UNL     1      -7.398  13.813  70.822  1.00  0.00     2.230 A  
HETATM   30  C   UNL     1      -6.169  14.387  70.504  1.00  0.00    -0.164 A  
HETATM   31  C   UNL     1      -5.404  14.993  71.501  1.00  0.00    -0.038 A  
HETATM   32  C   UNL     1      -5.867  15.027  72.814  1.00  0.00     0.652 A  
HETATM   33  C   UNL     1      -7.095  14.453  73.135  1.00  0.00     3.940 A  
ENDBRANCH  27  28
ENDBRANCH  26  27
ENDBRANCH  25  26
ENDBRANCH  24  25
ENDBRANCH  15  24
TORSDOF 5
ENDMDL
