MODEL        1
REMARK 921   NORMALIZED FREE ENERGY PREDICTED BY IDOCK:   -4.63 KCAL/MOL
REMARK 922        TOTAL FREE ENERGY PREDICTED BY IDOCK:   -7.27 KCAL/MOL
REMARK 923 INTER-LIGAND FREE ENERGY PREDICTED BY IDOCK:   -6.79 KCAL/MOL
REMARK 924 INTRA-LIGAND FREE ENERGY PREDICTED BY IDOCK:   -0.48 KCAL/MOL
REMARK 927      BINDING AFFINITY PREDICTED BY RF-SCORE:    0.00 PKD
ROOT
HETATM    1  O   UNL     1     -13.191  12.262  64.460  1.00  0.00    -0.799 OA 
HETATM    2  C   UNL     1     -12.555  13.423  64.742  1.00  0.00    -0.314 C  
HETATM    3  O   UNL     1     -12.526  14.358  63.959  1.00  0.00    -0.748 OA 
HETATM    4  C   UNL     1     -11.910  13.404  66.110  1.00  0.00    -0.427 C  
ENDROOT
BRANCH   4   5
HETATM    5  C   UNL     1     -11.195  14.719  66.412  1.00  0.00    -0.342 C  
BRANCH   5   6
HETATM    6  C   UNL     1     -11.304  15.096  67.890  1.00  0.00    -0.346 C  
BRANCH   6   7
HETATM    7  C   UNL     1     -11.869  13.932  68.705  1.00  0.00    -0.407 C  
BRANCH   7   8
HETATM    8  C   UNL     1     -12.454  14.408  70.034  1.00  0.00    -0.353 C  
BRANCH   8   9
HETATM    9  C   UNL     1     -12.646  13.237  70.998  1.00  0.00    -0.408 C  
BRANCH   9  10
HETATM   10  C   UNL     1     -13.572  13.613  72.155  1.00  0.00    -0.632 C  
BRANCH  10  11
HETATM   11  C   UNL     1     -14.003  15.078  72.059  1.00  0.00    -0.605 C  
BRANCH  11  12
HETATM   12  C   UNL     1     -13.444  15.886  73.194  1.00  0.00    -0.650 C  
HETATM   13  C   UNL     1     -12.327  15.565  73.861  1.00  0.00    -0.757 C  
ENDBRANCH  11  12
ENDBRANCH  10  11
ENDBRANCH   9  10
ENDBRANCH   8   9
ENDBRANCH   7   8
ENDBRANCH   6   7
ENDBRANCH   5   6
ENDBRANCH   4   5
TORSDOF 8
ENDMDL
MODEL        2
REMARK 921   NORMALIZED FREE ENERGY PREDICTED BY IDOCK:   -4.45 KCAL/MOL
REMARK 922        TOTAL FREE ENERGY PREDICTED BY IDOCK:   -7.01 KCAL/MOL
REMARK 923 INTER-LIGAND FREE ENERGY PREDICTED BY IDOCK:   -6.57 KCAL/MOL
REMARK 924 INTRA-LIGAND FREE ENERGY PREDICTED BY IDOCK:   -0.44 KCAL/MOL
REMARK 927      BINDING AFFINITY PREDICTED BY RF-SCORE:    0.00 PKD
ROOT
HETATM    1  O   UNL     1     -12.635  14.997  63.815  1.00  0.00    -0.776 OA 
HETATM    2  C   UNL     1     -12.501  13.755  64.335  1.00  0.00    -0.270 C  
HETATM    3  O   UNL     1     -12.772  12.750  63.699  1.00  0.00    -0.707 OA 
HETATM    4  C   UNL     1     -11.990  13.783  65.758  1.00  0.00    -0.423 C  
ENDROOT
BRANCH   4   5
HETATM    5  C   UNL     1     -11.846  12.374  66.331  1.00  0.00    -0.421 C  
BRANCH   5   6
HETATM    6  C   UNL     1     -11.761  12.390  67.857  1.00  0.00    -0.421 C  
BRANCH   6   7
HETATM    7  C   UNL     1     -12.020  13.796  68.399  1.00  0.00    -0.395 C  
BRANCH   7   8
HETATM    8  C   UNL     1     -11.679  13.896  69.885  1.00  0.00    -0.358 C  
BRANCH   8   9
HETATM    9  C   UNL     1     -11.940  15.307  70.413  1.00  0.00    -0.374 C  
BRANCH   9  10
HETATM   10  C   UNL     1     -13.302  15.404  71.101  1.00  0.00    -0.580 C  
BRANCH  10  11
HETATM   11  C   UNL     1     -13.445  14.334  72.185  1.00  0.00    -0.524 C  
BRANCH  11  12
HETATM   12  C   UNL     1     -12.745  14.742  73.449  1.00  0.00    -0.588 C  
HETATM   13  C   UNL     1     -12.628  16.011  73.862  1.00  0.00    -0.730 C  
ENDBRANCH  11  12
ENDBRANCH  10  11
ENDBRANCH   9  10
ENDBRANCH   8   9
ENDBRANCH   7   8
ENDBRANCH   6   7
ENDBRANCH   5   6
ENDBRANCH   4   5
TORSDOF 8
ENDMDL
MODEL        3
REMARK 921   NORMALIZED FREE ENERGY PREDICTED BY IDOCK:   -4.42 KCAL/MOL
REMARK 922        TOTAL FREE ENERGY PREDICTED BY IDOCK:   -6.96 KCAL/MOL
REMARK 923 INTER-LIGAND FREE ENERGY PREDICTED BY IDOCK:   -6.41 KCAL/MOL
REMARK 924 INTRA-LIGAND FREE ENERGY PREDICTED BY IDOCK:   -0.55 KCAL/MOL
REMARK 927      BINDING AFFINITY PREDICTED BY RF-SCORE:    0.00 PKD
ROOT
HETATM    1  O   UNL     1     -11.365  16.479  63.754  1.00  0.00    -0.966 OA 
HETATM    2  C   UNL     1     -11.674  15.325  64.390  1.00  0.00    -0.285 C  
HETATM    3  O   UNL     1     -12.569  14.591  64.009  1.00  0.00    -0.797 OA 
HETATM    4  C   UNL     1     -10.790  15.081  65.593  1.00  0.00    -0.356 C  
ENDROOT
BRANCH   4   5
HETATM    5  C   UNL     1     -11.152  13.777  66.300  1.00  0.00    -0.302 C  
BRANCH   5   6
HETATM    6  C   UNL     1     -12.143  14.008  67.440  1.00  0.00    -0.384 C  
BRANCH   6   7
HETATM    7  C   UNL     1     -11.409  14.170  68.772  1.00  0.00    -0.308 C  
BRANCH   7   8
HETATM    8  C   UNL     1     -11.537  15.593  69.314  1.00  0.00    -0.375 C  
BRANCH   8   9
HETATM    9  C   UNL     1     -12.520  15.645  70.485  1.00  0.00    -0.440 C  
BRANCH   9  10
HETATM   10  C   UNL     1     -11.896  15.085  71.763  1.00  0.00    -0.455 C  
BRANCH  10  11
HETATM   11  C   UNL     1     -12.971  14.775  72.807  1.00  0.00    -0.553 C  
BRANCH  11  12
HETATM   12  C   UNL     1     -13.781  13.574  72.416  1.00  0.00    -0.704 C  
HETATM   13  C   UNL     1     -13.250  12.387  72.094  1.00  0.00    -0.491 C  
ENDBRANCH  11  12
ENDBRANCH  10  11
ENDBRANCH   9  10
ENDBRANCH   8   9
ENDBRANCH   7   8
ENDBRANCH   6   7
ENDBRANCH   5   6
ENDBRANCH   4   5
TORSDOF 8
ENDMDL
MODEL        4
REMARK 921   NORMALIZED FREE ENERGY PREDICTED BY IDOCK:   -4.41 KCAL/MOL
REMARK 922        TOTAL FREE ENERGY PREDICTED BY IDOCK:   -6.95 KCAL/MOL
REMARK 923 INTER-LIGAND FREE ENERGY PREDICTED BY IDOCK:   -6.00 KCAL/MOL
REMARK 924 INTRA-LIGAND FREE ENERGY PREDICTED BY IDOCK:   -0.95 KCAL/MOL
REMARK 927      BINDING AFFINITY PREDICTED BY RF-SCORE:    0.00 PKD
ROOT
HETATM    1  O   UNL     1     -12.687  14.773  63.974  1.00  0.00    -0.786 OA 
HETATM    2  C   UNL     1     -11.679  15.589  64.362  1.00  0.00    -0.242 C  
HETATM    3  O   UNL     1     -11.547  16.717  63.918  1.00  0.00    -1.204 OA 
HETATM    4  C   UNL     1     -10.775  14.934  65.382  1.00  0.00    -0.391 C  
ENDROOT
BRANCH   4   5
HETATM    5  C   UNL     1      -9.643  15.867  65.809  1.00  0.00    -0.339 C  
BRANCH   5   6
HETATM    6  C   UNL     1      -8.647  15.164  66.731  1.00  0.00    -0.297 C  
BRANCH   6   7
HETATM    7  C   UNL     1      -7.575  16.141  67.215  1.00  0.00    -0.217 C  
BRANCH   7   8
HETATM    8  C   UNL     1      -7.992  16.836  68.510  1.00  0.00    -0.235 C  
BRANCH   8   9
HETATM    9  C   UNL     1      -7.560  18.302  68.508  1.00  0.00    -0.313 C  
BRANCH   9  10
HETATM   10  C   UNL     1      -8.763  19.239  68.620  1.00  0.00    -0.402 C  
BRANCH  10  11
HETATM   11  C   UNL     1     -10.069  18.490  68.348  1.00  0.00    -0.423 C  
BRANCH  11  12
HETATM   12  C   UNL     1     -10.894  19.193  67.310  1.00  0.00    -0.529 C  
HETATM   13  C   UNL     1     -10.419  19.596  66.124  1.00  0.00    -0.624 C  
ENDBRANCH  11  12
ENDBRANCH  10  11
ENDBRANCH   9  10
ENDBRANCH   8   9
ENDBRANCH   7   8
ENDBRANCH   6   7
ENDBRANCH   5   6
ENDBRANCH   4   5
TORSDOF 8
ENDMDL
MODEL        5
REMARK 921   NORMALIZED FREE ENERGY PREDICTED BY IDOCK:   -4.32 KCAL/MOL
REMARK 922        TOTAL FREE ENERGY PREDICTED BY IDOCK:   -6.81 KCAL/MOL
REMARK 923 INTER-LIGAND FREE ENERGY PREDICTED BY IDOCK:   -6.41 KCAL/MOL
REMARK 924 INTRA-LIGAND FREE ENERGY PREDICTED BY IDOCK:   -0.40 KCAL/MOL
REMARK 927      BINDING AFFINITY PREDICTED BY RF-SCORE:    0.00 PKD
ROOT
HETATM    1  O   UNL     1     -12.586  14.110  63.725  1.00  0.00    -0.804 OA 
HETATM    2  C   UNL     1     -12.022  14.204  64.952  1.00  0.00    -0.417 C  
HETATM    3  O   UNL     1     -11.424  15.202  65.318  1.00  0.00    -0.334 OA 
HETATM    4  C   UNL     1     -12.225  12.950  65.773  1.00  0.00    -0.498 C  
ENDROOT
BRANCH   4   5
HETATM    5  C   UNL     1     -11.580  13.072  67.152  1.00  0.00    -0.411 C  
BRANCH   5   6
HETATM    6  C   UNL     1     -11.806  11.818  67.996  1.00  0.00    -0.304 C  
BRANCH   6   7
HETATM    7  C   UNL     1     -11.513  12.097  69.471  1.00  0.00    -0.334 C  
BRANCH   7   8
HETATM    8  C   UNL     1     -12.318  11.177  70.387  1.00  0.00    -0.430 C  
BRANCH   8   9
HETATM    9  C   UNL     1     -12.855  11.943  71.597  1.00  0.00    -0.417 C  
BRANCH   9  10
HETATM   10  C   UNL     1     -12.873  13.450  71.341  1.00  0.00    -0.420 C  
BRANCH  10  11
HETATM   11  C   UNL     1     -13.879  14.150  72.257  1.00  0.00    -0.643 C  
BRANCH  11  12
HETATM   12  C   UNL     1     -13.295  15.397  72.855  1.00  0.00    -0.636 C  
HETATM   13  C   UNL     1     -12.499  15.408  73.932  1.00  0.00    -0.763 C  
ENDBRANCH  11  12
ENDBRANCH  10  11
ENDBRANCH   9  10
ENDBRANCH   8   9
ENDBRANCH   7   8
ENDBRANCH   6   7
ENDBRANCH   5   6
ENDBRANCH   4   5
TORSDOF 8
ENDMDL
MODEL        6
REMARK 921   NORMALIZED FREE ENERGY PREDICTED BY IDOCK:   -4.30 KCAL/MOL
REMARK 922        TOTAL FREE ENERGY PREDICTED BY IDOCK:   -6.79 KCAL/MOL
REMARK 923 INTER-LIGAND FREE ENERGY PREDICTED BY IDOCK:   -6.26 KCAL/MOL
REMARK 924 INTRA-LIGAND FREE ENERGY PREDICTED BY IDOCK:   -0.52 KCAL/MOL
REMARK 927      BINDING AFFINITY PREDICTED BY RF-SCORE:    0.00 PKD
ROOT
HETATM    1  O   UNL     1     -11.429  16.908  64.119  1.00  0.00    -1.174 OA 
HETATM    2  C   UNL     1     -10.866  15.942  64.881  1.00  0.00    -0.400 C  
HETATM    3  O   UNL     1      -9.818  16.114  65.481  1.00  0.00    -0.458 OA 
HETATM    4  C   UNL     1     -11.681  14.668  64.884  1.00  0.00    -0.403 C  
ENDROOT
BRANCH   4   5
HETATM    5  C   UNL     1     -11.031  13.588  65.747  1.00  0.00    -0.285 C  
BRANCH   5   6
HETATM    6  C   UNL     1     -12.050  12.895  66.650  1.00  0.00    -0.360 C  
BRANCH   6   7
HETATM    7  C   UNL     1     -11.607  12.954  68.112  1.00  0.00    -0.378 C  
BRANCH   7   8
HETATM    8  C   UNL     1     -10.971  14.301  68.452  1.00  0.00    -0.267 C  
BRANCH   8   9
HETATM    9  C   UNL     1     -11.976  15.220  69.147  1.00  0.00    -0.308 C  
BRANCH   9  10
HETATM   10  C   UNL     1     -12.167  14.833  70.613  1.00  0.00    -0.385 C  
BRANCH  10  11
HETATM   11  C   UNL     1     -13.550  15.252  71.116  1.00  0.00    -0.540 C  
BRANCH  11  12
HETATM   12  C   UNL     1     -13.503  15.665  72.558  1.00  0.00    -0.630 C  
HETATM   13  C   UNL     1     -12.663  15.140  73.460  1.00  0.00    -0.678 C  
ENDBRANCH  11  12
ENDBRANCH  10  11
ENDBRANCH   9  10
ENDBRANCH   8   9
ENDBRANCH   7   8
ENDBRANCH   6   7
ENDBRANCH   5   6
ENDBRANCH   4   5
TORSDOF 8
ENDMDL
MODEL        7
REMARK 921   NORMALIZED FREE ENERGY PREDICTED BY IDOCK:   -4.22 KCAL/MOL
REMARK 922        TOTAL FREE ENERGY PREDICTED BY IDOCK:   -6.68 KCAL/MOL
REMARK 923 INTER-LIGAND FREE ENERGY PREDICTED BY IDOCK:   -6.30 KCAL/MOL
REMARK 924 INTRA-LIGAND FREE ENERGY PREDICTED BY IDOCK:   -0.38 KCAL/MOL
REMARK 927      BINDING AFFINITY PREDICTED BY RF-SCORE:    0.00 PKD
ROOT
HETATM    1  O   UNL     1     -10.771  17.114  64.947  1.00  0.00    -0.737 OA 
HETATM    2  C   UNL     1     -11.329  15.978  64.470  1.00  0.00    -0.295 C  
HETATM    3  O   UNL     1     -12.285  15.990  63.713  1.00  0.00    -0.895 OA 
HETATM    4  C   UNL     1     -10.633  14.738  64.985  1.00  0.00    -0.452 C  
ENDROOT
BRANCH   4   5
HETATM    5  C   UNL     1     -11.276  13.465  64.439  1.00  0.00    -0.408 C  
BRANCH   5   6
HETATM    6  C   UNL     1     -12.314  12.895  65.406  1.00  0.00    -0.538 C  
BRANCH   6   7
HETATM    7  C   UNL     1     -11.634  12.114  66.531  1.00  0.00    -0.425 C  
BRANCH   7   8
HETATM    8  C   UNL     1     -11.879  12.763  67.893  1.00  0.00    -0.392 C  
BRANCH   8   9
HETATM    9  C   UNL     1     -11.429  11.842  69.027  1.00  0.00    -0.358 C  
BRANCH   9  10
HETATM   10  C   UNL     1     -12.138  12.181  70.338  1.00  0.00    -0.395 C  
BRANCH  10  11
HETATM   11  C   UNL     1     -12.670  10.918  71.017  1.00  0.00    -0.505 C  
BRANCH  11  12
HETATM   12  C   UNL     1     -11.621   9.846  71.073  1.00  0.00    -0.470 C  
HETATM   13  C   UNL     1     -11.680   8.784  71.886  1.00  0.00    -0.429 C  
ENDBRANCH  11  12
ENDBRANCH  10  11
ENDBRANCH   9  10
ENDBRANCH   8   9
ENDBRANCH   7   8
ENDBRANCH   6   7
ENDBRANCH   5   6
ENDBRANCH   4   5
TORSDOF 8
ENDMDL
MODEL        8
REMARK 921   NORMALIZED FREE ENERGY PREDICTED BY IDOCK:   -4.22 KCAL/MOL
REMARK 922        TOTAL FREE ENERGY PREDICTED BY IDOCK:   -6.67 KCAL/MOL
REMARK 923 INTER-LIGAND FREE ENERGY PREDICTED BY IDOCK:   -6.36 KCAL/MOL
REMARK 924 INTRA-LIGAND FREE ENERGY PREDICTED BY IDOCK:   -0.32 KCAL/MOL
REMARK 927      BINDING AFFINITY PREDICTED BY RF-SCORE:    0.00 PKD
ROOT
HETATM    1  O   UNL     1     -13.036  12.167  63.561  1.00  0.00    -0.794 OA 
HETATM    2  C   UNL     1     -12.330  13.295  63.807  1.00  0.00    -0.367 C  
HETATM    3  O   UNL     1     -12.612  14.365  63.294  1.00  0.00    -0.655 OA 
HETATM    4  C   UNL     1     -11.186  13.057  64.768  1.00  0.00    -0.344 C  
ENDROOT
BRANCH   4   5
HETATM    5  C   UNL     1     -10.399  14.339  65.033  1.00  0.00    -0.448 C  
BRANCH   5   6
HETATM    6  C   UNL     1     -10.242  14.607  66.529  1.00  0.00    -0.282 C  
BRANCH   6   7
HETATM    7  C   UNL     1     -11.606  14.628  67.222  1.00  0.00    -0.404 C  
BRANCH   7   8
HETATM    8  C   UNL     1     -11.485  14.302  68.710  1.00  0.00    -0.327 C  
BRANCH   8   9
HETATM    9  C   UNL     1     -11.651  15.561  69.561  1.00  0.00    -0.361 C  
BRANCH   9  10
HETATM   10  C   UNL     1     -11.612  15.236  71.053  1.00  0.00    -0.399 C  
BRANCH  10  11
HETATM   11  C   UNL     1     -12.937  15.594  71.728  1.00  0.00    -0.541 C  
BRANCH  11  12
HETATM   12  C   UNL     1     -13.021  15.010  73.109  1.00  0.00    -0.631 C  
HETATM   13  C   UNL     1     -12.489  15.583  74.196  1.00  0.00    -0.805 C  
ENDBRANCH  11  12
ENDBRANCH  10  11
ENDBRANCH   9  10
ENDBRANCH   8   9
ENDBRANCH   7   8
ENDBRANCH   6   7
ENDBRANCH   5   6
ENDBRANCH   4   5
TORSDOF 8
ENDMDL
MODEL        9
REMARK 921   NORMALIZED FREE ENERGY PREDICTED BY IDOCK:   -4.20 KCAL/MOL
REMARK 922        TOTAL FREE ENERGY PREDICTED BY IDOCK:   -6.64 KCAL/MOL
REMARK 923 INTER-LIGAND FREE ENERGY PREDICTED BY IDOCK:   -6.08 KCAL/MOL
REMARK 924 INTRA-LIGAND FREE ENERGY PREDICTED BY IDOCK:   -0.56 KCAL/MOL
REMARK 927      BINDING AFFINITY PREDICTED BY RF-SCORE:    0.00 PKD
ROOT
HETATM    1  O   UNL     1     -12.745  16.208  74.566  1.00  0.00    -0.707 OA 
HETATM    2  C   UNL     1     -12.601  16.118  73.223  1.00  0.00    -0.519 C  
HETATM    3  O   UNL     1     -11.664  16.628  72.632  1.00  0.00    -0.486 OA 
HETATM    4  C   UNL     1     -13.720  15.330  72.579  1.00  0.00    -0.627 C  
ENDROOT
BRANCH   4   5
HETATM    5  C   UNL     1     -13.544  15.240  71.065  1.00  0.00    -0.486 C  
BRANCH   5   6
HETATM    6  C   UNL     1     -12.753  13.997  70.659  1.00  0.00    -0.373 C  
BRANCH   6   7
HETATM    7  C   UNL     1     -11.782  14.320  69.523  1.00  0.00    -0.366 C  
BRANCH   7   8
HETATM    8  C   UNL     1     -11.769  15.815  69.203  1.00  0.00    -0.398 C  
BRANCH   8   9
HETATM    9  C   UNL     1     -10.387  16.417  69.461  1.00  0.00    -0.278 C  
BRANCH   9  10
HETATM   10  C   UNL     1      -9.963  17.347  68.325  1.00  0.00    -0.320 C  
BRANCH  10  11
HETATM   11  C   UNL     1      -9.852  18.793  68.813  1.00  0.00    -0.434 C  
BRANCH  11  12
HETATM   12  C   UNL     1     -10.000  19.764  67.677  1.00  0.00    -0.535 C  
HETATM   13  C   UNL     1     -10.751  19.535  66.592  1.00  0.00    -0.552 C  
ENDBRANCH  11  12
ENDBRANCH  10  11
ENDBRANCH   9  10
ENDBRANCH   8   9
ENDBRANCH   7   8
ENDBRANCH   6   7
ENDBRANCH   5   6
ENDBRANCH   4   5
TORSDOF 8
ENDMDL
MODEL       10
REMARK 921   NORMALIZED FREE ENERGY PREDICTED BY IDOCK:   -4.17 KCAL/MOL
REMARK 922        TOTAL FREE ENERGY PREDICTED BY IDOCK:   -6.60 KCAL/MOL
REMARK 923 INTER-LIGAND FREE ENERGY PREDICTED BY IDOCK:   -5.67 KCAL/MOL
REMARK 924 INTRA-LIGAND FREE ENERGY PREDICTED BY IDOCK:   -0.93 KCAL/MOL
REMARK 927      BINDING AFFINITY PREDICTED BY RF-SCORE:    0.00 PKD
ROOT
HETATM    1  O   UNL     1      -9.853  16.597  65.523  1.00  0.00    -0.549 OA 
HETATM    2  C   UNL     1     -10.922  16.138  64.831  1.00  0.00    -0.349 C  
HETATM    3  O   UNL     1     -11.475  16.803  63.971  1.00  0.00    -1.198 OA 
HETATM    4  C   UNL     1     -11.322  14.743  65.255  1.00  0.00    -0.363 C  
ENDROOT
BRANCH   4   5
HETATM    5  C   UNL     1     -12.531  14.241  64.467  1.00  0.00    -0.357 C  
BRANCH   5   6
HETATM    6  C   UNL     1     -12.123  13.254  63.374  1.00  0.00    -0.508 C  
BRANCH   6   7
HETATM    7  C   UNL     1     -12.113  11.823  63.914  1.00  0.00    -0.414 C  
BRANCH   7   8
HETATM    8  C   UNL     1     -10.721  11.199  63.824  1.00  0.00    -0.399 C  
BRANCH   8   9
HETATM    9  C   UNL     1     -10.327  10.546  65.149  1.00  0.00    -0.310 C  
BRANCH   9  10
HETATM   10  C   UNL     1      -9.414  11.456  65.970  1.00  0.00    -0.245 C  
BRANCH  10  11
HETATM   11  C   UNL     1     -10.149  12.012  67.192  1.00  0.00    -0.217 C  
BRANCH  11  12
HETATM   12  C   UNL     1     -11.155  11.028  67.716  1.00  0.00    -0.356 C  
HETATM   13  C   UNL     1     -11.806  11.172  68.878  1.00  0.00    -0.406 C  
ENDBRANCH  11  12
ENDBRANCH  10  11
ENDBRANCH   9  10
ENDBRANCH   8   9
ENDBRANCH   7   8
ENDBRANCH   6   7
ENDBRANCH   5   6
ENDBRANCH   4   5
TORSDOF 8
ENDMDL
MODEL       11
REMARK 921   NORMALIZED FREE ENERGY PREDICTED BY IDOCK:   -4.16 KCAL/MOL
REMARK 922        TOTAL FREE ENERGY PREDICTED BY IDOCK:   -6.59 KCAL/MOL
REMARK 923 INTER-LIGAND FREE ENERGY PREDICTED BY IDOCK:   -5.43 KCAL/MOL
REMARK 924 INTRA-LIGAND FREE ENERGY PREDICTED BY IDOCK:   -1.16 KCAL/MOL
REMARK 927      BINDING AFFINITY PREDICTED BY RF-SCORE:    0.00 PKD
ROOT
HETATM    1  O   UNL     1     -12.590  14.072  63.431  1.00  0.00    -0.845 OA 
HETATM    2  C   UNL     1     -12.242  12.773  63.587  1.00  0.00    -0.512 C  
HETATM    3  O   UNL     1     -13.052  11.866  63.496  1.00  0.00    -0.715 OA 
HETATM    4  C   UNL     1     -10.767  12.607  63.878  1.00  0.00    -0.465 C  
ENDROOT
BRANCH   4   5
HETATM    5  C   UNL     1     -10.392  11.137  64.053  1.00  0.00    -0.437 C  
BRANCH   5   6
HETATM    6  C   UNL     1      -9.494  10.923  65.271  1.00  0.00    -0.257 C  
BRANCH   6   7
HETATM    7  C   UNL     1      -9.791   9.576  65.933  1.00  0.00    -0.360 C  
BRANCH   7   8
HETATM    8  C   UNL     1     -10.642   9.744  67.191  1.00  0.00    -0.298 C  
BRANCH   8   9
HETATM    9  C   UNL     1     -10.443  11.131  67.805  1.00  0.00    -0.225 C  
BRANCH   9  10
HETATM   10  C   UNL     1     -11.772  11.870  67.958  1.00  0.00    -0.382 C  
BRANCH  10  11
HETATM   11  C   UNL     1     -11.662  13.308  67.446  1.00  0.00    -0.419 C  
BRANCH  11  12
HETATM   12  C   UNL     1     -10.302  13.881  67.721  1.00  0.00    -0.240 C  
HETATM   13  C   UNL     1      -9.562  14.521  66.806  1.00  0.00    -0.274 C  
ENDBRANCH  11  12
ENDBRANCH  10  11
ENDBRANCH   9  10
ENDBRANCH   8   9
ENDBRANCH   7   8
ENDBRANCH   6   7
ENDBRANCH   5   6
ENDBRANCH   4   5
TORSDOF 8
ENDMDL
MODEL       12
REMARK 921   NORMALIZED FREE ENERGY PREDICTED BY IDOCK:   -4.15 KCAL/MOL
REMARK 922        TOTAL FREE ENERGY PREDICTED BY IDOCK:   -6.57 KCAL/MOL
REMARK 923 INTER-LIGAND FREE ENERGY PREDICTED BY IDOCK:   -6.14 KCAL/MOL
REMARK 924 INTRA-LIGAND FREE ENERGY PREDICTED BY IDOCK:   -0.43 KCAL/MOL
REMARK 927      BINDING AFFINITY PREDICTED BY RF-SCORE:    0.00 PKD
ROOT
HETATM    1  O   UNL     1     -13.386  11.640  72.165  1.00  0.00    -0.491 OA 
HETATM    2  C   UNL     1     -13.447  12.976  71.957  1.00  0.00    -0.492 C  
HETATM    3  O   UNL     1     -14.180  13.704  72.607  1.00  0.00    -0.735 OA 
HETATM    4  C   UNL     1     -12.520  13.426  70.851  1.00  0.00    -0.439 C  
ENDROOT
BRANCH   4   5
HETATM    5  C   UNL     1     -12.602  14.935  70.628  1.00  0.00    -0.420 C  
BRANCH   5   6
HETATM    6  C   UNL     1     -12.066  15.334  69.253  1.00  0.00    -0.280 C  
BRANCH   6   7
HETATM    7  C   UNL     1     -11.977  14.116  68.332  1.00  0.00    -0.366 C  
BRANCH   7   8
HETATM    8  C   UNL     1     -11.514  14.505  66.929  1.00  0.00    -0.375 C  
BRANCH   8   9
HETATM    9  C   UNL     1     -12.511  14.028  65.872  1.00  0.00    -0.513 C  
BRANCH   9  10
HETATM   10  C   UNL     1     -11.961  14.221  64.459  1.00  0.00    -0.478 C  
BRANCH  10  11
HETATM   11  C   UNL     1     -12.068  12.928  63.648  1.00  0.00    -0.611 C  
BRANCH  11  12
HETATM   12  C   UNL     1     -10.764  12.185  63.633  1.00  0.00    -0.518 C  
HETATM   13  C   UNL     1     -10.521  11.087  64.362  1.00  0.00    -0.422 C  
ENDBRANCH  11  12
ENDBRANCH  10  11
ENDBRANCH   9  10
ENDBRANCH   8   9
ENDBRANCH   7   8
ENDBRANCH   6   7
ENDBRANCH   5   6
ENDBRANCH   4   5
TORSDOF 8
ENDMDL
MODEL       13
REMARK 921   NORMALIZED FREE ENERGY PREDICTED BY IDOCK:   -4.15 KCAL/MOL
REMARK 922        TOTAL FREE ENERGY PREDICTED BY IDOCK:   -6.56 KCAL/MOL
REMARK 923 INTER-LIGAND FREE ENERGY PREDICTED BY IDOCK:   -6.14 KCAL/MOL
REMARK 924 INTRA-LIGAND FREE ENERGY PREDICTED BY IDOCK:   -0.43 KCAL/MOL
REMARK 927      BINDING AFFINITY PREDICTED BY RF-SCORE:    0.00 PKD
ROOT
HETATM    1  O   UNL     1     -12.723  16.310  74.136  1.00  0.00    -0.679 OA 
HETATM    2  C   UNL     1     -13.115  15.930  72.898  1.00  0.00    -0.507 C  
HETATM    3  O   UNL     1     -14.263  15.597  72.652  1.00  0.00    -0.546 OA 
HETATM    4  C   UNL     1     -11.980  15.973  71.900  1.00  0.00    -0.606 C  
ENDROOT
BRANCH   4   5
HETATM    5  C   UNL     1     -12.439  15.540  70.509  1.00  0.00    -0.472 C  
BRANCH   5   6
HETATM    6  C   UNL     1     -11.332  14.809  69.749  1.00  0.00    -0.319 C  
BRANCH   6   7
HETATM    7  C   UNL     1     -11.774  13.393  69.379  1.00  0.00    -0.382 C  
BRANCH   7   8
HETATM    8  C   UNL     1     -12.406  12.673  70.569  1.00  0.00    -0.350 C  
BRANCH   8   9
HETATM    9  C   UNL     1     -12.216  11.160  70.456  1.00  0.00    -0.475 C  
BRANCH   9  10
HETATM   10  C   UNL     1     -12.948  10.420  71.576  1.00  0.00    -0.562 C  
BRANCH  10  11
HETATM   11  C   UNL     1     -12.390   9.007  71.756  1.00  0.00    -0.438 C  
BRANCH  11  12
HETATM   12  C   UNL     1     -10.907   8.973  71.526  1.00  0.00    -0.416 C  
HETATM   13  C   UNL     1     -10.038   8.364  72.343  1.00  0.00    -0.386 C  
ENDBRANCH  11  12
ENDBRANCH  10  11
ENDBRANCH   9  10
ENDBRANCH   8   9
ENDBRANCH   7   8
ENDBRANCH   6   7
ENDBRANCH   5   6
ENDBRANCH   4   5
TORSDOF 8
ENDMDL
MODEL       14
REMARK 921   NORMALIZED FREE ENERGY PREDICTED BY IDOCK:   -4.14 KCAL/MOL
REMARK 922        TOTAL FREE ENERGY PREDICTED BY IDOCK:   -6.55 KCAL/MOL
REMARK 923 INTER-LIGAND FREE ENERGY PREDICTED BY IDOCK:   -5.55 KCAL/MOL
REMARK 924 INTRA-LIGAND FREE ENERGY PREDICTED BY IDOCK:   -1.00 KCAL/MOL
REMARK 927      BINDING AFFINITY PREDICTED BY RF-SCORE:    0.00 PKD
ROOT
HETATM    1  O   UNL     1     -11.819   8.466  72.253  1.00  0.00    -0.348 OA 
HETATM    2  C   UNL     1     -12.355   9.620  71.791  1.00  0.00    -0.392 C  
HETATM    3  O   UNL     1     -13.432  10.040  72.181  1.00  0.00    -0.428 OA 
HETATM    4  C   UNL     1     -11.470  10.290  70.763  1.00  0.00    -0.438 C  
ENDROOT
BRANCH   4   5
HETATM    5  C   UNL     1     -12.090  11.589  70.251  1.00  0.00    -0.444 C  
BRANCH   5   6
HETATM    6  C   UNL     1     -11.635  11.910  68.828  1.00  0.00    -0.366 C  
BRANCH   6   7
HETATM    7  C   UNL     1     -11.928  13.371  68.482  1.00  0.00    -0.363 C  
BRANCH   7   8
HETATM    8  C   UNL     1     -10.967  14.320  69.197  1.00  0.00    -0.286 C  
BRANCH   8   9
HETATM    9  C   UNL     1     -11.635  15.668  69.473  1.00  0.00    -0.366 C  
BRANCH   9  10
HETATM   10  C   UNL     1     -12.634  15.570  70.626  1.00  0.00    -0.493 C  
BRANCH  10  11
HETATM   11  C   UNL     1     -11.963  15.031  71.890  1.00  0.00    -0.454 C  
BRANCH  11  12
HETATM   12  C   UNL     1     -12.924  14.227  72.717  1.00  0.00    -0.545 C  
HETATM   13  C   UNL     1     -14.129  13.830  72.287  1.00  0.00    -0.627 C  
ENDBRANCH  11  12
ENDBRANCH  10  11
ENDBRANCH   9  10
ENDBRANCH   8   9
ENDBRANCH   7   8
ENDBRANCH   6   7
ENDBRANCH   5   6
ENDBRANCH   4   5
TORSDOF 8
ENDMDL
MODEL       15
REMARK 921   NORMALIZED FREE ENERGY PREDICTED BY IDOCK:   -4.12 KCAL/MOL
REMARK 922        TOTAL FREE ENERGY PREDICTED BY IDOCK:   -6.53 KCAL/MOL
REMARK 923 INTER-LIGAND FREE ENERGY PREDICTED BY IDOCK:   -5.96 KCAL/MOL
REMARK 924 INTRA-LIGAND FREE ENERGY PREDICTED BY IDOCK:   -0.58 KCAL/MOL
REMARK 927      BINDING AFFINITY PREDICTED BY RF-SCORE:    0.00 PKD
ROOT
HETATM    1  O   UNL     1     -13.815  15.648  72.668  1.00  0.00    -0.552 OA 
HETATM    2  C   UNL     1     -13.611  14.385  72.225  1.00  0.00    -0.454 C  
HETATM    3  O   UNL     1     -14.197  13.426  72.699  1.00  0.00    -0.747 OA 
HETATM    4  C   UNL     1     -12.595  14.328  71.107  1.00  0.00    -0.432 C  
ENDROOT
BRANCH   4   5
HETATM    5  C   UNL     1     -12.375  12.897  70.620  1.00  0.00    -0.385 C  
BRANCH   5   6
HETATM    6  C   UNL     1     -11.710  12.863  69.244  1.00  0.00    -0.378 C  
BRANCH   6   7
HETATM    7  C   UNL     1     -11.698  14.257  68.614  1.00  0.00    -0.380 C  
BRANCH   7   8
HETATM    8  C   UNL     1     -12.051  14.205  67.128  1.00  0.00    -0.432 C  
BRANCH   8   9
HETATM    9  C   UNL     1     -11.075  15.046  66.305  1.00  0.00    -0.334 C  
BRANCH   9  10
HETATM   10  C   UNL     1     -10.451  14.230  65.173  1.00  0.00    -0.432 C  
BRANCH  10  11
HETATM   11  C   UNL     1     -10.714  12.735  65.366  1.00  0.00    -0.309 C  
BRANCH  11  12
HETATM   12  C   UNL     1     -11.136  12.086  64.080  1.00  0.00    -0.452 C  
HETATM   13  C   UNL     1     -12.387  12.118  63.602  1.00  0.00    -0.673 C  
ENDBRANCH  11  12
ENDBRANCH  10  11
ENDBRANCH   9  10
ENDBRANCH   8   9
ENDBRANCH   7   8
ENDBRANCH   6   7
ENDBRANCH   5   6
ENDBRANCH   4   5
TORSDOF 8
ENDMDL
MODEL       16
REMARK 921   NORMALIZED FREE ENERGY PREDICTED BY IDOCK:   -4.12 KCAL/MOL
REMARK 922        TOTAL FREE ENERGY PREDICTED BY IDOCK:   -6.53 KCAL/MOL
REMARK 923 INTER-LIGAND FREE ENERGY PREDICTED BY IDOCK:   -6.14 KCAL/MOL
REMARK 924 INTRA-LIGAND FREE ENERGY PREDICTED BY IDOCK:   -0.39 KCAL/MOL
REMARK 927      BINDING AFFINITY PREDICTED BY RF-SCORE:    0.00 PKD
ROOT
HETATM    1  O   UNL     1     -13.329  12.490  64.708  1.00  0.00    -0.773 OA 
HETATM    2  C   UNL     1     -12.128  12.796  65.250  1.00  0.00    -0.457 C  
HETATM    3  O   UNL     1     -11.200  12.005  65.267  1.00  0.00    -0.317 OA 
HETATM    4  C   UNL     1     -12.094  14.201  65.811  1.00  0.00    -0.433 C  
ENDROOT
BRANCH   4   5
HETATM    5  C   UNL     1     -10.733  14.530  66.420  1.00  0.00    -0.309 C  
BRANCH   5   6
HETATM    6  C   UNL     1     -10.774  15.823  67.233  1.00  0.00    -0.313 C  
BRANCH   6   7
HETATM    7  C   UNL     1     -11.604  15.637  68.505  1.00  0.00    -0.378 C  
BRANCH   7   8
HETATM    8  C   UNL     1     -10.916  16.257  69.720  1.00  0.00    -0.354 C  
BRANCH   8   9
HETATM    9  C   UNL     1     -11.091  15.375  70.957  1.00  0.00    -0.377 C  
BRANCH   9  10
HETATM   10  C   UNL     1     -12.097  15.979  71.936  1.00  0.00    -0.590 C  
BRANCH  10  11
HETATM   11  C   UNL     1     -13.519  15.513  71.619  1.00  0.00    -0.584 C  
BRANCH  11  12
HETATM   12  C   UNL     1     -13.886  14.299  72.421  1.00  0.00    -0.619 C  
HETATM   13  C   UNL     1     -13.506  13.053  72.109  1.00  0.00    -0.638 C  
ENDBRANCH  11  12
ENDBRANCH  10  11
ENDBRANCH   9  10
ENDBRANCH   8   9
ENDBRANCH   7   8
ENDBRANCH   6   7
ENDBRANCH   5   6
ENDBRANCH   4   5
TORSDOF 8
ENDMDL
MODEL       17
REMARK 921   NORMALIZED FREE ENERGY PREDICTED BY IDOCK:   -4.11 KCAL/MOL
REMARK 922        TOTAL FREE ENERGY PREDICTED BY IDOCK:   -6.52 KCAL/MOL
REMARK 923 INTER-LIGAND FREE ENERGY PREDICTED BY IDOCK:   -6.01 KCAL/MOL
REMARK 924 INTRA-LIGAND FREE ENERGY PREDICTED BY IDOCK:   -0.51 KCAL/MOL
REMARK 927      BINDING AFFINITY PREDICTED BY RF-SCORE:    0.00 PKD
ROOT
HETATM    1  O   UNL     1     -11.501  16.385  64.043  1.00  0.00    -1.048 OA 
HETATM    2  C   UNL     1     -11.963  15.162  64.394  1.00  0.00    -0.310 C  
HETATM    3  O   UNL     1     -12.758  14.544  63.706  1.00  0.00    -0.780 OA 
HETATM    4  C   UNL     1     -11.380  14.685  65.706  1.00  0.00    -0.340 C  
ENDROOT
BRANCH   4   5
HETATM    5  C   UNL     1     -11.913  13.305  66.088  1.00  0.00    -0.470 C  
BRANCH   5   6
HETATM    6  C   UNL     1     -11.610  12.966  67.547  1.00  0.00    -0.409 C  
BRANCH   6   7
HETATM    7  C   UNL     1     -10.849  11.644  67.649  1.00  0.00    -0.273 C  
BRANCH   7   8
HETATM    8  C   UNL     1     -11.568  10.651  68.561  1.00  0.00    -0.279 C  
BRANCH   8   9
HETATM    9  C   UNL     1     -10.723  10.330  69.794  1.00  0.00    -0.328 C  
BRANCH   9  10
HETATM   10  C   UNL     1     -11.575  10.304  71.063  1.00  0.00    -0.430 C  
BRANCH  10  11
HETATM   11  C   UNL     1     -12.859  11.116  70.879  1.00  0.00    -0.374 C  
BRANCH  11  12
HETATM   12  C   UNL     1     -12.722  12.492  71.462  1.00  0.00    -0.325 C  
HETATM   13  C   UNL     1     -13.650  13.074  72.232  1.00  0.00    -0.643 C  
ENDBRANCH  11  12
ENDBRANCH  10  11
ENDBRANCH   9  10
ENDBRANCH   8   9
ENDBRANCH   7   8
ENDBRANCH   6   7
ENDBRANCH   5   6
ENDBRANCH   4   5
TORSDOF 8
ENDMDL
MODEL       18
REMARK 921   NORMALIZED FREE ENERGY PREDICTED BY IDOCK:   -4.08 KCAL/MOL
REMARK 922        TOTAL FREE ENERGY PREDICTED BY IDOCK:   -6.47 KCAL/MOL
REMARK 923 INTER-LIGAND FREE ENERGY PREDICTED BY IDOCK:   -5.78 KCAL/MOL
REMARK 924 INTRA-LIGAND FREE ENERGY PREDICTED BY IDOCK:   -0.69 KCAL/MOL
REMARK 927      BINDING AFFINITY PREDICTED BY RF-SCORE:    0.00 PKD
ROOT
HETATM    1  O   UNL     1     -13.011  11.858  63.152  1.00  0.00    -0.640 OA 
HETATM    2  C   UNL     1     -12.653  12.957  63.857  1.00  0.00    -0.247 C  
HETATM    3  O   UNL     1     -12.585  14.064  63.349  1.00  0.00    -0.845 OA 
HETATM    4  C   UNL     1     -12.360  12.637  65.306  1.00  0.00    -0.528 C  
ENDROOT
BRANCH   4   5
HETATM    5  C   UNL     1     -11.956  13.886  66.087  1.00  0.00    -0.449 C  
BRANCH   5   6
HETATM    6  C   UNL     1     -10.659  13.672  66.866  1.00  0.00    -0.271 C  
BRANCH   6   7
HETATM    7  C   UNL     1      -9.480  14.326  66.143  1.00  0.00    -0.250 C  
BRANCH   7   8
HETATM    8  C   UNL     1      -9.741  15.806  65.869  1.00  0.00    -0.389 C  
BRANCH   8   9
HETATM    9  C   UNL     1      -8.511  16.650  66.206  1.00  0.00    -0.355 C  
BRANCH   9  10
HETATM   10  C   UNL     1      -8.792  17.609  67.363  1.00  0.00    -0.235 C  
BRANCH  10  11
HETATM   11  C   UNL     1     -10.296  17.750  67.606  1.00  0.00    -0.375 C  
BRANCH  11  12
HETATM   12  C   UNL     1     -10.770  19.140  67.292  1.00  0.00    -0.585 C  
HETATM   13  C   UNL     1     -10.222  19.923  66.355  1.00  0.00    -0.617 C  
ENDBRANCH  11  12
ENDBRANCH  10  11
ENDBRANCH   9  10
ENDBRANCH   8   9
ENDBRANCH   7   8
ENDBRANCH   6   7
ENDBRANCH   5   6
ENDBRANCH   4   5
TORSDOF 8
ENDMDL
MODEL       19
REMARK 921   NORMALIZED FREE ENERGY PREDICTED BY IDOCK:   -4.07 KCAL/MOL
REMARK 922        TOTAL FREE ENERGY PREDICTED BY IDOCK:   -6.46 KCAL/MOL
REMARK 923 INTER-LIGAND FREE ENERGY PREDICTED BY IDOCK:   -5.87 KCAL/MOL
REMARK 924 INTRA-LIGAND FREE ENERGY PREDICTED BY IDOCK:   -0.59 KCAL/MOL
REMARK 927      BINDING AFFINITY PREDICTED BY RF-SCORE:    0.00 PKD
ROOT
HETATM    1  O   UNL     1     -12.234  16.025  63.818  1.00  0.00    -0.895 OA 
HETATM    2  C   UNL     1     -12.268  14.732  64.217  1.00  0.00    -0.379 C  
HETATM    3  O   UNL     1     -12.625  13.831  63.476  1.00  0.00    -0.814 OA 
HETATM    4  C   UNL     1     -11.821  14.564  65.652  1.00  0.00    -0.326 C  
ENDROOT
BRANCH   4   5
HETATM    5  C   UNL     1     -11.868  13.101  66.087  1.00  0.00    -0.453 C  
BRANCH   5   6
HETATM    6  C   UNL     1     -11.838  12.962  67.609  1.00  0.00    -0.400 C  
BRANCH   6   7
HETATM    7  C   UNL     1     -10.842  13.946  68.223  1.00  0.00    -0.263 C  
BRANCH   7   8
HETATM    8  C   UNL     1     -11.376  14.548  69.522  1.00  0.00    -0.313 C  
BRANCH   8   9
HETATM    9  C   UNL     1     -11.103  16.051  69.582  1.00  0.00    -0.331 C  
BRANCH   9  10
HETATM   10  C   UNL     1     -10.417  16.545  68.308  1.00  0.00    -0.313 C  
BRANCH  10  11
HETATM   11  C   UNL     1     -10.384  18.074  68.261  1.00  0.00    -0.389 C  
BRANCH  11  12
HETATM   12  C   UNL     1      -9.928  18.568  66.919  1.00  0.00    -0.370 C  
HETATM   13  C   UNL     1     -10.456  19.627  66.293  1.00  0.00    -0.621 C  
ENDBRANCH  11  12
ENDBRANCH  10  11
ENDBRANCH   9  10
ENDBRANCH   8   9
ENDBRANCH   7   8
ENDBRANCH   6   7
ENDBRANCH   5   6
ENDBRANCH   4   5
TORSDOF 8
ENDMDL
MODEL       20
REMARK 921   NORMALIZED FREE ENERGY PREDICTED BY IDOCK:   -4.06 KCAL/MOL
REMARK 922        TOTAL FREE ENERGY PREDICTED BY IDOCK:   -6.44 KCAL/MOL
REMARK 923 INTER-LIGAND FREE ENERGY PREDICTED BY IDOCK:   -5.91 KCAL/MOL
REMARK 924 INTRA-LIGAND FREE ENERGY PREDICTED BY IDOCK:   -0.53 KCAL/MOL
REMARK 927      BINDING AFFINITY PREDICTED BY RF-SCORE:    0.00 PKD
ROOT
HETATM    1  O   UNL     1     -11.663  16.222  64.072  1.00  0.00    -0.930 OA 
HETATM    2  C   UNL     1     -12.053  14.955  64.347  1.00  0.00    -0.401 C  
HETATM    3  O   UNL     1     -12.546  14.227  63.502  1.00  0.00    -0.814 OA 
HETATM    4  C   UNL     1     -11.802  14.580  65.791  1.00  0.00    -0.327 C  
ENDROOT
BRANCH   4   5
HETATM    5  C   UNL     1     -12.249  13.150  66.085  1.00  0.00    -0.451 C  
BRANCH   5   6
HETATM    6  C   UNL     1     -11.861  12.715  67.498  1.00  0.00    -0.396 C  
BRANCH   6   7
HETATM    7  C   UNL     1     -11.918  13.899  68.464  1.00  0.00    -0.394 C  
BRANCH   7   8
HETATM    8  C   UNL     1     -11.338  13.538  69.830  1.00  0.00    -0.100 C  
BRANCH   8   9
HETATM    9  C   UNL     1     -12.423  13.553  70.907  1.00  0.00    -0.448 C  
BRANCH   9  10
HETATM   10  C   UNL     1     -13.024  12.163  71.115  1.00  0.00    -0.240 C  
BRANCH  10  11
HETATM   11  C   UNL     1     -11.988  11.071  70.838  1.00  0.00    -0.391 C  
BRANCH  11  12
HETATM   12  C   UNL     1     -12.412   9.757  71.426  1.00  0.00    -0.482 C  
HETATM   13  C   UNL     1     -13.517   9.590  72.165  1.00  0.00    -0.535 C  
ENDBRANCH  11  12
ENDBRANCH  10  11
ENDBRANCH   9  10
ENDBRANCH   8   9
ENDBRANCH   7   8
ENDBRANCH   6   7
ENDBRANCH   5   6
ENDBRANCH   4   5
TORSDOF 8
ENDMDL
MODEL       21
REMARK 921   NORMALIZED FREE ENERGY PREDICTED BY IDOCK:   -4.06 KCAL/MOL
REMARK 922        TOTAL FREE ENERGY PREDICTED BY IDOCK:   -6.44 KCAL/MOL
REMARK 923 INTER-LIGAND FREE ENERGY PREDICTED BY IDOCK:   -5.79 KCAL/MOL
REMARK 924 INTRA-LIGAND FREE ENERGY PREDICTED BY IDOCK:   -0.65 KCAL/MOL
REMARK 927      BINDING AFFINITY PREDICTED BY RF-SCORE:    0.00 PKD
ROOT
HETATM    1  O   UNL     1     -14.395   9.029  72.576  1.00  0.00    -0.570 OA 
HETATM    2  C   UNL     1     -13.156   8.875  72.052  1.00  0.00    -0.402 C  
HETATM    3  O   UNL     1     -12.576   7.802  72.054  1.00  0.00    -0.303 OA 
HETATM    4  C   UNL     1     -12.611  10.167  71.485  1.00  0.00    -0.537 C  
ENDROOT
BRANCH   4   5
HETATM    5  C   UNL     1     -11.214   9.977  70.899  1.00  0.00    -0.415 C  
BRANCH   5   6
HETATM    6  C   UNL     1     -11.022  10.788  69.617  1.00  0.00    -0.320 C  
BRANCH   6   7
HETATM    7  C   UNL     1     -12.225  11.699  69.368  1.00  0.00    -0.246 C  
BRANCH   7   8
HETATM    8  C   UNL     1     -11.811  13.167  69.291  1.00  0.00    -0.377 C  
BRANCH   8   9
HETATM    9  C   UNL     1     -11.914  13.838  70.661  1.00  0.00    -0.340 C  
BRANCH   9  10
HETATM   10  C   UNL     1     -13.038  14.873  70.693  1.00  0.00    -0.363 C  
BRANCH  10  11
HETATM   11  C   UNL     1     -13.805  14.809  72.016  1.00  0.00    -0.548 C  
BRANCH  11  12
HETATM   12  C   UNL     1     -12.873  14.626  73.178  1.00  0.00    -0.586 C  
HETATM   13  C   UNL     1     -12.476  15.622  73.981  1.00  0.00    -0.785 C  
ENDBRANCH  11  12
ENDBRANCH  10  11
ENDBRANCH   9  10
ENDBRANCH   8   9
ENDBRANCH   7   8
ENDBRANCH   6   7
ENDBRANCH   5   6
ENDBRANCH   4   5
TORSDOF 8
ENDMDL
MODEL       22
REMARK 921   NORMALIZED FREE ENERGY PREDICTED BY IDOCK:   -4.06 KCAL/MOL
REMARK 922        TOTAL FREE ENERGY PREDICTED BY IDOCK:   -6.43 KCAL/MOL
REMARK 923 INTER-LIGAND FREE ENERGY PREDICTED BY IDOCK:   -5.65 KCAL/MOL
REMARK 924 INTRA-LIGAND FREE ENERGY PREDICTED BY IDOCK:   -0.79 KCAL/MOL
REMARK 927      BINDING AFFINITY PREDICTED BY RF-SCORE:    0.00 PKD
ROOT
HETATM    1  O   UNL     1     -12.418  13.647  63.220  1.00  0.00    -0.801 OA 
HETATM    2  C   UNL     1     -12.330  14.148  64.474  1.00  0.00    -0.392 C  
HETATM    3  O   UNL     1     -13.255  14.088  65.267  1.00  0.00    -0.782 OA 
HETATM    4  C   UNL     1     -10.978  14.771  64.748  1.00  0.00    -0.393 C  
ENDROOT
BRANCH   4   5
HETATM    5  C   UNL     1     -10.896  15.333  66.166  1.00  0.00    -0.320 C  
BRANCH   5   6
HETATM    6  C   UNL     1      -9.952  16.532  66.245  1.00  0.00    -0.346 C  
BRANCH   6   7
HETATM    7  C   UNL     1     -10.482  17.574  67.232  1.00  0.00    -0.327 C  
BRANCH   7   8
HETATM    8  C   UNL     1     -10.497  18.973  66.617  1.00  0.00    -0.517 C  
BRANCH   8   9
HETATM    9  C   UNL     1      -9.788  19.978  67.526  1.00  0.00    -0.551 C  
BRANCH   9  10
HETATM   10  C   UNL     1      -9.219  19.299  68.772  1.00  0.00    -0.421 C  
BRANCH  10  11
HETATM   11  C   UNL     1      -7.713  19.540  68.889  1.00  0.00    -0.369 C  
BRANCH  11  12
HETATM   12  C   UNL     1      -6.945  18.650  67.956  1.00  0.00    -0.247 C  
HETATM   13  C   UNL     1      -6.747  17.342  68.164  1.00  0.00    -0.179 C  
ENDBRANCH  11  12
ENDBRANCH  10  11
ENDBRANCH   9  10
ENDBRANCH   8   9
ENDBRANCH   7   8
ENDBRANCH   6   7
ENDBRANCH   5   6
ENDBRANCH   4   5
TORSDOF 8
ENDMDL
MODEL       23
REMARK 921   NORMALIZED FREE ENERGY PREDICTED BY IDOCK:   -4.05 KCAL/MOL
REMARK 922        TOTAL FREE ENERGY PREDICTED BY IDOCK:   -6.43 KCAL/MOL
REMARK 923 INTER-LIGAND FREE ENERGY PREDICTED BY IDOCK:   -5.70 KCAL/MOL
REMARK 924 INTRA-LIGAND FREE ENERGY PREDICTED BY IDOCK:   -0.73 KCAL/MOL
REMARK 927      BINDING AFFINITY PREDICTED BY RF-SCORE:    0.00 PKD
ROOT
HETATM    1  O   UNL     1     -13.734  16.164  73.112  1.00  0.00    -0.564 OA 
HETATM    2  C   UNL     1     -13.266  14.894  73.109  1.00  0.00    -0.461 C  
HETATM    3  O   UNL     1     -12.322  14.546  73.799  1.00  0.00    -0.384 OA 
HETATM    4  C   UNL     1     -14.044  14.000  72.170  1.00  0.00    -0.641 C  
ENDROOT
BRANCH   4   5
HETATM    5  C   UNL     1     -13.503  12.572  72.177  1.00  0.00    -0.523 C  
BRANCH   5   6
HETATM    6  C   UNL     1     -12.679  12.272  70.926  1.00  0.00    -0.277 C  
BRANCH   6   7
HETATM    7  C   UNL     1     -12.618  10.766  70.665  1.00  0.00    -0.446 C  
BRANCH   7   8
HETATM    8  C   UNL     1     -11.211  10.321  70.270  1.00  0.00    -0.395 C  
BRANCH   8   9
HETATM    9  C   UNL     1     -10.695   9.236  71.216  1.00  0.00    -0.422 C  
BRANCH   9  10
HETATM   10  C   UNL     1     -11.744   8.863  72.263  1.00  0.00    -0.351 C  
BRANCH  10  11
HETATM   11  C   UNL     1     -11.998   7.354  72.272  1.00  0.00    -0.277 C  
BRANCH  11  12
HETATM   12  C   UNL     1     -13.188   6.998  71.428  1.00  0.00    -0.352 C  
HETATM   13  C   UNL     1     -14.396   7.562  71.563  1.00  0.00    -0.603 C  
ENDBRANCH  11  12
ENDBRANCH  10  11
ENDBRANCH   9  10
ENDBRANCH   8   9
ENDBRANCH   7   8
ENDBRANCH   6   7
ENDBRANCH   5   6
ENDBRANCH   4   5
TORSDOF 8
ENDMDL
MODEL       24
REMARK 921   NORMALIZED FREE ENERGY PREDICTED BY IDOCK:   -4.05 KCAL/MOL
REMARK 922        TOTAL FREE ENERGY PREDICTED BY IDOCK:   -6.42 KCAL/MOL
REMARK 923 INTER-LIGAND FREE ENERGY PREDICTED BY IDOCK:   -5.89 KCAL/MOL
REMARK 924 INTRA-LIGAND FREE ENERGY PREDICTED BY IDOCK:   -0.54 KCAL/MOL
REMARK 927      BINDING AFFINITY PREDICTED BY RF-SCORE:    0.00 PKD
ROOT
HETATM    1  O   UNL     1     -12.539  14.213  63.497  1.00  0.00    -0.834 OA 
HETATM    2  C   UNL     1     -12.281  12.975  63.982  1.00  0.00    -0.417 C  
HETATM    3  O   UNL     1     -13.149  12.273  64.472  1.00  0.00    -0.791 OA 
HETATM    4  C   UNL     1     -10.823  12.598  63.838  1.00  0.00    -0.468 C  
ENDROOT
BRANCH   4   5
HETATM    5  C   UNL     1     -10.548  11.201  64.390  1.00  0.00    -0.411 C  
BRANCH   5   6
HETATM    6  C   UNL     1      -9.622  11.246  65.606  1.00  0.00    -0.260 C  
BRANCH   6   7
HETATM    7  C   UNL     1     -10.414  11.556  66.877  1.00  0.00    -0.270 C  
BRANCH   7   8
HETATM    8  C   UNL     1     -10.148  12.977  67.371  1.00  0.00    -0.231 C  
BRANCH   8   9
HETATM    9  C   UNL     1     -11.448  13.777  67.463  1.00  0.00    -0.359 C  
BRANCH   9  10
HETATM   10  C   UNL     1     -11.969  13.833  68.899  1.00  0.00    -0.394 C  
BRANCH  10  11
HETATM   11  C   UNL     1     -11.797  15.234  69.490  1.00  0.00    -0.368 C  
BRANCH  11  12
HETATM   12  C   UNL     1     -12.511  15.362  70.804  1.00  0.00    -0.476 C  
HETATM   13  C   UNL     1     -12.003  15.989  71.873  1.00  0.00    -0.606 C  
ENDBRANCH  11  12
ENDBRANCH  10  11
ENDBRANCH   9  10
ENDBRANCH   8   9
ENDBRANCH   7   8
ENDBRANCH   6   7
ENDBRANCH   5   6
ENDBRANCH   4   5
TORSDOF 8
ENDMDL
MODEL       25
REMARK 921   NORMALIZED FREE ENERGY PREDICTED BY IDOCK:   -4.05 KCAL/MOL
REMARK 922        TOTAL FREE ENERGY PREDICTED BY IDOCK:   -6.42 KCAL/MOL
REMARK 923 INTER-LIGAND FREE ENERGY PREDICTED BY IDOCK:   -5.84 KCAL/MOL
REMARK 924 INTRA-LIGAND FREE ENERGY PREDICTED BY IDOCK:   -0.57 KCAL/MOL
REMARK 927      BINDING AFFINITY PREDICTED BY RF-SCORE:    0.00 PKD
ROOT
HETATM    1  O   UNL     1     -12.474  14.371  63.755  1.00  0.00    -0.814 OA 
HETATM    2  C   UNL     1     -12.209  13.043  63.772  1.00  0.00    -0.460 C  
HETATM    3  O   UNL     1     -13.088  12.203  63.677  1.00  0.00    -0.787 OA 
HETATM    4  C   UNL     1     -10.732  12.756  63.921  1.00  0.00    -0.443 C  
ENDROOT
BRANCH   4   5
HETATM    5  C   UNL     1     -10.451  11.255  63.940  1.00  0.00    -0.452 C  
BRANCH   5   6
HETATM    6  C   UNL     1      -9.644  10.846  65.172  1.00  0.00    -0.291 C  
BRANCH   6   7
HETATM    7  C   UNL     1     -10.481   9.962  66.098  1.00  0.00    -0.144 C  
BRANCH   7   8
HETATM    8  C   UNL     1     -10.574  10.552  67.505  1.00  0.00    -0.306 C  
BRANCH   8   9
HETATM    9  C   UNL     1     -11.406  11.834  67.507  1.00  0.00    -0.377 C  
BRANCH   9  10
HETATM   10  C   UNL     1     -12.018  12.101  68.882  1.00  0.00    -0.296 C  
BRANCH  10  11
HETATM   11  C   UNL     1     -11.663  10.985  69.866  1.00  0.00    -0.424 C  
BRANCH  11  12
HETATM   12  C   UNL     1     -12.499  11.069  71.110  1.00  0.00    -0.502 C  
HETATM   13  C   UNL     1     -13.106  10.017  71.675  1.00  0.00    -0.547 C  
ENDBRANCH  11  12
ENDBRANCH  10  11
ENDBRANCH   9  10
ENDBRANCH   8   9
ENDBRANCH   7   8
ENDBRANCH   6   7
ENDBRANCH   5   6
ENDBRANCH   4   5
TORSDOF 8
ENDMDL
MODEL       26
REMARK 921   NORMALIZED FREE ENERGY PREDICTED BY IDOCK:   -4.03 KCAL/MOL
REMARK 922        TOTAL FREE ENERGY PREDICTED BY IDOCK:   -6.40 KCAL/MOL
REMARK 923 INTER-LIGAND FREE ENERGY PREDICTED BY IDOCK:   -5.98 KCAL/MOL
REMARK 924 INTRA-LIGAND FREE ENERGY PREDICTED BY IDOCK:   -0.41 KCAL/MOL
REMARK 927      BINDING AFFINITY PREDICTED BY RF-SCORE:    0.00 PKD
ROOT
HETATM    1  O   UNL     1     -12.641  12.956  63.679  1.00  0.00    -0.686 OA 
HETATM    2  C   UNL     1     -12.635  13.200  65.011  1.00  0.00    -0.438 C  
HETATM    3  O   UNL     1     -13.284  14.104  65.510  1.00  0.00    -0.688 OA 
HETATM    4  C   UNL     1     -11.745  12.237  65.764  1.00  0.00    -0.445 C  
ENDROOT
BRANCH   4   5
HETATM    5  C   UNL     1     -11.747  12.528  67.264  1.00  0.00    -0.431 C  
BRANCH   5   6
HETATM    6  C   UNL     1     -11.857  11.246  68.088  1.00  0.00    -0.276 C  
BRANCH   6   7
HETATM    7  C   UNL     1     -11.162  11.410  69.441  1.00  0.00    -0.333 C  
BRANCH   7   8
HETATM    8  C   UNL     1     -12.172  11.607  70.571  1.00  0.00    -0.451 C  
BRANCH   8   9
HETATM    9  C   UNL     1     -12.572  10.266  71.186  1.00  0.00    -0.501 C  
BRANCH   9  10
HETATM   10  C   UNL     1     -11.387   9.303  71.248  1.00  0.00    -0.423 C  
BRANCH  10  11
HETATM   11  C   UNL     1     -11.657   8.162  72.231  1.00  0.00    -0.436 C  
BRANCH  11  12
HETATM   12  C   UNL     1     -12.068   6.910  71.512  1.00  0.00    -0.401 C  
HETATM   13  C   UNL     1     -11.625   6.566  70.296  1.00  0.00    -0.473 C  
ENDBRANCH  11  12
ENDBRANCH  10  11
ENDBRANCH   9  10
ENDBRANCH   8   9
ENDBRANCH   7   8
ENDBRANCH   6   7
ENDBRANCH   5   6
ENDBRANCH   4   5
TORSDOF 8
ENDMDL
MODEL       27
REMARK 921   NORMALIZED FREE ENERGY PREDICTED BY IDOCK:   -4.02 KCAL/MOL
REMARK 922        TOTAL FREE ENERGY PREDICTED BY IDOCK:   -6.38 KCAL/MOL
REMARK 923 INTER-LIGAND FREE ENERGY PREDICTED BY IDOCK:   -5.84 KCAL/MOL
REMARK 924 INTRA-LIGAND FREE ENERGY PREDICTED BY IDOCK:   -0.54 KCAL/MOL
REMARK 927      BINDING AFFINITY PREDICTED BY RF-SCORE:    0.00 PKD
ROOT
HETATM    1  O   UNL     1     -12.751  16.327  74.240  1.00  0.00    -0.705 OA 
HETATM    2  C   UNL     1     -12.590  15.790  73.008  1.00  0.00    -0.483 C  
HETATM    3  O   UNL     1     -12.043  16.394  72.101  1.00  0.00    -0.481 OA 
HETATM    4  C   UNL     1     -13.162  14.393  72.914  1.00  0.00    -0.613 C  
ENDROOT
BRANCH   4   5
HETATM    5  C   UNL     1     -12.974  13.803  71.518  1.00  0.00    -0.444 C  
BRANCH   5   6
HETATM    6  C   UNL     1     -13.030  12.275  71.537  1.00  0.00    -0.390 C  
BRANCH   6   7
HETATM    7  C   UNL     1     -12.134  11.687  70.446  1.00  0.00    -0.462 C  
BRANCH   7   8
HETATM    8  C   UNL     1     -11.774  12.733  69.391  1.00  0.00    -0.380 C  
BRANCH   8   9
HETATM    9  C   UNL     1     -11.490  12.073  68.041  1.00  0.00    -0.392 C  
BRANCH   9  10
HETATM   10  C   UNL     1     -12.027  12.914  66.883  1.00  0.00    -0.402 C  
BRANCH  10  11
HETATM   11  C   UNL     1     -11.792  14.405  67.134  1.00  0.00    -0.437 C  
BRANCH  11  12
HETATM   12  C   UNL     1     -10.935  15.009  66.059  1.00  0.00    -0.334 C  
HETATM   13  C   UNL     1      -9.633  14.740  65.901  1.00  0.00    -0.320 C  
ENDBRANCH  11  12
ENDBRANCH  10  11
ENDBRANCH   9  10
ENDBRANCH   8   9
ENDBRANCH   7   8
ENDBRANCH   6   7
ENDBRANCH   5   6
ENDBRANCH   4   5
TORSDOF 8
ENDMDL
MODEL       28
REMARK 921   NORMALIZED FREE ENERGY PREDICTED BY IDOCK:   -4.01 KCAL/MOL
REMARK 922        TOTAL FREE ENERGY PREDICTED BY IDOCK:   -6.36 KCAL/MOL
REMARK 923 INTER-LIGAND FREE ENERGY PREDICTED BY IDOCK:   -5.99 KCAL/MOL
REMARK 924 INTRA-LIGAND FREE ENERGY PREDICTED BY IDOCK:   -0.37 KCAL/MOL
REMARK 927      BINDING AFFINITY PREDICTED BY RF-SCORE:    0.00 PKD
ROOT
HETATM    1  O   UNL     1      -9.897  16.785  65.550  1.00  0.00    -0.564 OA 
HETATM    2  C   UNL     1     -10.872  16.158  64.851  1.00  0.00    -0.334 C  
HETATM    3  O   UNL     1     -11.584  16.746  64.055  1.00  0.00    -1.195 OA 
HETATM    4  C   UNL     1     -10.954  14.684  65.181  1.00  0.00    -0.395 C  
ENDROOT
BRANCH   4   5
HETATM    5  C   UNL     1     -12.059  13.992  64.387  1.00  0.00    -0.486 C  
BRANCH   5   6
HETATM    6  C   UNL     1     -12.358  12.595  64.931  1.00  0.00    -0.563 C  
BRANCH   6   7
HETATM    7  C   UNL     1     -11.780  12.427  66.337  1.00  0.00    -0.453 C  
BRANCH   7   8
HETATM    8  C   UNL     1     -11.035  11.101  66.482  1.00  0.00    -0.270 C  
BRANCH   8   9
HETATM    9  C   UNL     1     -10.392  10.984  67.865  1.00  0.00    -0.213 C  
BRANCH   9  10
HETATM   10  C   UNL     1     -11.229  10.108  68.797  1.00  0.00    -0.217 C  
BRANCH  10  11
HETATM   11  C   UNL     1     -11.165  10.623  70.237  1.00  0.00    -0.365 C  
BRANCH  11  12
HETATM   12  C   UNL     1     -12.368  10.189  71.024  1.00  0.00    -0.474 C  
HETATM   13  C   UNL     1     -13.234  11.037  71.593  1.00  0.00    -0.461 C  
ENDBRANCH  11  12
ENDBRANCH  10  11
ENDBRANCH   9  10
ENDBRANCH   8   9
ENDBRANCH   7   8
ENDBRANCH   6   7
ENDBRANCH   5   6
ENDBRANCH   4   5
TORSDOF 8
ENDMDL
MODEL       29
REMARK 921   NORMALIZED FREE ENERGY PREDICTED BY IDOCK:   -3.99 KCAL/MOL
REMARK 922        TOTAL FREE ENERGY PREDICTED BY IDOCK:   -6.34 KCAL/MOL
REMARK 923 INTER-LIGAND FREE ENERGY PREDICTED BY IDOCK:   -5.77 KCAL/MOL
REMARK 924 INTRA-LIGAND FREE ENERGY PREDICTED BY IDOCK:   -0.57 KCAL/MOL
REMARK 927      BINDING AFFINITY PREDICTED BY RF-SCORE:    0.00 PKD
ROOT
HETATM    1  O   UNL     1     -10.362   7.400  73.554  1.00  0.00    -0.342 OA 
HETATM    2  C   UNL     1     -10.082   8.338  72.619  1.00  0.00    -0.295 C  
HETATM    3  O   UNL     1      -8.966   8.810  72.484  1.00  0.00    -0.386 OA 
HETATM    4  C   UNL     1     -11.298   8.706  71.798  1.00  0.00    -0.393 C  
ENDROOT
BRANCH   4   5
HETATM    5  C   UNL     1     -10.966   9.766  70.749  1.00  0.00    -0.406 C  
BRANCH   5   6
HETATM    6  C   UNL     1     -12.135  10.725  70.524  1.00  0.00    -0.459 C  
BRANCH   6   7
HETATM    7  C   UNL     1     -13.080  10.718  71.726  1.00  0.00    -0.573 C  
BRANCH   7   8
HETATM    8  C   UNL     1     -13.526  12.131  72.098  1.00  0.00    -0.383 C  
BRANCH   8   9
HETATM    9  C   UNL     1     -12.548  13.174  71.557  1.00  0.00    -0.292 C  
BRANCH   9  10
HETATM   10  C   UNL     1     -13.284  14.362  70.938  1.00  0.00    -0.347 C  
BRANCH  10  11
HETATM   11  C   UNL     1     -13.104  15.621  71.788  1.00  0.00    -0.546 C  
BRANCH  11  12
HETATM   12  C   UNL     1     -12.196  15.366  72.955  1.00  0.00    -0.542 C  
HETATM   13  C   UNL     1     -12.498  15.682  74.221  1.00  0.00    -0.804 C  
ENDBRANCH  11  12
ENDBRANCH  10  11
ENDBRANCH   9  10
ENDBRANCH   8   9
ENDBRANCH   7   8
ENDBRANCH   6   7
ENDBRANCH   5   6
ENDBRANCH   4   5
TORSDOF 8
ENDMDL
MODEL       30
REMARK 921   NORMALIZED FREE ENERGY PREDICTED BY IDOCK:   -3.98 KCAL/MOL
REMARK 922        TOTAL FREE ENERGY PREDICTED BY IDOCK:   -6.32 KCAL/MOL
REMARK 923 INTER-LIGAND FREE ENERGY PREDICTED BY IDOCK:   -5.77 KCAL/MOL
REMARK 924 INTRA-LIGAND FREE ENERGY PREDICTED BY IDOCK:   -0.55 KCAL/MOL
REMARK 927      BINDING AFFINITY PREDICTED BY RF-SCORE:    0.00 PKD
ROOT
HETATM    1  O   UNL     1     -11.147  11.246  63.901  1.00  0.00    -0.380 OA 
HETATM    2  C   UNL     1     -11.961  12.135  64.516  1.00  0.00    -0.337 C  
HETATM    3  O   UNL     1     -13.169  12.142  64.341  1.00  0.00    -0.758 OA 
HETATM    4  C   UNL     1     -11.199  13.083  65.414  1.00  0.00    -0.317 C  
ENDROOT
BRANCH   4   5
HETATM    5  C   UNL     1     -12.132  14.081  66.098  1.00  0.00    -0.471 C  
BRANCH   5   6
HETATM    6  C   UNL     1     -12.205  13.845  67.607  1.00  0.00    -0.232 C  
BRANCH   6   7
HETATM    7  C   UNL     1     -11.053  14.554  68.322  1.00  0.00    -0.275 C  
BRANCH   7   8
HETATM    8  C   UNL     1     -11.488  15.907  68.882  1.00  0.00    -0.386 C  
BRANCH   8   9
HETATM    9  C   UNL     1     -10.914  16.130  70.281  1.00  0.00    -0.345 C  
BRANCH   9  10
HETATM   10  C   UNL     1     -11.501  15.144  71.290  1.00  0.00    -0.395 C  
BRANCH  10  11
HETATM   11  C   UNL     1     -12.241  15.879  72.409  1.00  0.00    -0.591 C  
BRANCH  11  12
HETATM   12  C   UNL     1     -13.665  15.415  72.517  1.00  0.00    -0.652 C  
HETATM   13  C   UNL     1     -14.346  14.854  71.510  1.00  0.00    -0.631 C  
ENDBRANCH  11  12
ENDBRANCH  10  11
ENDBRANCH   9  10
ENDBRANCH   8   9
ENDBRANCH   7   8
ENDBRANCH   6   7
ENDBRANCH   5   6
ENDBRANCH   4   5
TORSDOF 8
ENDMDL
MODEL       31
REMARK 921   NORMALIZED FREE ENERGY PREDICTED BY IDOCK:   -3.95 KCAL/MOL
REMARK 922        TOTAL FREE ENERGY PREDICTED BY IDOCK:   -6.28 KCAL/MOL
REMARK 923 INTER-LIGAND FREE ENERGY PREDICTED BY IDOCK:   -5.56 KCAL/MOL
REMARK 924 INTRA-LIGAND FREE ENERGY PREDICTED BY IDOCK:   -0.73 KCAL/MOL
REMARK 927      BINDING AFFINITY PREDICTED BY RF-SCORE:    0.00 PKD
ROOT
HETATM    1  O   UNL     1     -13.240   9.227  72.370  1.00  0.00    -0.431 OA 
HETATM    2  C   UNL     1     -12.253   9.768  71.618  1.00  0.00    -0.404 C  
HETATM    3  O   UNL     1     -11.080   9.476  71.776  1.00  0.00    -0.352 OA 
HETATM    4  C   UNL     1     -12.785  10.747  70.595  1.00  0.00    -0.417 C  
ENDROOT
BRANCH   4   5
HETATM    5  C   UNL     1     -11.659  11.349  69.757  1.00  0.00    -0.407 C  
BRANCH   5   6
HETATM    6  C   UNL     1     -11.533  10.659  68.399  1.00  0.00    -0.330 C  
BRANCH   6   7
HETATM    7  C   UNL     1     -11.403  11.691  67.277  1.00  0.00    -0.372 C  
BRANCH   7   8
HETATM    8  C   UNL     1     -11.213  13.102  67.832  1.00  0.00    -0.300 C  
BRANCH   8   9
HETATM    9  C   UNL     1     -11.856  14.142  66.913  1.00  0.00    -0.458 C  
BRANCH   9  10
HETATM   10  C   UNL     1     -12.625  13.478  65.771  1.00  0.00    -0.490 C  
BRANCH  10  11
HETATM   11  C   UNL     1     -12.159  14.012  64.414  1.00  0.00    -0.486 C  
BRANCH  11  12
HETATM   12  C   UNL     1     -11.805  12.891  63.480  1.00  0.00    -0.605 C  
HETATM   13  C   UNL     1     -10.777  12.055  63.673  1.00  0.00    -0.506 C  
ENDBRANCH  11  12
ENDBRANCH  10  11
ENDBRANCH   9  10
ENDBRANCH   8   9
ENDBRANCH   7   8
ENDBRANCH   6   7
ENDBRANCH   5   6
ENDBRANCH   4   5
TORSDOF 8
ENDMDL
MODEL       32
REMARK 921   NORMALIZED FREE ENERGY PREDICTED BY IDOCK:   -3.95 KCAL/MOL
REMARK 922        TOTAL FREE ENERGY PREDICTED BY IDOCK:   -6.28 KCAL/MOL
REMARK 923 INTER-LIGAND FREE ENERGY PREDICTED BY IDOCK:   -5.66 KCAL/MOL
REMARK 924 INTRA-LIGAND FREE ENERGY PREDICTED BY IDOCK:   -0.62 KCAL/MOL
REMARK 927      BINDING AFFINITY PREDICTED BY RF-SCORE:    0.00 PKD
ROOT
HETATM    1  O   UNL     1     -12.928  12.181  63.813  1.00  0.00    -0.753 OA 
HETATM    2  C   UNL     1     -12.521  13.266  64.513  1.00  0.00    -0.319 C  
HETATM    3  O   UNL     1     -13.285  13.923  65.199  1.00  0.00    -0.768 OA 
HETATM    4  C   UNL     1     -11.044  13.541  64.334  1.00  0.00    -0.397 C  
ENDROOT
BRANCH   4   5
HETATM    5  C   UNL     1     -10.602  14.768  65.128  1.00  0.00    -0.439 C  
BRANCH   5   6
HETATM    6  C   UNL     1      -9.567  14.410  66.195  1.00  0.00    -0.309 C  
BRANCH   6   7
HETATM    7  C   UNL     1      -8.942  15.673  66.788  1.00  0.00    -0.291 C  
BRANCH   7   8
HETATM    8  C   UNL     1      -9.278  15.822  68.272  1.00  0.00    -0.188 C  
BRANCH   8   9
HETATM    9  C   UNL     1      -9.791  17.229  68.578  1.00  0.00    -0.307 C  
BRANCH   9  10
HETATM   10  C   UNL     1     -10.447  17.864  67.352  1.00  0.00    -0.390 C  
BRANCH  10  11
HETATM   11  C   UNL     1     -10.574  19.379  67.520  1.00  0.00    -0.591 C  
BRANCH  11  12
HETATM   12  C   UNL     1      -9.819  20.112  66.449  1.00  0.00    -0.560 C  
HETATM   13  C   UNL     1      -8.539  19.868  66.137  1.00  0.00    -0.348 C  
ENDBRANCH  11  12
ENDBRANCH  10  11
ENDBRANCH   9  10
ENDBRANCH   8   9
ENDBRANCH   7   8
ENDBRANCH   6   7
ENDBRANCH   5   6
ENDBRANCH   4   5
TORSDOF 8
ENDMDL
MODEL       33
REMARK 921   NORMALIZED FREE ENERGY PREDICTED BY IDOCK:   -3.95 KCAL/MOL
REMARK 922        TOTAL FREE ENERGY PREDICTED BY IDOCK:   -6.28 KCAL/MOL
REMARK 923 INTER-LIGAND FREE ENERGY PREDICTED BY IDOCK:   -5.37 KCAL/MOL
REMARK 924 INTRA-LIGAND FREE ENERGY PREDICTED BY IDOCK:   -0.90 KCAL/MOL
REMARK 927      BINDING AFFINITY PREDICTED BY RF-SCORE:    0.00 PKD
ROOT
HETATM    1  O   UNL     1     -10.970  19.362  67.092  1.00  0.00    -0.483 OA 
HETATM    2  C   UNL     1     -10.503  18.159  66.682  1.00  0.00    -0.339 C  
HETATM    3  O   UNL     1     -10.419  17.860  65.503  1.00  0.00    -0.650 OA 
HETATM    4  C   UNL     1     -10.113  17.271  67.843  1.00  0.00    -0.317 C  
ENDROOT
BRANCH   4   5
HETATM    5  C   UNL     1      -9.590  15.919  67.364  1.00  0.00    -0.221 C  
BRANCH   5   6
HETATM    6  C   UNL     1     -10.225  14.761  68.135  1.00  0.00    -0.228 C  
BRANCH   6   7
HETATM    7  C   UNL     1     -11.708  14.629  67.789  1.00  0.00    -0.386 C  
BRANCH   7   8
HETATM    8  C   UNL     1     -11.971  13.414  66.900  1.00  0.00    -0.437 C  
BRANCH   8   9
HETATM    9  C   UNL     1     -12.687  13.823  65.612  1.00  0.00    -0.523 C  
BRANCH   9  10
HETATM   10  C   UNL     1     -11.700  14.337  64.564  1.00  0.00    -0.431 C  
BRANCH  10  11
HETATM   11  C   UNL     1     -10.428  13.487  64.544  1.00  0.00    -0.426 C  
BRANCH  11  12
HETATM   12  C   UNL     1     -10.579  12.301  63.636  1.00  0.00    -0.501 C  
HETATM   13  C   UNL     1     -10.501  11.029  64.048  1.00  0.00    -0.433 C  
ENDBRANCH  11  12
ENDBRANCH  10  11
ENDBRANCH   9  10
ENDBRANCH   8   9
ENDBRANCH   7   8
ENDBRANCH   6   7
ENDBRANCH   5   6
ENDBRANCH   4   5
TORSDOF 8
ENDMDL
MODEL       34
REMARK 921   NORMALIZED FREE ENERGY PREDICTED BY IDOCK:   -3.93 KCAL/MOL
REMARK 922        TOTAL FREE ENERGY PREDICTED BY IDOCK:   -6.25 KCAL/MOL
REMARK 923 INTER-LIGAND FREE ENERGY PREDICTED BY IDOCK:   -4.91 KCAL/MOL
REMARK 924 INTRA-LIGAND FREE ENERGY PREDICTED BY IDOCK:   -1.35 KCAL/MOL
REMARK 927      BINDING AFFINITY PREDICTED BY RF-SCORE:    0.00 PKD
ROOT
HETATM    1  O   UNL     1      -9.457  11.402  62.668  1.00  0.00    -0.344 OA 
HETATM    2  C   UNL     1     -10.395  11.379  63.644  1.00  0.00    -0.410 C  
HETATM    3  O   UNL     1     -10.378  10.556  64.544  1.00  0.00    -0.348 OA 
HETATM    4  C   UNL     1     -11.427  12.471  63.471  1.00  0.00    -0.570 C  
ENDROOT
BRANCH   4   5
HETATM    5  C   UNL     1     -12.478  12.430  64.578  1.00  0.00    -0.519 C  
BRANCH   5   6
HETATM    6  C   UNL     1     -12.685  13.805  65.213  1.00  0.00    -0.481 C  
BRANCH   6   7
HETATM    7  C   UNL     1     -11.473  14.704  64.963  1.00  0.00    -0.386 C  
BRANCH   7   8
HETATM    8  C   UNL     1     -10.755  15.054  66.266  1.00  0.00    -0.322 C  
BRANCH   8   9
HETATM    9  C   UNL     1      -9.465  14.246  66.414  1.00  0.00    -0.297 C  
BRANCH   9  10
HETATM   10  C   UNL     1      -9.703  12.950  67.187  1.00  0.00    -0.221 C  
BRANCH  10  11
HETATM   11  C   UNL     1     -10.646  13.181  68.369  1.00  0.00    -0.264 C  
BRANCH  11  12
HETATM   12  C   UNL     1     -11.703  12.118  68.439  1.00  0.00    -0.388 C  
HETATM   13  C   UNL     1     -11.518  10.852  68.043  1.00  0.00    -0.356 C  
ENDBRANCH  11  12
ENDBRANCH  10  11
ENDBRANCH   9  10
ENDBRANCH   8   9
ENDBRANCH   7   8
ENDBRANCH   6   7
ENDBRANCH   5   6
ENDBRANCH   4   5
TORSDOF 8
ENDMDL
MODEL       35
REMARK 921   NORMALIZED FREE ENERGY PREDICTED BY IDOCK:   -3.91 KCAL/MOL
REMARK 922        TOTAL FREE ENERGY PREDICTED BY IDOCK:   -6.22 KCAL/MOL
REMARK 923 INTER-LIGAND FREE ENERGY PREDICTED BY IDOCK:   -5.64 KCAL/MOL
REMARK 924 INTRA-LIGAND FREE ENERGY PREDICTED BY IDOCK:   -0.57 KCAL/MOL
REMARK 927      BINDING AFFINITY PREDICTED BY RF-SCORE:    0.00 PKD
ROOT
HETATM    1  O   UNL     1     -12.541  13.672  64.134  1.00  0.00    -0.655 OA 
HETATM    2  C   UNL     1     -11.901  14.831  64.413  1.00  0.00    -0.380 C  
HETATM    3  O   UNL     1     -12.076  15.845  63.759  1.00  0.00    -0.780 OA 
HETATM    4  C   UNL     1     -10.975  14.701  65.602  1.00  0.00    -0.336 C  
ENDROOT
BRANCH   4   5
HETATM    5  C   UNL     1     -10.260  16.017  65.902  1.00  0.00    -0.386 C  
BRANCH   5   6
HETATM    6  C   UNL     1     -10.582  16.529  67.306  1.00  0.00    -0.285 C  
BRANCH   6   7
HETATM    7  C   UNL     1      -9.332  16.512  68.188  1.00  0.00    -0.218 C  
BRANCH   7   8
HETATM    8  C   UNL     1      -9.517  15.610  69.407  1.00  0.00    -0.279 C  
BRANCH   8   9
HETATM    9  C   UNL     1     -10.995  15.290  69.632  1.00  0.00    -0.291 C  
BRANCH   9  10
HETATM   10  C   UNL     1     -11.489  15.844  70.968  1.00  0.00    -0.461 C  
BRANCH  10  11
HETATM   11  C   UNL     1     -12.987  15.589  71.147  1.00  0.00    -0.560 C  
BRANCH  11  12
HETATM   12  C   UNL     1     -13.297  14.120  71.115  1.00  0.00    -0.330 C  
HETATM   13  C   UNL     1     -13.516  13.379  72.208  1.00  0.00    -0.683 C  
ENDBRANCH  11  12
ENDBRANCH  10  11
ENDBRANCH   9  10
ENDBRANCH   8   9
ENDBRANCH   7   8
ENDBRANCH   6   7
ENDBRANCH   5   6
ENDBRANCH   4   5
TORSDOF 8
ENDMDL
MODEL       36
REMARK 921   NORMALIZED FREE ENERGY PREDICTED BY IDOCK:   -3.91 KCAL/MOL
REMARK 922        TOTAL FREE ENERGY PREDICTED BY IDOCK:   -6.22 KCAL/MOL
REMARK 923 INTER-LIGAND FREE ENERGY PREDICTED BY IDOCK:   -5.69 KCAL/MOL
REMARK 924 INTRA-LIGAND FREE ENERGY PREDICTED BY IDOCK:   -0.53 KCAL/MOL
REMARK 927      BINDING AFFINITY PREDICTED BY RF-SCORE:    0.00 PKD
ROOT
HETATM    1  O   UNL     1     -14.381  13.543  72.554  1.00  0.00    -0.713 OA 
HETATM    2  C   UNL     1     -13.713  14.686  72.273  1.00  0.00    -0.460 C  
HETATM    3  O   UNL     1     -13.948  15.736  72.847  1.00  0.00    -0.568 OA 
HETATM    4  C   UNL     1     -12.676  14.490  71.190  1.00  0.00    -0.408 C  
ENDROOT
BRANCH   4   5
HETATM    5  C   UNL     1     -11.933  15.789  70.883  1.00  0.00    -0.453 C  
BRANCH   5   6
HETATM    6  C   UNL     1     -10.615  15.529  70.155  1.00  0.00    -0.336 C  
BRANCH   6   7
HETATM    7  C   UNL     1     -10.496  16.417  68.915  1.00  0.00    -0.285 C  
BRANCH   7   8
HETATM    8  C   UNL     1     -11.577  16.091  67.886  1.00  0.00    -0.054 C  
BRANCH   8   9
HETATM    9  C   UNL     1     -11.102  15.009  66.916  1.00  0.00    -0.331 C  
BRANCH   9  10
HETATM   10  C   UNL     1     -12.060  13.819  66.894  1.00  0.00    -0.454 C  
BRANCH  10  11
HETATM   11  C   UNL     1     -12.782  13.721  65.548  1.00  0.00    -0.530 C  
BRANCH  11  12
HETATM   12  C   UNL     1     -11.835  13.332  64.449  1.00  0.00    -0.448 C  
HETATM   13  C   UNL     1     -12.102  12.395  63.530  1.00  0.00    -0.651 C  
ENDBRANCH  11  12
ENDBRANCH  10  11
ENDBRANCH   9  10
ENDBRANCH   8   9
ENDBRANCH   7   8
ENDBRANCH   6   7
ENDBRANCH   5   6
ENDBRANCH   4   5
TORSDOF 8
ENDMDL
MODEL       37
REMARK 921   NORMALIZED FREE ENERGY PREDICTED BY IDOCK:   -3.90 KCAL/MOL
REMARK 922        TOTAL FREE ENERGY PREDICTED BY IDOCK:   -6.21 KCAL/MOL
REMARK 923 INTER-LIGAND FREE ENERGY PREDICTED BY IDOCK:   -5.45 KCAL/MOL
REMARK 924 INTRA-LIGAND FREE ENERGY PREDICTED BY IDOCK:   -0.76 KCAL/MOL
REMARK 927      BINDING AFFINITY PREDICTED BY RF-SCORE:    0.00 PKD
ROOT
HETATM    1  O   UNL     1     -13.987  16.206  73.258  1.00  0.00    -0.515 OA 
HETATM    2  C   UNL     1     -13.367  15.008  73.147  1.00  0.00    -0.418 C  
HETATM    3  O   UNL     1     -12.337  14.749  73.747  1.00  0.00    -0.459 OA 
HETATM    4  C   UNL     1     -14.099  14.070  72.213  1.00  0.00    -0.633 C  
ENDROOT
BRANCH   4   5
HETATM    5  C   UNL     1     -13.386  12.724  72.098  1.00  0.00    -0.593 C  
BRANCH   5   6
HETATM    6  C   UNL     1     -12.535  12.640  70.831  1.00  0.00    -0.368 C  
BRANCH   6   7
HETATM    7  C   UNL     1     -12.215  11.184  70.489  1.00  0.00    -0.475 C  
BRANCH   7   8
HETATM    8  C   UNL     1     -11.869  11.018  69.010  1.00  0.00    -0.399 C  
BRANCH   8   9
HETATM    9  C   UNL     1     -10.772  11.997  68.591  1.00  0.00    -0.266 C  
BRANCH   9  10
HETATM   10  C   UNL     1     -11.101  12.669  67.258  1.00  0.00    -0.320 C  
BRANCH  10  11
HETATM   11  C   UNL     1     -10.858  14.178  67.330  1.00  0.00    -0.288 C  
BRANCH  11  12
HETATM   12  C   UNL     1     -11.907  14.859  68.160  1.00  0.00    -0.307 C  
HETATM   13  C   UNL     1     -11.647  15.838  69.036  1.00  0.00    -0.406 C  
ENDBRANCH  11  12
ENDBRANCH  10  11
ENDBRANCH   9  10
ENDBRANCH   8   9
ENDBRANCH   7   8
ENDBRANCH   6   7
ENDBRANCH   5   6
ENDBRANCH   4   5
TORSDOF 8
ENDMDL
MODEL       38
REMARK 921   NORMALIZED FREE ENERGY PREDICTED BY IDOCK:   -3.90 KCAL/MOL
REMARK 922        TOTAL FREE ENERGY PREDICTED BY IDOCK:   -6.20 KCAL/MOL
REMARK 923 INTER-LIGAND FREE ENERGY PREDICTED BY IDOCK:   -5.58 KCAL/MOL
REMARK 924 INTRA-LIGAND FREE ENERGY PREDICTED BY IDOCK:   -0.62 KCAL/MOL
REMARK 927      BINDING AFFINITY PREDICTED BY RF-SCORE:    0.00 PKD
ROOT
HETATM    1  O   UNL     1     -12.194  15.054  74.281  1.00  0.00    -0.604 OA 
HETATM    2  C   UNL     1     -12.718  15.417  73.087  1.00  0.00    -0.479 C  
HETATM    3  O   UNL     1     -13.823  15.923  72.987  1.00  0.00    -0.592 OA 
HETATM    4  C   UNL     1     -11.782  15.119  71.937  1.00  0.00    -0.490 C  
ENDROOT
BRANCH   4   5
HETATM    5  C   UNL     1     -12.388  15.532  70.597  1.00  0.00    -0.462 C  
BRANCH   5   6
HETATM    6  C   UNL     1     -11.520  15.085  69.421  1.00  0.00    -0.320 C  
BRANCH   6   7
HETATM    7  C   UNL     1     -12.076  13.806  68.794  1.00  0.00    -0.344 C  
BRANCH   7   8
HETATM    8  C   UNL     1     -10.963  12.809  68.473  1.00  0.00    -0.288 C  
BRANCH   8   9
HETATM    9  C   UNL     1     -11.458  11.728  67.511  1.00  0.00    -0.373 C  
BRANCH   9  10
HETATM   10  C   UNL     1     -11.592  12.267  66.087  1.00  0.00    -0.450 C  
BRANCH  10  11
HETATM   11  C   UNL     1     -10.353  13.070  65.685  1.00  0.00    -0.294 C  
BRANCH  11  12
HETATM   12  C   UNL     1     -10.726  14.274  64.869  1.00  0.00    -0.448 C  
HETATM   13  C   UNL     1     -11.982  14.714  64.717  1.00  0.00    -0.439 C  
ENDBRANCH  11  12
ENDBRANCH  10  11
ENDBRANCH   9  10
ENDBRANCH   8   9
ENDBRANCH   7   8
ENDBRANCH   6   7
ENDBRANCH   5   6
ENDBRANCH   4   5
TORSDOF 8
ENDMDL
MODEL       39
REMARK 921   NORMALIZED FREE ENERGY PREDICTED BY IDOCK:   -3.90 KCAL/MOL
REMARK 922        TOTAL FREE ENERGY PREDICTED BY IDOCK:   -6.20 KCAL/MOL
REMARK 923 INTER-LIGAND FREE ENERGY PREDICTED BY IDOCK:   -5.50 KCAL/MOL
REMARK 924 INTRA-LIGAND FREE ENERGY PREDICTED BY IDOCK:   -0.70 KCAL/MOL
REMARK 927      BINDING AFFINITY PREDICTED BY RF-SCORE:    0.00 PKD
ROOT
HETATM    1  O   UNL     1     -10.844  19.244  65.151  1.00  0.00    -0.445 OA 
HETATM    2  C   UNL     1     -10.506  19.343  66.458  1.00  0.00    -0.476 C  
HETATM    3  O   UNL     1     -10.143  20.394  66.959  1.00  0.00    -0.445 OA 
HETATM    4  C   UNL     1     -10.635  18.023  67.184  1.00  0.00    -0.337 C  
ENDROOT
BRANCH   4   5
HETATM    5  C   UNL     1     -10.249  18.152  68.656  1.00  0.00    -0.382 C  
BRANCH   5   6
HETATM    6  C   UNL     1     -10.428  16.832  69.406  1.00  0.00    -0.312 C  
BRANCH   6   7
HETATM    7  C   UNL     1     -10.301  15.645  68.451  1.00  0.00    -0.231 C  
BRANCH   7   8
HETATM    8  C   UNL     1     -11.275  14.524  68.815  1.00  0.00    -0.281 C  
BRANCH   8   9
HETATM    9  C   UNL     1     -11.523  14.484  70.323  1.00  0.00    -0.281 C  
BRANCH   9  10
HETATM   10  C   UNL     1     -13.018  14.471  70.642  1.00  0.00    -0.358 C  
BRANCH  10  11
HETATM   11  C   UNL     1     -13.375  15.570  71.645  1.00  0.00    -0.585 C  
BRANCH  11  12
HETATM   12  C   UNL     1     -12.284  15.758  72.659  1.00  0.00    -0.573 C  
HETATM   13  C   UNL     1     -12.441  15.553  73.973  1.00  0.00    -0.789 C  
ENDBRANCH  11  12
ENDBRANCH  10  11
ENDBRANCH   9  10
ENDBRANCH   8   9
ENDBRANCH   7   8
ENDBRANCH   6   7
ENDBRANCH   5   6
ENDBRANCH   4   5
TORSDOF 8
ENDMDL
MODEL       40
REMARK 921   NORMALIZED FREE ENERGY PREDICTED BY IDOCK:   -3.89 KCAL/MOL
REMARK 922        TOTAL FREE ENERGY PREDICTED BY IDOCK:   -6.19 KCAL/MOL
REMARK 923 INTER-LIGAND FREE ENERGY PREDICTED BY IDOCK:   -4.98 KCAL/MOL
REMARK 924 INTRA-LIGAND FREE ENERGY PREDICTED BY IDOCK:   -1.21 KCAL/MOL
REMARK 927      BINDING AFFINITY PREDICTED BY RF-SCORE:    0.00 PKD
ROOT
HETATM    1  O   UNL     1     -12.432  13.694  62.989  1.00  0.00    -0.719 OA 
HETATM    2  C   UNL     1     -12.624  13.310  64.273  1.00  0.00    -0.182 C  
HETATM    3  O   UNL     1     -13.253  12.307  64.566  1.00  0.00    -0.799 OA 
HETATM    4  C   UNL     1     -11.977  14.259  65.257  1.00  0.00    -0.389 C  
ENDROOT
BRANCH   4   5
HETATM    5  C   UNL     1     -12.205  13.813  66.700  1.00  0.00    -0.454 C  
BRANCH   5   6
HETATM    6  C   UNL     1     -10.921  13.281  67.337  1.00  0.00    -0.287 C  
BRANCH   6   7
HETATM    7  C   UNL     1     -10.824  13.715  68.801  1.00  0.00    -0.279 C  
BRANCH   7   8
HETATM    8  C   UNL     1     -11.768  14.877  69.106  1.00  0.00    -0.338 C  
BRANCH   8   9
HETATM    9  C   UNL     1     -10.984  16.134  69.485  1.00  0.00    -0.341 C  
BRANCH   9  10
HETATM   10  C   UNL     1     -10.746  17.032  68.271  1.00  0.00    -0.372 C  
BRANCH  10  11
HETATM   11  C   UNL     1      -9.276  17.443  68.172  1.00  0.00    -0.270 C  
BRANCH  11  12
HETATM   12  C   UNL     1      -8.477  16.431  67.404  1.00  0.00    -0.195 C  
HETATM   13  C   UNL     1      -8.692  16.130  66.116  1.00  0.00    -0.358 C  
ENDBRANCH  11  12
ENDBRANCH  10  11
ENDBRANCH   9  10
ENDBRANCH   8   9
ENDBRANCH   7   8
ENDBRANCH   6   7
ENDBRANCH   5   6
ENDBRANCH   4   5
TORSDOF 8
ENDMDL
MODEL       41
REMARK 921   NORMALIZED FREE ENERGY PREDICTED BY IDOCK:   -3.88 KCAL/MOL
REMARK 922        TOTAL FREE ENERGY PREDICTED BY IDOCK:   -6.18 KCAL/MOL
REMARK 923 INTER-LIGAND FREE ENERGY PREDICTED BY IDOCK:   -5.43 KCAL/MOL
REMARK 924 INTRA-LIGAND FREE ENERGY PREDICTED BY IDOCK:   -0.75 KCAL/MOL
REMARK 927      BINDING AFFINITY PREDICTED BY RF-SCORE:    0.00 PKD
ROOT
HETATM    1  O   UNL     1     -12.024  10.193  70.526  1.00  0.00    -0.284 OA 
HETATM    2  C   UNL     1     -12.811  10.810  71.438  1.00  0.00    -0.452 C  
HETATM    3  O   UNL     1     -13.437  10.192  72.282  1.00  0.00    -0.398 OA 
HETATM    4  C   UNL     1     -12.807  12.314  71.273  1.00  0.00    -0.337 C  
ENDROOT
BRANCH   4   5
HETATM    5  C   UNL     1     -13.700  12.994  72.309  1.00  0.00    -0.608 C  
BRANCH   5   6
HETATM    6  C   UNL     1     -13.088  14.301  72.813  1.00  0.00    -0.589 C  
BRANCH   6   7
HETATM    7  C   UNL     1     -13.082  15.357  71.707  1.00  0.00    -0.529 C  
BRANCH   7   8
HETATM    8  C   UNL     1     -11.695  15.974  71.527  1.00  0.00    -0.554 C  
BRANCH   8   9
HETATM    9  C   UNL     1     -11.326  16.068  70.047  1.00  0.00    -0.353 C  
BRANCH   9  10
HETATM   10  C   UNL     1     -11.014  14.691  69.460  1.00  0.00    -0.269 C  
BRANCH  10  11
HETATM   11  C   UNL     1     -11.862  14.421  68.215  1.00  0.00    -0.361 C  
BRANCH  11  12
HETATM   12  C   UNL     1     -11.784  12.979  67.805  1.00  0.00    -0.405 C  
HETATM   13  C   UNL     1     -10.835  12.480  67.004  1.00  0.00    -0.287 C  
ENDBRANCH  11  12
ENDBRANCH  10  11
ENDBRANCH   9  10
ENDBRANCH   8   9
ENDBRANCH   7   8
ENDBRANCH   6   7
ENDBRANCH   5   6
ENDBRANCH   4   5
TORSDOF 8
ENDMDL
MODEL       42
REMARK 921   NORMALIZED FREE ENERGY PREDICTED BY IDOCK:   -3.88 KCAL/MOL
REMARK 922        TOTAL FREE ENERGY PREDICTED BY IDOCK:   -6.17 KCAL/MOL
REMARK 923 INTER-LIGAND FREE ENERGY PREDICTED BY IDOCK:   -5.37 KCAL/MOL
REMARK 924 INTRA-LIGAND FREE ENERGY PREDICTED BY IDOCK:   -0.80 KCAL/MOL
REMARK 927      BINDING AFFINITY PREDICTED BY RF-SCORE:    0.00 PKD
ROOT
HETATM    1  O   UNL     1     -11.769  16.521  64.039  1.00  0.00    -1.111 OA 
HETATM    2  C   UNL     1     -11.804  15.215  64.392  1.00  0.00    -0.305 C  
HETATM    3  O   UNL     1     -12.844  14.579  64.432  1.00  0.00    -0.603 OA 
HETATM    4  C   UNL     1     -10.430  14.674  64.719  1.00  0.00    -0.343 C  
ENDROOT
BRANCH   4   5
HETATM    5  C   UNL     1     -10.488  13.200  65.117  1.00  0.00    -0.339 C  
BRANCH   5   6
HETATM    6  C   UNL     1     -10.588  12.288  63.895  1.00  0.00    -0.462 C  
BRANCH   6   7
HETATM    7  C   UNL     1     -10.027  10.900  64.208  1.00  0.00    -0.392 C  
BRANCH   7   8
HETATM    8  C   UNL     1      -9.286  10.882  65.545  1.00  0.00    -0.232 C  
BRANCH   8   9
HETATM    9  C   UNL     1      -9.737   9.702  66.405  1.00  0.00    -0.285 C  
BRANCH   9  10
HETATM   10  C   UNL     1     -10.834  10.112  67.386  1.00  0.00    -0.323 C  
BRANCH  10  11
HETATM   11  C   UNL     1     -10.428  11.360  68.173  1.00  0.00    -0.212 C  
BRANCH  11  12
HETATM   12  C   UNL     1     -11.630  12.151  68.599  1.00  0.00    -0.372 C  
HETATM   13  C   UNL     1     -11.673  13.490  68.626  1.00  0.00    -0.389 C  
ENDBRANCH  11  12
ENDBRANCH  10  11
ENDBRANCH   9  10
ENDBRANCH   8   9
ENDBRANCH   7   8
ENDBRANCH   6   7
ENDBRANCH   5   6
ENDBRANCH   4   5
TORSDOF 8
ENDMDL
MODEL       43
REMARK 921   NORMALIZED FREE ENERGY PREDICTED BY IDOCK:   -3.87 KCAL/MOL
REMARK 922        TOTAL FREE ENERGY PREDICTED BY IDOCK:   -6.16 KCAL/MOL
REMARK 923 INTER-LIGAND FREE ENERGY PREDICTED BY IDOCK:   -5.44 KCAL/MOL
REMARK 924 INTRA-LIGAND FREE ENERGY PREDICTED BY IDOCK:   -0.73 KCAL/MOL
REMARK 927      BINDING AFFINITY PREDICTED BY RF-SCORE:    0.00 PKD
ROOT
HETATM    1  O   UNL     1     -11.957   8.371  71.581  1.00  0.00    -0.278 OA 
HETATM    2  C   UNL     1     -11.812   9.694  71.338  1.00  0.00    -0.406 C  
HETATM    3  O   UNL     1     -10.796  10.159  70.849  1.00  0.00    -0.290 OA 
HETATM    4  C   UNL     1     -13.035  10.487  71.741  1.00  0.00    -0.582 C  
ENDROOT
BRANCH   4   5
HETATM    5  C   UNL     1     -12.854  11.978  71.462  1.00  0.00    -0.403 C  
BRANCH   5   6
HETATM    6  C   UNL     1     -13.863  12.825  72.238  1.00  0.00    -0.395 C  
BRANCH   6   7
HETATM    7  C   UNL     1     -13.193  14.076  72.810  1.00  0.00    -0.580 C  
BRANCH   7   8
HETATM    8  C   UNL     1     -13.786  15.352  72.216  1.00  0.00    -0.649 C  
BRANCH   8   9
HETATM    9  C   UNL     1     -13.380  15.514  70.751  1.00  0.00    -0.315 C  
BRANCH   9  10
HETATM   10  C   UNL     1     -11.865  15.651  70.603  1.00  0.00    -0.409 C  
BRANCH  10  11
HETATM   11  C   UNL     1     -11.446  15.555  69.134  1.00  0.00    -0.356 C  
BRANCH  11  12
HETATM   12  C   UNL     1     -11.549  14.144  68.630  1.00  0.00    -0.352 C  
HETATM   13  C   UNL     1     -12.026  13.815  67.423  1.00  0.00    -0.423 C  
ENDBRANCH  11  12
ENDBRANCH  10  11
ENDBRANCH   9  10
ENDBRANCH   8   9
ENDBRANCH   7   8
ENDBRANCH   6   7
ENDBRANCH   5   6
ENDBRANCH   4   5
TORSDOF 8
ENDMDL
MODEL       44
REMARK 921   NORMALIZED FREE ENERGY PREDICTED BY IDOCK:   -3.86 KCAL/MOL
REMARK 922        TOTAL FREE ENERGY PREDICTED BY IDOCK:   -6.15 KCAL/MOL
REMARK 923 INTER-LIGAND FREE ENERGY PREDICTED BY IDOCK:   -5.32 KCAL/MOL
REMARK 924 INTRA-LIGAND FREE ENERGY PREDICTED BY IDOCK:   -0.83 KCAL/MOL
REMARK 927      BINDING AFFINITY PREDICTED BY RF-SCORE:    0.00 PKD
ROOT
HETATM    1  O   UNL     1     -14.078  13.332  72.681  1.00  0.00    -0.744 OA 
HETATM    2  C   UNL     1     -13.745  14.423  71.952  1.00  0.00    -0.431 C  
HETATM    3  O   UNL     1     -14.409  15.446  71.970  1.00  0.00    -0.533 OA 
HETATM    4  C   UNL     1     -12.486  14.206  71.143  1.00  0.00    -0.445 C  
ENDROOT
BRANCH   4   5
HETATM    5  C   UNL     1     -12.125  15.445  70.325  1.00  0.00    -0.402 C  
BRANCH   5   6
HETATM    6  C   UNL     1     -10.893  15.206  69.451  1.00  0.00    -0.265 C  
BRANCH   6   7
HETATM    7  C   UNL     1     -11.209  15.494  67.982  1.00  0.00    -0.332 C  
BRANCH   7   8
HETATM    8  C   UNL     1     -12.144  14.439  67.392  1.00  0.00    -0.348 C  
BRANCH   8   9
HETATM    9  C   UNL     1     -11.560  13.847  66.109  1.00  0.00    -0.371 C  
BRANCH   9  10
HETATM   10  C   UNL     1     -11.573  12.319  66.143  1.00  0.00    -0.450 C  
BRANCH  10  11
HETATM   11  C   UNL     1     -10.789  11.790  67.346  1.00  0.00    -0.299 C  
BRANCH  11  12
HETATM   12  C   UNL     1     -11.639  10.893  68.198  1.00  0.00    -0.317 C  
HETATM   13  C   UNL     1     -11.601  10.877  69.537  1.00  0.00    -0.384 C  
ENDBRANCH  11  12
ENDBRANCH  10  11
ENDBRANCH   9  10
ENDBRANCH   8   9
ENDBRANCH   7   8
ENDBRANCH   6   7
ENDBRANCH   5   6
ENDBRANCH   4   5
TORSDOF 8
ENDMDL
MODEL       45
REMARK 921   NORMALIZED FREE ENERGY PREDICTED BY IDOCK:   -3.86 KCAL/MOL
REMARK 922        TOTAL FREE ENERGY PREDICTED BY IDOCK:   -6.14 KCAL/MOL
REMARK 923 INTER-LIGAND FREE ENERGY PREDICTED BY IDOCK:   -5.43 KCAL/MOL
REMARK 924 INTRA-LIGAND FREE ENERGY PREDICTED BY IDOCK:   -0.72 KCAL/MOL
REMARK 927      BINDING AFFINITY PREDICTED BY RF-SCORE:    0.00 PKD
ROOT
HETATM    1  O   UNL     1     -10.088  19.652  69.181  1.00  0.00    -0.438 OA 
HETATM    2  C   UNL     1     -10.505  18.740  68.272  1.00  0.00    -0.266 C  
HETATM    3  O   UNL     1     -10.930  19.061  67.175  1.00  0.00    -0.433 OA 
HETATM    4  C   UNL     1     -10.376  17.323  68.784  1.00  0.00    -0.358 C  
ENDROOT
BRANCH   4   5
HETATM    5  C   UNL     1     -10.853  16.307  67.748  1.00  0.00    -0.315 C  
BRANCH   5   6
HETATM    6  C   UNL     1     -10.547  14.873  68.180  1.00  0.00    -0.244 C  
BRANCH   6   7
HETATM    7  C   UNL     1     -11.817  14.021  68.169  1.00  0.00    -0.402 C  
BRANCH   7   8
HETATM    8  C   UNL     1     -11.885  13.097  69.383  1.00  0.00    -0.383 C  
BRANCH   8   9
HETATM    9  C   UNL     1     -11.873  13.901  70.684  1.00  0.00    -0.292 C  
BRANCH   9  10
HETATM   10  C   UNL     1     -13.240  14.523  70.969  1.00  0.00    -0.414 C  
BRANCH  10  11
HETATM   11  C   UNL     1     -13.107  15.746  71.877  1.00  0.00    -0.492 C  
BRANCH  11  12
HETATM   12  C   UNL     1     -12.105  15.508  72.970  1.00  0.00    -0.574 C  
HETATM   13  C   UNL     1     -12.408  15.504  74.274  1.00  0.00    -0.815 C  
ENDBRANCH  11  12
ENDBRANCH  10  11
ENDBRANCH   9  10
ENDBRANCH   8   9
ENDBRANCH   7   8
ENDBRANCH   6   7
ENDBRANCH   5   6
ENDBRANCH   4   5
TORSDOF 8
ENDMDL
MODEL       46
REMARK 921   NORMALIZED FREE ENERGY PREDICTED BY IDOCK:   -3.85 KCAL/MOL
REMARK 922        TOTAL FREE ENERGY PREDICTED BY IDOCK:   -6.13 KCAL/MOL
REMARK 923 INTER-LIGAND FREE ENERGY PREDICTED BY IDOCK:   -5.02 KCAL/MOL
REMARK 924 INTRA-LIGAND FREE ENERGY PREDICTED BY IDOCK:   -1.11 KCAL/MOL
REMARK 927      BINDING AFFINITY PREDICTED BY RF-SCORE:    0.00 PKD
ROOT
HETATM    1  O   UNL     1     -12.653  13.825  63.475  1.00  0.00    -0.814 OA 
HETATM    2  C   UNL     1     -12.067  14.837  64.156  1.00  0.00    -0.299 C  
HETATM    3  O   UNL     1     -12.201  16.005  63.830  1.00  0.00    -0.883 OA 
HETATM    4  C   UNL     1     -11.254  14.341  65.331  1.00  0.00    -0.329 C  
ENDROOT
BRANCH   4   5
HETATM    5  C   UNL     1     -10.598  15.494  66.087  1.00  0.00    -0.321 C  
BRANCH   5   6
HETATM    6  C   UNL     1     -10.354  15.143  67.554  1.00  0.00    -0.242 C  
BRANCH   6   7
HETATM    7  C   UNL     1     -11.638  15.302  68.370  1.00  0.00    -0.365 C  
BRANCH   7   8
HETATM    8  C   UNL     1     -11.783  14.194  69.412  1.00  0.00    -0.361 C  
BRANCH   8   9
HETATM    9  C   UNL     1     -10.921  12.985  69.048  1.00  0.00    -0.242 C  
BRANCH   9  10
HETATM   10  C   UNL     1     -11.780  11.788  68.640  1.00  0.00    -0.389 C  
BRANCH  10  11
HETATM   11  C   UNL     1     -11.394  11.285  67.248  1.00  0.00    -0.329 C  
BRANCH  11  12
HETATM   12  C   UNL     1      -9.903  11.254  67.074  1.00  0.00    -0.217 C  
HETATM   13  C   UNL     1      -9.292  11.037  65.902  1.00  0.00    -0.229 C  
ENDBRANCH  11  12
ENDBRANCH  10  11
ENDBRANCH   9  10
ENDBRANCH   8   9
ENDBRANCH   7   8
ENDBRANCH   6   7
ENDBRANCH   5   6
ENDBRANCH   4   5
TORSDOF 8
ENDMDL
MODEL       47
REMARK 921   NORMALIZED FREE ENERGY PREDICTED BY IDOCK:   -3.84 KCAL/MOL
REMARK 922        TOTAL FREE ENERGY PREDICTED BY IDOCK:   -6.11 KCAL/MOL
REMARK 923 INTER-LIGAND FREE ENERGY PREDICTED BY IDOCK:   -5.44 KCAL/MOL
REMARK 924 INTRA-LIGAND FREE ENERGY PREDICTED BY IDOCK:   -0.67 KCAL/MOL
REMARK 927      BINDING AFFINITY PREDICTED BY RF-SCORE:    0.00 PKD
ROOT
HETATM    1  O   UNL     1     -12.394  13.149  63.360  1.00  0.00    -0.705 OA 
HETATM    2  C   UNL     1     -12.219  13.846  64.507  1.00  0.00    -0.417 C  
HETATM    3  O   UNL     1     -13.140  14.089  65.269  1.00  0.00    -0.782 OA 
HETATM    4  C   UNL     1     -10.780  14.266  64.708  1.00  0.00    -0.435 C  
ENDROOT
BRANCH   4   5
HETATM    5  C   UNL     1     -10.600  15.052  66.005  1.00  0.00    -0.329 C  
BRANCH   5   6
HETATM    6  C   UNL     1      -9.349  15.930  65.965  1.00  0.00    -0.385 C  
BRANCH   6   7
HETATM    7  C   UNL     1      -8.364  15.519  67.060  1.00  0.00    -0.265 C  
BRANCH   7   8
HETATM    8  C   UNL     1      -7.147  16.442  67.096  1.00  0.00    -0.235 C  
BRANCH   8   9
HETATM    9  C   UNL     1      -7.294  17.581  66.087  1.00  0.00    -0.347 C  
BRANCH   9  10
HETATM   10  C   UNL     1      -6.954  18.932  66.715  1.00  0.00    -0.212 C  
BRANCH  10  11
HETATM   11  C   UNL     1      -8.084  19.939  66.494  1.00  0.00    -0.357 C  
BRANCH  11  12
HETATM   12  C   UNL     1      -9.414  19.360  66.879  1.00  0.00    -0.406 C  
HETATM   13  C   UNL     1     -10.277  19.959  67.709  1.00  0.00    -0.567 C  
ENDBRANCH  11  12
ENDBRANCH  10  11
ENDBRANCH   9  10
ENDBRANCH   8   9
ENDBRANCH   7   8
ENDBRANCH   6   7
ENDBRANCH   5   6
ENDBRANCH   4   5
TORSDOF 8
ENDMDL
MODEL       48
REMARK 921   NORMALIZED FREE ENERGY PREDICTED BY IDOCK:   -3.83 KCAL/MOL
REMARK 922        TOTAL FREE ENERGY PREDICTED BY IDOCK:   -6.10 KCAL/MOL
REMARK 923 INTER-LIGAND FREE ENERGY PREDICTED BY IDOCK:   -5.73 KCAL/MOL
REMARK 924 INTRA-LIGAND FREE ENERGY PREDICTED BY IDOCK:   -0.37 KCAL/MOL
REMARK 927      BINDING AFFINITY PREDICTED BY RF-SCORE:    0.00 PKD
ROOT
HETATM    1  O   UNL     1     -11.604   8.042  72.182  1.00  0.00    -0.297 OA 
HETATM    2  C   UNL     1     -12.216   9.224  71.935  1.00  0.00    -0.378 C  
HETATM    3  O   UNL     1     -13.239   9.560  72.507  1.00  0.00    -0.408 OA 
HETATM    4  C   UNL     1     -11.485  10.039  70.890  1.00  0.00    -0.452 C  
ENDROOT
BRANCH   4   5
HETATM    5  C   UNL     1     -12.189  11.367  70.622  1.00  0.00    -0.484 C  
BRANCH   5   6
HETATM    6  C   UNL     1     -11.615  12.074  69.394  1.00  0.00    -0.393 C  
BRANCH   6   7
HETATM    7  C   UNL     1     -11.936  13.569  69.430  1.00  0.00    -0.383 C  
BRANCH   7   8
HETATM    8  C   UNL     1     -11.852  14.195  68.039  1.00  0.00    -0.400 C  
BRANCH   8   9
HETATM    9  C   UNL     1     -11.880  13.120  66.952  1.00  0.00    -0.444 C  
BRANCH   9  10
HETATM   10  C   UNL     1     -12.367  13.686  65.619  1.00  0.00    -0.518 C  
BRANCH  10  11
HETATM   11  C   UNL     1     -12.657  12.564  64.620  1.00  0.00    -0.507 C  
BRANCH  11  12
HETATM   12  C   UNL     1     -11.601  12.497  63.554  1.00  0.00    -0.584 C  
HETATM   13  C   UNL     1     -10.695  11.515  63.460  1.00  0.00    -0.483 C  
ENDBRANCH  11  12
ENDBRANCH  10  11
ENDBRANCH   9  10
ENDBRANCH   8   9
ENDBRANCH   7   8
ENDBRANCH   6   7
ENDBRANCH   5   6
ENDBRANCH   4   5
TORSDOF 8
ENDMDL
MODEL       49
REMARK 921   NORMALIZED FREE ENERGY PREDICTED BY IDOCK:   -3.82 KCAL/MOL
REMARK 922        TOTAL FREE ENERGY PREDICTED BY IDOCK:   -6.09 KCAL/MOL
REMARK 923 INTER-LIGAND FREE ENERGY PREDICTED BY IDOCK:   -5.31 KCAL/MOL
REMARK 924 INTRA-LIGAND FREE ENERGY PREDICTED BY IDOCK:   -0.77 KCAL/MOL
REMARK 927      BINDING AFFINITY PREDICTED BY RF-SCORE:    0.00 PKD
ROOT
HETATM    1  O   UNL     1     -10.417  17.714  68.905  1.00  0.00    -0.351 OA 
HETATM    2  C   UNL     1     -10.426  16.379  69.128  1.00  0.00    -0.303 C  
HETATM    3  O   UNL     1      -9.506  15.806  69.687  1.00  0.00    -0.276 OA 
HETATM    4  C   UNL     1     -11.685  15.721  68.609  1.00  0.00    -0.353 C  
ENDROOT
BRANCH   4   5
HETATM    5  C   UNL     1     -11.679  14.216  68.867  1.00  0.00    -0.369 C  
BRANCH   5   6
HETATM    6  C   UNL     1     -11.801  13.418  67.568  1.00  0.00    -0.408 C  
BRANCH   6   7
HETATM    7  C   UNL     1     -11.693  14.342  66.354  1.00  0.00    -0.403 C  
BRANCH   7   8
HETATM    8  C   UNL     1     -12.686  13.950  65.261  1.00  0.00    -0.485 C  
BRANCH   8   9
HETATM    9  C   UNL     1     -12.523  12.480  64.874  1.00  0.00    -0.524 C  
BRANCH   9  10
HETATM   10  C   UNL     1     -11.931  12.334  63.472  1.00  0.00    -0.625 C  
BRANCH  10  11
HETATM   11  C   UNL     1     -10.425  12.075  63.537  1.00  0.00    -0.505 C  
BRANCH  11  12
HETATM   12  C   UNL     1     -10.054  11.328  64.785  1.00  0.00    -0.338 C  
HETATM   13  C   UNL     1      -9.634  10.056  64.798  1.00  0.00    -0.374 C  
ENDBRANCH  11  12
ENDBRANCH  10  11
ENDBRANCH   9  10
ENDBRANCH   8   9
ENDBRANCH   7   8
ENDBRANCH   6   7
ENDBRANCH   5   6
ENDBRANCH   4   5
TORSDOF 8
ENDMDL
MODEL       50
REMARK 921   NORMALIZED FREE ENERGY PREDICTED BY IDOCK:   -3.82 KCAL/MOL
REMARK 922        TOTAL FREE ENERGY PREDICTED BY IDOCK:   -6.08 KCAL/MOL
REMARK 923 INTER-LIGAND FREE ENERGY PREDICTED BY IDOCK:   -5.15 KCAL/MOL
REMARK 924 INTRA-LIGAND FREE ENERGY PREDICTED BY IDOCK:   -0.93 KCAL/MOL
REMARK 927      BINDING AFFINITY PREDICTED BY RF-SCORE:    0.00 PKD
ROOT
HETATM    1  O   UNL     1     -10.710  11.196  64.875  1.00  0.00    -0.302 OA 
HETATM    2  C   UNL     1     -11.376  12.315  65.245  1.00  0.00    -0.338 C  
HETATM    3  O   UNL     1     -12.176  12.322  66.165  1.00  0.00    -0.647 OA 
HETATM    4  C   UNL     1     -11.006  13.509  64.394  1.00  0.00    -0.399 C  
ENDROOT
BRANCH   4   5
HETATM    5  C   UNL     1     -11.767  14.762  64.823  1.00  0.00    -0.422 C  
BRANCH   5   6
HETATM    6  C   UNL     1     -10.826  15.943  65.057  1.00  0.00    -0.444 C  
BRANCH   6   7
HETATM    7  C   UNL     1      -9.827  15.628  66.171  1.00  0.00    -0.340 C  
BRANCH   7   8
HETATM    8  C   UNL     1     -10.504  15.600  67.541  1.00  0.00    -0.285 C  
BRANCH   8   9
HETATM    9  C   UNL     1      -9.649  16.314  68.589  1.00  0.00    -0.237 C  
BRANCH   9  10
HETATM   10  C   UNL     1      -8.799  17.416  67.959  1.00  0.00    -0.252 C  
BRANCH  10  11
HETATM   11  C   UNL     1      -9.129  18.780  68.568  1.00  0.00    -0.377 C  
BRANCH  11  12
HETATM   12  C   UNL     1     -10.368  19.365  67.954  1.00  0.00    -0.542 C  
HETATM   13  C   UNL     1     -10.627  19.355  66.640  1.00  0.00    -0.566 C  
ENDBRANCH  11  12
ENDBRANCH  10  11
ENDBRANCH   9  10
ENDBRANCH   8   9
ENDBRANCH   7   8
ENDBRANCH   6   7
ENDBRANCH   5   6
ENDBRANCH   4   5
TORSDOF 8
ENDMDL
MODEL       51
REMARK 921   NORMALIZED FREE ENERGY PREDICTED BY IDOCK:   -3.81 KCAL/MOL
REMARK 922        TOTAL FREE ENERGY PREDICTED BY IDOCK:   -6.07 KCAL/MOL
REMARK 923 INTER-LIGAND FREE ENERGY PREDICTED BY IDOCK:   -5.59 KCAL/MOL
REMARK 924 INTRA-LIGAND FREE ENERGY PREDICTED BY IDOCK:   -0.48 KCAL/MOL
REMARK 927      BINDING AFFINITY PREDICTED BY RF-SCORE:    0.00 PKD
ROOT
HETATM    1  O   UNL     1     -11.436   6.597  71.981  1.00  0.00    -0.264 OA 
HETATM    2  C   UNL     1     -12.434   7.490  71.782  1.00  0.00    -0.330 C  
HETATM    3  O   UNL     1     -13.544   7.154  71.407  1.00  0.00    -0.375 OA 
HETATM    4  C   UNL     1     -11.999   8.908  72.077  1.00  0.00    -0.439 C  
ENDROOT
BRANCH   4   5
HETATM    5  C   UNL     1     -13.134   9.903  71.846  1.00  0.00    -0.559 C  
BRANCH   5   6
HETATM    6  C   UNL     1     -13.070  10.521  70.449  1.00  0.00    -0.112 C  
BRANCH   6   7
HETATM    7  C   UNL     1     -11.985  11.597  70.383  1.00  0.00    -0.448 C  
BRANCH   7   8
HETATM    8  C   UNL     1     -12.498  12.944  70.890  1.00  0.00    -0.383 C  
BRANCH   8   9
HETATM    9  C   UNL     1     -12.319  14.032  69.830  1.00  0.00    -0.367 C  
BRANCH   9  10
HETATM   10  C   UNL     1     -12.286  15.424  70.459  1.00  0.00    -0.452 C  
BRANCH  10  11
HETATM   11  C   UNL     1     -11.443  15.430  71.736  1.00  0.00    -0.497 C  
BRANCH  11  12
HETATM   12  C   UNL     1     -12.137  16.166  72.845  1.00  0.00    -0.643 C  
HETATM   13  C   UNL     1     -12.760  15.564  73.866  1.00  0.00    -0.723 C  
ENDBRANCH  11  12
ENDBRANCH  10  11
ENDBRANCH   9  10
ENDBRANCH   8   9
ENDBRANCH   7   8
ENDBRANCH   6   7
ENDBRANCH   5   6
ENDBRANCH   4   5
TORSDOF 8
ENDMDL
MODEL       52
REMARK 921   NORMALIZED FREE ENERGY PREDICTED BY IDOCK:   -3.81 KCAL/MOL
REMARK 922        TOTAL FREE ENERGY PREDICTED BY IDOCK:   -6.07 KCAL/MOL
REMARK 923 INTER-LIGAND FREE ENERGY PREDICTED BY IDOCK:   -5.38 KCAL/MOL
REMARK 924 INTRA-LIGAND FREE ENERGY PREDICTED BY IDOCK:   -0.68 KCAL/MOL
REMARK 927      BINDING AFFINITY PREDICTED BY RF-SCORE:    0.00 PKD
ROOT
HETATM    1  O   UNL     1      -8.722   8.852  70.957  1.00  0.00    -0.187 OA 
HETATM    2  C   UNL     1     -10.008   9.113  71.289  1.00  0.00    -0.303 C  
HETATM    3  O   UNL     1     -10.511   8.702  72.321  1.00  0.00    -0.330 OA 
HETATM    4  C   UNL     1     -10.709   9.954  70.245  1.00  0.00    -0.367 C  
ENDROOT
BRANCH   4   5
HETATM    5  C   UNL     1     -12.158  10.239  70.634  1.00  0.00    -0.433 C  
BRANCH   5   6
HETATM    6  C   UNL     1     -12.404  11.732  70.847  1.00  0.00    -0.420 C  
BRANCH   6   7
HETATM    7  C   UNL     1     -13.410  11.960  71.976  1.00  0.00    -0.425 C  
BRANCH   7   8
HETATM    8  C   UNL     1     -13.304  13.373  72.547  1.00  0.00    -0.588 C  
BRANCH   8   9
HETATM    9  C   UNL     1     -14.353  14.295  71.924  1.00  0.00    -0.597 C  
BRANCH   9  10
HETATM   10  C   UNL     1     -13.700  15.455  71.171  1.00  0.00    -0.497 C  
BRANCH  10  11
HETATM   11  C   UNL     1     -12.241  15.632  71.595  1.00  0.00    -0.493 C  
BRANCH  11  12
HETATM   12  C   UNL     1     -11.307  15.390  70.445  1.00  0.00    -0.350 C  
HETATM   13  C   UNL     1     -11.608  15.659  69.168  1.00  0.00    -0.393 C  
ENDBRANCH  11  12
ENDBRANCH  10  11
ENDBRANCH   9  10
ENDBRANCH   8   9
ENDBRANCH   7   8
ENDBRANCH   6   7
ENDBRANCH   5   6
ENDBRANCH   4   5
TORSDOF 8
ENDMDL
MODEL       53
REMARK 921   NORMALIZED FREE ENERGY PREDICTED BY IDOCK:   -3.80 KCAL/MOL
REMARK 922        TOTAL FREE ENERGY PREDICTED BY IDOCK:   -6.06 KCAL/MOL
REMARK 923 INTER-LIGAND FREE ENERGY PREDICTED BY IDOCK:   -5.26 KCAL/MOL
REMARK 924 INTRA-LIGAND FREE ENERGY PREDICTED BY IDOCK:   -0.80 KCAL/MOL
REMARK 927      BINDING AFFINITY PREDICTED BY RF-SCORE:    0.00 PKD
ROOT
HETATM    1  O   UNL     1     -14.153  13.479  72.630  1.00  0.00    -0.762 OA 
HETATM    2  C   UNL     1     -13.566  14.265  71.697  1.00  0.00    -0.381 C  
HETATM    3  O   UNL     1     -13.868  15.438  71.551  1.00  0.00    -0.483 OA 
HETATM    4  C   UNL     1     -12.527  13.518  70.892  1.00  0.00    -0.448 C  
ENDROOT
BRANCH   4   5
HETATM    5  C   UNL     1     -11.876  14.418  69.843  1.00  0.00    -0.382 C  
BRANCH   5   6
HETATM    6  C   UNL     1     -11.877  13.767  68.460  1.00  0.00    -0.406 C  
BRANCH   6   7
HETATM    7  C   UNL     1     -10.447  13.531  67.972  1.00  0.00    -0.245 C  
BRANCH   7   8
HETATM    8  C   UNL     1     -10.360  13.577  66.447  1.00  0.00    -0.289 C  
BRANCH   8   9
HETATM    9  C   UNL     1      -9.651  14.847  65.977  1.00  0.00    -0.346 C  
BRANCH   9  10
HETATM   10  C   UNL     1     -10.652  15.915  65.536  1.00  0.00    -0.419 C  
BRANCH  10  11
HETATM   11  C   UNL     1     -10.329  17.267  66.176  1.00  0.00    -0.320 C  
BRANCH  11  12
HETATM   12  C   UNL     1     -10.515  17.223  67.665  1.00  0.00    -0.363 C  
HETATM   13  C   UNL     1     -10.141  18.207  68.494  1.00  0.00    -0.413 C  
ENDBRANCH  11  12
ENDBRANCH  10  11
ENDBRANCH   9  10
ENDBRANCH   8   9
ENDBRANCH   7   8
ENDBRANCH   6   7
ENDBRANCH   5   6
ENDBRANCH   4   5
TORSDOF 8
ENDMDL
MODEL       54
REMARK 921   NORMALIZED FREE ENERGY PREDICTED BY IDOCK:   -3.80 KCAL/MOL
REMARK 922        TOTAL FREE ENERGY PREDICTED BY IDOCK:   -6.06 KCAL/MOL
REMARK 923 INTER-LIGAND FREE ENERGY PREDICTED BY IDOCK:   -5.47 KCAL/MOL
REMARK 924 INTRA-LIGAND FREE ENERGY PREDICTED BY IDOCK:   -0.59 KCAL/MOL
REMARK 927      BINDING AFFINITY PREDICTED BY RF-SCORE:    0.00 PKD
ROOT
HETATM    1  O   UNL     1     -14.267  13.493  72.651  1.00  0.00    -0.751 OA 
HETATM    2  C   UNL     1     -13.777  14.697  72.274  1.00  0.00    -0.460 C  
HETATM    3  O   UNL     1     -14.407  15.731  72.420  1.00  0.00    -0.514 OA 
HETATM    4  C   UNL     1     -12.395  14.589  71.670  1.00  0.00    -0.420 C  
ENDROOT
BRANCH   4   5
HETATM    5  C   UNL     1     -11.858  15.955  71.248  1.00  0.00    -0.502 C  
BRANCH   5   6
HETATM    6  C   UNL     1     -11.572  16.013  69.748  1.00  0.00    -0.297 C  
BRANCH   6   7
HETATM    7  C   UNL     1     -10.121  16.422  69.489  1.00  0.00    -0.199 C  
BRANCH   7   8
HETATM    8  C   UNL     1      -9.878  16.722  68.010  1.00  0.00    -0.265 C  
BRANCH   8   9
HETATM    9  C   UNL     1     -10.662  17.957  67.566  1.00  0.00    -0.333 C  
BRANCH   9  10
HETATM   10  C   UNL     1     -10.157  19.220  68.264  1.00  0.00    -0.516 C  
BRANCH  10  11
HETATM   11  C   UNL     1      -9.429  20.137  67.279  1.00  0.00    -0.532 C  
BRANCH  11  12
HETATM   12  C   UNL     1      -7.993  20.328  67.672  1.00  0.00    -0.311 C  
HETATM   13  C   UNL     1      -7.342  19.534  68.532  1.00  0.00    -0.368 C  
ENDBRANCH  11  12
ENDBRANCH  10  11
ENDBRANCH   9  10
ENDBRANCH   8   9
ENDBRANCH   7   8
ENDBRANCH   6   7
ENDBRANCH   5   6
ENDBRANCH   4   5
TORSDOF 8
ENDMDL
MODEL       55
REMARK 921   NORMALIZED FREE ENERGY PREDICTED BY IDOCK:   -3.79 KCAL/MOL
REMARK 922        TOTAL FREE ENERGY PREDICTED BY IDOCK:   -6.04 KCAL/MOL
REMARK 923 INTER-LIGAND FREE ENERGY PREDICTED BY IDOCK:   -5.30 KCAL/MOL
REMARK 924 INTRA-LIGAND FREE ENERGY PREDICTED BY IDOCK:   -0.74 KCAL/MOL
REMARK 927      BINDING AFFINITY PREDICTED BY RF-SCORE:    0.00 PKD
ROOT
HETATM    1  O   UNL     1     -12.399  15.884  73.936  1.00  0.00    -0.502 OA 
HETATM    2  C   UNL     1     -12.741  15.043  72.933  1.00  0.00    -0.425 C  
HETATM    3  O   UNL     1     -13.366  14.014  73.130  1.00  0.00    -0.613 OA 
HETATM    4  C   UNL     1     -12.261  15.534  71.586  1.00  0.00    -0.468 C  
ENDROOT
BRANCH   4   5
HETATM    5  C   UNL     1     -12.654  14.573  70.465  1.00  0.00    -0.413 C  
BRANCH   5   6
HETATM    6  C   UNL     1     -11.885  14.862  69.176  1.00  0.00    -0.340 C  
BRANCH   6   7
HETATM    7  C   UNL     1     -10.853  15.969  69.398  1.00  0.00    -0.300 C  
BRANCH   7   8
HETATM    8  C   UNL     1     -10.694  16.845  68.156  1.00  0.00    -0.375 C  
BRANCH   8   9
HETATM    9  C   UNL     1      -9.398  16.514  67.415  1.00  0.00    -0.223 C  
BRANCH   9  10
HETATM   10  C   UNL     1      -9.672  16.104  65.968  1.00  0.00    -0.376 C  
BRANCH  10  11
HETATM   11  C   UNL     1     -10.191  14.666  65.895  1.00  0.00    -0.344 C  
BRANCH  11  12
HETATM   12  C   UNL     1     -11.496  14.595  65.157  1.00  0.00    -0.375 C  
HETATM   13  C   UNL     1     -12.478  13.735  65.456  1.00  0.00    -0.548 C  
ENDBRANCH  11  12
ENDBRANCH  10  11
ENDBRANCH   9  10
ENDBRANCH   8   9
ENDBRANCH   7   8
ENDBRANCH   6   7
ENDBRANCH   5   6
ENDBRANCH   4   5
TORSDOF 8
ENDMDL
MODEL       56
REMARK 921   NORMALIZED FREE ENERGY PREDICTED BY IDOCK:   -3.78 KCAL/MOL
REMARK 922        TOTAL FREE ENERGY PREDICTED BY IDOCK:   -6.03 KCAL/MOL
REMARK 923 INTER-LIGAND FREE ENERGY PREDICTED BY IDOCK:   -5.10 KCAL/MOL
REMARK 924 INTRA-LIGAND FREE ENERGY PREDICTED BY IDOCK:   -0.93 KCAL/MOL
REMARK 927      BINDING AFFINITY PREDICTED BY RF-SCORE:    0.00 PKD
ROOT
HETATM    1  O   UNL     1     -13.226   9.443  72.373  1.00  0.00    -0.434 OA 
HETATM    2  C   UNL     1     -12.972  10.600  71.720  1.00  0.00    -0.472 C  
HETATM    3  O   UNL     1     -13.407  11.674  72.103  1.00  0.00    -0.491 OA 
HETATM    4  C   UNL     1     -12.110  10.389  70.495  1.00  0.00    -0.423 C  
ENDROOT
BRANCH   4   5
HETATM    5  C   UNL     1     -11.835  11.704  69.769  1.00  0.00    -0.428 C  
BRANCH   5   6
HETATM    6  C   UNL     1     -11.721  11.503  68.258  1.00  0.00    -0.371 C  
BRANCH   6   7
HETATM    7  C   UNL     1     -10.962  12.664  67.613  1.00  0.00    -0.275 C  
BRANCH   7   8
HETATM    8  C   UNL     1     -11.911  13.772  67.158  1.00  0.00    -0.442 C  
BRANCH   8   9
HETATM    9  C   UNL     1     -11.592  15.090  67.864  1.00  0.00    -0.350 C  
BRANCH   9  10
HETATM   10  C   UNL     1     -10.391  14.946  68.799  1.00  0.00    -0.245 C  
BRANCH  10  11
HETATM   11  C   UNL     1     -10.639  15.669  70.125  1.00  0.00    -0.348 C  
BRANCH  11  12
HETATM   12  C   UNL     1     -12.019  15.394  70.646  1.00  0.00    -0.396 C  
HETATM   13  C   UNL     1     -12.285  15.053  71.914  1.00  0.00    -0.427 C  
ENDBRANCH  11  12
ENDBRANCH  10  11
ENDBRANCH   9  10
ENDBRANCH   8   9
ENDBRANCH   7   8
ENDBRANCH   6   7
ENDBRANCH   5   6
ENDBRANCH   4   5
TORSDOF 8
ENDMDL
MODEL       57
REMARK 921   NORMALIZED FREE ENERGY PREDICTED BY IDOCK:   -3.78 KCAL/MOL
REMARK 922        TOTAL FREE ENERGY PREDICTED BY IDOCK:   -6.03 KCAL/MOL
REMARK 923 INTER-LIGAND FREE ENERGY PREDICTED BY IDOCK:   -5.15 KCAL/MOL
REMARK 924 INTRA-LIGAND FREE ENERGY PREDICTED BY IDOCK:   -0.88 KCAL/MOL
REMARK 927      BINDING AFFINITY PREDICTED BY RF-SCORE:    0.00 PKD
ROOT
HETATM    1  O   UNL     1     -12.688  13.719  65.504  1.00  0.00    -0.515 OA 
HETATM    2  C   UNL     1     -11.946  12.820  66.191  1.00  0.00    -0.414 C  
HETATM    3  O   UNL     1     -11.415  11.864  65.650  1.00  0.00    -0.322 OA 
HETATM    4  C   UNL     1     -11.869  13.149  67.665  1.00  0.00    -0.405 C  
ENDROOT
BRANCH   4   5
HETATM    5  C   UNL     1     -11.029  12.125  68.426  1.00  0.00    -0.271 C  
BRANCH   5   6
HETATM    6  C   UNL     1     -11.900  11.192  69.267  1.00  0.00    -0.422 C  
BRANCH   6   7
HETATM    7  C   UNL     1     -12.170  11.800  70.645  1.00  0.00    -0.443 C  
BRANCH   7   8
HETATM    8  C   UNL     1     -12.847  10.797  71.578  1.00  0.00    -0.567 C  
BRANCH   8   9
HETATM    9  C   UNL     1     -12.467   9.363  71.209  1.00  0.00    -0.416 C  
BRANCH   9  10
HETATM   10  C   UNL     1     -11.982   8.581  72.430  1.00  0.00    -0.434 C  
BRANCH  10  11
HETATM   11  C   UNL     1     -10.479   8.311  72.347  1.00  0.00    -0.404 C  
BRANCH  11  12
HETATM   12  C   UNL     1      -9.953   8.576  70.966  1.00  0.00    -0.255 C  
HETATM   13  C   UNL     1      -8.823   9.248  70.712  1.00  0.00    -0.282 C  
ENDBRANCH  11  12
ENDBRANCH  10  11
ENDBRANCH   9  10
ENDBRANCH   8   9
ENDBRANCH   7   8
ENDBRANCH   6   7
ENDBRANCH   5   6
ENDBRANCH   4   5
TORSDOF 8
ENDMDL
MODEL       58
REMARK 921   NORMALIZED FREE ENERGY PREDICTED BY IDOCK:   -3.77 KCAL/MOL
REMARK 922        TOTAL FREE ENERGY PREDICTED BY IDOCK:   -6.01 KCAL/MOL
REMARK 923 INTER-LIGAND FREE ENERGY PREDICTED BY IDOCK:   -5.65 KCAL/MOL
REMARK 924 INTRA-LIGAND FREE ENERGY PREDICTED BY IDOCK:   -0.36 KCAL/MOL
REMARK 927      BINDING AFFINITY PREDICTED BY RF-SCORE:    0.00 PKD
ROOT
HETATM    1  O   UNL     1     -14.150  15.924  72.835  1.00  0.00    -0.561 OA 
HETATM    2  C   UNL     1     -13.480  15.139  71.959  1.00  0.00    -0.421 C  
HETATM    3  O   UNL     1     -12.844  15.599  71.026  1.00  0.00    -0.467 OA 
HETATM    4  C   UNL     1     -13.622  13.669  72.285  1.00  0.00    -0.669 C  
ENDROOT
BRANCH   4   5
HETATM    5  C   UNL     1     -12.863  12.797  71.287  1.00  0.00    -0.355 C  
BRANCH   5   6
HETATM    6  C   UNL     1     -13.034  11.309  71.590  1.00  0.00    -0.537 C  
BRANCH   6   7
HETATM    7  C   UNL     1     -11.954  10.485  70.888  1.00  0.00    -0.481 C  
BRANCH   7   8
HETATM    8  C   UNL     1     -11.507   9.300  71.742  1.00  0.00    -0.448 C  
BRANCH   8   9
HETATM    9  C   UNL     1     -12.457   8.114  71.575  1.00  0.00    -0.333 C  
BRANCH   9  10
HETATM   10  C   UNL     1     -11.818   6.813  72.059  1.00  0.00    -0.351 C  
BRANCH  10  11
HETATM   11  C   UNL     1     -10.668   6.392  71.142  1.00  0.00    -0.293 C  
BRANCH  11  12
HETATM   12  C   UNL     1     -11.135   6.221  69.726  1.00  0.00    -0.473 C  
HETATM   13  C   UNL     1     -10.465   5.528  68.796  1.00  0.00    -0.261 C  
ENDBRANCH  11  12
ENDBRANCH  10  11
ENDBRANCH   9  10
ENDBRANCH   8   9
ENDBRANCH   7   8
ENDBRANCH   6   7
ENDBRANCH   5   6
ENDBRANCH   4   5
TORSDOF 8
ENDMDL
MODEL       59
REMARK 921   NORMALIZED FREE ENERGY PREDICTED BY IDOCK:   -3.77 KCAL/MOL
REMARK 922        TOTAL FREE ENERGY PREDICTED BY IDOCK:   -6.01 KCAL/MOL
REMARK 923 INTER-LIGAND FREE ENERGY PREDICTED BY IDOCK:   -5.10 KCAL/MOL
REMARK 924 INTRA-LIGAND FREE ENERGY PREDICTED BY IDOCK:   -0.91 KCAL/MOL
REMARK 927      BINDING AFFINITY PREDICTED BY RF-SCORE:    0.00 PKD
ROOT
HETATM    1  O   UNL     1     -14.291  13.495  72.700  1.00  0.00    -0.716 OA 
HETATM    2  C   UNL     1     -13.582  14.277  71.853  1.00  0.00    -0.413 C  
HETATM    3  O   UNL     1     -13.721  15.489  71.815  1.00  0.00    -0.476 OA 
HETATM    4  C   UNL     1     -12.631  13.475  70.993  1.00  0.00    -0.438 C  
ENDROOT
BRANCH   4   5
HETATM    5  C   UNL     1     -11.840  14.372  70.043  1.00  0.00    -0.377 C  
BRANCH   5   6
HETATM    6  C   UNL     1     -12.017  13.947  68.585  1.00  0.00    -0.401 C  
BRANCH   6   7
HETATM    7  C   UNL     1     -10.901  12.990  68.162  1.00  0.00    -0.267 C  
BRANCH   7   8
HETATM    8  C   UNL     1     -11.464  11.687  67.595  1.00  0.00    -0.373 C  
BRANCH   8   9
HETATM    9  C   UNL     1     -11.530  10.605  68.673  1.00  0.00    -0.332 C  
BRANCH   9  10
HETATM   10  C   UNL     1     -10.370  10.728  69.660  1.00  0.00    -0.142 C  
BRANCH  10  11
HETATM   11  C   UNL     1     -10.506   9.711  70.795  1.00  0.00    -0.375 C  
BRANCH  11  12
HETATM   12  C   UNL     1     -11.944   9.505  71.174  1.00  0.00    -0.429 C  
HETATM   13  C   UNL     1     -12.429   8.360  71.672  1.00  0.00    -0.363 C  
ENDBRANCH  11  12
ENDBRANCH  10  11
ENDBRANCH   9  10
ENDBRANCH   8   9
ENDBRANCH   7   8
ENDBRANCH   6   7
ENDBRANCH   5   6
ENDBRANCH   4   5
TORSDOF 8
ENDMDL
MODEL       60
REMARK 921   NORMALIZED FREE ENERGY PREDICTED BY IDOCK:   -3.76 KCAL/MOL
REMARK 922        TOTAL FREE ENERGY PREDICTED BY IDOCK:   -5.99 KCAL/MOL
REMARK 923 INTER-LIGAND FREE ENERGY PREDICTED BY IDOCK:   -5.38 KCAL/MOL
REMARK 924 INTRA-LIGAND FREE ENERGY PREDICTED BY IDOCK:   -0.61 KCAL/MOL
REMARK 927      BINDING AFFINITY PREDICTED BY RF-SCORE:    0.00 PKD
ROOT
HETATM    1  O   UNL     1     -13.716  13.297  72.591  1.00  0.00    -0.674 OA 
HETATM    2  C   UNL     1     -13.202  12.280  71.862  1.00  0.00    -0.376 C  
HETATM    3  O   UNL     1     -13.400  11.110  72.145  1.00  0.00    -0.452 OA 
HETATM    4  C   UNL     1     -12.379  12.773  70.693  1.00  0.00    -0.381 C  
ENDROOT
BRANCH   4   5
HETATM    5  C   UNL     1     -11.804  11.613  69.882  1.00  0.00    -0.434 C  
BRANCH   5   6
HETATM    6  C   UNL     1     -11.059  12.104  68.641  1.00  0.00    -0.297 C  
BRANCH   6   7
HETATM    7  C   UNL     1     -12.001  12.875  67.714  1.00  0.00    -0.336 C  
BRANCH   7   8
HETATM    8  C   UNL     1     -11.844  12.431  66.260  1.00  0.00    -0.431 C  
BRANCH   8   9
HETATM    9  C   UNL     1     -12.163  13.578  65.301  1.00  0.00    -0.474 C  
BRANCH   9  10
HETATM   10  C   UNL     1     -10.892  14.284  64.831  1.00  0.00    -0.429 C  
BRANCH  10  11
HETATM   11  C   UNL     1     -11.025  15.802  64.967  1.00  0.00    -0.431 C  
BRANCH  11  12
HETATM   12  C   UNL     1     -10.185  16.323  66.097  1.00  0.00    -0.361 C  
HETATM   13  C   UNL     1     -10.623  16.452  67.356  1.00  0.00    -0.306 C  
ENDBRANCH  11  12
ENDBRANCH  10  11
ENDBRANCH   9  10
ENDBRANCH   8   9
ENDBRANCH   7   8
ENDBRANCH   6   7
ENDBRANCH   5   6
ENDBRANCH   4   5
TORSDOF 8
ENDMDL
MODEL       61
REMARK 921   NORMALIZED FREE ENERGY PREDICTED BY IDOCK:   -3.75 KCAL/MOL
REMARK 922        TOTAL FREE ENERGY PREDICTED BY IDOCK:   -5.99 KCAL/MOL
REMARK 923 INTER-LIGAND FREE ENERGY PREDICTED BY IDOCK:   -5.21 KCAL/MOL
REMARK 924 INTRA-LIGAND FREE ENERGY PREDICTED BY IDOCK:   -0.78 KCAL/MOL
REMARK 927      BINDING AFFINITY PREDICTED BY RF-SCORE:    0.00 PKD
ROOT
HETATM    1  O   UNL     1     -12.975  12.258  63.653  1.00  0.00    -0.777 OA 
HETATM    2  C   UNL     1     -12.496  12.512  64.893  1.00  0.00    -0.450 C  
HETATM    3  O   UNL     1     -11.911  11.668  65.551  1.00  0.00    -0.234 OA 
HETATM    4  C   UNL     1     -12.774  13.932  65.333  1.00  0.00    -0.525 C  
ENDROOT
BRANCH   4   5
HETATM    5  C   UNL     1     -12.229  14.202  66.734  1.00  0.00    -0.429 C  
BRANCH   5   6
HETATM    6  C   UNL     1     -10.845  14.849  66.688  1.00  0.00    -0.319 C  
BRANCH   6   7
HETATM    7  C   UNL     1      -9.814  13.972  67.401  1.00  0.00    -0.240 C  
BRANCH   7   8
HETATM    8  C   UNL     1     -10.434  13.222  68.579  1.00  0.00    -0.259 C  
BRANCH   8   9
HETATM    9  C   UNL     1     -10.124  11.727  68.499  1.00  0.00    -0.212 C  
BRANCH   9  10
HETATM   10  C   UNL     1     -11.350  10.882  68.844  1.00  0.00    -0.354 C  
BRANCH  10  11
HETATM   11  C   UNL     1     -12.001  11.365  70.142  1.00  0.00    -0.460 C  
BRANCH  11  12
HETATM   12  C   UNL     1     -12.178  10.236  71.115  1.00  0.00    -0.500 C  
HETATM   13  C   UNL     1     -11.210   9.369  71.438  1.00  0.00    -0.452 C  
ENDBRANCH  11  12
ENDBRANCH  10  11
ENDBRANCH   9  10
ENDBRANCH   8   9
ENDBRANCH   7   8
ENDBRANCH   6   7
ENDBRANCH   5   6
ENDBRANCH   4   5
TORSDOF 8
ENDMDL
MODEL       62
REMARK 921   NORMALIZED FREE ENERGY PREDICTED BY IDOCK:   -3.74 KCAL/MOL
REMARK 922        TOTAL FREE ENERGY PREDICTED BY IDOCK:   -5.97 KCAL/MOL
REMARK 923 INTER-LIGAND FREE ENERGY PREDICTED BY IDOCK:   -5.11 KCAL/MOL
REMARK 924 INTRA-LIGAND FREE ENERGY PREDICTED BY IDOCK:   -0.85 KCAL/MOL
REMARK 927      BINDING AFFINITY PREDICTED BY RF-SCORE:    0.00 PKD
ROOT
HETATM    1  O   UNL     1     -14.228  13.222  72.648  1.00  0.00    -0.724 OA 
HETATM    2  C   UNL     1     -13.156  12.871  71.900  1.00  0.00    -0.373 C  
HETATM    3  O   UNL     1     -12.329  13.685  71.525  1.00  0.00    -0.288 OA 
HETATM    4  C   UNL     1     -13.127  11.389  71.603  1.00  0.00    -0.498 C  
ENDROOT
BRANCH   4   5
HETATM    5  C   UNL     1     -11.914  11.009  70.757  1.00  0.00    -0.436 C  
BRANCH   5   6
HETATM    6  C   UNL     1     -12.250  10.977  69.266  1.00  0.00    -0.280 C  
BRANCH   6   7
HETATM    7  C   UNL     1     -11.041  11.396  68.429  1.00  0.00    -0.296 C  
BRANCH   7   8
HETATM    8  C   UNL     1     -10.823  12.907  68.472  1.00  0.00    -0.283 C  
BRANCH   8   9
HETATM    9  C   UNL     1     -12.090  13.655  68.055  1.00  0.00    -0.309 C  
BRANCH   9  10
HETATM   10  C   UNL     1     -12.229  13.715  66.534  1.00  0.00    -0.454 C  
BRANCH  10  11
HETATM   11  C   UNL     1     -11.348  14.819  65.946  1.00  0.00    -0.331 C  
BRANCH  11  12
HETATM   12  C   UNL     1     -10.420  14.276  64.899  1.00  0.00    -0.454 C  
HETATM   13  C   UNL     1     -10.381  12.988  64.530  1.00  0.00    -0.386 C  
ENDBRANCH  11  12
ENDBRANCH  10  11
ENDBRANCH   9  10
ENDBRANCH   8   9
ENDBRANCH   7   8
ENDBRANCH   6   7
ENDBRANCH   5   6
ENDBRANCH   4   5
TORSDOF 8
ENDMDL
MODEL       63
REMARK 921   NORMALIZED FREE ENERGY PREDICTED BY IDOCK:   -3.74 KCAL/MOL
REMARK 922        TOTAL FREE ENERGY PREDICTED BY IDOCK:   -5.96 KCAL/MOL
REMARK 923 INTER-LIGAND FREE ENERGY PREDICTED BY IDOCK:   -5.16 KCAL/MOL
REMARK 924 INTRA-LIGAND FREE ENERGY PREDICTED BY IDOCK:   -0.81 KCAL/MOL
REMARK 927      BINDING AFFINITY PREDICTED BY RF-SCORE:    0.00 PKD
ROOT
HETATM    1  O   UNL     1     -13.320  15.272  71.764  1.00  0.00    -0.379 OA 
HETATM    2  C   UNL     1     -13.468  13.933  71.890  1.00  0.00    -0.427 C  
HETATM    3  O   UNL     1     -14.286  13.436  72.646  1.00  0.00    -0.709 OA 
HETATM    4  C   UNL     1     -12.516  13.166  70.999  1.00  0.00    -0.406 C  
ENDROOT
BRANCH   4   5
HETATM    5  C   UNL     1     -12.695  11.657  71.154  1.00  0.00    -0.426 C  
BRANCH   5   6
HETATM    6  C   UNL     1     -11.553  10.881  70.498  1.00  0.00    -0.397 C  
BRANCH   6   7
HETATM    7  C   UNL     1     -10.969  11.668  69.323  1.00  0.00    -0.246 C  
BRANCH   7   8
HETATM    8  C   UNL     1     -11.766  11.436  68.040  1.00  0.00    -0.324 C  
BRANCH   8   9
HETATM    9  C   UNL     1     -11.353  12.429  66.953  1.00  0.00    -0.392 C  
BRANCH   9  10
HETATM   10  C   UNL     1     -11.973  13.806  67.188  1.00  0.00    -0.442 C  
BRANCH  10  11
HETATM   11  C   UNL     1     -10.905  14.827  67.584  1.00  0.00    -0.285 C  
BRANCH  11  12
HETATM   12  C   UNL     1     -11.452  15.840  68.548  1.00  0.00    -0.381 C  
HETATM   13  C   UNL     1     -10.790  16.279  69.627  1.00  0.00    -0.345 C  
ENDBRANCH  11  12
ENDBRANCH  10  11
ENDBRANCH   9  10
ENDBRANCH   8   9
ENDBRANCH   7   8
ENDBRANCH   6   7
ENDBRANCH   5   6
ENDBRANCH   4   5
TORSDOF 8
ENDMDL
MODEL       64
REMARK 921   NORMALIZED FREE ENERGY PREDICTED BY IDOCK:   -3.74 KCAL/MOL
REMARK 922        TOTAL FREE ENERGY PREDICTED BY IDOCK:   -5.96 KCAL/MOL
REMARK 923 INTER-LIGAND FREE ENERGY PREDICTED BY IDOCK:   -5.55 KCAL/MOL
REMARK 924 INTRA-LIGAND FREE ENERGY PREDICTED BY IDOCK:   -0.41 KCAL/MOL
REMARK 927      BINDING AFFINITY PREDICTED BY RF-SCORE:    0.00 PKD
ROOT
HETATM    1  O   UNL     1      -9.501  11.420  62.557  1.00  0.00    -0.287 OA 
HETATM    2  C   UNL     1     -10.326  11.406  63.629  1.00  0.00    -0.410 C  
HETATM    3  O   UNL     1     -10.165  10.642  64.566  1.00  0.00    -0.336 OA 
HETATM    4  C   UNL     1     -11.434  12.429  63.511  1.00  0.00    -0.561 C  
ENDROOT
BRANCH   4   5
HETATM    5  C   UNL     1     -12.357  12.400  64.728  1.00  0.00    -0.497 C  
BRANCH   5   6
HETATM    6  C   UNL     1     -12.597  13.801  65.290  1.00  0.00    -0.510 C  
BRANCH   6   7
HETATM    7  C   UNL     1     -12.364  13.825  66.801  1.00  0.00    -0.365 C  
BRANCH   7   8
HETATM    8  C   UNL     1     -11.431  12.699  67.244  1.00  0.00    -0.402 C  
BRANCH   8   9
HETATM    9  C   UNL     1     -11.394  12.586  68.768  1.00  0.00    -0.337 C  
BRANCH   9  10
HETATM   10  C   UNL     1     -11.998  11.266  69.245  1.00  0.00    -0.411 C  
BRANCH  10  11
HETATM   11  C   UNL     1     -12.172  11.260  70.765  1.00  0.00    -0.479 C  
BRANCH  11  12
HETATM   12  C   UNL     1     -13.232  10.285  71.189  1.00  0.00    -0.429 C  
HETATM   13  C   UNL     1     -13.062   9.366  72.148  1.00  0.00    -0.526 C  
ENDBRANCH  11  12
ENDBRANCH  10  11
ENDBRANCH   9  10
ENDBRANCH   8   9
ENDBRANCH   7   8
ENDBRANCH   6   7
ENDBRANCH   5   6
ENDBRANCH   4   5
TORSDOF 8
ENDMDL
MODEL       65
REMARK 921   NORMALIZED FREE ENERGY PREDICTED BY IDOCK:   -3.73 KCAL/MOL
REMARK 922        TOTAL FREE ENERGY PREDICTED BY IDOCK:   -5.95 KCAL/MOL
REMARK 923 INTER-LIGAND FREE ENERGY PREDICTED BY IDOCK:   -5.45 KCAL/MOL
REMARK 924 INTRA-LIGAND FREE ENERGY PREDICTED BY IDOCK:   -0.50 KCAL/MOL
REMARK 927      BINDING AFFINITY PREDICTED BY RF-SCORE:    0.00 PKD
ROOT
HETATM    1  O   UNL     1     -10.513  11.097  63.297  1.00  0.00    -0.353 OA 
HETATM    2  C   UNL     1     -11.509  11.979  63.549  1.00  0.00    -0.446 C  
HETATM    3  O   UNL     1     -12.668  11.759  63.238  1.00  0.00    -0.567 OA 
HETATM    4  C   UNL     1     -11.007  13.226  64.242  1.00  0.00    -0.418 C  
ENDROOT
BRANCH   4   5
HETATM    5  C   UNL     1     -12.142  14.210  64.518  1.00  0.00    -0.489 C  
BRANCH   5   6
HETATM    6  C   UNL     1     -12.952  13.809  65.751  1.00  0.00    -0.310 C  
BRANCH   6   7
HETATM    7  C   UNL     1     -12.097  13.907  67.015  1.00  0.00    -0.451 C  
BRANCH   7   8
HETATM    8  C   UNL     1     -11.808  12.528  67.605  1.00  0.00    -0.381 C  
BRANCH   8   9
HETATM    9  C   UNL     1     -11.089  12.647  68.949  1.00  0.00    -0.307 C  
BRANCH   9  10
HETATM   10  C   UNL     1     -11.834  11.895  70.051  1.00  0.00    -0.407 C  
BRANCH  10  11
HETATM   11  C   UNL     1     -12.588  12.864  70.964  1.00  0.00    -0.376 C  
BRANCH  11  12
HETATM   12  C   UNL     1     -12.080  14.268  70.806  1.00  0.00    -0.418 C  
HETATM   13  C   UNL     1     -12.873  15.343  70.712  1.00  0.00    -0.524 C  
ENDBRANCH  11  12
ENDBRANCH  10  11
ENDBRANCH   9  10
ENDBRANCH   8   9
ENDBRANCH   7   8
ENDBRANCH   6   7
ENDBRANCH   5   6
ENDBRANCH   4   5
TORSDOF 8
ENDMDL
MODEL       66
REMARK 921   NORMALIZED FREE ENERGY PREDICTED BY IDOCK:   -3.73 KCAL/MOL
REMARK 922        TOTAL FREE ENERGY PREDICTED BY IDOCK:   -5.95 KCAL/MOL
REMARK 923 INTER-LIGAND FREE ENERGY PREDICTED BY IDOCK:   -5.33 KCAL/MOL
REMARK 924 INTRA-LIGAND FREE ENERGY PREDICTED BY IDOCK:   -0.62 KCAL/MOL
REMARK 927      BINDING AFFINITY PREDICTED BY RF-SCORE:    0.00 PKD
ROOT
HETATM    1  O   UNL     1      -9.973  10.096  64.551  1.00  0.00    -0.326 OA 
HETATM    2  C   UNL     1     -10.338  11.122  63.748  1.00  0.00    -0.386 C  
HETATM    3  O   UNL     1      -9.729  11.399  62.727  1.00  0.00    -0.335 OA 
HETATM    4  C   UNL     1     -11.556  11.851  64.268  1.00  0.00    -0.405 C  
ENDROOT
BRANCH   4   5
HETATM    5  C   UNL     1     -11.954  13.007  63.351  1.00  0.00    -0.592 C  
BRANCH   5   6
HETATM    6  C   UNL     1     -12.026  14.332  64.109  1.00  0.00    -0.401 C  
BRANCH   6   7
HETATM    7  C   UNL     1     -12.163  14.089  65.613  1.00  0.00    -0.462 C  
BRANCH   7   8
HETATM    8  C   UNL     1     -11.339  15.090  66.421  1.00  0.00    -0.275 C  
BRANCH   8   9
HETATM    9  C   UNL     1     -10.206  15.674  65.577  1.00  0.00    -0.414 C  
BRANCH   9  10
HETATM   10  C   UNL     1      -9.496  16.814  66.307  1.00  0.00    -0.314 C  
BRANCH  10  11
HETATM   11  C   UNL     1     -10.446  17.520  67.277  1.00  0.00    -0.327 C  
BRANCH  11  12
HETATM   12  C   UNL     1     -10.278  19.011  67.216  1.00  0.00    -0.476 C  
HETATM   13  C   UNL     1     -10.471  19.740  66.110  1.00  0.00    -0.613 C  
ENDBRANCH  11  12
ENDBRANCH  10  11
ENDBRANCH   9  10
ENDBRANCH   8   9
ENDBRANCH   7   8
ENDBRANCH   6   7
ENDBRANCH   5   6
ENDBRANCH   4   5
TORSDOF 8
ENDMDL
MODEL       67
REMARK 921   NORMALIZED FREE ENERGY PREDICTED BY IDOCK:   -3.72 KCAL/MOL
REMARK 922        TOTAL FREE ENERGY PREDICTED BY IDOCK:   -5.95 KCAL/MOL
REMARK 923 INTER-LIGAND FREE ENERGY PREDICTED BY IDOCK:   -4.94 KCAL/MOL
REMARK 924 INTRA-LIGAND FREE ENERGY PREDICTED BY IDOCK:   -1.00 KCAL/MOL
REMARK 927      BINDING AFFINITY PREDICTED BY RF-SCORE:    0.00 PKD
ROOT
HETATM    1  O   UNL     1      -8.233  15.146  67.140  1.00  0.00    -0.191 OA 
HETATM    2  C   UNL     1      -9.004  15.760  66.211  1.00  0.00    -0.345 C  
HETATM    3  O   UNL     1      -8.737  16.866  65.771  1.00  0.00    -0.512 OA 
HETATM    4  C   UNL     1     -10.196  14.920  65.811  1.00  0.00    -0.358 C  
ENDROOT
BRANCH   4   5
HETATM    5  C   UNL     1     -11.055  15.627  64.765  1.00  0.00    -0.426 C  
BRANCH   5   6
HETATM    6  C   UNL     1     -12.171  14.722  64.244  1.00  0.00    -0.402 C  
BRANCH   6   7
HETATM    7  C   UNL     1     -12.401  13.544  65.192  1.00  0.00    -0.488 C  
BRANCH   7   8
HETATM    8  C   UNL     1     -12.510  12.223  64.432  1.00  0.00    -0.484 C  
BRANCH   8   9
HETATM    9  C   UNL     1     -11.208  11.907  63.695  1.00  0.00    -0.522 C  
BRANCH   9  10
HETATM   10  C   UNL     1     -10.408  10.822  64.414  1.00  0.00    -0.405 C  
BRANCH  10  11
HETATM   11  C   UNL     1      -9.413  11.436  65.401  1.00  0.00    -0.240 C  
BRANCH  11  12
HETATM   12  C   UNL     1      -9.738  11.050  66.815  1.00  0.00    -0.222 C  
HETATM   13  C   UNL     1     -10.962  10.700  67.231  1.00  0.00    -0.348 C  
ENDBRANCH  11  12
ENDBRANCH  10  11
ENDBRANCH   9  10
ENDBRANCH   8   9
ENDBRANCH   7   8
ENDBRANCH   6   7
ENDBRANCH   5   6
ENDBRANCH   4   5
TORSDOF 8
ENDMDL
MODEL       68
REMARK 921   NORMALIZED FREE ENERGY PREDICTED BY IDOCK:   -3.72 KCAL/MOL
REMARK 922        TOTAL FREE ENERGY PREDICTED BY IDOCK:   -5.94 KCAL/MOL
REMARK 923 INTER-LIGAND FREE ENERGY PREDICTED BY IDOCK:   -5.42 KCAL/MOL
REMARK 924 INTRA-LIGAND FREE ENERGY PREDICTED BY IDOCK:   -0.52 KCAL/MOL
REMARK 927      BINDING AFFINITY PREDICTED BY RF-SCORE:    0.00 PKD
ROOT
HETATM    1  O   UNL     1      -6.774  20.580  67.380  1.00  0.00    -0.242 OA 
HETATM    2  C   UNL     1      -7.921  20.009  67.818  1.00  0.00    -0.289 C  
HETATM    3  O   UNL     1      -7.983  19.397  68.871  1.00  0.00    -0.358 OA 
HETATM    4  C   UNL     1      -9.070  20.226  66.859  1.00  0.00    -0.448 C  
ENDROOT
BRANCH   4   5
HETATM    5  C   UNL     1     -10.355  19.575  67.367  1.00  0.00    -0.572 C  
BRANCH   5   6
HETATM    6  C   UNL     1     -10.606  18.222  66.701  1.00  0.00    -0.324 C  
BRANCH   6   7
HETATM    7  C   UNL     1     -10.575  17.096  67.735  1.00  0.00    -0.360 C  
BRANCH   7   8
HETATM    8  C   UNL     1     -10.723  15.725  67.077  1.00  0.00    -0.306 C  
BRANCH   8   9
HETATM    9  C   UNL     1     -10.517  15.818  65.565  1.00  0.00    -0.425 C  
BRANCH   9  10
HETATM   10  C   UNL     1     -10.858  14.500  64.872  1.00  0.00    -0.436 C  
BRANCH  10  11
HETATM   11  C   UNL     1     -12.172  13.924  65.405  1.00  0.00    -0.463 C  
BRANCH  11  12
HETATM   12  C   UNL     1     -12.454  12.573  64.815  1.00  0.00    -0.532 C  
HETATM   13  C   UNL     1     -12.328  12.285  63.513  1.00  0.00    -0.670 C  
ENDBRANCH  11  12
ENDBRANCH  10  11
ENDBRANCH   9  10
ENDBRANCH   8   9
ENDBRANCH   7   8
ENDBRANCH   6   7
ENDBRANCH   5   6
ENDBRANCH   4   5
TORSDOF 8
ENDMDL
MODEL       69
REMARK 921   NORMALIZED FREE ENERGY PREDICTED BY IDOCK:   -3.72 KCAL/MOL
REMARK 922        TOTAL FREE ENERGY PREDICTED BY IDOCK:   -5.94 KCAL/MOL
REMARK 923 INTER-LIGAND FREE ENERGY PREDICTED BY IDOCK:   -5.55 KCAL/MOL
REMARK 924 INTRA-LIGAND FREE ENERGY PREDICTED BY IDOCK:   -0.39 KCAL/MOL
REMARK 927      BINDING AFFINITY PREDICTED BY RF-SCORE:    0.00 PKD
ROOT
HETATM    1  O   UNL     1     -11.514   6.648  71.452  1.00  0.00    -0.272 OA 
HETATM    2  C   UNL     1     -12.414   7.659  71.441  1.00  0.00    -0.333 C  
HETATM    3  O   UNL     1     -13.614   7.461  71.351  1.00  0.00    -0.379 OA 
HETATM    4  C   UNL     1     -11.753   9.014  71.552  1.00  0.00    -0.415 C  
ENDROOT
BRANCH   4   5
HETATM    5  C   UNL     1     -12.781  10.143  71.537  1.00  0.00    -0.541 C  
BRANCH   5   6
HETATM    6  C   UNL     1     -12.270  11.364  70.772  1.00  0.00    -0.475 C  
BRANCH   6   7
HETATM    7  C   UNL     1     -12.058  11.029  69.295  1.00  0.00    -0.363 C  
BRANCH   7   8
HETATM    8  C   UNL     1     -11.241  12.108  68.586  1.00  0.00    -0.318 C  
BRANCH   8   9
HETATM    9  C   UNL     1     -11.653  12.230  67.119  1.00  0.00    -0.423 C  
BRANCH   9  10
HETATM   10  C   UNL     1     -12.033  13.666  66.762  1.00  0.00    -0.458 C  
BRANCH  10  11
HETATM   11  C   UNL     1     -12.671  13.736  65.373  1.00  0.00    -0.513 C  
BRANCH  11  12
HETATM   12  C   UNL     1     -12.369  12.503  64.572  1.00  0.00    -0.545 C  
HETATM   13  C   UNL     1     -11.933  12.523  63.306  1.00  0.00    -0.516 C  
ENDBRANCH  11  12
ENDBRANCH  10  11
ENDBRANCH   9  10
ENDBRANCH   8   9
ENDBRANCH   7   8
ENDBRANCH   6   7
ENDBRANCH   5   6
ENDBRANCH   4   5
TORSDOF 8
ENDMDL
MODEL       70
REMARK 921   NORMALIZED FREE ENERGY PREDICTED BY IDOCK:   -3.71 KCAL/MOL
REMARK 922        TOTAL FREE ENERGY PREDICTED BY IDOCK:   -5.93 KCAL/MOL
REMARK 923 INTER-LIGAND FREE ENERGY PREDICTED BY IDOCK:   -5.27 KCAL/MOL
REMARK 924 INTRA-LIGAND FREE ENERGY PREDICTED BY IDOCK:   -0.66 KCAL/MOL
REMARK 927      BINDING AFFINITY PREDICTED BY RF-SCORE:    0.00 PKD
ROOT
HETATM    1  O   UNL     1     -10.479   9.698  67.652  1.00  0.00    -0.228 OA 
HETATM    2  C   UNL     1     -11.253  10.666  68.194  1.00  0.00    -0.302 C  
HETATM    3  O   UNL     1     -12.034  11.325  67.528  1.00  0.00    -0.612 OA 
HETATM    4  C   UNL     1     -11.027  10.813  69.682  1.00  0.00    -0.320 C  
ENDROOT
BRANCH   4   5
HETATM    5  C   UNL     1     -11.907  11.910  70.278  1.00  0.00    -0.368 C  
BRANCH   5   6
HETATM    6  C   UNL     1     -12.821  11.369  71.377  1.00  0.00    -0.502 C  
BRANCH   6   7
HETATM    7  C   UNL     1     -13.134   9.891  71.142  1.00  0.00    -0.453 C  
BRANCH   7   8
HETATM    8  C   UNL     1     -13.039   9.084  72.436  1.00  0.00    -0.487 C  
BRANCH   8   9
HETATM    9  C   UNL     1     -11.906   8.060  72.359  1.00  0.00    -0.429 C  
BRANCH   9  10
HETATM   10  C   UNL     1     -12.113   7.082  71.203  1.00  0.00    -0.412 C  
BRANCH  10  11
HETATM   11  C   UNL     1     -11.043   5.988  71.211  1.00  0.00    -0.337 C  
BRANCH  11  12
HETATM   12  C   UNL     1     -10.609   5.641  69.816  1.00  0.00    -0.400 C  
HETATM   13  C   UNL     1     -11.054   6.265  68.718  1.00  0.00    -0.424 C  
ENDBRANCH  11  12
ENDBRANCH  10  11
ENDBRANCH   9  10
ENDBRANCH   8   9
ENDBRANCH   7   8
ENDBRANCH   6   7
ENDBRANCH   5   6
ENDBRANCH   4   5
TORSDOF 8
ENDMDL
MODEL       71
REMARK 921   NORMALIZED FREE ENERGY PREDICTED BY IDOCK:   -3.71 KCAL/MOL
REMARK 922        TOTAL FREE ENERGY PREDICTED BY IDOCK:   -5.92 KCAL/MOL
REMARK 923 INTER-LIGAND FREE ENERGY PREDICTED BY IDOCK:   -4.94 KCAL/MOL
REMARK 924 INTRA-LIGAND FREE ENERGY PREDICTED BY IDOCK:   -0.99 KCAL/MOL
REMARK 927      BINDING AFFINITY PREDICTED BY RF-SCORE:    0.00 PKD
ROOT
HETATM    1  O   UNL     1     -10.714  18.922  67.811  1.00  0.00    -0.413 OA 
HETATM    2  C   UNL     1     -10.161  18.149  66.847  1.00  0.00    -0.372 C  
HETATM    3  O   UNL     1      -9.540  18.621  65.910  1.00  0.00    -0.479 OA 
HETATM    4  C   UNL     1     -10.410  16.676  67.083  1.00  0.00    -0.300 C  
ENDROOT
BRANCH   4   5
HETATM    5  C   UNL     1      -9.781  15.818  65.986  1.00  0.00    -0.377 C  
BRANCH   5   6
HETATM    6  C   UNL     1     -10.773  15.521  64.862  1.00  0.00    -0.415 C  
BRANCH   6   7
HETATM    7  C   UNL     1     -10.938  14.012  64.670  1.00  0.00    -0.401 C  
BRANCH   7   8
HETATM    8  C   UNL     1     -12.313  13.535  65.133  1.00  0.00    -0.488 C  
BRANCH   8   9
HETATM    9  C   UNL     1     -12.350  13.360  66.652  1.00  0.00    -0.324 C  
BRANCH   9  10
HETATM   10  C   UNL     1     -11.132  12.585  67.154  1.00  0.00    -0.321 C  
BRANCH  10  11
HETATM   11  C   UNL     1     -11.039  12.639  68.680  1.00  0.00    -0.305 C  
BRANCH  11  12
HETATM   12  C   UNL     1     -12.000  13.642  69.250  1.00  0.00    -0.384 C  
HETATM   13  C   UNL     1     -11.697  14.487  70.244  1.00  0.00    -0.356 C  
ENDBRANCH  11  12
ENDBRANCH  10  11
ENDBRANCH   9  10
ENDBRANCH   8   9
ENDBRANCH   7   8
ENDBRANCH   6   7
ENDBRANCH   5   6
ENDBRANCH   4   5
TORSDOF 8
ENDMDL
MODEL       72
REMARK 921   NORMALIZED FREE ENERGY PREDICTED BY IDOCK:   -3.71 KCAL/MOL
REMARK 922        TOTAL FREE ENERGY PREDICTED BY IDOCK:   -5.92 KCAL/MOL
REMARK 923 INTER-LIGAND FREE ENERGY PREDICTED BY IDOCK:   -5.39 KCAL/MOL
REMARK 924 INTRA-LIGAND FREE ENERGY PREDICTED BY IDOCK:   -0.53 KCAL/MOL
REMARK 927      BINDING AFFINITY PREDICTED BY RF-SCORE:    0.00 PKD
ROOT
HETATM    1  O   UNL     1     -12.465  13.780  63.305  1.00  0.00    -0.819 OA 
HETATM    2  C   UNL     1     -12.282  13.849  64.645  1.00  0.00    -0.419 C  
HETATM    3  O   UNL     1     -13.212  13.986  65.423  1.00  0.00    -0.761 OA 
HETATM    4  C   UNL     1     -10.824  13.738  65.029  1.00  0.00    -0.377 C  
ENDROOT
BRANCH   4   5
HETATM    5  C   UNL     1     -10.635  13.819  66.543  1.00  0.00    -0.279 C  
BRANCH   5   6
HETATM    6  C   UNL     1     -10.594  12.432  67.183  1.00  0.00    -0.247 C  
BRANCH   6   7
HETATM    7  C   UNL     1     -11.779  12.238  68.130  1.00  0.00    -0.408 C  
BRANCH   7   8
HETATM    8  C   UNL     1     -11.373  11.474  69.389  1.00  0.00    -0.355 C  
BRANCH   8   9
HETATM    9  C   UNL     1     -10.240  10.491  69.092  1.00  0.00    -0.241 C  
BRANCH   9  10
HETATM   10  C   UNL     1     -10.479   9.142  69.770  1.00  0.00    -0.234 C  
BRANCH  10  11
HETATM   11  C   UNL     1      -9.842   9.107  71.160  1.00  0.00    -0.371 C  
BRANCH  11  12
HETATM   12  C   UNL     1     -10.802   8.581  72.187  1.00  0.00    -0.427 C  
HETATM   13  C   UNL     1     -12.134   8.676  72.082  1.00  0.00    -0.451 C  
ENDBRANCH  11  12
ENDBRANCH  10  11
ENDBRANCH   9  10
ENDBRANCH   8   9
ENDBRANCH   7   8
ENDBRANCH   6   7
ENDBRANCH   5   6
ENDBRANCH   4   5
TORSDOF 8
ENDMDL
MODEL       73
REMARK 921   NORMALIZED FREE ENERGY PREDICTED BY IDOCK:   -3.69 KCAL/MOL
REMARK 922        TOTAL FREE ENERGY PREDICTED BY IDOCK:   -5.90 KCAL/MOL
REMARK 923 INTER-LIGAND FREE ENERGY PREDICTED BY IDOCK:   -4.81 KCAL/MOL
REMARK 924 INTRA-LIGAND FREE ENERGY PREDICTED BY IDOCK:   -1.09 KCAL/MOL
REMARK 927      BINDING AFFINITY PREDICTED BY RF-SCORE:    0.00 PKD
ROOT
HETATM    1  O   UNL     1      -6.532  20.396  70.253  1.00  0.00    -0.386 OA 
HETATM    2  C   UNL     1      -6.709  19.601  69.172  1.00  0.00    -0.348 C  
HETATM    3  O   UNL     1      -6.739  18.385  69.255  1.00  0.00    -0.274 OA 
HETATM    4  C   UNL     1      -6.857  20.398  67.895  1.00  0.00    -0.336 C  
ENDROOT
BRANCH   4   5
HETATM    5  C   UNL     1      -7.054  19.487  66.684  1.00  0.00    -0.226 C  
BRANCH   5   6
HETATM    6  C   UNL     1      -8.468  19.599  66.115  1.00  0.00    -0.354 C  
BRANCH   6   7
HETATM    7  C   UNL     1      -9.391  20.323  67.097  1.00  0.00    -0.536 C  
BRANCH   7   8
HETATM    8  C   UNL     1     -10.578  19.449  67.500  1.00  0.00    -0.591 C  
BRANCH   8   9
HETATM    9  C   UNL     1     -10.153  18.378  68.504  1.00  0.00    -0.413 C  
BRANCH   9  10
HETATM   10  C   UNL     1     -10.509  16.976  68.011  1.00  0.00    -0.353 C  
BRANCH  10  11
HETATM   11  C   UNL     1      -9.286  16.276  67.416  1.00  0.00    -0.217 C  
BRANCH  11  12
HETATM   12  C   UNL     1      -9.600  15.673  66.078  1.00  0.00    -0.386 C  
HETATM   13  C   UNL     1     -10.586  16.100  65.279  1.00  0.00    -0.390 C  
ENDBRANCH  11  12
ENDBRANCH  10  11
ENDBRANCH   9  10
ENDBRANCH   8   9
ENDBRANCH   7   8
ENDBRANCH   6   7
ENDBRANCH   5   6
ENDBRANCH   4   5
TORSDOF 8
ENDMDL
MODEL       74
REMARK 921   NORMALIZED FREE ENERGY PREDICTED BY IDOCK:   -3.69 KCAL/MOL
REMARK 922        TOTAL FREE ENERGY PREDICTED BY IDOCK:   -5.89 KCAL/MOL
REMARK 923 INTER-LIGAND FREE ENERGY PREDICTED BY IDOCK:   -5.31 KCAL/MOL
REMARK 924 INTRA-LIGAND FREE ENERGY PREDICTED BY IDOCK:   -0.58 KCAL/MOL
REMARK 927      BINDING AFFINITY PREDICTED BY RF-SCORE:    0.00 PKD
ROOT
HETATM    1  O   UNL     1     -10.283  18.789  67.882  1.00  0.00    -0.357 OA 
HETATM    2  C   UNL     1     -10.421  18.122  66.712  1.00  0.00    -0.348 C  
HETATM    3  O   UNL     1     -10.620  18.696  65.655  1.00  0.00    -0.610 OA 
HETATM    4  C   UNL     1     -10.298  16.625  66.889  1.00  0.00    -0.299 C  
ENDROOT
BRANCH   4   5
HETATM    5  C   UNL     1     -10.458  15.888  65.561  1.00  0.00    -0.425 C  
BRANCH   5   6
HETATM    6  C   UNL     1     -10.349  14.373  65.737  1.00  0.00    -0.340 C  
BRANCH   6   7
HETATM    7  C   UNL     1     -11.666  13.792  66.253  1.00  0.00    -0.400 C  
BRANCH   7   8
HETATM    8  C   UNL     1     -11.471  12.397  66.844  1.00  0.00    -0.423 C  
BRANCH   8   9
HETATM    9  C   UNL     1     -11.899  12.360  68.312  1.00  0.00    -0.364 C  
BRANCH   9  10
HETATM   10  C   UNL     1     -11.272  13.506  69.105  1.00  0.00    -0.310 C  
BRANCH  10  11
HETATM   11  C   UNL     1     -12.293  14.140  70.053  1.00  0.00    -0.403 C  
BRANCH  11  12
HETATM   12  C   UNL     1     -12.550  13.262  71.243  1.00  0.00    -0.398 C  
HETATM   13  C   UNL     1     -13.511  13.491  72.147  1.00  0.00    -0.631 C  
ENDBRANCH  11  12
ENDBRANCH  10  11
ENDBRANCH   9  10
ENDBRANCH   8   9
ENDBRANCH   7   8
ENDBRANCH   6   7
ENDBRANCH   5   6
ENDBRANCH   4   5
TORSDOF 8
ENDMDL
MODEL       75
REMARK 921   NORMALIZED FREE ENERGY PREDICTED BY IDOCK:   -3.66 KCAL/MOL
REMARK 922        TOTAL FREE ENERGY PREDICTED BY IDOCK:   -5.85 KCAL/MOL
REMARK 923 INTER-LIGAND FREE ENERGY PREDICTED BY IDOCK:   -5.00 KCAL/MOL
REMARK 924 INTRA-LIGAND FREE ENERGY PREDICTED BY IDOCK:   -0.85 KCAL/MOL
REMARK 927      BINDING AFFINITY PREDICTED BY RF-SCORE:    0.00 PKD
ROOT
HETATM    1  O   UNL     1     -12.825   8.594  71.677  1.00  0.00    -0.323 OA 
HETATM    2  C   UNL     1     -12.764   9.919  71.407  1.00  0.00    -0.403 C  
HETATM    3  O   UNL     1     -13.351  10.749  72.081  1.00  0.00    -0.442 OA 
HETATM    4  C   UNL     1     -11.903  10.218  70.200  1.00  0.00    -0.343 C  
ENDROOT
BRANCH   4   5
HETATM    5  C   UNL     1     -11.846  11.716  69.908  1.00  0.00    -0.434 C  
BRANCH   5   6
HETATM    6  C   UNL     1     -11.846  12.000  68.406  1.00  0.00    -0.360 C  
BRANCH   6   7
HETATM    7  C   UNL     1     -11.155  10.869  67.641  1.00  0.00    -0.376 C  
BRANCH   7   8
HETATM    8  C   UNL     1      -9.711  11.227  67.293  1.00  0.00    -0.192 C  
BRANCH   8   9
HETATM    9  C   UNL     1      -9.633  11.930  65.938  1.00  0.00    -0.248 C  
BRANCH   9  10
HETATM   10  C   UNL     1     -10.540  11.259  64.907  1.00  0.00    -0.364 C  
BRANCH  10  11
HETATM   11  C   UNL     1     -11.280  12.302  64.067  1.00  0.00    -0.456 C  
BRANCH  11  12
HETATM   12  C   UNL     1     -12.572  12.706  64.715  1.00  0.00    -0.530 C  
HETATM   13  C   UNL     1     -12.751  13.862  65.368  1.00  0.00    -0.525 C  
ENDBRANCH  11  12
ENDBRANCH  10  11
ENDBRANCH   9  10
ENDBRANCH   8   9
ENDBRANCH   7   8
ENDBRANCH   6   7
ENDBRANCH   5   6
ENDBRANCH   4   5
TORSDOF 8
ENDMDL
MODEL       76
REMARK 921   NORMALIZED FREE ENERGY PREDICTED BY IDOCK:   -3.65 KCAL/MOL
REMARK 922        TOTAL FREE ENERGY PREDICTED BY IDOCK:   -5.84 KCAL/MOL
REMARK 923 INTER-LIGAND FREE ENERGY PREDICTED BY IDOCK:   -5.02 KCAL/MOL
REMARK 924 INTRA-LIGAND FREE ENERGY PREDICTED BY IDOCK:   -0.83 KCAL/MOL
REMARK 927      BINDING AFFINITY PREDICTED BY RF-SCORE:    0.00 PKD
ROOT
HETATM    1  O   UNL     1     -14.076  13.367  72.667  1.00  0.00    -0.767 OA 
HETATM    2  C   UNL     1     -13.178  12.763  71.854  1.00  0.00    -0.412 C  
HETATM    3  O   UNL     1     -12.408  13.394  71.150  1.00  0.00    -0.349 OA 
HETATM    4  C   UNL     1     -13.258  11.254  71.934  1.00  0.00    -0.491 C  
ENDROOT
BRANCH   4   5
HETATM    5  C   UNL     1     -12.241  10.588  71.011  1.00  0.00    -0.505 C  
BRANCH   5   6
HETATM    6  C   UNL     1     -11.693   9.294  71.611  1.00  0.00    -0.462 C  
BRANCH   6   7
HETATM    7  C   UNL     1     -12.652   8.130  71.356  1.00  0.00    -0.301 C  
BRANCH   7   8
HETATM    8  C   UNL     1     -11.929   6.930  70.747  1.00  0.00    -0.424 C  
BRANCH   8   9
HETATM    9  C   UNL     1     -10.423   7.182  70.664  1.00  0.00    -0.226 C  
BRANCH   9  10
HETATM   10  C   UNL     1      -9.861   6.766  69.305  1.00  0.00    -0.160 C  
BRANCH  10  11
HETATM   11  C   UNL     1     -10.948   6.796  68.229  1.00  0.00    -0.270 C  
BRANCH  11  12
HETATM   12  C   UNL     1     -10.636   7.811  67.168  1.00  0.00    -0.401 C  
HETATM   13  C   UNL     1     -10.711   9.135  67.355  1.00  0.00    -0.247 C  
ENDBRANCH  11  12
ENDBRANCH  10  11
ENDBRANCH   9  10
ENDBRANCH   8   9
ENDBRANCH   7   8
ENDBRANCH   6   7
ENDBRANCH   5   6
ENDBRANCH   4   5
TORSDOF 8
ENDMDL
MODEL       77
REMARK 921   NORMALIZED FREE ENERGY PREDICTED BY IDOCK:   -3.64 KCAL/MOL
REMARK 922        TOTAL FREE ENERGY PREDICTED BY IDOCK:   -5.82 KCAL/MOL
REMARK 923 INTER-LIGAND FREE ENERGY PREDICTED BY IDOCK:   -5.10 KCAL/MOL
REMARK 924 INTRA-LIGAND FREE ENERGY PREDICTED BY IDOCK:   -0.72 KCAL/MOL
REMARK 927      BINDING AFFINITY PREDICTED BY RF-SCORE:    0.00 PKD
ROOT
HETATM    1  O   UNL     1     -11.747  16.455  63.804  1.00  0.00    -1.049 OA 
HETATM    2  C   UNL     1     -11.488  15.391  64.600  1.00  0.00    -0.337 C  
HETATM    3  O   UNL     1     -12.223  14.419  64.648  1.00  0.00    -0.444 OA 
HETATM    4  C   UNL     1     -10.212  15.567  65.393  1.00  0.00    -0.409 C  
ENDROOT
BRANCH   4   5
HETATM    5  C   UNL     1      -9.936  14.361  66.288  1.00  0.00    -0.320 C  
BRANCH   5   6
HETATM    6  C   UNL     1      -9.553  14.783  67.706  1.00  0.00    -0.209 C  
BRANCH   6   7
HETATM    7  C   UNL     1     -10.283  16.066  68.105  1.00  0.00    -0.243 C  
BRANCH   7   8
HETATM    8  C   UNL     1      -9.323  17.101  68.689  1.00  0.00    -0.269 C  
BRANCH   8   9
HETATM    9  C   UNL     1      -9.979  18.480  68.756  1.00  0.00    -0.417 C  
BRANCH   9  10
HETATM   10  C   UNL     1      -9.126  19.539  68.059  1.00  0.00    -0.386 C  
BRANCH  10  11
HETATM   11  C   UNL     1      -9.099  19.313  66.546  1.00  0.00    -0.383 C  
BRANCH  11  12
HETATM   12  C   UNL     1      -7.756  19.653  65.967  1.00  0.00    -0.335 C  
HETATM   13  C   UNL     1      -6.790  18.754  65.741  1.00  0.00    -0.305 C  
ENDBRANCH  11  12
ENDBRANCH  10  11
ENDBRANCH   9  10
ENDBRANCH   8   9
ENDBRANCH   7   8
ENDBRANCH   6   7
ENDBRANCH   5   6
ENDBRANCH   4   5
TORSDOF 8
ENDMDL
MODEL       78
REMARK 921   NORMALIZED FREE ENERGY PREDICTED BY IDOCK:   -3.64 KCAL/MOL
REMARK 922        TOTAL FREE ENERGY PREDICTED BY IDOCK:   -5.82 KCAL/MOL
REMARK 923 INTER-LIGAND FREE ENERGY PREDICTED BY IDOCK:   -5.41 KCAL/MOL
REMARK 924 INTRA-LIGAND FREE ENERGY PREDICTED BY IDOCK:   -0.40 KCAL/MOL
REMARK 927      BINDING AFFINITY PREDICTED BY RF-SCORE:    0.00 PKD
ROOT
HETATM    1  O   UNL     1     -12.636  14.571  66.073  1.00  0.00    -0.293 OA 
HETATM    2  C   UNL     1     -12.303  13.997  64.893  1.00  0.00    -0.427 C  
HETATM    3  O   UNL     1     -12.309  14.616  63.842  1.00  0.00    -0.730 OA 
HETATM    4  C   UNL     1     -11.936  12.538  65.051  1.00  0.00    -0.478 C  
ENDROOT
BRANCH   4   5
HETATM    5  C   UNL     1     -11.564  11.904  63.712  1.00  0.00    -0.555 C  
BRANCH   5   6
HETATM    6  C   UNL     1     -10.247  11.133  63.797  1.00  0.00    -0.434 C  
BRANCH   6   7
HETATM    7  C   UNL     1      -9.852  10.896  65.255  1.00  0.00    -0.318 C  
BRANCH   7   8
HETATM    8  C   UNL     1      -9.395   9.456  65.486  1.00  0.00    -0.315 C  
BRANCH   8   9
HETATM    9  C   UNL     1     -10.148   8.823  66.656  1.00  0.00    -0.358 C  
BRANCH   9  10
HETATM   10  C   UNL     1      -9.765   7.355  66.839  1.00  0.00    -0.265 C  
BRANCH  10  11
HETATM   11  C   UNL     1     -11.001   6.494  67.106  1.00  0.00    -0.480 C  
BRANCH  11  12
HETATM   12  C   UNL     1     -10.883   5.759  68.409  1.00  0.00    -0.251 C  
HETATM   13  C   UNL     1     -11.252   6.269  69.591  1.00  0.00    -0.506 C  
ENDBRANCH  11  12
ENDBRANCH  10  11
ENDBRANCH   9  10
ENDBRANCH   8   9
ENDBRANCH   7   8
ENDBRANCH   6   7
ENDBRANCH   5   6
ENDBRANCH   4   5
TORSDOF 8
ENDMDL
MODEL       79
REMARK 921   NORMALIZED FREE ENERGY PREDICTED BY IDOCK:   -3.63 KCAL/MOL
REMARK 922        TOTAL FREE ENERGY PREDICTED BY IDOCK:   -5.81 KCAL/MOL
REMARK 923 INTER-LIGAND FREE ENERGY PREDICTED BY IDOCK:   -5.01 KCAL/MOL
REMARK 924 INTRA-LIGAND FREE ENERGY PREDICTED BY IDOCK:   -0.80 KCAL/MOL
REMARK 927      BINDING AFFINITY PREDICTED BY RF-SCORE:    0.00 PKD
ROOT
HETATM    1  O   UNL     1     -11.954  10.349  69.797  1.00  0.00    -0.238 OA 
HETATM    2  C   UNL     1     -12.038  11.700  69.814  1.00  0.00    -0.289 C  
HETATM    3  O   UNL     1     -12.355  12.321  70.814  1.00  0.00    -0.377 OA 
HETATM    4  C   UNL     1     -11.699  12.310  68.472  1.00  0.00    -0.381 C  
ENDROOT
BRANCH   4   5
HETATM    5  C   UNL     1     -11.801  13.834  68.507  1.00  0.00    -0.406 C  
BRANCH   5   6
HETATM    6  C   UNL     1     -12.066  14.415  67.118  1.00  0.00    -0.367 C  
BRANCH   6   7
HETATM    7  C   UNL     1     -10.777  14.962  66.504  1.00  0.00    -0.309 C  
BRANCH   7   8
HETATM    8  C   UNL     1     -10.771  14.813  64.984  1.00  0.00    -0.452 C  
BRANCH   8   9
HETATM    9  C   UNL     1     -12.129  14.327  64.477  1.00  0.00    -0.499 C  
BRANCH   9  10
HETATM   10  C   UNL     1     -11.972  13.312  63.344  1.00  0.00    -0.491 C  
BRANCH  10  11
HETATM   11  C   UNL     1     -12.165  11.884  63.857  1.00  0.00    -0.497 C  
BRANCH  11  12
HETATM   12  C   UNL     1     -10.889  11.098  63.771  1.00  0.00    -0.337 C  
HETATM   13  C   UNL     1     -10.277  10.549  64.828  1.00  0.00    -0.373 C  
ENDBRANCH  11  12
ENDBRANCH  10  11
ENDBRANCH   9  10
ENDBRANCH   8   9
ENDBRANCH   7   8
ENDBRANCH   6   7
ENDBRANCH   5   6
ENDBRANCH   4   5
TORSDOF 8
ENDMDL
MODEL       80
REMARK 921   NORMALIZED FREE ENERGY PREDICTED BY IDOCK:   -3.61 KCAL/MOL
REMARK 922        TOTAL FREE ENERGY PREDICTED BY IDOCK:   -5.78 KCAL/MOL
REMARK 923 INTER-LIGAND FREE ENERGY PREDICTED BY IDOCK:   -4.89 KCAL/MOL
REMARK 924 INTRA-LIGAND FREE ENERGY PREDICTED BY IDOCK:   -0.89 KCAL/MOL
REMARK 927      BINDING AFFINITY PREDICTED BY RF-SCORE:    0.00 PKD
ROOT
HETATM    1  O   UNL     1     -10.906  17.258  65.009  1.00  0.00    -0.686 OA 
HETATM    2  C   UNL     1     -10.802  15.910  64.942  1.00  0.00    -0.400 C  
HETATM    3  O   UNL     1      -9.825  15.310  65.359  1.00  0.00    -0.332 OA 
HETATM    4  C   UNL     1     -12.017  15.274  64.305  1.00  0.00    -0.236 C  
ENDROOT
BRANCH   4   5
HETATM    5  C   UNL     1     -11.884  13.754  64.235  1.00  0.00    -0.451 C  
BRANCH   5   6
HETATM    6  C   UNL     1     -12.533  13.073  65.440  1.00  0.00    -0.531 C  
BRANCH   6   7
HETATM    7  C   UNL     1     -11.598  12.018  66.034  1.00  0.00    -0.371 C  
BRANCH   7   8
HETATM    8  C   UNL     1     -11.511  12.138  67.555  1.00  0.00    -0.410 C  
BRANCH   8   9
HETATM    9  C   UNL     1     -10.111  12.572  67.990  1.00  0.00    -0.220 C  
BRANCH   9  10
HETATM   10  C   UNL     1     -10.116  13.993  68.553  1.00  0.00    -0.236 C  
BRANCH  10  11
HETATM   11  C   UNL     1     -11.458  14.317  69.212  1.00  0.00    -0.330 C  
BRANCH  11  12
HETATM   12  C   UNL     1     -11.704  15.798  69.246  1.00  0.00    -0.384 C  
HETATM   13  C   UNL     1     -11.105  16.674  68.430  1.00  0.00    -0.305 C  
ENDBRANCH  11  12
ENDBRANCH  10  11
ENDBRANCH   9  10
ENDBRANCH   8   9
ENDBRANCH   7   8
ENDBRANCH   6   7
ENDBRANCH   5   6
ENDBRANCH   4   5
TORSDOF 8
ENDMDL
MODEL       81
REMARK 921   NORMALIZED FREE ENERGY PREDICTED BY IDOCK:   -3.60 KCAL/MOL
REMARK 922        TOTAL FREE ENERGY PREDICTED BY IDOCK:   -5.77 KCAL/MOL
REMARK 923 INTER-LIGAND FREE ENERGY PREDICTED BY IDOCK:   -4.92 KCAL/MOL
REMARK 924 INTRA-LIGAND FREE ENERGY PREDICTED BY IDOCK:   -0.85 KCAL/MOL
REMARK 927      BINDING AFFINITY PREDICTED BY RF-SCORE:    0.00 PKD
ROOT
HETATM    1  O   UNL     1     -12.364  13.359  63.318  1.00  0.00    -0.714 OA 
HETATM    2  C   UNL     1     -12.495  13.335  64.665  1.00  0.00    -0.349 C  
HETATM    3  O   UNL     1     -13.276  14.061  65.256  1.00  0.00    -0.782 OA 
HETATM    4  C   UNL     1     -11.574  12.324  65.311  1.00  0.00    -0.405 C  
ENDROOT
BRANCH   4   5
HETATM    5  C   UNL     1     -11.732  12.311  66.830  1.00  0.00    -0.411 C  
BRANCH   5   6
HETATM    6  C   UNL     1     -10.721  13.232  67.512  1.00  0.00    -0.259 C  
BRANCH   6   7
HETATM    7  C   UNL     1     -11.436  14.328  68.304  1.00  0.00    -0.334 C  
BRANCH   7   8
HETATM    8  C   UNL     1     -10.887  15.713  67.966  1.00  0.00    -0.308 C  
BRANCH   8   9
HETATM    9  C   UNL     1     -10.606  15.841  66.469  1.00  0.00    -0.306 C  
BRANCH   9  10
HETATM   10  C   UNL     1      -9.337  16.651  66.205  1.00  0.00    -0.323 C  
BRANCH  10  11
HETATM   11  C   UNL     1      -8.095  15.895  66.682  1.00  0.00    -0.298 C  
BRANCH  11  12
HETATM   12  C   UNL     1      -7.077  16.833  67.264  1.00  0.00    -0.205 C  
HETATM   13  C   UNL     1      -7.388  17.938  67.955  1.00  0.00    -0.222 C  
ENDBRANCH  11  12
ENDBRANCH  10  11
ENDBRANCH   9  10
ENDBRANCH   8   9
ENDBRANCH   7   8
ENDBRANCH   6   7
ENDBRANCH   5   6
ENDBRANCH   4   5
TORSDOF 8
ENDMDL
MODEL       82
REMARK 921   NORMALIZED FREE ENERGY PREDICTED BY IDOCK:   -3.60 KCAL/MOL
REMARK 922        TOTAL FREE ENERGY PREDICTED BY IDOCK:   -5.77 KCAL/MOL
REMARK 923 INTER-LIGAND FREE ENERGY PREDICTED BY IDOCK:   -5.04 KCAL/MOL
REMARK 924 INTRA-LIGAND FREE ENERGY PREDICTED BY IDOCK:   -0.73 KCAL/MOL
REMARK 927      BINDING AFFINITY PREDICTED BY RF-SCORE:    0.00 PKD
ROOT
HETATM    1  O   UNL     1     -13.993  13.951  72.754  1.00  0.00    -0.697 OA 
HETATM    2  C   UNL     1     -13.277  13.425  71.733  1.00  0.00    -0.407 C  
HETATM    3  O   UNL     1     -12.794  14.116  70.852  1.00  0.00    -0.329 OA 
HETATM    4  C   UNL     1     -13.163  11.920  71.830  1.00  0.00    -0.467 C  
ENDROOT
BRANCH   4   5
HETATM    5  C   UNL     1     -12.355  11.342  70.670  1.00  0.00    -0.477 C  
BRANCH   5   6
HETATM    6  C   UNL     1     -11.739   9.989  71.027  1.00  0.00    -0.479 C  
BRANCH   6   7
HETATM    7  C   UNL     1     -10.781   9.524  69.930  1.00  0.00    -0.268 C  
BRANCH   7   8
HETATM    8  C   UNL     1     -10.442  10.657  68.962  1.00  0.00    -0.237 C  
BRANCH   8   9
HETATM    9  C   UNL     1     -10.897  10.318  67.543  1.00  0.00    -0.355 C  
BRANCH   9  10
HETATM   10  C   UNL     1     -10.931  11.562  66.655  1.00  0.00    -0.349 C  
BRANCH  10  11
HETATM   11  C   UNL     1     -11.838  12.639  67.254  1.00  0.00    -0.395 C  
BRANCH  11  12
HETATM   12  C   UNL     1     -11.120  13.952  67.372  1.00  0.00    -0.313 C  
HETATM   13  C   UNL     1      -9.867  14.159  66.946  1.00  0.00    -0.265 C  
ENDBRANCH  11  12
ENDBRANCH  10  11
ENDBRANCH   9  10
ENDBRANCH   8   9
ENDBRANCH   7   8
ENDBRANCH   6   7
ENDBRANCH   5   6
ENDBRANCH   4   5
TORSDOF 8
ENDMDL
MODEL       83
REMARK 921   NORMALIZED FREE ENERGY PREDICTED BY IDOCK:   -3.59 KCAL/MOL
REMARK 922        TOTAL FREE ENERGY PREDICTED BY IDOCK:   -5.74 KCAL/MOL
REMARK 923 INTER-LIGAND FREE ENERGY PREDICTED BY IDOCK:   -5.44 KCAL/MOL
REMARK 924 INTRA-LIGAND FREE ENERGY PREDICTED BY IDOCK:   -0.31 KCAL/MOL
REMARK 927      BINDING AFFINITY PREDICTED BY RF-SCORE:    0.00 PKD
ROOT
HETATM    1  O   UNL     1     -11.609  16.354  63.867  1.00  0.00    -1.100 OA 
HETATM    2  C   UNL     1     -11.906  15.120  64.335  1.00  0.00    -0.305 C  
HETATM    3  O   UNL     1     -12.447  14.273  63.643  1.00  0.00    -0.816 OA 
HETATM    4  C   UNL     1     -11.494  14.941  65.779  1.00  0.00    -0.281 C  
ENDROOT
BRANCH   4   5
HETATM    5  C   UNL     1     -11.838  13.545  66.293  1.00  0.00    -0.431 C  
BRANCH   5   6
HETATM    6  C   UNL     1     -11.692  13.448  67.811  1.00  0.00    -0.394 C  
BRANCH   6   7
HETATM    7  C   UNL     1     -11.846  12.000  68.279  1.00  0.00    -0.351 C  
BRANCH   7   8
HETATM    8  C   UNL     1     -11.656  11.875  69.790  1.00  0.00    -0.359 C  
BRANCH   8   9
HETATM    9  C   UNL     1     -12.066  10.486  70.280  1.00  0.00    -0.402 C  
BRANCH   9  10
HETATM   10  C   UNL     1     -10.877   9.727  70.868  1.00  0.00    -0.399 C  
BRANCH  10  11
HETATM   11  C   UNL     1      -9.694   9.724  69.898  1.00  0.00    -0.273 C  
BRANCH  11  12
HETATM   12  C   UNL     1      -9.593   8.416  69.167  1.00  0.00    -0.164 C  
HETATM   13  C   UNL     1     -10.650   7.729  68.716  1.00  0.00    -0.161 C  
ENDBRANCH  11  12
ENDBRANCH  10  11
ENDBRANCH   9  10
ENDBRANCH   8   9
ENDBRANCH   7   8
ENDBRANCH   6   7
ENDBRANCH   5   6
ENDBRANCH   4   5
TORSDOF 8
ENDMDL
MODEL       84
REMARK 921   NORMALIZED FREE ENERGY PREDICTED BY IDOCK:   -3.58 KCAL/MOL
REMARK 922        TOTAL FREE ENERGY PREDICTED BY IDOCK:   -5.73 KCAL/MOL
REMARK 923 INTER-LIGAND FREE ENERGY PREDICTED BY IDOCK:   -5.30 KCAL/MOL
REMARK 924 INTRA-LIGAND FREE ENERGY PREDICTED BY IDOCK:   -0.43 KCAL/MOL
REMARK 927      BINDING AFFINITY PREDICTED BY RF-SCORE:    0.00 PKD
ROOT
HETATM    1  O   UNL     1     -12.332   6.342  71.853  1.00  0.00    -0.345 OA 
HETATM    2  C   UNL     1     -13.067   7.439  71.556  1.00  0.00    -0.374 C  
HETATM    3  O   UNL     1     -14.274   7.389  71.389  1.00  0.00    -0.433 OA 
HETATM    4  C   UNL     1     -12.219   8.688  71.463  1.00  0.00    -0.368 C  
ENDROOT
BRANCH   4   5
HETATM    5  C   UNL     1     -13.063   9.916  71.126  1.00  0.00    -0.453 C  
BRANCH   5   6
HETATM    6  C   UNL     1     -12.585  11.156  71.881  1.00  0.00    -0.163 C  
BRANCH   6   7
HETATM    7  C   UNL     1     -13.139  12.428  71.238  1.00  0.00    -0.218 C  
BRANCH   7   8
HETATM    8  C   UNL     1     -13.931  13.265  72.241  1.00  0.00    -0.559 C  
BRANCH   8   9
HETATM    9  C   UNL     1     -13.040  14.319  72.899  1.00  0.00    -0.589 C  
BRANCH   9  10
HETATM   10  C   UNL     1     -13.142  15.664  72.179  1.00  0.00    -0.540 C  
BRANCH  10  11
HETATM   11  C   UNL     1     -11.786  16.087  71.611  1.00  0.00    -0.582 C  
BRANCH  11  12
HETATM   12  C   UNL     1     -11.558  15.494  70.251  1.00  0.00    -0.355 C  
HETATM   13  C   UNL     1     -11.040  16.171  69.218  1.00  0.00    -0.327 C  
ENDBRANCH  11  12
ENDBRANCH  10  11
ENDBRANCH   9  10
ENDBRANCH   8   9
ENDBRANCH   7   8
ENDBRANCH   6   7
ENDBRANCH   5   6
ENDBRANCH   4   5
TORSDOF 8
ENDMDL
MODEL       85
REMARK 921   NORMALIZED FREE ENERGY PREDICTED BY IDOCK:   -3.57 KCAL/MOL
REMARK 922        TOTAL FREE ENERGY PREDICTED BY IDOCK:   -5.72 KCAL/MOL
REMARK 923 INTER-LIGAND FREE ENERGY PREDICTED BY IDOCK:   -5.17 KCAL/MOL
REMARK 924 INTRA-LIGAND FREE ENERGY PREDICTED BY IDOCK:   -0.55 KCAL/MOL
REMARK 927      BINDING AFFINITY PREDICTED BY RF-SCORE:    0.00 PKD
ROOT
HETATM    1  O   UNL     1     -10.669   8.679  69.091  1.00  0.00    -0.206 OA 
HETATM    2  C   UNL     1     -10.542   9.623  68.129  1.00  0.00    -0.226 C  
HETATM    3  O   UNL     1      -9.853   9.453  67.137  1.00  0.00    -0.165 OA 
HETATM    4  C   UNL     1     -11.340  10.869  68.441  1.00  0.00    -0.370 C  
ENDROOT
BRANCH   4   5
HETATM    5  C   UNL     1     -11.184  11.924  67.348  1.00  0.00    -0.366 C  
BRANCH   5   6
HETATM    6  C   UNL     1     -12.027  13.166  67.635  1.00  0.00    -0.363 C  
BRANCH   6   7
HETATM    7  C   UNL     1     -11.139  14.406  67.754  1.00  0.00    -0.299 C  
BRANCH   7   8
HETATM    8  C   UNL     1     -11.116  14.945  69.184  1.00  0.00    -0.279 C  
BRANCH   8   9
HETATM    9  C   UNL     1     -12.244  14.336  70.017  1.00  0.00    -0.417 C  
BRANCH   9  10
HETATM   10  C   UNL     1     -12.895  15.380  70.924  1.00  0.00    -0.536 C  
BRANCH  10  11
HETATM   11  C   UNL     1     -11.844  16.105  71.768  1.00  0.00    -0.581 C  
BRANCH  11  12
HETATM   12  C   UNL     1     -12.261  16.182  73.208  1.00  0.00    -0.639 C  
HETATM   13  C   UNL     1     -12.389  15.116  74.008  1.00  0.00    -0.725 C  
ENDBRANCH  11  12
ENDBRANCH  10  11
ENDBRANCH   9  10
ENDBRANCH   8   9
ENDBRANCH   7   8
ENDBRANCH   6   7
ENDBRANCH   5   6
ENDBRANCH   4   5
TORSDOF 8
ENDMDL
MODEL       86
REMARK 921   NORMALIZED FREE ENERGY PREDICTED BY IDOCK:   -3.57 KCAL/MOL
REMARK 922        TOTAL FREE ENERGY PREDICTED BY IDOCK:   -5.72 KCAL/MOL
REMARK 923 INTER-LIGAND FREE ENERGY PREDICTED BY IDOCK:   -4.85 KCAL/MOL
REMARK 924 INTRA-LIGAND FREE ENERGY PREDICTED BY IDOCK:   -0.87 KCAL/MOL
REMARK 927      BINDING AFFINITY PREDICTED BY RF-SCORE:    0.00 PKD
ROOT
HETATM    1  O   UNL     1     -11.747  16.386  63.631  1.00  0.00    -0.933 OA 
HETATM    2  C   UNL     1     -11.091  16.139  64.789  1.00  0.00    -0.333 C  
HETATM    3  O   UNL     1     -10.312  16.939  65.280  1.00  0.00    -0.624 OA 
HETATM    4  C   UNL     1     -11.442  14.786  65.367  1.00  0.00    -0.341 C  
ENDROOT
BRANCH   4   5
HETATM    5  C   UNL     1     -10.692  14.522  66.671  1.00  0.00    -0.305 C  
BRANCH   5   6
HETATM    6  C   UNL     1      -9.469  13.631  66.451  1.00  0.00    -0.248 C  
BRANCH   6   7
HETATM    7  C   UNL     1      -9.248  12.709  67.651  1.00  0.00    -0.191 C  
BRANCH   7   8
HETATM    8  C   UNL     1      -9.026  11.262  67.215  1.00  0.00    -0.149 C  
BRANCH   8   9
HETATM    9  C   UNL     1     -10.299  10.674  66.603  1.00  0.00    -0.297 C  
BRANCH   9  10
HETATM   10  C   UNL     1     -10.072  10.236  65.157  1.00  0.00    -0.355 C  
BRANCH  10  11
HETATM   11  C   UNL     1     -10.690  11.236  64.178  1.00  0.00    -0.436 C  
BRANCH  11  12
HETATM   12  C   UNL     1      -9.794  11.464  62.995  1.00  0.00    -0.373 C  
HETATM   13  C   UNL     1      -8.705  10.731  62.730  1.00  0.00    -0.268 C  
ENDBRANCH  11  12
ENDBRANCH  10  11
ENDBRANCH   9  10
ENDBRANCH   8   9
ENDBRANCH   7   8
ENDBRANCH   6   7
ENDBRANCH   5   6
ENDBRANCH   4   5
TORSDOF 8
ENDMDL
MODEL       87
REMARK 921   NORMALIZED FREE ENERGY PREDICTED BY IDOCK:   -3.57 KCAL/MOL
REMARK 922        TOTAL FREE ENERGY PREDICTED BY IDOCK:   -5.72 KCAL/MOL
REMARK 923 INTER-LIGAND FREE ENERGY PREDICTED BY IDOCK:   -5.31 KCAL/MOL
REMARK 924 INTRA-LIGAND FREE ENERGY PREDICTED BY IDOCK:   -0.41 KCAL/MOL
REMARK 927      BINDING AFFINITY PREDICTED BY RF-SCORE:    0.00 PKD
ROOT
HETATM    1  O   UNL     1      -9.292   9.118  65.652  1.00  0.00    -0.224 OA 
HETATM    2  C   UNL     1     -10.011  10.089  66.262  1.00  0.00    -0.245 C  
HETATM    3  O   UNL     1     -10.162  11.194  65.769  1.00  0.00    -0.240 OA 
HETATM    4  C   UNL     1     -10.578   9.634  67.588  1.00  0.00    -0.334 C  
ENDROOT
BRANCH   4   5
HETATM    5  C   UNL     1     -11.384  10.741  68.264  1.00  0.00    -0.376 C  
BRANCH   5   6
HETATM    6  C   UNL     1     -11.648  10.430  69.737  1.00  0.00    -0.339 C  
BRANCH   6   7
HETATM    7  C   UNL     1     -12.157  11.673  70.469  1.00  0.00    -0.458 C  
BRANCH   7   8
HETATM    8  C   UNL     1     -11.814  12.953  69.709  1.00  0.00    -0.380 C  
BRANCH   8   9
HETATM    9  C   UNL     1     -12.631  14.135  70.232  1.00  0.00    -0.367 C  
BRANCH   9  10
HETATM   10  C   UNL     1     -13.208  13.846  71.618  1.00  0.00    -0.446 C  
BRANCH  10  11
HETATM   11  C   UNL     1     -14.107  14.992  72.087  1.00  0.00    -0.629 C  
BRANCH  11  12
HETATM   12  C   UNL     1     -13.428  15.821  73.138  1.00  0.00    -0.652 C  
HETATM   13  C   UNL     1     -12.185  16.305  73.021  1.00  0.00    -0.619 C  
ENDBRANCH  11  12
ENDBRANCH  10  11
ENDBRANCH   9  10
ENDBRANCH   8   9
ENDBRANCH   7   8
ENDBRANCH   6   7
ENDBRANCH   5   6
ENDBRANCH   4   5
TORSDOF 8
ENDMDL
MODEL       88
REMARK 921   NORMALIZED FREE ENERGY PREDICTED BY IDOCK:   -3.57 KCAL/MOL
REMARK 922        TOTAL FREE ENERGY PREDICTED BY IDOCK:   -5.72 KCAL/MOL
REMARK 923 INTER-LIGAND FREE ENERGY PREDICTED BY IDOCK:   -5.32 KCAL/MOL
REMARK 924 INTRA-LIGAND FREE ENERGY PREDICTED BY IDOCK:   -0.40 KCAL/MOL
REMARK 927      BINDING AFFINITY PREDICTED BY RF-SCORE:    0.00 PKD
ROOT
HETATM    1  O   UNL     1      -9.350   6.322  72.403  1.00  0.00    -0.143 OA 
HETATM    2  C   UNL     1     -10.350   6.630  71.544  1.00  0.00    -0.209 C  
HETATM    3  O   UNL     1     -10.155   6.802  70.352  1.00  0.00    -0.182 OA 
HETATM    4  C   UNL     1     -11.690   6.729  72.238  1.00  0.00    -0.300 C  
ENDROOT
BRANCH   4   5
HETATM    5  C   UNL     1     -12.806   7.078  71.256  1.00  0.00    -0.376 C  
BRANCH   5   6
HETATM    6  C   UNL     1     -13.545   8.351  71.669  1.00  0.00    -0.380 C  
BRANCH   6   7
HETATM    7  C   UNL     1     -12.555   9.449  72.061  1.00  0.00    -0.462 C  
BRANCH   7   8
HETATM    8  C   UNL     1     -13.172  10.839  71.915  1.00  0.00    -0.524 C  
BRANCH   8   9
HETATM    9  C   UNL     1     -12.394  11.680  70.903  1.00  0.00    -0.436 C  
BRANCH   9  10
HETATM   10  C   UNL     1     -12.615  13.175  71.132  1.00  0.00    -0.403 C  
BRANCH  10  11
HETATM   11  C   UNL     1     -13.448  13.420  72.391  1.00  0.00    -0.685 C  
BRANCH  11  12
HETATM   12  C   UNL     1     -13.767  14.878  72.559  1.00  0.00    -0.568 C  
HETATM   13  C   UNL     1     -12.938  15.764  73.127  1.00  0.00    -0.651 C  
ENDBRANCH  11  12
ENDBRANCH  10  11
ENDBRANCH   9  10
ENDBRANCH   8   9
ENDBRANCH   7   8
ENDBRANCH   6   7
ENDBRANCH   5   6
ENDBRANCH   4   5
TORSDOF 8
ENDMDL
MODEL       89
REMARK 921   NORMALIZED FREE ENERGY PREDICTED BY IDOCK:   -3.56 KCAL/MOL
REMARK 922        TOTAL FREE ENERGY PREDICTED BY IDOCK:   -5.70 KCAL/MOL
REMARK 923 INTER-LIGAND FREE ENERGY PREDICTED BY IDOCK:   -5.22 KCAL/MOL
REMARK 924 INTRA-LIGAND FREE ENERGY PREDICTED BY IDOCK:   -0.48 KCAL/MOL
REMARK 927      BINDING AFFINITY PREDICTED BY RF-SCORE:    0.00 PKD
ROOT
HETATM    1  O   UNL     1      -5.976  20.609  70.658  1.00  0.00    -0.547 OA 
HETATM    2  C   UNL     1      -6.103  20.458  69.319  1.00  0.00    -0.332 C  
HETATM    3  O   UNL     1      -5.392  21.052  68.526  1.00  0.00    -0.295 OA 
HETATM    4  C   UNL     1      -7.206  19.489  68.955  1.00  0.00    -0.397 C  
ENDROOT
BRANCH   4   5
HETATM    5  C   UNL     1      -7.338  19.332  67.441  1.00  0.00    -0.251 C  
BRANCH   5   6
HETATM    6  C   UNL     1      -8.650  19.920  66.923  1.00  0.00    -0.391 C  
BRANCH   6   7
HETATM    7  C   UNL     1      -9.760  19.769  67.965  1.00  0.00    -0.505 C  
BRANCH   7   8
HETATM    8  C   UNL     1     -10.617  18.533  67.696  1.00  0.00    -0.450 C  
BRANCH   8   9
HETATM    9  C   UNL     1     -10.193  17.368  68.591  1.00  0.00    -0.361 C  
BRANCH   9  10
HETATM   10  C   UNL     1     -11.239  16.253  68.590  1.00  0.00    -0.354 C  
BRANCH  10  11
HETATM   11  C   UNL     1     -11.073  15.344  69.809  1.00  0.00    -0.295 C  
BRANCH  11  12
HETATM   12  C   UNL     1     -12.233  15.480  70.752  1.00  0.00    -0.450 C  
HETATM   13  C   UNL     1     -12.115  15.848  72.035  1.00  0.00    -0.591 C  
ENDBRANCH  11  12
ENDBRANCH  10  11
ENDBRANCH   9  10
ENDBRANCH   8   9
ENDBRANCH   7   8
ENDBRANCH   6   7
ENDBRANCH   5   6
ENDBRANCH   4   5
TORSDOF 8
ENDMDL
MODEL       90
REMARK 921   NORMALIZED FREE ENERGY PREDICTED BY IDOCK:   -3.56 KCAL/MOL
REMARK 922        TOTAL FREE ENERGY PREDICTED BY IDOCK:   -5.70 KCAL/MOL
REMARK 923 INTER-LIGAND FREE ENERGY PREDICTED BY IDOCK:   -5.05 KCAL/MOL
REMARK 924 INTRA-LIGAND FREE ENERGY PREDICTED BY IDOCK:   -0.65 KCAL/MOL
REMARK 927      BINDING AFFINITY PREDICTED BY RF-SCORE:    0.00 PKD
ROOT
HETATM    1  O   UNL     1     -13.049  12.175  64.048  1.00  0.00    -0.723 OA 
HETATM    2  C   UNL     1     -12.785  13.085  65.014  1.00  0.00    -0.410 C  
HETATM    3  O   UNL     1     -13.152  14.246  64.933  1.00  0.00    -0.645 OA 
HETATM    4  C   UNL     1     -12.002  12.489  66.163  1.00  0.00    -0.432 C  
ENDROOT
BRANCH   4   5
HETATM    5  C   UNL     1     -11.711  13.529  67.243  1.00  0.00    -0.423 C  
BRANCH   5   6
HETATM    6  C   UNL     1     -11.535  12.884  68.617  1.00  0.00    -0.346 C  
BRANCH   6   7
HETATM    7  C   UNL     1     -11.774  11.376  68.542  1.00  0.00    -0.386 C  
BRANCH   7   8
HETATM    8  C   UNL     1     -12.143  10.796  69.907  1.00  0.00    -0.410 C  
BRANCH   8   9
HETATM    9  C   UNL     1     -10.968  10.025  70.509  1.00  0.00    -0.392 C  
BRANCH   9  10
HETATM   10  C   UNL     1     -11.032   8.541  70.152  1.00  0.00    -0.221 C  
BRANCH  10  11
HETATM   11  C   UNL     1      -9.682   8.043  69.631  1.00  0.00    -0.169 C  
BRANCH  11  12
HETATM   12  C   UNL     1      -9.675   7.955  68.132  1.00  0.00    -0.177 C  
HETATM   13  C   UNL     1     -10.753   7.652  67.397  1.00  0.00    -0.318 C  
ENDBRANCH  11  12
ENDBRANCH  10  11
ENDBRANCH   9  10
ENDBRANCH   8   9
ENDBRANCH   7   8
ENDBRANCH   6   7
ENDBRANCH   5   6
ENDBRANCH   4   5
TORSDOF 8
ENDMDL
MODEL       91
REMARK 921   NORMALIZED FREE ENERGY PREDICTED BY IDOCK:   -3.55 KCAL/MOL
REMARK 922        TOTAL FREE ENERGY PREDICTED BY IDOCK:   -5.70 KCAL/MOL
REMARK 923 INTER-LIGAND FREE ENERGY PREDICTED BY IDOCK:   -5.17 KCAL/MOL
REMARK 924 INTRA-LIGAND FREE ENERGY PREDICTED BY IDOCK:   -0.53 KCAL/MOL
REMARK 927      BINDING AFFINITY PREDICTED BY RF-SCORE:    0.00 PKD
ROOT
HETATM    1  O   UNL     1     -11.128  11.228  64.087  1.00  0.00    -0.354 OA 
HETATM    2  C   UNL     1     -11.680  12.303  64.695  1.00  0.00    -0.356 C  
HETATM    3  O   UNL     1     -12.245  12.223  65.773  1.00  0.00    -0.622 OA 
HETATM    4  C   UNL     1     -11.506  13.570  63.887  1.00  0.00    -0.289 C  
ENDROOT
BRANCH   4   5
HETATM    5  C   UNL     1     -12.135  14.773  64.586  1.00  0.00    -0.437 C  
BRANCH   5   6
HETATM    6  C   UNL     1     -11.089  15.826  64.952  1.00  0.00    -0.411 C  
BRANCH   6   7
HETATM    7  C   UNL     1      -9.855  15.170  65.572  1.00  0.00    -0.356 C  
BRANCH   7   8
HETATM    8  C   UNL     1      -9.968  15.086  67.093  1.00  0.00    -0.237 C  
BRANCH   8   9
HETATM    9  C   UNL     1     -10.773  16.262  67.648  1.00  0.00    -0.311 C  
BRANCH   9  10
HETATM   10  C   UNL     1     -11.636  15.836  68.835  1.00  0.00    -0.400 C  
BRANCH  10  11
HETATM   11  C   UNL     1     -10.774  15.558  70.068  1.00  0.00    -0.331 C  
BRANCH  11  12
HETATM   12  C   UNL     1     -11.622  15.224  71.261  1.00  0.00    -0.430 C  
HETATM   13  C   UNL     1     -11.916  16.094  72.236  1.00  0.00    -0.637 C  
ENDBRANCH  11  12
ENDBRANCH  10  11
ENDBRANCH   9  10
ENDBRANCH   8   9
ENDBRANCH   7   8
ENDBRANCH   6   7
ENDBRANCH   5   6
ENDBRANCH   4   5
TORSDOF 8
ENDMDL
MODEL       92
REMARK 921   NORMALIZED FREE ENERGY PREDICTED BY IDOCK:   -3.55 KCAL/MOL
REMARK 922        TOTAL FREE ENERGY PREDICTED BY IDOCK:   -5.70 KCAL/MOL
REMARK 923 INTER-LIGAND FREE ENERGY PREDICTED BY IDOCK:   -4.60 KCAL/MOL
REMARK 924 INTRA-LIGAND FREE ENERGY PREDICTED BY IDOCK:   -1.10 KCAL/MOL
REMARK 927      BINDING AFFINITY PREDICTED BY RF-SCORE:    0.00 PKD
ROOT
HETATM    1  O   UNL     1      -9.936   8.070  68.821  1.00  0.00    -0.178 OA 
HETATM    2  C   UNL     1      -9.965   9.417  68.951  1.00  0.00    -0.179 C  
HETATM    3  O   UNL     1      -9.820   9.970  70.028  1.00  0.00    -0.241 OA 
HETATM    4  C   UNL     1     -10.192  10.115  67.629  1.00  0.00    -0.246 C  
ENDROOT
BRANCH   4   5
HETATM    5  C   UNL     1     -10.223  11.633  67.794  1.00  0.00    -0.202 C  
BRANCH   5   6
HETATM    6  C   UNL     1     -11.557  12.225  67.337  1.00  0.00    -0.425 C  
BRANCH   6   7
HETATM    7  C   UNL     1     -11.368  13.654  66.825  1.00  0.00    -0.346 C  
BRANCH   7   8
HETATM    8  C   UNL     1     -12.221  13.923  65.587  1.00  0.00    -0.477 C  
BRANCH   8   9
HETATM    9  C   UNL     1     -12.554  12.622  64.857  1.00  0.00    -0.525 C  
BRANCH   9  10
HETATM   10  C   UNL     1     -11.962  12.604  63.448  1.00  0.00    -0.613 C  
BRANCH  10  11
HETATM   11  C   UNL     1     -10.497  12.164  63.474  1.00  0.00    -0.490 C  
BRANCH  11  12
HETATM   12  C   UNL     1     -10.358  10.765  64.003  1.00  0.00    -0.357 C  
HETATM   13  C   UNL     1      -9.204  10.085  64.021  1.00  0.00    -0.318 C  
ENDBRANCH  11  12
ENDBRANCH  10  11
ENDBRANCH   9  10
ENDBRANCH   8   9
ENDBRANCH   7   8
ENDBRANCH   6   7
ENDBRANCH   5   6
ENDBRANCH   4   5
TORSDOF 8
ENDMDL
MODEL       93
REMARK 921   NORMALIZED FREE ENERGY PREDICTED BY IDOCK:   -3.54 KCAL/MOL
REMARK 922        TOTAL FREE ENERGY PREDICTED BY IDOCK:   -5.68 KCAL/MOL
REMARK 923 INTER-LIGAND FREE ENERGY PREDICTED BY IDOCK:   -5.04 KCAL/MOL
REMARK 924 INTRA-LIGAND FREE ENERGY PREDICTED BY IDOCK:   -0.64 KCAL/MOL
REMARK 927      BINDING AFFINITY PREDICTED BY RF-SCORE:    0.00 PKD
ROOT
HETATM    1  O   UNL     1     -10.283  19.966  69.202  1.00  0.00    -0.407 OA 
HETATM    2  C   UNL     1      -9.997  19.591  67.934  1.00  0.00    -0.395 C  
HETATM    3  O   UNL     1      -9.230  20.221  67.226  1.00  0.00    -0.360 OA 
HETATM    4  C   UNL     1     -10.730  18.331  67.530  1.00  0.00    -0.381 C  
ENDROOT
BRANCH   4   5
HETATM    5  C   UNL     1     -10.397  17.923  66.097  1.00  0.00    -0.352 C  
BRANCH   5   6
HETATM    6  C   UNL     1      -9.702  16.562  66.042  1.00  0.00    -0.331 C  
BRANCH   6   7
HETATM    7  C   UNL     1      -9.797  15.852  67.394  1.00  0.00    -0.234 C  
BRANCH   7   8
HETATM    8  C   UNL     1     -10.413  14.461  67.255  1.00  0.00    -0.269 C  
BRANCH   8   9
HETATM    9  C   UNL     1     -11.830  14.430  67.829  1.00  0.00    -0.402 C  
BRANCH   9  10
HETATM   10  C   UNL     1     -11.820  14.112  69.324  1.00  0.00    -0.381 C  
BRANCH  10  11
HETATM   11  C   UNL     1     -12.201  15.343  70.149  1.00  0.00    -0.407 C  
BRANCH  11  12
HETATM   12  C   UNL     1     -11.660  15.251  71.546  1.00  0.00    -0.456 C  
HETATM   13  C   UNL     1     -11.982  16.101  72.530  1.00  0.00    -0.660 C  
ENDBRANCH  11  12
ENDBRANCH  10  11
ENDBRANCH   9  10
ENDBRANCH   8   9
ENDBRANCH   7   8
ENDBRANCH   6   7
ENDBRANCH   5   6
ENDBRANCH   4   5
TORSDOF 8
ENDMDL
MODEL       94
REMARK 921   NORMALIZED FREE ENERGY PREDICTED BY IDOCK:   -3.54 KCAL/MOL
REMARK 922        TOTAL FREE ENERGY PREDICTED BY IDOCK:   -5.68 KCAL/MOL
REMARK 923 INTER-LIGAND FREE ENERGY PREDICTED BY IDOCK:   -4.94 KCAL/MOL
REMARK 924 INTRA-LIGAND FREE ENERGY PREDICTED BY IDOCK:   -0.74 KCAL/MOL
REMARK 927      BINDING AFFINITY PREDICTED BY RF-SCORE:    0.00 PKD
ROOT
HETATM    1  O   UNL     1     -14.263  14.603  72.857  1.00  0.00    -0.362 OA 
HETATM    2  C   UNL     1     -13.493  13.814  72.072  1.00  0.00    -0.470 C  
HETATM    3  O   UNL     1     -13.346  12.622  72.290  1.00  0.00    -0.533 OA 
HETATM    4  C   UNL     1     -12.862  14.582  70.932  1.00  0.00    -0.425 C  
ENDROOT
BRANCH   4   5
HETATM    5  C   UNL     1     -11.996  13.678  70.058  1.00  0.00    -0.413 C  
BRANCH   5   6
HETATM    6  C   UNL     1     -10.909  14.468  69.328  1.00  0.00    -0.270 C  
BRANCH   6   7
HETATM    7  C   UNL     1     -10.630  13.862  67.952  1.00  0.00    -0.248 C  
BRANCH   7   8
HETATM    8  C   UNL     1     -11.440  12.587  67.726  1.00  0.00    -0.378 C  
BRANCH   8   9
HETATM    9  C   UNL     1     -12.139  12.616  66.366  1.00  0.00    -0.330 C  
BRANCH   9  10
HETATM   10  C   UNL     1     -12.514  14.042  65.962  1.00  0.00    -0.489 C  
BRANCH  10  11
HETATM   11  C   UNL     1     -12.227  14.285  64.479  1.00  0.00    -0.476 C  
BRANCH  11  12
HETATM   12  C   UNL     1     -11.648  15.651  64.253  1.00  0.00    -0.191 C  
HETATM   13  C   UNL     1     -10.708  16.202  65.031  1.00  0.00    -0.359 C  
ENDBRANCH  11  12
ENDBRANCH  10  11
ENDBRANCH   9  10
ENDBRANCH   8   9
ENDBRANCH   7   8
ENDBRANCH   6   7
ENDBRANCH   5   6
ENDBRANCH   4   5
TORSDOF 8
ENDMDL
MODEL       95
REMARK 921   NORMALIZED FREE ENERGY PREDICTED BY IDOCK:   -3.54 KCAL/MOL
REMARK 922        TOTAL FREE ENERGY PREDICTED BY IDOCK:   -5.68 KCAL/MOL
REMARK 923 INTER-LIGAND FREE ENERGY PREDICTED BY IDOCK:   -4.90 KCAL/MOL
REMARK 924 INTRA-LIGAND FREE ENERGY PREDICTED BY IDOCK:   -0.78 KCAL/MOL
REMARK 927      BINDING AFFINITY PREDICTED BY RF-SCORE:    0.00 PKD
ROOT
HETATM    1  O   UNL     1      -9.828  19.264  69.013  1.00  0.00    -0.422 OA 
HETATM    2  C   UNL     1     -10.280  18.381  68.092  1.00  0.00    -0.384 C  
HETATM    3  O   UNL     1     -10.896  18.732  67.099  1.00  0.00    -0.421 OA 
HETATM    4  C   UNL     1      -9.930  16.953  68.448  1.00  0.00    -0.275 C  
ENDROOT
BRANCH   4   5
HETATM    5  C   UNL     1     -10.447  15.970  67.400  1.00  0.00    -0.308 C  
BRANCH   5   6
HETATM    6  C   UNL     1     -11.561  15.083  67.957  1.00  0.00    -0.356 C  
BRANCH   6   7
HETATM    7  C   UNL     1     -11.072  14.302  69.177  1.00  0.00    -0.291 C  
BRANCH   7   8
HETATM    8  C   UNL     1     -11.189  12.794  68.962  1.00  0.00    -0.317 C  
BRANCH   8   9
HETATM    9  C   UNL     1     -11.716  12.480  67.562  1.00  0.00    -0.439 C  
BRANCH   9  10
HETATM   10  C   UNL     1     -10.759  11.566  66.797  1.00  0.00    -0.311 C  
BRANCH  10  11
HETATM   11  C   UNL     1     -10.478  12.114  65.397  1.00  0.00    -0.305 C  
BRANCH  11  12
HETATM   12  C   UNL     1     -11.726  12.657  64.763  1.00  0.00    -0.402 C  
HETATM   13  C   UNL     1     -12.195  12.257  63.574  1.00  0.00    -0.669 C  
ENDBRANCH  11  12
ENDBRANCH  10  11
ENDBRANCH   9  10
ENDBRANCH   8   9
ENDBRANCH   7   8
ENDBRANCH   6   7
ENDBRANCH   5   6
ENDBRANCH   4   5
TORSDOF 8
ENDMDL
MODEL       96
REMARK 921   NORMALIZED FREE ENERGY PREDICTED BY IDOCK:   -3.54 KCAL/MOL
REMARK 922        TOTAL FREE ENERGY PREDICTED BY IDOCK:   -5.67 KCAL/MOL
REMARK 923 INTER-LIGAND FREE ENERGY PREDICTED BY IDOCK:   -5.14 KCAL/MOL
REMARK 924 INTRA-LIGAND FREE ENERGY PREDICTED BY IDOCK:   -0.53 KCAL/MOL
REMARK 927      BINDING AFFINITY PREDICTED BY RF-SCORE:    0.00 PKD
ROOT
HETATM    1  O   UNL     1     -10.204   6.113  71.339  1.00  0.00    -0.197 OA 
HETATM    2  C   UNL     1     -11.439   6.375  70.849  1.00  0.00    -0.344 C  
HETATM    3  O   UNL     1     -11.705   6.270  69.664  1.00  0.00    -0.382 OA 
HETATM    4  C   UNL     1     -12.405   6.801  71.932  1.00  0.00    -0.369 C  
ENDROOT
BRANCH   4   5
HETATM    5  C   UNL     1     -13.791   7.095  71.363  1.00  0.00    -0.368 C  
BRANCH   5   6
HETATM    6  C   UNL     1     -14.300   8.470  71.794  1.00  0.00    -0.522 C  
BRANCH   6   7
HETATM    7  C   UNL     1     -13.177   9.287  72.434  1.00  0.00    -0.501 C  
BRANCH   7   8
HETATM    8  C   UNL     1     -12.942  10.600  71.688  1.00  0.00    -0.582 C  
BRANCH   8   9
HETATM    9  C   UNL     1     -11.852  10.439  70.627  1.00  0.00    -0.445 C  
BRANCH   9  10
HETATM   10  C   UNL     1     -11.821  11.633  69.673  1.00  0.00    -0.419 C  
BRANCH  10  11
HETATM   11  C   UNL     1     -11.764  11.169  68.216  1.00  0.00    -0.323 C  
BRANCH  11  12
HETATM   12  C   UNL     1     -11.475  12.316  67.291  1.00  0.00    -0.426 C  
HETATM   13  C   UNL     1     -10.711  13.366  67.618  1.00  0.00    -0.257 C  
ENDBRANCH  11  12
ENDBRANCH  10  11
ENDBRANCH   9  10
ENDBRANCH   8   9
ENDBRANCH   7   8
ENDBRANCH   6   7
ENDBRANCH   5   6
ENDBRANCH   4   5
TORSDOF 8
ENDMDL
MODEL       97
REMARK 921   NORMALIZED FREE ENERGY PREDICTED BY IDOCK:   -3.53 KCAL/MOL
REMARK 922        TOTAL FREE ENERGY PREDICTED BY IDOCK:   -5.67 KCAL/MOL
REMARK 923 INTER-LIGAND FREE ENERGY PREDICTED BY IDOCK:   -4.88 KCAL/MOL
REMARK 924 INTRA-LIGAND FREE ENERGY PREDICTED BY IDOCK:   -0.79 KCAL/MOL
REMARK 927      BINDING AFFINITY PREDICTED BY RF-SCORE:    0.00 PKD
ROOT
HETATM    1  O   UNL     1     -10.846  11.281  63.046  1.00  0.00    -0.164 OA 
HETATM    2  C   UNL     1     -11.791  12.141  63.495  1.00  0.00    -0.505 C  
HETATM    3  O   UNL     1     -12.978  11.980  63.269  1.00  0.00    -0.736 OA 
HETATM    4  C   UNL     1     -11.194  13.284  64.284  1.00  0.00    -0.417 C  
ENDROOT
BRANCH   4   5
HETATM    5  C   UNL     1     -12.272  14.246  64.782  1.00  0.00    -0.456 C  
BRANCH   5   6
HETATM    6  C   UNL     1     -12.656  13.964  66.234  1.00  0.00    -0.376 C  
BRANCH   6   7
HETATM    7  C   UNL     1     -11.466  13.392  67.007  1.00  0.00    -0.372 C  
BRANCH   7   8
HETATM    8  C   UNL     1     -11.718  13.404  68.514  1.00  0.00    -0.392 C  
BRANCH   8   9
HETATM    9  C   UNL     1     -11.899  11.983  69.050  1.00  0.00    -0.372 C  
BRANCH   9  10
HETATM   10  C   UNL     1     -11.603  10.938  67.974  1.00  0.00    -0.295 C  
BRANCH  10  11
HETATM   11  C   UNL     1     -10.510   9.971  68.434  1.00  0.00    -0.235 C  
BRANCH  11  12
HETATM   12  C   UNL     1      -9.678   9.500  67.277  1.00  0.00    -0.215 C  
HETATM   13  C   UNL     1      -9.944   9.790  65.997  1.00  0.00    -0.342 C  
ENDBRANCH  11  12
ENDBRANCH  10  11
ENDBRANCH   9  10
ENDBRANCH   8   9
ENDBRANCH   7   8
ENDBRANCH   6   7
ENDBRANCH   5   6
ENDBRANCH   4   5
TORSDOF 8
ENDMDL
MODEL       98
REMARK 921   NORMALIZED FREE ENERGY PREDICTED BY IDOCK:   -3.51 KCAL/MOL
REMARK 922        TOTAL FREE ENERGY PREDICTED BY IDOCK:   -5.64 KCAL/MOL
REMARK 923 INTER-LIGAND FREE ENERGY PREDICTED BY IDOCK:   -5.23 KCAL/MOL
REMARK 924 INTRA-LIGAND FREE ENERGY PREDICTED BY IDOCK:   -0.40 KCAL/MOL
REMARK 927      BINDING AFFINITY PREDICTED BY RF-SCORE:    0.00 PKD
ROOT
HETATM    1  O   UNL     1     -14.285  13.232  72.660  1.00  0.00    -0.724 OA 
HETATM    2  C   UNL     1     -13.808  14.385  72.135  1.00  0.00    -0.477 C  
HETATM    3  O   UNL     1     -14.387  15.450  72.269  1.00  0.00    -0.550 OA 
HETATM    4  C   UNL     1     -12.510  14.179  71.386  1.00  0.00    -0.438 C  
ENDROOT
BRANCH   4   5
HETATM    5  C   UNL     1     -11.988  15.488  70.798  1.00  0.00    -0.420 C  
BRANCH   5   6
HETATM    6  C   UNL     1     -12.009  15.471  69.270  1.00  0.00    -0.338 C  
BRANCH   6   7
HETATM    7  C   UNL     1     -11.352  14.198  68.734  1.00  0.00    -0.308 C  
BRANCH   7   8
HETATM    8  C   UNL     1     -11.000  14.329  67.253  1.00  0.00    -0.302 C  
BRANCH   8   9
HETATM    9  C   UNL     1     -10.004  13.249  66.830  1.00  0.00    -0.263 C  
BRANCH   9  10
HETATM   10  C   UNL     1     -10.651  11.865  66.819  1.00  0.00    -0.264 C  
BRANCH  10  11
HETATM   11  C   UNL     1     -10.141  11.031  65.641  1.00  0.00    -0.310 C  
BRANCH  11  12
HETATM   12  C   UNL     1     -10.997  11.227  64.424  1.00  0.00    -0.331 C  
HETATM   13  C   UNL     1     -10.748  12.137  63.473  1.00  0.00    -0.509 C  
ENDBRANCH  11  12
ENDBRANCH  10  11
ENDBRANCH   9  10
ENDBRANCH   8   9
ENDBRANCH   7   8
ENDBRANCH   6   7
ENDBRANCH   5   6
ENDBRANCH   4   5
TORSDOF 8
ENDMDL
MODEL       99
REMARK 921   NORMALIZED FREE ENERGY PREDICTED BY IDOCK:   -3.51 KCAL/MOL
REMARK 922        TOTAL FREE ENERGY PREDICTED BY IDOCK:   -5.63 KCAL/MOL
REMARK 923 INTER-LIGAND FREE ENERGY PREDICTED BY IDOCK:   -4.79 KCAL/MOL
REMARK 924 INTRA-LIGAND FREE ENERGY PREDICTED BY IDOCK:   -0.84 KCAL/MOL
REMARK 927      BINDING AFFINITY PREDICTED BY RF-SCORE:    0.00 PKD
ROOT
HETATM    1  O   UNL     1     -11.233   6.546  67.196  1.00  0.00    -0.388 OA 
HETATM    2  C   UNL     1     -10.611   6.681  68.390  1.00  0.00    -0.242 C  
HETATM    3  O   UNL     1      -9.444   7.025  68.482  1.00  0.00    -0.135 OA 
HETATM    4  C   UNL     1     -11.526   6.360  69.551  1.00  0.00    -0.412 C  
ENDROOT
BRANCH   4   5
HETATM    5  C   UNL     1     -10.809   6.516  70.891  1.00  0.00    -0.302 C  
BRANCH   5   6
HETATM    6  C   UNL     1     -11.794   6.747  72.036  1.00  0.00    -0.351 C  
BRANCH   6   7
HETATM    7  C   UNL     1     -11.881   8.234  72.383  1.00  0.00    -0.461 C  
BRANCH   7   8
HETATM    8  C   UNL     1     -13.293   8.779  72.170  1.00  0.00    -0.465 C  
BRANCH   8   9
HETATM    9  C   UNL     1     -13.279   9.984  71.229  1.00  0.00    -0.469 C  
BRANCH   9  10
HETATM   10  C   UNL     1     -11.853  10.372  70.840  1.00  0.00    -0.475 C  
BRANCH  10  11
HETATM   11  C   UNL     1     -11.836  11.145  69.520  1.00  0.00    -0.423 C  
BRANCH  11  12
HETATM   12  C   UNL     1     -11.152  10.361  68.438  1.00  0.00    -0.322 C  
HETATM   13  C   UNL     1     -10.910  10.837  67.209  1.00  0.00    -0.344 C  
ENDBRANCH  11  12
ENDBRANCH  10  11
ENDBRANCH   9  10
ENDBRANCH   8   9
ENDBRANCH   7   8
ENDBRANCH   6   7
ENDBRANCH   5   6
ENDBRANCH   4   5
TORSDOF 8
ENDMDL
MODEL      100
REMARK 921   NORMALIZED FREE ENERGY PREDICTED BY IDOCK:   -3.50 KCAL/MOL
REMARK 922        TOTAL FREE ENERGY PREDICTED BY IDOCK:   -5.62 KCAL/MOL
REMARK 923 INTER-LIGAND FREE ENERGY PREDICTED BY IDOCK:   -4.90 KCAL/MOL
REMARK 924 INTRA-LIGAND FREE ENERGY PREDICTED BY IDOCK:   -0.72 KCAL/MOL
REMARK 927      BINDING AFFINITY PREDICTED BY RF-SCORE:    0.00 PKD
ROOT
HETATM    1  O   UNL     1     -12.628  13.808  63.295  1.00  0.00    -0.830 OA 
HETATM    2  C   UNL     1     -12.271  14.365  64.476  1.00  0.00    -0.463 C  
HETATM    3  O   UNL     1     -11.840  15.503  64.555  1.00  0.00    -0.355 OA 
HETATM    4  C   UNL     1     -12.473  13.419  65.639  1.00  0.00    -0.519 C  
ENDROOT
BRANCH   4   5
HETATM    5  C   UNL     1     -12.065  14.062  66.963  1.00  0.00    -0.455 C  
BRANCH   5   6
HETATM    6  C   UNL     1     -10.880  13.338  67.602  1.00  0.00    -0.273 C  
BRANCH   6   7
HETATM    7  C   UNL     1     -11.357  12.378  68.693  1.00  0.00    -0.332 C  
BRANCH   7   8
HETATM    8  C   UNL     1     -10.299  11.323  69.014  1.00  0.00    -0.189 C  
BRANCH   8   9
HETATM    9  C   UNL     1      -9.600  10.844  67.741  1.00  0.00    -0.176 C  
BRANCH   9  10
HETATM   10  C   UNL     1     -10.302   9.625  67.143  1.00  0.00    -0.319 C  
BRANCH  10  11
HETATM   11  C   UNL     1      -9.652   9.212  65.821  1.00  0.00    -0.323 C  
BRANCH  11  12
HETATM   12  C   UNL     1      -9.571  10.369  64.869  1.00  0.00    -0.348 C  
HETATM   13  C   UNL     1      -9.588  10.243  63.535  1.00  0.00    -0.321 C  
ENDBRANCH  11  12
ENDBRANCH  10  11
ENDBRANCH   9  10
ENDBRANCH   8   9
ENDBRANCH   7   8
ENDBRANCH   6   7
ENDBRANCH   5   6
ENDBRANCH   4   5
TORSDOF 8
ENDMDL
MODEL      101
REMARK 921   NORMALIZED FREE ENERGY PREDICTED BY IDOCK:   -3.49 KCAL/MOL
REMARK 922        TOTAL FREE ENERGY PREDICTED BY IDOCK:   -5.61 KCAL/MOL
REMARK 923 INTER-LIGAND FREE ENERGY PREDICTED BY IDOCK:   -4.99 KCAL/MOL
REMARK 924 INTRA-LIGAND FREE ENERGY PREDICTED BY IDOCK:   -0.61 KCAL/MOL
REMARK 927      BINDING AFFINITY PREDICTED BY RF-SCORE:    0.00 PKD
ROOT
HETATM    1  O   UNL     1     -11.557  12.107  63.956  1.00  0.00    -0.364 OA 
HETATM    2  C   UNL     1     -11.915  13.026  64.882  1.00  0.00    -0.396 C  
HETATM    3  O   UNL     1     -13.031  13.516  64.917  1.00  0.00    -0.708 OA 
HETATM    4  C   UNL     1     -10.784  13.349  65.833  1.00  0.00    -0.285 C  
ENDROOT
BRANCH   4   5
HETATM    5  C   UNL     1     -11.204  14.389  66.871  1.00  0.00    -0.340 C  
BRANCH   5   6
HETATM    6  C   UNL     1     -10.143  15.475  67.045  1.00  0.00    -0.254 C  
BRANCH   6   7
HETATM    7  C   UNL     1     -10.474  16.368  68.242  1.00  0.00    -0.302 C  
BRANCH   7   8
HETATM    8  C   UNL     1     -10.764  17.804  67.807  1.00  0.00    -0.332 C  
BRANCH   8   9
HETATM    9  C   UNL     1     -10.366  18.025  66.348  1.00  0.00    -0.382 C  
BRANCH   9  10
HETATM   10  C   UNL     1     -10.000  19.485  66.083  1.00  0.00    -0.526 C  
BRANCH  10  11
HETATM   11  C   UNL     1      -8.494  19.709  66.229  1.00  0.00    -0.383 C  
BRANCH  11  12
HETATM   12  C   UNL     1      -8.157  20.295  67.569  1.00  0.00    -0.351 C  
HETATM   13  C   UNL     1      -7.561  19.611  68.555  1.00  0.00    -0.372 C  
ENDBRANCH  11  12
ENDBRANCH  10  11
ENDBRANCH   9  10
ENDBRANCH   8   9
ENDBRANCH   7   8
ENDBRANCH   6   7
ENDBRANCH   5   6
ENDBRANCH   4   5
TORSDOF 8
ENDMDL
MODEL      102
REMARK 921   NORMALIZED FREE ENERGY PREDICTED BY IDOCK:   -3.48 KCAL/MOL
REMARK 922        TOTAL FREE ENERGY PREDICTED BY IDOCK:   -5.60 KCAL/MOL
REMARK 923 INTER-LIGAND FREE ENERGY PREDICTED BY IDOCK:   -5.24 KCAL/MOL
REMARK 924 INTRA-LIGAND FREE ENERGY PREDICTED BY IDOCK:   -0.36 KCAL/MOL
REMARK 927      BINDING AFFINITY PREDICTED BY RF-SCORE:    0.00 PKD
ROOT
HETATM    1  O   UNL     1     -12.298  15.884  63.902  1.00  0.00    -0.776 OA 
HETATM    2  C   UNL     1     -12.283  14.583  64.273  1.00  0.00    -0.415 C  
HETATM    3  O   UNL     1     -12.543  13.680  63.495  1.00  0.00    -0.754 OA 
HETATM    4  C   UNL     1     -11.916  14.407  65.730  1.00  0.00    -0.362 C  
ENDROOT
BRANCH   4   5
HETATM    5  C   UNL     1     -11.906  12.934  66.133  1.00  0.00    -0.487 C  
BRANCH   5   6
HETATM    6  C   UNL     1     -11.786  12.762  67.647  1.00  0.00    -0.396 C  
BRANCH   6   7
HETATM    7  C   UNL     1     -11.469  11.309  68.003  1.00  0.00    -0.369 C  
BRANCH   7   8
HETATM    8  C   UNL     1     -10.027  11.151  68.485  1.00  0.00    -0.204 C  
BRANCH   8   9
HETATM    9  C   UNL     1      -9.966  10.312  69.762  1.00  0.00    -0.222 C  
BRANCH   9  10
HETATM   10  C   UNL     1     -11.024   9.209  69.757  1.00  0.00    -0.195 C  
BRANCH  10  11
HETATM   11  C   UNL     1     -10.473   7.923  69.137  1.00  0.00    -0.218 C  
BRANCH  11  12
HETATM   12  C   UNL     1     -11.135   6.709  69.722  1.00  0.00    -0.398 C  
HETATM   13  C   UNL     1     -11.889   6.730  70.829  1.00  0.00    -0.446 C  
ENDBRANCH  11  12
ENDBRANCH  10  11
ENDBRANCH   9  10
ENDBRANCH   8   9
ENDBRANCH   7   8
ENDBRANCH   6   7
ENDBRANCH   5   6
ENDBRANCH   4   5
TORSDOF 8
ENDMDL
MODEL      103
REMARK 921   NORMALIZED FREE ENERGY PREDICTED BY IDOCK:   -3.48 KCAL/MOL
REMARK 922        TOTAL FREE ENERGY PREDICTED BY IDOCK:   -5.59 KCAL/MOL
REMARK 923 INTER-LIGAND FREE ENERGY PREDICTED BY IDOCK:   -4.74 KCAL/MOL
REMARK 924 INTRA-LIGAND FREE ENERGY PREDICTED BY IDOCK:   -0.86 KCAL/MOL
REMARK 927      BINDING AFFINITY PREDICTED BY RF-SCORE:    0.00 PKD
ROOT
HETATM    1  O   UNL     1     -10.443   8.388  68.548  1.00  0.00    -0.208 OA 
HETATM    2  C   UNL     1      -9.984   8.581  67.289  1.00  0.00    -0.225 C  
HETATM    3  O   UNL     1      -9.319   7.744  66.703  1.00  0.00    -0.168 OA 
HETATM    4  C   UNL     1     -10.393   9.926  66.731  1.00  0.00    -0.285 C  
ENDROOT
BRANCH   4   5
HETATM    5  C   UNL     1      -9.866  10.129  65.312  1.00  0.00    -0.388 C  
BRANCH   5   6
HETATM    6  C   UNL     1      -9.968  11.589  64.874  1.00  0.00    -0.303 C  
BRANCH   6   7
HETATM    7  C   UNL     1     -10.599  11.695  63.484  1.00  0.00    -0.496 C  
BRANCH   7   8
HETATM    8  C   UNL     1     -11.962  12.383  63.537  1.00  0.00    -0.627 C  
BRANCH   8   9
HETATM    9  C   UNL     1     -12.473  12.475  64.975  1.00  0.00    -0.494 C  
BRANCH   9  10
HETATM   10  C   UNL     1     -12.841  13.911  65.347  1.00  0.00    -0.466 C  
BRANCH  10  11
HETATM   11  C   UNL     1     -12.000  14.406  66.525  1.00  0.00    -0.406 C  
BRANCH  11  12
HETATM   12  C   UNL     1     -10.853  15.255  66.057  1.00  0.00    -0.331 C  
HETATM   13  C   UNL     1      -9.569  14.878  66.121  1.00  0.00    -0.340 C  
ENDBRANCH  11  12
ENDBRANCH  10  11
ENDBRANCH   9  10
ENDBRANCH   8   9
ENDBRANCH   7   8
ENDBRANCH   6   7
ENDBRANCH   5   6
ENDBRANCH   4   5
TORSDOF 8
ENDMDL
MODEL      104
REMARK 921   NORMALIZED FREE ENERGY PREDICTED BY IDOCK:   -3.48 KCAL/MOL
REMARK 922        TOTAL FREE ENERGY PREDICTED BY IDOCK:   -5.58 KCAL/MOL
REMARK 923 INTER-LIGAND FREE ENERGY PREDICTED BY IDOCK:   -5.07 KCAL/MOL
REMARK 924 INTRA-LIGAND FREE ENERGY PREDICTED BY IDOCK:   -0.51 KCAL/MOL
REMARK 927      BINDING AFFINITY PREDICTED BY RF-SCORE:    0.00 PKD
ROOT
HETATM    1  O   UNL     1     -10.978   6.574  66.959  1.00  0.00    -0.368 OA 
HETATM    2  C   UNL     1     -10.644   7.498  67.890  1.00  0.00    -0.185 C  
HETATM    3  O   UNL     1     -10.537   7.222  69.073  1.00  0.00    -0.212 OA 
HETATM    4  C   UNL     1     -10.432   8.868  67.285  1.00  0.00    -0.348 C  
ENDROOT
BRANCH   4   5
HETATM    5  C   UNL     1     -10.057   9.899  68.349  1.00  0.00    -0.189 C  
BRANCH   5   6
HETATM    6  C   UNL     1     -11.268  10.720  68.792  1.00  0.00    -0.331 C  
BRANCH   6   7
HETATM    7  C   UNL     1     -11.461  10.625  70.306  1.00  0.00    -0.422 C  
BRANCH   7   8
HETATM    8  C   UNL     1     -12.474  11.653  70.809  1.00  0.00    -0.425 C  
BRANCH   8   9
HETATM    9  C   UNL     1     -12.042  13.072  70.439  1.00  0.00    -0.391 C  
BRANCH   9  10
HETATM   10  C   UNL     1     -13.099  14.100  70.843  1.00  0.00    -0.338 C  
BRANCH  10  11
HETATM   11  C   UNL     1     -13.546  13.887  72.290  1.00  0.00    -0.642 C  
BRANCH  11  12
HETATM   12  C   UNL     1     -12.805  14.795  73.229  1.00  0.00    -0.621 C  
HETATM   13  C   UNL     1     -12.252  15.958  72.862  1.00  0.00    -0.605 C  
ENDBRANCH  11  12
ENDBRANCH  10  11
ENDBRANCH   9  10
ENDBRANCH   8   9
ENDBRANCH   7   8
ENDBRANCH   6   7
ENDBRANCH   5   6
ENDBRANCH   4   5
TORSDOF 8
ENDMDL
MODEL      105
REMARK 921   NORMALIZED FREE ENERGY PREDICTED BY IDOCK:   -3.48 KCAL/MOL
REMARK 922        TOTAL FREE ENERGY PREDICTED BY IDOCK:   -5.58 KCAL/MOL
REMARK 923 INTER-LIGAND FREE ENERGY PREDICTED BY IDOCK:   -4.86 KCAL/MOL
REMARK 924 INTRA-LIGAND FREE ENERGY PREDICTED BY IDOCK:   -0.72 KCAL/MOL
REMARK 927      BINDING AFFINITY PREDICTED BY RF-SCORE:    0.00 PKD
ROOT
HETATM    1  O   UNL     1     -12.470  14.265  63.436  1.00  0.00    -0.761 OA 
HETATM    2  C   UNL     1     -12.068  14.672  64.663  1.00  0.00    -0.454 C  
HETATM    3  O   UNL     1     -11.401  15.679  64.829  1.00  0.00    -0.409 OA 
HETATM    4  C   UNL     1     -12.541  13.741  65.757  1.00  0.00    -0.525 C  
ENDROOT
BRANCH   4   5
HETATM    5  C   UNL     1     -12.078  14.213  67.134  1.00  0.00    -0.432 C  
BRANCH   5   6
HETATM    6  C   UNL     1     -11.009  13.290  67.719  1.00  0.00    -0.278 C  
BRANCH   6   7
HETATM    7  C   UNL     1     -11.157  11.872  67.165  1.00  0.00    -0.347 C  
BRANCH   7   8
HETATM    8  C   UNL     1      -9.912  11.030  67.438  1.00  0.00    -0.209 C  
BRANCH   8   9
HETATM    9  C   UNL     1     -10.075   9.615  66.882  1.00  0.00    -0.290 C  
BRANCH   9  10
HETATM   10  C   UNL     1     -10.503   8.632  67.972  1.00  0.00    -0.254 C  
BRANCH  10  11
HETATM   11  C   UNL     1     -10.022   9.096  69.348  1.00  0.00    -0.192 C  
BRANCH  11  12
HETATM   12  C   UNL     1     -11.176   9.320  70.282  1.00  0.00    -0.267 C  
HETATM   13  C   UNL     1     -11.587  10.529  70.686  1.00  0.00    -0.445 C  
ENDBRANCH  11  12
ENDBRANCH  10  11
ENDBRANCH   9  10
ENDBRANCH   8   9
ENDBRANCH   7   8
ENDBRANCH   6   7
ENDBRANCH   5   6
ENDBRANCH   4   5
TORSDOF 8
ENDMDL
MODEL      106
REMARK 921   NORMALIZED FREE ENERGY PREDICTED BY IDOCK:   -3.47 KCAL/MOL
REMARK 922        TOTAL FREE ENERGY PREDICTED BY IDOCK:   -5.58 KCAL/MOL
REMARK 923 INTER-LIGAND FREE ENERGY PREDICTED BY IDOCK:   -4.66 KCAL/MOL
REMARK 924 INTRA-LIGAND FREE ENERGY PREDICTED BY IDOCK:   -0.91 KCAL/MOL
REMARK 927      BINDING AFFINITY PREDICTED BY RF-SCORE:    0.00 PKD
ROOT
HETATM    1  O   UNL     1      -9.172  18.719  68.324  1.00  0.00    -0.308 OA 
HETATM    2  C   UNL     1      -9.111  17.379  68.143  1.00  0.00    -0.267 C  
HETATM    3  O   UNL     1      -8.952  16.603  69.070  1.00  0.00    -0.256 OA 
HETATM    4  C   UNL     1      -9.263  16.991  66.689  1.00  0.00    -0.277 C  
ENDROOT
BRANCH   4   5
HETATM    5  C   UNL     1      -9.191  15.477  66.502  1.00  0.00    -0.324 C  
BRANCH   5   6
HETATM    6  C   UNL     1     -10.573  14.869  66.264  1.00  0.00    -0.309 C  
BRANCH   6   7
HETATM    7  C   UNL     1     -10.783  14.567  64.780  1.00  0.00    -0.414 C  
BRANCH   7   8
HETATM    8  C   UNL     1     -12.140  13.912  64.526  1.00  0.00    -0.473 C  
BRANCH   8   9
HETATM    9  C   UNL     1     -11.978  12.585  63.785  1.00  0.00    -0.598 C  
BRANCH   9  10
HETATM   10  C   UNL     1     -10.506  12.197  63.649  1.00  0.00    -0.495 C  
BRANCH  10  11
HETATM   11  C   UNL     1     -10.256  10.792  64.200  1.00  0.00    -0.412 C  
BRANCH  11  12
HETATM   12  C   UNL     1     -10.181  10.800  65.699  1.00  0.00    -0.320 C  
HETATM   13  C   UNL     1      -9.216  11.414  66.396  1.00  0.00    -0.209 C  
ENDBRANCH  11  12
ENDBRANCH  10  11
ENDBRANCH   9  10
ENDBRANCH   8   9
ENDBRANCH   7   8
ENDBRANCH   6   7
ENDBRANCH   5   6
ENDBRANCH   4   5
TORSDOF 8
ENDMDL
MODEL      107
REMARK 921   NORMALIZED FREE ENERGY PREDICTED BY IDOCK:   -3.47 KCAL/MOL
REMARK 922        TOTAL FREE ENERGY PREDICTED BY IDOCK:   -5.57 KCAL/MOL
REMARK 923 INTER-LIGAND FREE ENERGY PREDICTED BY IDOCK:   -5.29 KCAL/MOL
REMARK 924 INTRA-LIGAND FREE ENERGY PREDICTED BY IDOCK:   -0.28 KCAL/MOL
REMARK 927      BINDING AFFINITY PREDICTED BY RF-SCORE:    0.00 PKD
ROOT
HETATM    1  O   UNL     1     -11.909   8.337  72.318  1.00  0.00    -0.340 OA 
HETATM    2  C   UNL     1     -11.802   9.535  71.698  1.00  0.00    -0.397 C  
HETATM    3  O   UNL     1     -10.827   9.840  71.032  1.00  0.00    -0.326 OA 
HETATM    4  C   UNL     1     -13.012  10.411  71.935  1.00  0.00    -0.555 C  
ENDROOT
BRANCH   4   5
HETATM    5  C   UNL     1     -12.875  11.760  71.231  1.00  0.00    -0.409 C  
BRANCH   5   6
HETATM    6  C   UNL     1     -13.349  12.912  72.116  1.00  0.00    -0.615 C  
BRANCH   6   7
HETATM    7  C   UNL     1     -13.514  14.192  71.296  1.00  0.00    -0.341 C  
BRANCH   7   8
HETATM    8  C   UNL     1     -12.470  14.286  70.185  1.00  0.00    -0.393 C  
BRANCH   8   9
HETATM    9  C   UNL     1     -11.932  15.711  70.057  1.00  0.00    -0.384 C  
BRANCH   9  10
HETATM   10  C   UNL     1     -11.394  15.983  68.653  1.00  0.00    -0.383 C  
BRANCH  10  11
HETATM   11  C   UNL     1     -10.397  17.143  68.662  1.00  0.00    -0.359 C  
BRANCH  11  12
HETATM   12  C   UNL     1     -10.657  18.093  67.529  1.00  0.00    -0.419 C  
HETATM   13  C   UNL     1     -10.291  17.863  66.261  1.00  0.00    -0.364 C  
ENDBRANCH  11  12
ENDBRANCH  10  11
ENDBRANCH   9  10
ENDBRANCH   8   9
ENDBRANCH   7   8
ENDBRANCH   6   7
ENDBRANCH   5   6
ENDBRANCH   4   5
TORSDOF 8
ENDMDL
MODEL      108
REMARK 921   NORMALIZED FREE ENERGY PREDICTED BY IDOCK:   -3.46 KCAL/MOL
REMARK 922        TOTAL FREE ENERGY PREDICTED BY IDOCK:   -5.56 KCAL/MOL
REMARK 923 INTER-LIGAND FREE ENERGY PREDICTED BY IDOCK:   -5.15 KCAL/MOL
REMARK 924 INTRA-LIGAND FREE ENERGY PREDICTED BY IDOCK:   -0.41 KCAL/MOL
REMARK 927      BINDING AFFINITY PREDICTED BY RF-SCORE:    0.00 PKD
ROOT
HETATM    1  O   UNL     1     -12.496  13.713  63.159  1.00  0.00    -0.786 OA 
HETATM    2  C   UNL     1     -12.252  13.973  64.465  1.00  0.00    -0.434 C  
HETATM    3  O   UNL     1     -13.133  13.955  65.308  1.00  0.00    -0.777 OA 
HETATM    4  C   UNL     1     -10.793  14.277  64.725  1.00  0.00    -0.420 C  
ENDROOT
BRANCH   4   5
HETATM    5  C   UNL     1     -10.535  14.570  66.201  1.00  0.00    -0.303 C  
BRANCH   5   6
HETATM    6  C   UNL     1      -9.452  13.659  66.778  1.00  0.00    -0.275 C  
BRANCH   6   7
HETATM    7  C   UNL     1     -10.077  12.507  67.568  1.00  0.00    -0.207 C  
BRANCH   7   8
HETATM    8  C   UNL     1     -10.220  11.251  66.710  1.00  0.00    -0.263 C  
BRANCH   8   9
HETATM    9  C   UNL     1     -11.137  10.230  67.384  1.00  0.00    -0.261 C  
BRANCH   9  10
HETATM   10  C   UNL     1     -10.341   9.061  67.963  1.00  0.00    -0.275 C  
BRANCH  10  11
HETATM   11  C   UNL     1     -10.376   7.854  67.024  1.00  0.00    -0.411 C  
BRANCH  11  12
HETATM   12  C   UNL     1     -11.088   6.693  67.654  1.00  0.00    -0.357 C  
HETATM   13  C   UNL     1     -10.766   6.178  68.849  1.00  0.00    -0.376 C  
ENDBRANCH  11  12
ENDBRANCH  10  11
ENDBRANCH   9  10
ENDBRANCH   8   9
ENDBRANCH   7   8
ENDBRANCH   6   7
ENDBRANCH   5   6
ENDBRANCH   4   5
TORSDOF 8
ENDMDL
MODEL      109
REMARK 921   NORMALIZED FREE ENERGY PREDICTED BY IDOCK:   -3.45 KCAL/MOL
REMARK 922        TOTAL FREE ENERGY PREDICTED BY IDOCK:   -5.55 KCAL/MOL
REMARK 923 INTER-LIGAND FREE ENERGY PREDICTED BY IDOCK:   -4.98 KCAL/MOL
REMARK 924 INTRA-LIGAND FREE ENERGY PREDICTED BY IDOCK:   -0.57 KCAL/MOL
REMARK 927      BINDING AFFINITY PREDICTED BY RF-SCORE:    0.00 PKD
ROOT
HETATM    1  O   UNL     1     -10.772   7.308  73.488  1.00  0.00    -0.382 OA 
HETATM    2  C   UNL     1     -11.024   8.234  72.534  1.00  0.00    -0.354 C  
HETATM    3  O   UNL     1     -10.135   8.872  71.996  1.00  0.00    -0.332 OA 
HETATM    4  C   UNL     1     -12.502   8.364  72.239  1.00  0.00    -0.417 C  
ENDROOT
BRANCH   4   5
HETATM    5  C   UNL     1     -12.769   9.414  71.163  1.00  0.00    -0.342 C  
BRANCH   5   6
HETATM    6  C   UNL     1     -13.078  10.782  71.770  1.00  0.00    -0.573 C  
BRANCH   6   7
HETATM    7  C   UNL     1     -12.495  11.902  70.908  1.00  0.00    -0.397 C  
BRANCH   7   8
HETATM    8  C   UNL     1     -11.587  11.350  69.809  1.00  0.00    -0.407 C  
BRANCH   8   9
HETATM    9  C   UNL     1     -11.336  12.401  68.727  1.00  0.00    -0.339 C  
BRANCH   9  10
HETATM   10  C   UNL     1     -11.769  13.793  69.189  1.00  0.00    -0.379 C  
BRANCH  10  11
HETATM   11  C   UNL     1     -11.802  14.774  68.016  1.00  0.00    -0.324 C  
BRANCH  11  12
HETATM   12  C   UNL     1     -11.234  14.155  66.771  1.00  0.00    -0.330 C  
HETATM   13  C   UNL     1     -11.921  14.003  65.632  1.00  0.00    -0.408 C  
ENDBRANCH  11  12
ENDBRANCH  10  11
ENDBRANCH   9  10
ENDBRANCH   8   9
ENDBRANCH   7   8
ENDBRANCH   6   7
ENDBRANCH   5   6
ENDBRANCH   4   5
TORSDOF 8
ENDMDL
MODEL      110
REMARK 921   NORMALIZED FREE ENERGY PREDICTED BY IDOCK:   -3.45 KCAL/MOL
REMARK 922        TOTAL FREE ENERGY PREDICTED BY IDOCK:   -5.54 KCAL/MOL
REMARK 923 INTER-LIGAND FREE ENERGY PREDICTED BY IDOCK:   -5.12 KCAL/MOL
REMARK 924 INTRA-LIGAND FREE ENERGY PREDICTED BY IDOCK:   -0.42 KCAL/MOL
REMARK 927      BINDING AFFINITY PREDICTED BY RF-SCORE:    0.00 PKD
ROOT
HETATM    1  O   UNL     1     -13.277  14.011  65.284  1.00  0.00    -0.782 OA 
HETATM    2  C   UNL     1     -12.477  13.441  64.353  1.00  0.00    -0.277 C  
HETATM    3  O   UNL     1     -12.569  13.705  63.166  1.00  0.00    -0.792 OA 
HETATM    4  C   UNL     1     -11.493  12.468  64.962  1.00  0.00    -0.368 C  
ENDROOT
BRANCH   4   5
HETATM    5  C   UNL     1     -10.600  11.832  63.898  1.00  0.00    -0.445 C  
BRANCH   5   6
HETATM    6  C   UNL     1      -9.746  10.704  64.476  1.00  0.00    -0.367 C  
BRANCH   6   7
HETATM    7  C   UNL     1      -9.733  10.763  66.004  1.00  0.00    -0.264 C  
BRANCH   7   8
HETATM    8  C   UNL     1     -10.117   9.419  66.621  1.00  0.00    -0.332 C  
BRANCH   8   9
HETATM    9  C   UNL     1     -10.693   9.606  68.026  1.00  0.00    -0.284 C  
BRANCH   9  10
HETATM   10  C   UNL     1     -10.314   8.444  68.944  1.00  0.00    -0.231 C  
BRANCH  10  11
HETATM   11  C   UNL     1      -9.957   8.946  70.344  1.00  0.00    -0.230 C  
BRANCH  11  12
HETATM   12  C   UNL     1     -11.179   9.404  71.087  1.00  0.00    -0.427 C  
HETATM   13  C   UNL     1     -12.242   8.626  71.328  1.00  0.00    -0.320 C  
ENDBRANCH  11  12
ENDBRANCH  10  11
ENDBRANCH   9  10
ENDBRANCH   8   9
ENDBRANCH   7   8
ENDBRANCH   6   7
ENDBRANCH   5   6
ENDBRANCH   4   5
TORSDOF 8
ENDMDL
MODEL      111
REMARK 921   NORMALIZED FREE ENERGY PREDICTED BY IDOCK:   -3.45 KCAL/MOL
REMARK 922        TOTAL FREE ENERGY PREDICTED BY IDOCK:   -5.54 KCAL/MOL
REMARK 923 INTER-LIGAND FREE ENERGY PREDICTED BY IDOCK:   -4.74 KCAL/MOL
REMARK 924 INTRA-LIGAND FREE ENERGY PREDICTED BY IDOCK:   -0.80 KCAL/MOL
REMARK 927      BINDING AFFINITY PREDICTED BY RF-SCORE:    0.00 PKD
ROOT
HETATM    1  O   UNL     1      -8.882   8.861  65.875  1.00  0.00    -0.156 OA 
HETATM    2  C   UNL     1      -9.631   9.954  66.151  1.00  0.00    -0.218 C  
HETATM    3  O   UNL     1      -9.536  10.987  65.511  1.00  0.00    -0.202 OA 
HETATM    4  C   UNL     1     -10.566   9.726  67.318  1.00  0.00    -0.320 C  
ENDROOT
BRANCH   4   5
HETATM    5  C   UNL     1     -11.402  10.969  67.618  1.00  0.00    -0.355 C  
BRANCH   5   6
HETATM    6  C   UNL     1     -11.487  11.245  69.119  1.00  0.00    -0.364 C  
BRANCH   6   7
HETATM    7  C   UNL     1     -11.751  12.728  69.382  1.00  0.00    -0.380 C  
BRANCH   7   8
HETATM    8  C   UNL     1     -10.841  13.619  68.538  1.00  0.00    -0.275 C  
BRANCH   8   9
HETATM    9  C   UNL     1     -11.662  14.550  67.645  1.00  0.00    -0.410 C  
BRANCH   9  10
HETATM   10  C   UNL     1     -11.320  14.352  66.169  1.00  0.00    -0.350 C  
BRANCH  10  11
HETATM   11  C   UNL     1     -12.484  13.701  65.419  1.00  0.00    -0.537 C  
BRANCH  11  12
HETATM   12  C   UNL     1     -12.068  13.259  64.046  1.00  0.00    -0.508 C  
HETATM   13  C   UNL     1     -12.288  12.031  63.558  1.00  0.00    -0.661 C  
ENDBRANCH  11  12
ENDBRANCH  10  11
ENDBRANCH   9  10
ENDBRANCH   8   9
ENDBRANCH   7   8
ENDBRANCH   6   7
ENDBRANCH   5   6
ENDBRANCH   4   5
TORSDOF 8
ENDMDL
MODEL      112
REMARK 921   NORMALIZED FREE ENERGY PREDICTED BY IDOCK:   -3.44 KCAL/MOL
REMARK 922        TOTAL FREE ENERGY PREDICTED BY IDOCK:   -5.53 KCAL/MOL
REMARK 923 INTER-LIGAND FREE ENERGY PREDICTED BY IDOCK:   -4.75 KCAL/MOL
REMARK 924 INTRA-LIGAND FREE ENERGY PREDICTED BY IDOCK:   -0.78 KCAL/MOL
REMARK 927      BINDING AFFINITY PREDICTED BY RF-SCORE:    0.00 PKD
ROOT
HETATM    1  O   UNL     1     -11.930  10.972  70.786  1.00  0.00    -0.333 OA 
HETATM    2  C   UNL     1     -11.984  11.673  69.630  1.00  0.00    -0.324 C  
HETATM    3  O   UNL     1     -12.112  11.132  68.545  1.00  0.00    -0.586 OA 
HETATM    4  C   UNL     1     -11.867  13.164  69.859  1.00  0.00    -0.378 C  
ENDROOT
BRANCH   4   5
HETATM    5  C   UNL     1     -11.928  13.940  68.545  1.00  0.00    -0.394 C  
BRANCH   5   6
HETATM    6  C   UNL     1     -10.567  14.527  68.170  1.00  0.00    -0.238 C  
BRANCH   6   7
HETATM    7  C   UNL     1     -10.033  13.881  66.891  1.00  0.00    -0.264 C  
BRANCH   7   8
HETATM    8  C   UNL     1      -8.944  12.853  67.193  1.00  0.00    -0.219 C  
BRANCH   8   9
HETATM    9  C   UNL     1      -9.052  11.650  66.255  1.00  0.00    -0.219 C  
BRANCH   9  10
HETATM   10  C   UNL     1     -10.430  11.575  65.598  1.00  0.00    -0.317 C  
BRANCH  10  11
HETATM   11  C   UNL     1     -10.318  11.682  64.075  1.00  0.00    -0.405 C  
BRANCH  11  12
HETATM   12  C   UNL     1     -11.522  12.357  63.486  1.00  0.00    -0.561 C  
HETATM   13  C   UNL     1     -12.784  11.988  63.740  1.00  0.00    -0.516 C  
ENDBRANCH  11  12
ENDBRANCH  10  11
ENDBRANCH   9  10
ENDBRANCH   8   9
ENDBRANCH   7   8
ENDBRANCH   6   7
ENDBRANCH   5   6
ENDBRANCH   4   5
TORSDOF 8
ENDMDL
MODEL      113
REMARK 921   NORMALIZED FREE ENERGY PREDICTED BY IDOCK:   -3.44 KCAL/MOL
REMARK 922        TOTAL FREE ENERGY PREDICTED BY IDOCK:   -5.53 KCAL/MOL
REMARK 923 INTER-LIGAND FREE ENERGY PREDICTED BY IDOCK:   -4.91 KCAL/MOL
REMARK 924 INTRA-LIGAND FREE ENERGY PREDICTED BY IDOCK:   -0.62 KCAL/MOL
REMARK 927      BINDING AFFINITY PREDICTED BY RF-SCORE:    0.00 PKD
ROOT
HETATM    1  O   UNL     1      -9.974   7.956  66.606  1.00  0.00    -0.245 OA 
HETATM    2  C   UNL     1     -10.577   7.039  67.398  1.00  0.00    -0.302 C  
HETATM    3  O   UNL     1     -11.077   6.021  66.951  1.00  0.00    -0.303 OA 
HETATM    4  C   UNL     1     -10.546   7.435  68.857  1.00  0.00    -0.191 C  
ENDROOT
BRANCH   4   5
HETATM    5  C   UNL     1     -11.232   6.391  69.736  1.00  0.00    -0.484 C  
BRANCH   5   6
HETATM    6  C   UNL     1     -10.719   6.438  71.176  1.00  0.00    -0.293 C  
BRANCH   6   7
HETATM    7  C   UNL     1     -11.788   7.005  72.112  1.00  0.00    -0.314 C  
BRANCH   7   8
HETATM    8  C   UNL     1     -13.133   7.156  71.404  1.00  0.00    -0.408 C  
BRANCH   8   9
HETATM    9  C   UNL     1     -13.699   8.563  71.597  1.00  0.00    -0.411 C  
BRANCH   9  10
HETATM   10  C   UNL     1     -12.598   9.565  71.943  1.00  0.00    -0.479 C  
BRANCH  10  11
HETATM   11  C   UNL     1     -12.778  10.869  71.162  1.00  0.00    -0.530 C  
BRANCH  11  12
HETATM   12  C   UNL     1     -13.161  12.000  72.072  1.00  0.00    -0.481 C  
HETATM   13  C   UNL     1     -13.154  13.288  71.707  1.00  0.00    -0.472 C  
ENDBRANCH  11  12
ENDBRANCH  10  11
ENDBRANCH   9  10
ENDBRANCH   8   9
ENDBRANCH   7   8
ENDBRANCH   6   7
ENDBRANCH   5   6
ENDBRANCH   4   5
TORSDOF 8
ENDMDL
MODEL      114
REMARK 921   NORMALIZED FREE ENERGY PREDICTED BY IDOCK:   -3.43 KCAL/MOL
REMARK 922        TOTAL FREE ENERGY PREDICTED BY IDOCK:   -5.51 KCAL/MOL
REMARK 923 INTER-LIGAND FREE ENERGY PREDICTED BY IDOCK:   -4.70 KCAL/MOL
REMARK 924 INTRA-LIGAND FREE ENERGY PREDICTED BY IDOCK:   -0.81 KCAL/MOL
REMARK 927      BINDING AFFINITY PREDICTED BY RF-SCORE:    0.00 PKD
ROOT
HETATM    1  O   UNL     1      -9.057   9.778  64.027  1.00  0.00    -0.237 OA 
HETATM    2  C   UNL     1      -9.709  10.816  63.454  1.00  0.00    -0.351 C  
HETATM    3  O   UNL     1      -9.320  11.341  62.424  1.00  0.00    -0.272 OA 
HETATM    4  C   UNL     1     -10.940  11.220  64.235  1.00  0.00    -0.358 C  
ENDROOT
BRANCH   4   5
HETATM    5  C   UNL     1     -11.663  12.392  63.575  1.00  0.00    -0.592 C  
BRANCH   5   6
HETATM    6  C   UNL     1     -11.564  13.664  64.417  1.00  0.00    -0.421 C  
BRANCH   6   7
HETATM    7  C   UNL     1     -12.665  13.699  65.478  1.00  0.00    -0.514 C  
BRANCH   7   8
HETATM    8  C   UNL     1     -12.119  14.126  66.840  1.00  0.00    -0.466 C  
BRANCH   8   9
HETATM    9  C   UNL     1     -11.087  13.124  67.356  1.00  0.00    -0.301 C  
BRANCH   9  10
HETATM   10  C   UNL     1      -9.727  13.786  67.578  1.00  0.00    -0.230 C  
BRANCH  10  11
HETATM   11  C   UNL     1      -9.816  15.300  67.378  1.00  0.00    -0.217 C  
BRANCH  11  12
HETATM   12  C   UNL     1      -8.941  15.751  66.244  1.00  0.00    -0.381 C  
HETATM   13  C   UNL     1      -8.100  16.791  66.317  1.00  0.00    -0.365 C  
ENDBRANCH  11  12
ENDBRANCH  10  11
ENDBRANCH   9  10
ENDBRANCH   8   9
ENDBRANCH   7   8
ENDBRANCH   6   7
ENDBRANCH   5   6
ENDBRANCH   4   5
TORSDOF 8
ENDMDL
MODEL      115
REMARK 921   NORMALIZED FREE ENERGY PREDICTED BY IDOCK:   -3.42 KCAL/MOL
REMARK 922        TOTAL FREE ENERGY PREDICTED BY IDOCK:   -5.50 KCAL/MOL
REMARK 923 INTER-LIGAND FREE ENERGY PREDICTED BY IDOCK:   -4.91 KCAL/MOL
REMARK 924 INTRA-LIGAND FREE ENERGY PREDICTED BY IDOCK:   -0.59 KCAL/MOL
REMARK 927      BINDING AFFINITY PREDICTED BY RF-SCORE:    0.00 PKD
ROOT
HETATM    1  O   UNL     1      -9.683  19.527  68.921  1.00  0.00    -0.412 OA 
HETATM    2  C   UNL     1     -10.127  19.199  67.685  1.00  0.00    -0.377 C  
HETATM    3  O   UNL     1     -10.627  20.019  66.934  1.00  0.00    -0.438 OA 
HETATM    4  C   UNL     1      -9.926  17.732  67.376  1.00  0.00    -0.323 C  
ENDROOT
BRANCH   4   5
HETATM    5  C   UNL     1     -10.433  17.378  65.979  1.00  0.00    -0.278 C  
BRANCH   5   6
HETATM    6  C   UNL     1     -10.218  15.899  65.657  1.00  0.00    -0.406 C  
BRANCH   6   7
HETATM    7  C   UNL     1     -11.233  15.419  64.619  1.00  0.00    -0.374 C  
BRANCH   7   8
HETATM    8  C   UNL     1     -11.228  13.896  64.493  1.00  0.00    -0.372 C  
BRANCH   8   9
HETATM    9  C   UNL     1     -12.334  13.273  65.345  1.00  0.00    -0.528 C  
BRANCH   9  10
HETATM   10  C   UNL     1     -11.773  12.662  66.629  1.00  0.00    -0.464 C  
BRANCH  10  11
HETATM   11  C   UNL     1     -10.300  12.286  66.459  1.00  0.00    -0.250 C  
BRANCH  11  12
HETATM   12  C   UNL     1     -10.143  10.825  66.152  1.00  0.00    -0.297 C  
HETATM   13  C   UNL     1      -9.919  10.339  64.923  1.00  0.00    -0.393 C  
ENDBRANCH  11  12
ENDBRANCH  10  11
ENDBRANCH   9  10
ENDBRANCH   8   9
ENDBRANCH   7   8
ENDBRANCH   6   7
ENDBRANCH   5   6
ENDBRANCH   4   5
TORSDOF 8
ENDMDL
MODEL      116
REMARK 921   NORMALIZED FREE ENERGY PREDICTED BY IDOCK:   -3.41 KCAL/MOL
REMARK 922        TOTAL FREE ENERGY PREDICTED BY IDOCK:   -5.49 KCAL/MOL
REMARK 923 INTER-LIGAND FREE ENERGY PREDICTED BY IDOCK:   -4.67 KCAL/MOL
REMARK 924 INTRA-LIGAND FREE ENERGY PREDICTED BY IDOCK:   -0.82 KCAL/MOL
REMARK 927      BINDING AFFINITY PREDICTED BY RF-SCORE:    0.00 PKD
ROOT
HETATM    1  O   UNL     1     -12.088  11.785  67.044  1.00  0.00    -0.575 OA 
HETATM    2  C   UNL     1     -11.953  13.127  66.932  1.00  0.00    -0.362 C  
HETATM    3  O   UNL     1     -12.553  13.774  66.090  1.00  0.00    -0.438 OA 
HETATM    4  C   UNL     1     -10.994  13.692  67.955  1.00  0.00    -0.277 C  
ENDROOT
BRANCH   4   5
HETATM    5  C   UNL     1     -10.851  15.207  67.814  1.00  0.00    -0.292 C  
BRANCH   5   6
HETATM    6  C   UNL     1      -9.983  15.799  68.923  1.00  0.00    -0.223 C  
BRANCH   6   7
HETATM    7  C   UNL     1      -8.827  16.607  68.333  1.00  0.00    -0.226 C  
BRANCH   7   8
HETATM    8  C   UNL     1      -8.732  16.428  66.818  1.00  0.00    -0.258 C  
BRANCH   8   9
HETATM    9  C   UNL     1      -7.751  17.429  66.208  1.00  0.00    -0.340 C  
BRANCH   9  10
HETATM   10  C   UNL     1      -7.796  18.771  66.940  1.00  0.00    -0.252 C  
BRANCH  10  11
HETATM   11  C   UNL     1      -8.752  19.743  66.245  1.00  0.00    -0.403 C  
BRANCH  11  12
HETATM   12  C   UNL     1      -9.692  20.379  67.228  1.00  0.00    -0.602 C  
HETATM   13  C   UNL     1     -10.726  19.742  67.793  1.00  0.00    -0.420 C  
ENDBRANCH  11  12
ENDBRANCH  10  11
ENDBRANCH   9  10
ENDBRANCH   8   9
ENDBRANCH   7   8
ENDBRANCH   6   7
ENDBRANCH   5   6
ENDBRANCH   4   5
TORSDOF 8
ENDMDL
MODEL      117
REMARK 921   NORMALIZED FREE ENERGY PREDICTED BY IDOCK:   -3.41 KCAL/MOL
REMARK 922        TOTAL FREE ENERGY PREDICTED BY IDOCK:   -5.49 KCAL/MOL
REMARK 923 INTER-LIGAND FREE ENERGY PREDICTED BY IDOCK:   -4.76 KCAL/MOL
REMARK 924 INTRA-LIGAND FREE ENERGY PREDICTED BY IDOCK:   -0.73 KCAL/MOL
REMARK 927      BINDING AFFINITY PREDICTED BY RF-SCORE:    0.00 PKD
ROOT
HETATM    1  O   UNL     1     -14.394   8.852  72.649  1.00  0.00    -0.613 OA 
HETATM    2  C   UNL     1     -13.246   8.567  71.991  1.00  0.00    -0.369 C  
HETATM    3  O   UNL     1     -12.986   7.445  71.590  1.00  0.00    -0.349 OA 
HETATM    4  C   UNL     1     -12.363   9.785  71.828  1.00  0.00    -0.470 C  
ENDROOT
BRANCH   4   5
HETATM    5  C   UNL     1     -11.072   9.446  71.086  1.00  0.00    -0.432 C  
BRANCH   5   6
HETATM    6  C   UNL     1     -10.861  10.355  69.874  1.00  0.00    -0.353 C  
BRANCH   6   7
HETATM    7  C   UNL     1     -10.633   9.526  68.610  1.00  0.00    -0.239 C  
BRANCH   7   8
HETATM    8  C   UNL     1      -9.752  10.266  67.604  1.00  0.00    -0.189 C  
BRANCH   8   9
HETATM    9  C   UNL     1     -10.087  11.758  67.577  1.00  0.00    -0.207 C  
BRANCH   9  10
HETATM   10  C   UNL     1     -11.361  12.030  66.778  1.00  0.00    -0.398 C  
BRANCH  10  11
HETATM   11  C   UNL     1     -12.026  13.331  67.231  1.00  0.00    -0.393 C  
BRANCH  11  12
HETATM   12  C   UNL     1     -11.440  13.820  68.524  1.00  0.00    -0.342 C  
HETATM   13  C   UNL     1     -12.129  13.913  69.669  1.00  0.00    -0.404 C  
ENDBRANCH  11  12
ENDBRANCH  10  11
ENDBRANCH   9  10
ENDBRANCH   8   9
ENDBRANCH   7   8
ENDBRANCH   6   7
ENDBRANCH   5   6
ENDBRANCH   4   5
TORSDOF 8
ENDMDL
MODEL      118
REMARK 921   NORMALIZED FREE ENERGY PREDICTED BY IDOCK:   -3.41 KCAL/MOL
REMARK 922        TOTAL FREE ENERGY PREDICTED BY IDOCK:   -5.49 KCAL/MOL
REMARK 923 INTER-LIGAND FREE ENERGY PREDICTED BY IDOCK:   -5.13 KCAL/MOL
REMARK 924 INTRA-LIGAND FREE ENERGY PREDICTED BY IDOCK:   -0.36 KCAL/MOL
REMARK 927      BINDING AFFINITY PREDICTED BY RF-SCORE:    0.00 PKD
ROOT
HETATM    1  O   UNL     1     -12.359  16.460  74.173  1.00  0.00    -0.555 OA 
HETATM    2  C   UNL     1     -12.907  15.963  73.039  1.00  0.00    -0.513 C  
HETATM    3  O   UNL     1     -14.106  15.770  72.925  1.00  0.00    -0.542 OA 
HETATM    4  C   UNL     1     -11.868  15.691  71.974  1.00  0.00    -0.548 C  
ENDROOT
BRANCH   4   5
HETATM    5  C   UNL     1     -12.501  15.129  70.703  1.00  0.00    -0.442 C  
BRANCH   5   6
HETATM    6  C   UNL     1     -11.584  15.296  69.492  1.00  0.00    -0.339 C  
BRANCH   6   7
HETATM    7  C   UNL     1     -11.734  14.114  68.532  1.00  0.00    -0.380 C  
BRANCH   7   8
HETATM    8  C   UNL     1     -11.603  12.778  69.262  1.00  0.00    -0.372 C  
BRANCH   8   9
HETATM    9  C   UNL     1     -11.694  11.608  68.282  1.00  0.00    -0.374 C  
BRANCH   9  10
HETATM   10  C   UNL     1     -10.644  10.540  68.588  1.00  0.00    -0.226 C  
BRANCH  10  11
HETATM   11  C   UNL     1     -10.592   9.489  67.478  1.00  0.00    -0.338 C  
BRANCH  11  12
HETATM   12  C   UNL     1     -10.081  10.077  66.195  1.00  0.00    -0.317 C  
HETATM   13  C   UNL     1      -8.899   9.764  65.648  1.00  0.00    -0.182 C  
ENDBRANCH  11  12
ENDBRANCH  10  11
ENDBRANCH   9  10
ENDBRANCH   8   9
ENDBRANCH   7   8
ENDBRANCH   6   7
ENDBRANCH   5   6
ENDBRANCH   4   5
TORSDOF 8
ENDMDL
MODEL      119
REMARK 921   NORMALIZED FREE ENERGY PREDICTED BY IDOCK:   -3.40 KCAL/MOL
REMARK 922        TOTAL FREE ENERGY PREDICTED BY IDOCK:   -5.48 KCAL/MOL
REMARK 923 INTER-LIGAND FREE ENERGY PREDICTED BY IDOCK:   -4.87 KCAL/MOL
REMARK 924 INTRA-LIGAND FREE ENERGY PREDICTED BY IDOCK:   -0.61 KCAL/MOL
REMARK 927      BINDING AFFINITY PREDICTED BY RF-SCORE:    0.00 PKD
ROOT
HETATM    1  O   UNL     1      -9.777  10.579  62.866  1.00  0.00    -0.317 OA 
HETATM    2  C   UNL     1     -10.469  11.411  63.679  1.00  0.00    -0.414 C  
HETATM    3  O   UNL     1     -11.064  12.389  63.257  1.00  0.00    -0.438 OA 
HETATM    4  C   UNL     1     -10.407  10.979  65.127  1.00  0.00    -0.346 C  
ENDROOT
BRANCH   4   5
HETATM    5  C   UNL     1     -11.192  11.928  66.030  1.00  0.00    -0.377 C  
BRANCH   5   6
HETATM    6  C   UNL     1     -10.275  12.673  67.001  1.00  0.00    -0.233 C  
BRANCH   6   7
HETATM    7  C   UNL     1     -10.673  12.385  68.450  1.00  0.00    -0.254 C  
BRANCH   7   8
HETATM    8  C   UNL     1     -10.244  10.983  68.882  1.00  0.00    -0.218 C  
BRANCH   8   9
HETATM    9  C   UNL     1     -11.053  10.512  70.091  1.00  0.00    -0.369 C  
BRANCH   9  10
HETATM   10  C   UNL     1     -12.373  11.272  70.211  1.00  0.00    -0.389 C  
BRANCH  10  11
HETATM   11  C   UNL     1     -12.976  11.109  71.608  1.00  0.00    -0.548 C  
BRANCH  11  12
HETATM   12  C   UNL     1     -13.403  12.431  72.175  1.00  0.00    -0.508 C  
HETATM   13  C   UNL     1     -13.132  13.612  71.605  1.00  0.00    -0.455 C  
ENDBRANCH  11  12
ENDBRANCH  10  11
ENDBRANCH   9  10
ENDBRANCH   8   9
ENDBRANCH   7   8
ENDBRANCH   6   7
ENDBRANCH   5   6
ENDBRANCH   4   5
TORSDOF 8
ENDMDL
MODEL      120
REMARK 921   NORMALIZED FREE ENERGY PREDICTED BY IDOCK:   -3.40 KCAL/MOL
REMARK 922        TOTAL FREE ENERGY PREDICTED BY IDOCK:   -5.47 KCAL/MOL
REMARK 923 INTER-LIGAND FREE ENERGY PREDICTED BY IDOCK:   -5.00 KCAL/MOL
REMARK 924 INTRA-LIGAND FREE ENERGY PREDICTED BY IDOCK:   -0.47 KCAL/MOL
REMARK 927      BINDING AFFINITY PREDICTED BY RF-SCORE:    0.00 PKD
ROOT
HETATM    1  O   UNL     1     -10.376  19.420  65.788  1.00  0.00    -0.447 OA 
HETATM    2  C   UNL     1     -10.658  18.096  65.789  1.00  0.00    -0.175 C  
HETATM    3  O   UNL     1     -11.078  17.519  64.800  1.00  0.00    -0.959 OA 
HETATM    4  C   UNL     1     -10.391  17.455  67.132  1.00  0.00    -0.325 C  
ENDROOT
BRANCH   4   5
HETATM    5  C   UNL     1     -10.715  15.962  67.117  1.00  0.00    -0.301 C  
BRANCH   5   6
HETATM    6  C   UNL     1      -9.841  15.182  68.098  1.00  0.00    -0.218 C  
BRANCH   6   7
HETATM    7  C   UNL     1     -10.169  13.689  68.047  1.00  0.00    -0.248 C  
BRANCH   7   8
HETATM    8  C   UNL     1     -11.614  13.417  68.462  1.00  0.00    -0.368 C  
BRANCH   8   9
HETATM    9  C   UNL     1     -11.807  13.657  69.960  1.00  0.00    -0.378 C  
BRANCH   9  10
HETATM   10  C   UNL     1     -12.432  12.442  70.645  1.00  0.00    -0.320 C  
BRANCH  10  11
HETATM   11  C   UNL     1     -12.159  11.163  69.849  1.00  0.00    -0.418 C  
BRANCH  11  12
HETATM   12  C   UNL     1     -11.238  10.243  70.596  1.00  0.00    -0.406 C  
HETATM   13  C   UNL     1     -11.657   9.250  71.392  1.00  0.00    -0.437 C  
ENDBRANCH  11  12
ENDBRANCH  10  11
ENDBRANCH   9  10
ENDBRANCH   8   9
ENDBRANCH   7   8
ENDBRANCH   6   7
ENDBRANCH   5   6
ENDBRANCH   4   5
TORSDOF 8
ENDMDL
MODEL      121
REMARK 921   NORMALIZED FREE ENERGY PREDICTED BY IDOCK:   -3.40 KCAL/MOL
REMARK 922        TOTAL FREE ENERGY PREDICTED BY IDOCK:   -5.47 KCAL/MOL
REMARK 923 INTER-LIGAND FREE ENERGY PREDICTED BY IDOCK:   -5.07 KCAL/MOL
REMARK 924 INTRA-LIGAND FREE ENERGY PREDICTED BY IDOCK:   -0.40 KCAL/MOL
REMARK 927      BINDING AFFINITY PREDICTED BY RF-SCORE:    0.00 PKD
ROOT
HETATM    1  O   UNL     1     -10.529  18.412  68.251  1.00  0.00    -0.364 OA 
HETATM    2  C   UNL     1     -10.560  17.059  68.297  1.00  0.00    -0.372 C  
HETATM    3  O   UNL     1     -10.870  16.449  69.307  1.00  0.00    -0.291 OA 
HETATM    4  C   UNL     1     -10.170  16.432  66.977  1.00  0.00    -0.282 C  
ENDROOT
BRANCH   4   5
HETATM    5  C   UNL     1     -10.208  14.907  67.047  1.00  0.00    -0.256 C  
BRANCH   5   6
HETATM    6  C   UNL     1     -11.427  14.337  66.323  1.00  0.00    -0.360 C  
BRANCH   6   7
HETATM    7  C   UNL     1     -11.883  13.031  66.976  1.00  0.00    -0.437 C  
BRANCH   7   8
HETATM    8  C   UNL     1     -11.595  13.024  68.477  1.00  0.00    -0.363 C  
BRANCH   8   9
HETATM    9  C   UNL     1     -11.609  11.598  69.030  1.00  0.00    -0.379 C  
BRANCH   9  10
HETATM   10  C   UNL     1     -12.197  11.551  70.440  1.00  0.00    -0.442 C  
BRANCH  10  11
HETATM   11  C   UNL     1     -12.046  10.157  71.051  1.00  0.00    -0.476 C  
BRANCH  11  12
HETATM   12  C   UNL     1     -13.173   9.851  71.994  1.00  0.00    -0.555 C  
HETATM   13  C   UNL     1     -13.837   8.687  72.013  1.00  0.00    -0.491 C  
ENDBRANCH  11  12
ENDBRANCH  10  11
ENDBRANCH   9  10
ENDBRANCH   8   9
ENDBRANCH   7   8
ENDBRANCH   6   7
ENDBRANCH   5   6
ENDBRANCH   4   5
TORSDOF 8
ENDMDL
MODEL      122
REMARK 921   NORMALIZED FREE ENERGY PREDICTED BY IDOCK:   -3.38 KCAL/MOL
REMARK 922        TOTAL FREE ENERGY PREDICTED BY IDOCK:   -5.43 KCAL/MOL
REMARK 923 INTER-LIGAND FREE ENERGY PREDICTED BY IDOCK:   -4.99 KCAL/MOL
REMARK 924 INTRA-LIGAND FREE ENERGY PREDICTED BY IDOCK:   -0.44 KCAL/MOL
REMARK 927      BINDING AFFINITY PREDICTED BY RF-SCORE:    0.00 PKD
ROOT
HETATM    1  O   UNL     1     -12.353  11.323  69.815  1.00  0.00    -0.276 OA 
HETATM    2  C   UNL     1     -11.858  11.526  68.572  1.00  0.00    -0.297 C  
HETATM    3  O   UNL     1     -11.717  10.618  67.771  1.00  0.00    -0.503 OA 
HETATM    4  C   UNL     1     -11.517  12.979  68.322  1.00  0.00    -0.347 C  
ENDROOT
BRANCH   4   5
HETATM    5  C   UNL     1     -10.959  13.191  66.917  1.00  0.00    -0.295 C  
BRANCH   5   6
HETATM    6  C   UNL     1     -11.850  14.115  66.087  1.00  0.00    -0.420 C  
BRANCH   6   7
HETATM    7  C   UNL     1     -11.009  14.963  65.132  1.00  0.00    -0.410 C  
BRANCH   7   8
HETATM    8  C   UNL     1      -9.969  15.792  65.884  1.00  0.00    -0.380 C  
BRANCH   8   9
HETATM    9  C   UNL     1     -10.637  16.897  66.703  1.00  0.00    -0.189 C  
BRANCH   9  10
HETATM   10  C   UNL     1     -10.101  18.277  66.323  1.00  0.00    -0.389 C  
BRANCH  10  11
HETATM   11  C   UNL     1     -10.752  19.371  67.171  1.00  0.00    -0.593 C  
BRANCH  11  12
HETATM   12  C   UNL     1      -9.721  20.176  67.907  1.00  0.00    -0.499 C  
HETATM   13  C   UNL     1      -8.498  20.441  67.429  1.00  0.00    -0.394 C  
ENDBRANCH  11  12
ENDBRANCH  10  11
ENDBRANCH   9  10
ENDBRANCH   8   9
ENDBRANCH   7   8
ENDBRANCH   6   7
ENDBRANCH   5   6
ENDBRANCH   4   5
TORSDOF 8
ENDMDL
MODEL      123
REMARK 921   NORMALIZED FREE ENERGY PREDICTED BY IDOCK:   -3.38 KCAL/MOL
REMARK 922        TOTAL FREE ENERGY PREDICTED BY IDOCK:   -5.43 KCAL/MOL
REMARK 923 INTER-LIGAND FREE ENERGY PREDICTED BY IDOCK:   -4.98 KCAL/MOL
REMARK 924 INTRA-LIGAND FREE ENERGY PREDICTED BY IDOCK:   -0.46 KCAL/MOL
REMARK 927      BINDING AFFINITY PREDICTED BY RF-SCORE:    0.00 PKD
ROOT
HETATM    1  O   UNL     1      -9.256   7.983  73.456  1.00  0.00    -0.272 OA 
HETATM    2  C   UNL     1     -10.310   8.207  72.636  1.00  0.00    -0.328 C  
HETATM    3  O   UNL     1     -11.444   7.863  72.924  1.00  0.00    -0.403 OA 
HETATM    4  C   UNL     1      -9.903   8.914  71.362  1.00  0.00    -0.376 C  
ENDROOT
BRANCH   4   5
HETATM    5  C   UNL     1     -11.102   9.157  70.448  1.00  0.00    -0.293 C  
BRANCH   5   6
HETATM    6  C   UNL     1     -11.564  10.613  70.495  1.00  0.00    -0.444 C  
BRANCH   6   7
HETATM    7  C   UNL     1     -12.003  11.087  69.109  1.00  0.00    -0.394 C  
BRANCH   7   8
HETATM    8  C   UNL     1     -11.633  12.551  68.874  1.00  0.00    -0.364 C  
BRANCH   8   9
HETATM    9  C   UNL     1     -11.674  12.893  67.384  1.00  0.00    -0.428 C  
BRANCH   9  10
HETATM   10  C   UNL     1     -10.506  12.255  66.632  1.00  0.00    -0.247 C  
BRANCH  10  11
HETATM   11  C   UNL     1     -10.974  11.643  65.310  1.00  0.00    -0.327 C  
BRANCH  11  12
HETATM   12  C   UNL     1     -12.149  12.390  64.749  1.00  0.00    -0.483 C  
HETATM   13  C   UNL     1     -12.150  12.995  63.554  1.00  0.00    -0.617 C  
ENDBRANCH  11  12
ENDBRANCH  10  11
ENDBRANCH   9  10
ENDBRANCH   8   9
ENDBRANCH   7   8
ENDBRANCH   6   7
ENDBRANCH   5   6
ENDBRANCH   4   5
TORSDOF 8
ENDMDL
MODEL      124
REMARK 921   NORMALIZED FREE ENERGY PREDICTED BY IDOCK:   -3.37 KCAL/MOL
REMARK 922        TOTAL FREE ENERGY PREDICTED BY IDOCK:   -5.43 KCAL/MOL
REMARK 923 INTER-LIGAND FREE ENERGY PREDICTED BY IDOCK:   -4.95 KCAL/MOL
REMARK 924 INTRA-LIGAND FREE ENERGY PREDICTED BY IDOCK:   -0.48 KCAL/MOL
REMARK 927      BINDING AFFINITY PREDICTED BY RF-SCORE:    0.00 PKD
ROOT
HETATM    1  O   UNL     1     -11.019   5.630  69.927  1.00  0.00    -0.339 OA 
HETATM    2  C   UNL     1     -10.725   6.818  70.505  1.00  0.00    -0.238 C  
HETATM    3  O   UNL     1      -9.612   7.314  70.447  1.00  0.00    -0.166 OA 
HETATM    4  C   UNL     1     -11.920   7.424  71.207  1.00  0.00    -0.343 C  
ENDROOT
BRANCH   4   5
HETATM    5  C   UNL     1     -11.572   8.762  71.855  1.00  0.00    -0.432 C  
BRANCH   5   6
HETATM    6  C   UNL     1     -12.802   9.659  71.999  1.00  0.00    -0.497 C  
BRANCH   6   7
HETATM    7  C   UNL     1     -12.769  10.791  70.971  1.00  0.00    -0.513 C  
BRANCH   7   8
HETATM    8  C   UNL     1     -11.479  10.770  70.153  1.00  0.00    -0.415 C  
BRANCH   8   9
HETATM    9  C   UNL     1     -11.771  10.968  68.665  1.00  0.00    -0.367 C  
BRANCH   9  10
HETATM   10  C   UNL     1     -10.946  12.115  68.082  1.00  0.00    -0.271 C  
BRANCH  10  11
HETATM   11  C   UNL     1     -11.686  13.447  68.217  1.00  0.00    -0.391 C  
BRANCH  11  12
HETATM   12  C   UNL     1     -12.134  13.960  66.878  1.00  0.00    -0.467 C  
HETATM   13  C   UNL     1     -12.206  13.204  65.775  1.00  0.00    -0.514 C  
ENDBRANCH  11  12
ENDBRANCH  10  11
ENDBRANCH   9  10
ENDBRANCH   8   9
ENDBRANCH   7   8
ENDBRANCH   6   7
ENDBRANCH   5   6
ENDBRANCH   4   5
TORSDOF 8
ENDMDL
MODEL      125
REMARK 921   NORMALIZED FREE ENERGY PREDICTED BY IDOCK:   -3.37 KCAL/MOL
REMARK 922        TOTAL FREE ENERGY PREDICTED BY IDOCK:   -5.43 KCAL/MOL
REMARK 923 INTER-LIGAND FREE ENERGY PREDICTED BY IDOCK:   -4.83 KCAL/MOL
REMARK 924 INTRA-LIGAND FREE ENERGY PREDICTED BY IDOCK:   -0.59 KCAL/MOL
REMARK 927      BINDING AFFINITY PREDICTED BY RF-SCORE:    0.00 PKD
ROOT
HETATM    1  O   UNL     1      -8.914  10.552  65.164  1.00  0.00    -0.175 OA 
HETATM    2  C   UNL     1     -10.011  11.293  65.444  1.00  0.00    -0.250 C  
HETATM    3  O   UNL     1     -10.724  11.758  64.571  1.00  0.00    -0.283 OA 
HETATM    4  C   UNL     1     -10.224  11.459  66.932  1.00  0.00    -0.254 C  
ENDROOT
BRANCH   4   5
HETATM    5  C   UNL     1     -11.464  12.299  67.232  1.00  0.00    -0.426 C  
BRANCH   5   6
HETATM    6  C   UNL     1     -11.812  12.283  68.720  1.00  0.00    -0.356 C  
BRANCH   6   7
HETATM    7  C   UNL     1     -12.022  10.850  69.212  1.00  0.00    -0.382 C  
BRANCH   7   8
HETATM    8  C   UNL     1     -11.695  10.713  70.698  1.00  0.00    -0.454 C  
BRANCH   8   9
HETATM    9  C   UNL     1     -12.970  10.707  71.541  1.00  0.00    -0.566 C  
BRANCH   9  10
HETATM   10  C   UNL     1     -13.053   9.460  72.420  1.00  0.00    -0.458 C  
BRANCH  10  11
HETATM   11  C   UNL     1     -13.812   8.337  71.710  1.00  0.00    -0.450 C  
BRANCH  11  12
HETATM   12  C   UNL     1     -12.967   7.103  71.585  1.00  0.00    -0.415 C  
HETATM   13  C   UNL     1     -12.079   6.901  70.602  1.00  0.00    -0.363 C  
ENDBRANCH  11  12
ENDBRANCH  10  11
ENDBRANCH   9  10
ENDBRANCH   8   9
ENDBRANCH   7   8
ENDBRANCH   6   7
ENDBRANCH   5   6
ENDBRANCH   4   5
TORSDOF 8
ENDMDL
MODEL      126
REMARK 921   NORMALIZED FREE ENERGY PREDICTED BY IDOCK:   -3.37 KCAL/MOL
REMARK 922        TOTAL FREE ENERGY PREDICTED BY IDOCK:   -5.42 KCAL/MOL
REMARK 923 INTER-LIGAND FREE ENERGY PREDICTED BY IDOCK:   -4.36 KCAL/MOL
REMARK 924 INTRA-LIGAND FREE ENERGY PREDICTED BY IDOCK:   -1.07 KCAL/MOL
REMARK 927      BINDING AFFINITY PREDICTED BY RF-SCORE:    0.00 PKD
ROOT
HETATM    1  O   UNL     1      -9.980   7.696  68.792  1.00  0.00    -0.165 OA 
HETATM    2  C   UNL     1     -10.336   8.978  68.545  1.00  0.00    -0.203 C  
HETATM    3  O   UNL     1     -10.643   9.753  69.436  1.00  0.00    -0.207 OA 
HETATM    4  C   UNL     1     -10.303   9.307  67.069  1.00  0.00    -0.325 C  
ENDROOT
BRANCH   4   5
HETATM    5  C   UNL     1     -10.709  10.756  66.807  1.00  0.00    -0.291 C  
BRANCH   5   6
HETATM    6  C   UNL     1      -9.506  11.621  66.432  1.00  0.00    -0.232 C  
BRANCH   6   7
HETATM    7  C   UNL     1      -9.697  13.056  66.926  1.00  0.00    -0.238 C  
BRANCH   7   8
HETATM    8  C   UNL     1     -10.991  13.208  67.724  1.00  0.00    -0.272 C  
BRANCH   8   9
HETATM    9  C   UNL     1     -11.986  14.105  66.986  1.00  0.00    -0.471 C  
BRANCH   9  10
HETATM   10  C   UNL     1     -11.361  14.721  65.735  1.00  0.00    -0.336 C  
BRANCH  10  11
HETATM   11  C   UNL     1     -12.160  14.352  64.484  1.00  0.00    -0.498 C  
BRANCH  11  12
HETATM   12  C   UNL     1     -12.532  12.897  64.485  1.00  0.00    -0.468 C  
HETATM   13  C   UNL     1     -12.197  12.039  63.513  1.00  0.00    -0.653 C  
ENDBRANCH  11  12
ENDBRANCH  10  11
ENDBRANCH   9  10
ENDBRANCH   8   9
ENDBRANCH   7   8
ENDBRANCH   6   7
ENDBRANCH   5   6
ENDBRANCH   4   5
TORSDOF 8
ENDMDL
MODEL      127
REMARK 921   NORMALIZED FREE ENERGY PREDICTED BY IDOCK:   -3.36 KCAL/MOL
REMARK 922        TOTAL FREE ENERGY PREDICTED BY IDOCK:   -5.42 KCAL/MOL
REMARK 923 INTER-LIGAND FREE ENERGY PREDICTED BY IDOCK:   -4.98 KCAL/MOL
REMARK 924 INTRA-LIGAND FREE ENERGY PREDICTED BY IDOCK:   -0.44 KCAL/MOL
REMARK 927      BINDING AFFINITY PREDICTED BY RF-SCORE:    0.00 PKD
ROOT
HETATM    1  O   UNL     1     -13.527  16.295  73.538  1.00  0.00    -0.654 OA 
HETATM    2  C   UNL     1     -12.876  15.404  72.755  1.00  0.00    -0.427 C  
HETATM    3  O   UNL     1     -11.728  15.582  72.381  1.00  0.00    -0.412 OA 
HETATM    4  C   UNL     1     -13.733  14.205  72.418  1.00  0.00    -0.645 C  
ENDROOT
BRANCH   4   5
HETATM    5  C   UNL     1     -12.984  13.211  71.532  1.00  0.00    -0.412 C  
BRANCH   5   6
HETATM    6  C   UNL     1     -13.443  11.774  71.779  1.00  0.00    -0.192 C  
BRANCH   6   7
HETATM    7  C   UNL     1     -12.358  10.780  71.362  1.00  0.00    -0.433 C  
BRANCH   7   8
HETATM    8  C   UNL     1     -12.528   9.435  72.068  1.00  0.00    -0.440 C  
BRANCH   8   9
HETATM    9  C   UNL     1     -11.886   8.308  71.258  1.00  0.00    -0.319 C  
BRANCH   9  10
HETATM   10  C   UNL     1     -10.747   7.644  72.031  1.00  0.00    -0.270 C  
BRANCH  10  11
HETATM   11  C   UNL     1      -9.545   8.584  72.151  1.00  0.00    -0.382 C  
BRANCH  11  12
HETATM   12  C   UNL     1      -8.695   8.542  70.914  1.00  0.00    -0.196 C  
HETATM   13  C   UNL     1      -8.057   9.606  70.410  1.00  0.00    -0.198 C  
ENDBRANCH  11  12
ENDBRANCH  10  11
ENDBRANCH   9  10
ENDBRANCH   8   9
ENDBRANCH   7   8
ENDBRANCH   6   7
ENDBRANCH   5   6
ENDBRANCH   4   5
TORSDOF 8
ENDMDL
MODEL      128
REMARK 921   NORMALIZED FREE ENERGY PREDICTED BY IDOCK:   -3.36 KCAL/MOL
REMARK 922        TOTAL FREE ENERGY PREDICTED BY IDOCK:   -5.41 KCAL/MOL
REMARK 923 INTER-LIGAND FREE ENERGY PREDICTED BY IDOCK:   -4.68 KCAL/MOL
REMARK 924 INTRA-LIGAND FREE ENERGY PREDICTED BY IDOCK:   -0.73 KCAL/MOL
REMARK 927      BINDING AFFINITY PREDICTED BY RF-SCORE:    0.00 PKD
ROOT
HETATM    1  O   UNL     1      -8.316   9.028  66.453  1.00  0.00    -0.112 OA 
HETATM    2  C   UNL     1      -8.839   9.354  65.248  1.00  0.00    -0.190 C  
HETATM    3  O   UNL     1      -8.539   8.761  64.225  1.00  0.00    -0.158 OA 
HETATM    4  C   UNL     1      -9.809  10.511  65.340  1.00  0.00    -0.335 C  
ENDROOT
BRANCH   4   5
HETATM    5  C   UNL     1     -10.388  10.868  63.972  1.00  0.00    -0.417 C  
BRANCH   5   6
HETATM    6  C   UNL     1     -10.820  12.332  63.905  1.00  0.00    -0.464 C  
BRANCH   6   7
HETATM    7  C   UNL     1     -12.337  12.457  64.059  1.00  0.00    -0.579 C  
BRANCH   7   8
HETATM    8  C   UNL     1     -12.711  13.507  65.103  1.00  0.00    -0.453 C  
BRANCH   8   9
HETATM    9  C   UNL     1     -11.557  13.745  66.078  1.00  0.00    -0.361 C  
BRANCH   9  10
HETATM   10  C   UNL     1     -12.002  13.551  67.528  1.00  0.00    -0.385 C  
BRANCH  10  11
HETATM   11  C   UNL     1     -11.782  12.106  67.980  1.00  0.00    -0.409 C  
BRANCH  11  12
HETATM   12  C   UNL     1     -11.488  12.035  69.451  1.00  0.00    -0.361 C  
HETATM   13  C   UNL     1     -11.871  11.024  70.241  1.00  0.00    -0.456 C  
ENDBRANCH  11  12
ENDBRANCH  10  11
ENDBRANCH   9  10
ENDBRANCH   8   9
ENDBRANCH   7   8
ENDBRANCH   6   7
ENDBRANCH   5   6
ENDBRANCH   4   5
TORSDOF 8
ENDMDL
MODEL      129
REMARK 921   NORMALIZED FREE ENERGY PREDICTED BY IDOCK:   -3.35 KCAL/MOL
REMARK 922        TOTAL FREE ENERGY PREDICTED BY IDOCK:   -5.40 KCAL/MOL
REMARK 923 INTER-LIGAND FREE ENERGY PREDICTED BY IDOCK:   -5.07 KCAL/MOL
REMARK 924 INTRA-LIGAND FREE ENERGY PREDICTED BY IDOCK:   -0.34 KCAL/MOL
REMARK 927      BINDING AFFINITY PREDICTED BY RF-SCORE:    0.00 PKD
ROOT
HETATM    1  O   UNL     1     -13.354  15.245  71.979  1.00  0.00    -0.361 OA 
HETATM    2  C   UNL     1     -13.513  13.901  71.955  1.00  0.00    -0.455 C  
HETATM    3  O   UNL     1     -14.393  13.338  72.586  1.00  0.00    -0.679 OA 
HETATM    4  C   UNL     1     -12.490  13.219  71.075  1.00  0.00    -0.422 C  
ENDROOT
BRANCH   4   5
HETATM    5  C   UNL     1     -12.682  11.704  71.061  1.00  0.00    -0.395 C  
BRANCH   5   6
HETATM    6  C   UNL     1     -12.134  11.076  69.779  1.00  0.00    -0.424 C  
BRANCH   6   7
HETATM    7  C   UNL     1     -10.963  10.144  70.091  1.00  0.00    -0.376 C  
BRANCH   7   8
HETATM    8  C   UNL     1     -11.204   9.347  71.372  1.00  0.00    -0.452 C  
BRANCH   8   9
HETATM    9  C   UNL     1      -9.901   8.740  71.893  1.00  0.00    -0.395 C  
BRANCH   9  10
HETATM   10  C   UNL     1     -10.168   7.661  72.943  1.00  0.00    -0.356 C  
BRANCH  10  11
HETATM   11  C   UNL     1      -9.792   6.276  72.413  1.00  0.00    -0.176 C  
BRANCH  11  12
HETATM   12  C   UNL     1     -10.891   5.283  72.654  1.00  0.00    -0.307 C  
HETATM   13  C   UNL     1     -10.690   4.042  73.115  1.00  0.00    -0.272 C  
ENDBRANCH  11  12
ENDBRANCH  10  11
ENDBRANCH   9  10
ENDBRANCH   8   9
ENDBRANCH   7   8
ENDBRANCH   6   7
ENDBRANCH   5   6
ENDBRANCH   4   5
TORSDOF 8
ENDMDL
MODEL      130
REMARK 921   NORMALIZED FREE ENERGY PREDICTED BY IDOCK:   -3.35 KCAL/MOL
REMARK 922        TOTAL FREE ENERGY PREDICTED BY IDOCK:   -5.40 KCAL/MOL
REMARK 923 INTER-LIGAND FREE ENERGY PREDICTED BY IDOCK:   -4.16 KCAL/MOL
REMARK 924 INTRA-LIGAND FREE ENERGY PREDICTED BY IDOCK:   -1.25 KCAL/MOL
REMARK 927      BINDING AFFINITY PREDICTED BY RF-SCORE:    0.00 PKD
ROOT
HETATM    1  O   UNL     1     -11.270   6.583  66.998  1.00  0.00    -0.397 OA 
HETATM    2  C   UNL     1     -10.636   5.865  67.955  1.00  0.00    -0.252 C  
HETATM    3  O   UNL     1      -9.711   5.113  67.700  1.00  0.00    -0.134 OA 
HETATM    4  C   UNL     1     -11.211   6.114  69.332  1.00  0.00    -0.466 C  
ENDROOT
BRANCH   4   5
HETATM    5  C   UNL     1     -10.487   5.296  70.399  1.00  0.00    -0.322 C  
BRANCH   5   6
HETATM    6  C   UNL     1     -10.782   5.814  71.806  1.00  0.00    -0.305 C  
BRANCH   6   7
HETATM    7  C   UNL     1     -12.011   6.725  71.801  1.00  0.00    -0.382 C  
BRANCH   7   8
HETATM    8  C   UNL     1     -11.711   8.075  72.450  1.00  0.00    -0.444 C  
BRANCH   8   9
HETATM    9  C   UNL     1     -12.244   9.224  71.594  1.00  0.00    -0.445 C  
BRANCH   9  10
HETATM   10  C   UNL     1     -11.253   9.611  70.497  1.00  0.00    -0.359 C  
BRANCH  10  11
HETATM   11  C   UNL     1      -9.814   9.324  70.933  1.00  0.00    -0.363 C  
BRANCH  11  12
HETATM   12  C   UNL     1      -8.917   9.116  69.747  1.00  0.00    -0.168 C  
HETATM   13  C   UNL     1      -8.073   8.084  69.621  1.00  0.00    -0.119 C  
ENDBRANCH  11  12
ENDBRANCH  10  11
ENDBRANCH   9  10
ENDBRANCH   8   9
ENDBRANCH   7   8
ENDBRANCH   6   7
ENDBRANCH   5   6
ENDBRANCH   4   5
TORSDOF 8
ENDMDL
MODEL      131
REMARK 921   NORMALIZED FREE ENERGY PREDICTED BY IDOCK:   -3.34 KCAL/MOL
REMARK 922        TOTAL FREE ENERGY PREDICTED BY IDOCK:   -5.39 KCAL/MOL
REMARK 923 INTER-LIGAND FREE ENERGY PREDICTED BY IDOCK:   -4.22 KCAL/MOL
REMARK 924 INTRA-LIGAND FREE ENERGY PREDICTED BY IDOCK:   -1.17 KCAL/MOL
REMARK 927      BINDING AFFINITY PREDICTED BY RF-SCORE:    0.00 PKD
ROOT
HETATM    1  O   UNL     1     -12.283  11.698  70.711  1.00  0.00    -0.375 OA 
HETATM    2  C   UNL     1     -12.612  10.606  71.439  1.00  0.00    -0.421 C  
HETATM    3  O   UNL     1     -13.654  10.533  72.069  1.00  0.00    -0.306 OA 
HETATM    4  C   UNL     1     -11.552   9.529  71.367  1.00  0.00    -0.466 C  
ENDROOT
BRANCH   4   5
HETATM    5  C   UNL     1     -11.938   8.305  72.195  1.00  0.00    -0.429 C  
BRANCH   5   6
HETATM    6  C   UNL     1     -10.757   7.776  73.008  1.00  0.00    -0.446 C  
BRANCH   6   7
HETATM    7  C   UNL     1      -9.503   7.675  72.138  1.00  0.00    -0.201 C  
BRANCH   7   8
HETATM    8  C   UNL     1      -9.130   6.220  71.857  1.00  0.00    -0.143 C  
BRANCH   8   9
HETATM    9  C   UNL     1      -9.248   5.903  70.366  1.00  0.00    -0.174 C  
BRANCH   9  10
HETATM   10  C   UNL     1     -10.701   5.651  69.962  1.00  0.00    -0.390 C  
BRANCH  10  11
HETATM   11  C   UNL     1     -11.050   6.401  68.675  1.00  0.00    -0.393 C  
BRANCH  11  12
HETATM   12  C   UNL     1     -10.058   7.492  68.394  1.00  0.00    -0.200 C  
HETATM   13  C   UNL     1     -10.398   8.746  68.068  1.00  0.00    -0.273 C  
ENDBRANCH  11  12
ENDBRANCH  10  11
ENDBRANCH   9  10
ENDBRANCH   8   9
ENDBRANCH   7   8
ENDBRANCH   6   7
ENDBRANCH   5   6
ENDBRANCH   4   5
TORSDOF 8
ENDMDL
MODEL      132
REMARK 921   NORMALIZED FREE ENERGY PREDICTED BY IDOCK:   -3.34 KCAL/MOL
REMARK 922        TOTAL FREE ENERGY PREDICTED BY IDOCK:   -5.38 KCAL/MOL
REMARK 923 INTER-LIGAND FREE ENERGY PREDICTED BY IDOCK:   -4.63 KCAL/MOL
REMARK 924 INTRA-LIGAND FREE ENERGY PREDICTED BY IDOCK:   -0.75 KCAL/MOL
REMARK 927      BINDING AFFINITY PREDICTED BY RF-SCORE:    0.00 PKD
ROOT
HETATM    1  O   UNL     1      -9.254   9.128  65.204  1.00  0.00    -0.219 OA 
HETATM    2  C   UNL     1      -9.421  10.138  64.319  1.00  0.00    -0.305 C  
HETATM    3  O   UNL     1      -8.845  10.165  63.244  1.00  0.00    -0.186 OA 
HETATM    4  C   UNL     1     -10.384  11.188  64.825  1.00  0.00    -0.387 C  
ENDROOT
BRANCH   4   5
HETATM    5  C   UNL     1     -10.561  12.321  63.816  1.00  0.00    -0.488 C  
BRANCH   5   6
HETATM    6  C   UNL     1     -10.806  13.662  64.507  1.00  0.00    -0.416 C  
BRANCH   6   7
HETATM    7  C   UNL     1     -12.263  13.783  64.955  1.00  0.00    -0.443 C  
BRANCH   7   8
HETATM    8  C   UNL     1     -12.374  13.939  66.470  1.00  0.00    -0.447 C  
BRANCH   8   9
HETATM    9  C   UNL     1     -11.058  14.441  67.066  1.00  0.00    -0.317 C  
BRANCH   9  10
HETATM   10  C   UNL     1     -10.642  13.610  68.280  1.00  0.00    -0.261 C  
BRANCH  10  11
HETATM   11  C   UNL     1     -11.855  13.246  69.138  1.00  0.00    -0.378 C  
BRANCH  11  12
HETATM   12  C   UNL     1     -11.901  14.067  70.394  1.00  0.00    -0.356 C  
HETATM   13  C   UNL     1     -12.747  15.086  70.591  1.00  0.00    -0.428 C  
ENDBRANCH  11  12
ENDBRANCH  10  11
ENDBRANCH   9  10
ENDBRANCH   8   9
ENDBRANCH   7   8
ENDBRANCH   6   7
ENDBRANCH   5   6
ENDBRANCH   4   5
TORSDOF 8
ENDMDL
MODEL      133
REMARK 921   NORMALIZED FREE ENERGY PREDICTED BY IDOCK:   -3.33 KCAL/MOL
REMARK 922        TOTAL FREE ENERGY PREDICTED BY IDOCK:   -5.36 KCAL/MOL
REMARK 923 INTER-LIGAND FREE ENERGY PREDICTED BY IDOCK:   -4.36 KCAL/MOL
REMARK 924 INTRA-LIGAND FREE ENERGY PREDICTED BY IDOCK:   -1.00 KCAL/MOL
REMARK 927      BINDING AFFINITY PREDICTED BY RF-SCORE:    0.00 PKD
ROOT
HETATM    1  O   UNL     1     -10.715  15.274  69.684  1.00  0.00    -0.250 OA 
HETATM    2  C   UNL     1     -11.229  14.608  68.624  1.00  0.00    -0.275 C  
HETATM    3  O   UNL     1     -11.671  15.184  67.645  1.00  0.00    -0.329 OA 
HETATM    4  C   UNL     1     -11.183  13.108  68.814  1.00  0.00    -0.323 C  
ENDROOT
BRANCH   4   5
HETATM    5  C   UNL     1     -11.768  12.372  67.610  1.00  0.00    -0.412 C  
BRANCH   5   6
HETATM    6  C   UNL     1     -11.258  10.933  67.524  1.00  0.00    -0.364 C  
BRANCH   6   7
HETATM    7  C   UNL     1      -9.753  10.876  67.793  1.00  0.00    -0.183 C  
BRANCH   7   8
HETATM    8  C   UNL     1      -9.042   9.946  66.811  1.00  0.00    -0.164 C  
BRANCH   8   9
HETATM    9  C   UNL     1      -9.872   9.753  65.541  1.00  0.00    -0.378 C  
BRANCH   9  10
HETATM   10  C   UNL     1      -9.206  10.411  64.333  1.00  0.00    -0.291 C  
BRANCH  10  11
HETATM   11  C   UNL     1     -10.232  11.160  63.481  1.00  0.00    -0.446 C  
BRANCH  11  12
HETATM   12  C   UNL     1     -10.543  12.509  64.063  1.00  0.00    -0.451 C  
HETATM   13  C   UNL     1     -11.734  13.112  63.958  1.00  0.00    -0.496 C  
ENDBRANCH  11  12
ENDBRANCH  10  11
ENDBRANCH   9  10
ENDBRANCH   8   9
ENDBRANCH   7   8
ENDBRANCH   6   7
ENDBRANCH   5   6
ENDBRANCH   4   5
TORSDOF 8
ENDMDL
MODEL      134
REMARK 921   NORMALIZED FREE ENERGY PREDICTED BY IDOCK:   -3.31 KCAL/MOL
REMARK 922        TOTAL FREE ENERGY PREDICTED BY IDOCK:   -5.33 KCAL/MOL
REMARK 923 INTER-LIGAND FREE ENERGY PREDICTED BY IDOCK:   -4.47 KCAL/MOL
REMARK 924 INTRA-LIGAND FREE ENERGY PREDICTED BY IDOCK:   -0.86 KCAL/MOL
REMARK 927      BINDING AFFINITY PREDICTED BY RF-SCORE:    0.00 PKD
ROOT
HETATM    1  O   UNL     1     -11.392   6.155  68.912  1.00  0.00    -0.367 OA 
HETATM    2  C   UNL     1     -10.421   6.940  68.390  1.00  0.00    -0.204 C  
HETATM    3  O   UNL     1      -9.389   7.188  68.991  1.00  0.00    -0.142 OA 
HETATM    4  C   UNL     1     -10.778   7.450  67.011  1.00  0.00    -0.389 C  
ENDROOT
BRANCH   4   5
HETATM    5  C   UNL     1      -9.673   8.335  66.437  1.00  0.00    -0.300 C  
BRANCH   5   6
HETATM    6  C   UNL     1     -10.192   9.729  66.083  1.00  0.00    -0.278 C  
BRANCH   6   7
HETATM    7  C   UNL     1     -10.761  10.425  67.320  1.00  0.00    -0.331 C  
BRANCH   7   8
HETATM    8  C   UNL     1     -10.227  11.851  67.457  1.00  0.00    -0.212 C  
BRANCH   8   9
HETATM    9  C   UNL     1     -11.373  12.861  67.511  1.00  0.00    -0.354 C  
BRANCH   9  10
HETATM   10  C   UNL     1     -11.468  13.668  66.217  1.00  0.00    -0.352 C  
BRANCH  10  11
HETATM   11  C   UNL     1     -12.701  13.262  65.406  1.00  0.00    -0.460 C  
BRANCH  11  12
HETATM   12  C   UNL     1     -12.329  12.363  64.263  1.00  0.00    -0.544 C  
HETATM   13  C   UNL     1     -11.183  12.461  63.577  1.00  0.00    -0.540 C  
ENDBRANCH  11  12
ENDBRANCH  10  11
ENDBRANCH   9  10
ENDBRANCH   8   9
ENDBRANCH   7   8
ENDBRANCH   6   7
ENDBRANCH   5   6
ENDBRANCH   4   5
TORSDOF 8
ENDMDL
MODEL      135
REMARK 921   NORMALIZED FREE ENERGY PREDICTED BY IDOCK:   -3.30 KCAL/MOL
REMARK 922        TOTAL FREE ENERGY PREDICTED BY IDOCK:   -5.33 KCAL/MOL
REMARK 923 INTER-LIGAND FREE ENERGY PREDICTED BY IDOCK:   -4.99 KCAL/MOL
REMARK 924 INTRA-LIGAND FREE ENERGY PREDICTED BY IDOCK:   -0.34 KCAL/MOL
REMARK 927      BINDING AFFINITY PREDICTED BY RF-SCORE:    0.00 PKD
ROOT
HETATM    1  O   UNL     1     -12.922  16.318  74.133  1.00  0.00    -0.688 OA 
HETATM    2  C   UNL     1     -13.049  15.513  73.053  1.00  0.00    -0.524 C  
HETATM    3  O   UNL     1     -14.033  14.816  72.872  1.00  0.00    -0.483 OA 
HETATM    4  C   UNL     1     -11.849  15.594  72.135  1.00  0.00    -0.567 C  
ENDROOT
BRANCH   4   5
HETATM    5  C   UNL     1     -12.007  14.679  70.923  1.00  0.00    -0.388 C  
BRANCH   5   6
HETATM    6  C   UNL     1     -11.995  15.467  69.613  1.00  0.00    -0.380 C  
BRANCH   6   7
HETATM    7  C   UNL     1     -10.758  16.363  69.532  1.00  0.00    -0.325 C  
BRANCH   7   8
HETATM    8  C   UNL     1     -10.729  17.163  68.230  1.00  0.00    -0.363 C  
BRANCH   8   9
HETATM    9  C   UNL     1      -9.366  17.824  68.025  1.00  0.00    -0.276 C  
BRANCH   9  10
HETATM   10  C   UNL     1      -8.824  17.564  66.619  1.00  0.00    -0.284 C  
BRANCH  10  11
HETATM   11  C   UNL     1      -7.310  17.776  66.567  1.00  0.00    -0.283 C  
BRANCH  11  12
HETATM   12  C   UNL     1      -6.936  19.151  67.038  1.00  0.00    -0.208 C  
HETATM   13  C   UNL     1      -5.991  19.396  67.956  1.00  0.00    -0.225 C  
ENDBRANCH  11  12
ENDBRANCH  10  11
ENDBRANCH   9  10
ENDBRANCH   8   9
ENDBRANCH   7   8
ENDBRANCH   6   7
ENDBRANCH   5   6
ENDBRANCH   4   5
TORSDOF 8
ENDMDL
MODEL      136
REMARK 921   NORMALIZED FREE ENERGY PREDICTED BY IDOCK:   -3.30 KCAL/MOL
REMARK 922        TOTAL FREE ENERGY PREDICTED BY IDOCK:   -5.33 KCAL/MOL
REMARK 923 INTER-LIGAND FREE ENERGY PREDICTED BY IDOCK:   -4.32 KCAL/MOL
REMARK 924 INTRA-LIGAND FREE ENERGY PREDICTED BY IDOCK:   -1.01 KCAL/MOL
REMARK 927      BINDING AFFINITY PREDICTED BY RF-SCORE:    0.00 PKD
ROOT
HETATM    1  O   UNL     1     -10.032  10.501  63.762  1.00  0.00    -0.323 OA 
HETATM    2  C   UNL     1     -10.468  11.691  64.237  1.00  0.00    -0.331 C  
HETATM    3  O   UNL     1     -10.972  12.535  63.516  1.00  0.00    -0.445 OA 
HETATM    4  C   UNL     1     -10.253  11.825  65.728  1.00  0.00    -0.276 C  
ENDROOT
BRANCH   4   5
HETATM    5  C   UNL     1     -10.748  13.173  66.248  1.00  0.00    -0.295 C  
BRANCH   5   6
HETATM    6  C   UNL     1      -9.595  14.149  66.479  1.00  0.00    -0.310 C  
BRANCH   6   7
HETATM    7  C   UNL     1      -9.811  15.440  65.687  1.00  0.00    -0.387 C  
BRANCH   7   8
HETATM    8  C   UNL     1     -10.452  16.527  66.549  1.00  0.00    -0.270 C  
BRANCH   8   9
HETATM    9  C   UNL     1      -9.712  16.677  67.879  1.00  0.00    -0.244 C  
BRANCH   9  10
HETATM   10  C   UNL     1     -10.687  16.791  69.051  1.00  0.00    -0.331 C  
BRANCH  10  11
HETATM   11  C   UNL     1     -11.740  15.682  68.998  1.00  0.00    -0.408 C  
BRANCH  11  12
HETATM   12  C   UNL     1     -11.293  14.469  69.761  1.00  0.00    -0.305 C  
HETATM   13  C   UNL     1     -12.048  13.378  69.940  1.00  0.00    -0.389 C  
ENDBRANCH  11  12
ENDBRANCH  10  11
ENDBRANCH   9  10
ENDBRANCH   8   9
ENDBRANCH   7   8
ENDBRANCH   6   7
ENDBRANCH   5   6
ENDBRANCH   4   5
TORSDOF 8
ENDMDL
MODEL      137
REMARK 921   NORMALIZED FREE ENERGY PREDICTED BY IDOCK:   -3.30 KCAL/MOL
REMARK 922        TOTAL FREE ENERGY PREDICTED BY IDOCK:   -5.33 KCAL/MOL
REMARK 923 INTER-LIGAND FREE ENERGY PREDICTED BY IDOCK:   -4.31 KCAL/MOL
REMARK 924 INTRA-LIGAND FREE ENERGY PREDICTED BY IDOCK:   -1.02 KCAL/MOL
REMARK 927      BINDING AFFINITY PREDICTED BY RF-SCORE:    0.00 PKD
ROOT
HETATM    1  O   UNL     1      -8.044   8.304  73.614  1.00  0.00    -0.220 OA 
HETATM    2  C   UNL     1      -9.279   7.778  73.432  1.00  0.00    -0.284 C  
HETATM    3  O   UNL     1      -9.695   6.846  74.100  1.00  0.00    -0.254 OA 
HETATM    4  C   UNL     1     -10.041   8.478  72.330  1.00  0.00    -0.386 C  
ENDROOT
BRANCH   4   5
HETATM    5  C   UNL     1     -11.430   7.873  72.136  1.00  0.00    -0.377 C  
BRANCH   5   6
HETATM    6  C   UNL     1     -12.534   8.836  72.575  1.00  0.00    -0.368 C  
BRANCH   6   7
HETATM    7  C   UNL     1     -13.078   9.616  71.377  1.00  0.00    -0.471 C  
BRANCH   7   8
HETATM    8  C   UNL     1     -13.051  11.123  71.630  1.00  0.00    -0.529 C  
BRANCH   8   9
HETATM    9  C   UNL     1     -12.122  11.827  70.641  1.00  0.00    -0.407 C  
BRANCH   9  10
HETATM   10  C   UNL     1     -11.987  11.036  69.340  1.00  0.00    -0.408 C  
BRANCH  10  11
HETATM   11  C   UNL     1     -10.612  11.253  68.706  1.00  0.00    -0.234 C  
BRANCH  11  12
HETATM   12  C   UNL     1      -9.666  10.144  69.063  1.00  0.00    -0.212 C  
HETATM   13  C   UNL     1      -9.626   8.964  68.431  1.00  0.00    -0.157 C  
ENDBRANCH  11  12
ENDBRANCH  10  11
ENDBRANCH   9  10
ENDBRANCH   8   9
ENDBRANCH   7   8
ENDBRANCH   6   7
ENDBRANCH   5   6
ENDBRANCH   4   5
TORSDOF 8
ENDMDL
MODEL      138
REMARK 921   NORMALIZED FREE ENERGY PREDICTED BY IDOCK:   -3.30 KCAL/MOL
REMARK 922        TOTAL FREE ENERGY PREDICTED BY IDOCK:   -5.32 KCAL/MOL
REMARK 923 INTER-LIGAND FREE ENERGY PREDICTED BY IDOCK:   -4.36 KCAL/MOL
REMARK 924 INTRA-LIGAND FREE ENERGY PREDICTED BY IDOCK:   -0.96 KCAL/MOL
REMARK 927      BINDING AFFINITY PREDICTED BY RF-SCORE:    0.00 PKD
ROOT
HETATM    1  O   UNL     1      -6.774  16.823  67.352  1.00  0.00    -0.134 OA 
HETATM    2  C   UNL     1      -8.123  16.928  67.318  1.00  0.00    -0.184 C  
HETATM    3  O   UNL     1      -8.732  17.731  68.006  1.00  0.00    -0.239 OA 
HETATM    4  C   UNL     1      -8.749  15.950  66.349  1.00  0.00    -0.362 C  
ENDROOT
BRANCH   4   5
HETATM    5  C   UNL     1     -10.270  16.079  66.324  1.00  0.00    -0.329 C  
BRANCH   5   6
HETATM    6  C   UNL     1     -10.873  15.439  65.074  1.00  0.00    -0.462 C  
BRANCH   6   7
HETATM    7  C   UNL     1     -11.282  13.992  65.350  1.00  0.00    -0.319 C  
BRANCH   7   8
HETATM    8  C   UNL     1     -12.148  13.882  66.604  1.00  0.00    -0.485 C  
BRANCH   8   9
HETATM    9  C   UNL     1     -11.668  12.741  67.502  1.00  0.00    -0.422 C  
BRANCH   9  10
HETATM   10  C   UNL     1     -11.010  13.271  68.775  1.00  0.00    -0.294 C  
BRANCH  10  11
HETATM   11  C   UNL     1     -12.062  13.671  69.811  1.00  0.00    -0.396 C  
BRANCH  11  12
HETATM   12  C   UNL     1     -12.004  15.142  70.107  1.00  0.00    -0.374 C  
HETATM   13  C   UNL     1     -10.896  15.885  69.988  1.00  0.00    -0.356 C  
ENDBRANCH  11  12
ENDBRANCH  10  11
ENDBRANCH   9  10
ENDBRANCH   8   9
ENDBRANCH   7   8
ENDBRANCH   6   7
ENDBRANCH   5   6
ENDBRANCH   4   5
TORSDOF 8
ENDMDL
MODEL      139
REMARK 921   NORMALIZED FREE ENERGY PREDICTED BY IDOCK:   -3.29 KCAL/MOL
REMARK 922        TOTAL FREE ENERGY PREDICTED BY IDOCK:   -5.31 KCAL/MOL
REMARK 923 INTER-LIGAND FREE ENERGY PREDICTED BY IDOCK:   -4.68 KCAL/MOL
REMARK 924 INTRA-LIGAND FREE ENERGY PREDICTED BY IDOCK:   -0.63 KCAL/MOL
REMARK 927      BINDING AFFINITY PREDICTED BY RF-SCORE:    0.00 PKD
ROOT
HETATM    1  O   UNL     1     -13.200  10.913  71.884  1.00  0.00    -0.467 OA 
HETATM    2  C   UNL     1     -12.392  11.125  70.819  1.00  0.00    -0.406 C  
HETATM    3  O   UNL     1     -11.771  10.222  70.283  1.00  0.00    -0.268 OA 
HETATM    4  C   UNL     1     -12.365  12.578  70.402  1.00  0.00    -0.311 C  
ENDROOT
BRANCH   4   5
HETATM    5  C   UNL     1     -11.447  12.801  69.202  1.00  0.00    -0.361 C  
BRANCH   5   6
HETATM    6  C   UNL     1     -11.564  14.224  68.656  1.00  0.00    -0.352 C  
BRANCH   6   7
HETATM    7  C   UNL     1     -11.923  14.205  67.169  1.00  0.00    -0.460 C  
BRANCH   7   8
HETATM    8  C   UNL     1     -12.026  12.778  66.634  1.00  0.00    -0.411 C  
BRANCH   8   9
HETATM    9  C   UNL     1     -11.958  12.761  65.106  1.00  0.00    -0.466 C  
BRANCH   9  10
HETATM   10  C   UNL     1     -10.948  11.729  64.604  1.00  0.00    -0.368 C  
BRANCH  10  11
HETATM   11  C   UNL     1     -10.123  11.161  65.760  1.00  0.00    -0.299 C  
BRANCH  11  12
HETATM   12  C   UNL     1     -10.058   9.663  65.699  1.00  0.00    -0.231 C  
HETATM   13  C   UNL     1      -9.580   8.894  66.686  1.00  0.00    -0.281 C  
ENDBRANCH  11  12
ENDBRANCH  10  11
ENDBRANCH   9  10
ENDBRANCH   8   9
ENDBRANCH   7   8
ENDBRANCH   6   7
ENDBRANCH   5   6
ENDBRANCH   4   5
TORSDOF 8
ENDMDL
MODEL      140
REMARK 921   NORMALIZED FREE ENERGY PREDICTED BY IDOCK:   -3.28 KCAL/MOL
REMARK 922        TOTAL FREE ENERGY PREDICTED BY IDOCK:   -5.29 KCAL/MOL
REMARK 923 INTER-LIGAND FREE ENERGY PREDICTED BY IDOCK:   -4.76 KCAL/MOL
REMARK 924 INTRA-LIGAND FREE ENERGY PREDICTED BY IDOCK:   -0.54 KCAL/MOL
REMARK 927      BINDING AFFINITY PREDICTED BY RF-SCORE:    0.00 PKD
ROOT
HETATM    1  O   UNL     1      -5.850  20.368  70.659  1.00  0.00    -0.416 OA 
HETATM    2  C   UNL     1      -6.317  20.387  69.388  1.00  0.00    -0.243 C  
HETATM    3  O   UNL     1      -5.814  21.080  68.519  1.00  0.00    -0.340 OA 
HETATM    4  C   UNL     1      -7.503  19.468  69.201  1.00  0.00    -0.340 C  
ENDROOT
BRANCH   4   5
HETATM    5  C   UNL     1      -8.019  19.502  67.764  1.00  0.00    -0.329 C  
BRANCH   5   6
HETATM    6  C   UNL     1      -9.418  20.111  67.679  1.00  0.00    -0.514 C  
BRANCH   6   7
HETATM    7  C   UNL     1     -10.469  19.023  67.449  1.00  0.00    -0.539 C  
BRANCH   7   8
HETATM    8  C   UNL     1     -10.463  18.534  66.002  1.00  0.00    -0.433 C  
BRANCH   8   9
HETATM    9  C   UNL     1     -10.333  17.012  65.939  1.00  0.00    -0.310 C  
BRANCH   9  10
HETATM   10  C   UNL     1     -10.470  16.382  67.325  1.00  0.00    -0.303 C  
BRANCH  10  11
HETATM   11  C   UNL     1     -11.127  15.003  67.238  1.00  0.00    -0.334 C  
BRANCH  11  12
HETATM   12  C   UNL     1     -11.529  14.505  68.596  1.00  0.00    -0.321 C  
HETATM   13  C   UNL     1     -11.396  13.233  68.995  1.00  0.00    -0.334 C  
ENDBRANCH  11  12
ENDBRANCH  10  11
ENDBRANCH   9  10
ENDBRANCH   8   9
ENDBRANCH   7   8
ENDBRANCH   6   7
ENDBRANCH   5   6
ENDBRANCH   4   5
TORSDOF 8
ENDMDL
MODEL      141
REMARK 921   NORMALIZED FREE ENERGY PREDICTED BY IDOCK:   -3.28 KCAL/MOL
REMARK 922        TOTAL FREE ENERGY PREDICTED BY IDOCK:   -5.29 KCAL/MOL
REMARK 923 INTER-LIGAND FREE ENERGY PREDICTED BY IDOCK:   -4.69 KCAL/MOL
REMARK 924 INTRA-LIGAND FREE ENERGY PREDICTED BY IDOCK:   -0.60 KCAL/MOL
REMARK 927      BINDING AFFINITY PREDICTED BY RF-SCORE:    0.00 PKD
ROOT
HETATM    1  O   UNL     1     -12.149  16.442  63.839  1.00  0.00    -0.977 OA 
HETATM    2  C   UNL     1     -11.583  15.334  64.373  1.00  0.00    -0.263 C  
HETATM    3  O   UNL     1     -10.521  15.369  64.971  1.00  0.00    -0.406 OA 
HETATM    4  C   UNL     1     -12.417  14.095  64.135  1.00  0.00    -0.267 C  
ENDROOT
BRANCH   4   5
HETATM    5  C   UNL     1     -11.765  12.855  64.742  1.00  0.00    -0.391 C  
BRANCH   5   6
HETATM    6  C   UNL     1     -11.613  11.734  63.714  1.00  0.00    -0.508 C  
BRANCH   6   7
HETATM    7  C   UNL     1     -10.161  11.260  63.640  1.00  0.00    -0.432 C  
BRANCH   7   8
HETATM    8  C   UNL     1      -9.857  10.214  64.712  1.00  0.00    -0.382 C  
BRANCH   8   9
HETATM    9  C   UNL     1      -8.977  10.802  65.816  1.00  0.00    -0.203 C  
BRANCH   9  10
HETATM   10  C   UNL     1      -9.299  10.184  67.176  1.00  0.00    -0.176 C  
BRANCH  10  11
HETATM   11  C   UNL     1     -10.756  10.445  67.565  1.00  0.00    -0.339 C  
BRANCH  11  12
HETATM   12  C   UNL     1     -11.089   9.812  68.885  1.00  0.00    -0.139 C  
HETATM   13  C   UNL     1     -10.194   9.188  69.662  1.00  0.00    -0.211 C  
ENDBRANCH  11  12
ENDBRANCH  10  11
ENDBRANCH   9  10
ENDBRANCH   8   9
ENDBRANCH   7   8
ENDBRANCH   6   7
ENDBRANCH   5   6
ENDBRANCH   4   5
TORSDOF 8
ENDMDL
MODEL      142
REMARK 921   NORMALIZED FREE ENERGY PREDICTED BY IDOCK:   -3.27 KCAL/MOL
REMARK 922        TOTAL FREE ENERGY PREDICTED BY IDOCK:   -5.28 KCAL/MOL
REMARK 923 INTER-LIGAND FREE ENERGY PREDICTED BY IDOCK:   -4.13 KCAL/MOL
REMARK 924 INTRA-LIGAND FREE ENERGY PREDICTED BY IDOCK:   -1.15 KCAL/MOL
REMARK 927      BINDING AFFINITY PREDICTED BY RF-SCORE:    0.00 PKD
ROOT
HETATM    1  O   UNL     1      -6.623  20.541  72.141  1.00  0.00    -0.278 OA 
HETATM    2  C   UNL     1      -5.926  19.645  71.403  1.00  0.00    -0.092 C  
HETATM    3  O   UNL     1      -5.129  18.869  71.902  1.00  0.00    -0.684 OA 
HETATM    4  C   UNL     1      -6.259  19.736  69.930  1.00  0.00    -0.375 C  
ENDROOT
BRANCH   4   5
HETATM    5  C   UNL     1      -5.464  18.720  69.112  1.00  0.00    -0.206 C  
BRANCH   5   6
HETATM    6  C   UNL     1      -6.174  17.368  69.043  1.00  0.00    -0.209 C  
BRANCH   6   7
HETATM    7  C   UNL     1      -6.429  16.964  67.591  1.00  0.00    -0.165 C  
BRANCH   7   8
HETATM    8  C   UNL     1      -5.609  17.812  66.619  1.00  0.00    -0.205 C  
BRANCH   8   9
HETATM    9  C   UNL     1      -6.516  18.523  65.614  1.00  0.00    -0.319 C  
BRANCH   9  10
HETATM   10  C   UNL     1      -7.939  18.670  66.152  1.00  0.00    -0.229 C  
BRANCH  10  11
HETATM   11  C   UNL     1      -8.163  20.067  66.734  1.00  0.00    -0.362 C  
BRANCH  11  12
HETATM   12  C   UNL     1      -9.443  20.133  67.516  1.00  0.00    -0.523 C  
HETATM   13  C   UNL     1      -9.726  19.335  68.554  1.00  0.00    -0.481 C  
ENDBRANCH  11  12
ENDBRANCH  10  11
ENDBRANCH   9  10
ENDBRANCH   8   9
ENDBRANCH   7   8
ENDBRANCH   6   7
ENDBRANCH   5   6
ENDBRANCH   4   5
TORSDOF 8
ENDMDL
MODEL      143
REMARK 921   NORMALIZED FREE ENERGY PREDICTED BY IDOCK:   -3.27 KCAL/MOL
REMARK 922        TOTAL FREE ENERGY PREDICTED BY IDOCK:   -5.27 KCAL/MOL
REMARK 923 INTER-LIGAND FREE ENERGY PREDICTED BY IDOCK:   -4.69 KCAL/MOL
REMARK 924 INTRA-LIGAND FREE ENERGY PREDICTED BY IDOCK:   -0.58 KCAL/MOL
REMARK 927      BINDING AFFINITY PREDICTED BY RF-SCORE:    0.00 PKD
ROOT
HETATM    1  O   UNL     1     -11.438  16.724  64.032  1.00  0.00    -1.198 OA 
HETATM    2  C   UNL     1     -11.489  15.546  64.697  1.00  0.00    -0.324 C  
HETATM    3  O   UNL     1     -10.864  15.351  65.726  1.00  0.00    -0.329 OA 
HETATM    4  C   UNL     1     -12.394  14.544  64.016  1.00  0.00    -0.207 C  
ENDROOT
BRANCH   4   5
HETATM    5  C   UNL     1     -12.440  13.221  64.778  1.00  0.00    -0.439 C  
BRANCH   5   6
HETATM    6  C   UNL     1     -12.328  12.022  63.837  1.00  0.00    -0.553 C  
BRANCH   6   7
HETATM    7  C   UNL     1     -10.864  11.726  63.507  1.00  0.00    -0.496 C  
BRANCH   7   8
HETATM    8  C   UNL     1      -9.963  11.925  64.725  1.00  0.00    -0.262 C  
BRANCH   8   9
HETATM    9  C   UNL     1      -9.871  10.642  65.553  1.00  0.00    -0.316 C  
BRANCH   9  10
HETATM   10  C   UNL     1      -8.686  10.684  66.517  1.00  0.00    -0.151 C  
BRANCH  10  11
HETATM   11  C   UNL     1      -7.364  10.492  65.771  1.00  0.00    -0.137 C  
BRANCH  11  12
HETATM   12  C   UNL     1      -6.201  10.971  66.591  1.00  0.00    -0.124 C  
HETATM   13  C   UNL     1      -6.175  12.145  67.236  1.00  0.00    -0.152 C  
ENDBRANCH  11  12
ENDBRANCH  10  11
ENDBRANCH   9  10
ENDBRANCH   8   9
ENDBRANCH   7   8
ENDBRANCH   6   7
ENDBRANCH   5   6
ENDBRANCH   4   5
TORSDOF 8
ENDMDL
MODEL      144
REMARK 921   NORMALIZED FREE ENERGY PREDICTED BY IDOCK:   -3.26 KCAL/MOL
REMARK 922        TOTAL FREE ENERGY PREDICTED BY IDOCK:   -5.26 KCAL/MOL
REMARK 923 INTER-LIGAND FREE ENERGY PREDICTED BY IDOCK:   -4.56 KCAL/MOL
REMARK 924 INTRA-LIGAND FREE ENERGY PREDICTED BY IDOCK:   -0.70 KCAL/MOL
REMARK 927      BINDING AFFINITY PREDICTED BY RF-SCORE:    0.00 PKD
ROOT
HETATM    1  O   UNL     1     -11.720  16.550  63.937  1.00  0.00    -1.148 OA 
HETATM    2  C   UNL     1     -11.000  15.930  64.901  1.00  0.00    -0.411 C  
HETATM    3  O   UNL     1     -10.879  14.718  64.947  1.00  0.00    -0.389 OA 
HETATM    4  C   UNL     1     -10.390  16.911  65.878  1.00  0.00    -0.327 C  
ENDROOT
BRANCH   4   5
HETATM    5  C   UNL     1      -9.583  16.196  66.960  1.00  0.00    -0.233 C  
BRANCH   5   6
HETATM    6  C   UNL     1      -8.099  16.121  66.602  1.00  0.00    -0.323 C  
BRANCH   6   7
HETATM    7  C   UNL     1      -7.416  14.982  67.362  1.00  0.00    -0.234 C  
BRANCH   7   8
HETATM    8  C   UNL     1      -8.392  14.264  68.293  1.00  0.00    -0.165 C  
BRANCH   8   9
HETATM    9  C   UNL     1      -8.372  12.755  68.049  1.00  0.00    -0.173 C  
BRANCH   9  10
HETATM   10  C   UNL     1      -9.456  12.335  67.057  1.00  0.00    -0.204 C  
BRANCH  10  11
HETATM   11  C   UNL     1     -10.244  11.133  67.582  1.00  0.00    -0.208 C  
BRANCH  11  12
HETATM   12  C   UNL     1     -11.615  11.539  68.041  1.00  0.00    -0.370 C  
HETATM   13  C   UNL     1     -11.875  12.065  69.245  1.00  0.00    -0.377 C  
ENDBRANCH  11  12
ENDBRANCH  10  11
ENDBRANCH   9  10
ENDBRANCH   8   9
ENDBRANCH   7   8
ENDBRANCH   6   7
ENDBRANCH   5   6
ENDBRANCH   4   5
TORSDOF 8
ENDMDL
MODEL      145
REMARK 921   NORMALIZED FREE ENERGY PREDICTED BY IDOCK:   -3.25 KCAL/MOL
REMARK 922        TOTAL FREE ENERGY PREDICTED BY IDOCK:   -5.25 KCAL/MOL
REMARK 923 INTER-LIGAND FREE ENERGY PREDICTED BY IDOCK:   -4.38 KCAL/MOL
REMARK 924 INTRA-LIGAND FREE ENERGY PREDICTED BY IDOCK:   -0.87 KCAL/MOL
REMARK 927      BINDING AFFINITY PREDICTED BY RF-SCORE:    0.00 PKD
ROOT
HETATM    1  O   UNL     1     -11.155   8.684  70.484  1.00  0.00    -0.240 OA 
HETATM    2  C   UNL     1     -10.270   9.344  69.701  1.00  0.00    -0.212 C  
HETATM    3  O   UNL     1      -9.099   9.483  70.015  1.00  0.00    -0.193 OA 
HETATM    4  C   UNL     1     -10.906   9.865  68.432  1.00  0.00    -0.263 C  
ENDROOT
BRANCH   4   5
HETATM    5  C   UNL     1      -9.895  10.608  67.561  1.00  0.00    -0.194 C  
BRANCH   5   6
HETATM    6  C   UNL     1      -9.592   9.848  66.270  1.00  0.00    -0.265 C  
BRANCH   6   7
HETATM    7  C   UNL     1      -9.029  10.791  65.206  1.00  0.00    -0.211 C  
BRANCH   7   8
HETATM    8  C   UNL     1      -9.875  10.772  63.934  1.00  0.00    -0.389 C  
BRANCH   8   9
HETATM    9  C   UNL     1     -10.508  12.140  63.679  1.00  0.00    -0.495 C  
BRANCH   9  10
HETATM   10  C   UNL     1     -12.026  12.035  63.534  1.00  0.00    -0.605 C  
BRANCH  10  11
HETATM   11  C   UNL     1     -12.738  12.906  64.571  1.00  0.00    -0.359 C  
BRANCH  11  12
HETATM   12  C   UNL     1     -12.105  12.768  65.925  1.00  0.00    -0.485 C  
HETATM   13  C   UNL     1     -11.953  13.782  66.786  1.00  0.00    -0.465 C  
ENDBRANCH  11  12
ENDBRANCH  10  11
ENDBRANCH   9  10
ENDBRANCH   8   9
ENDBRANCH   7   8
ENDBRANCH   6   7
ENDBRANCH   5   6
ENDBRANCH   4   5
TORSDOF 8
ENDMDL
MODEL      146
REMARK 921   NORMALIZED FREE ENERGY PREDICTED BY IDOCK:   -3.25 KCAL/MOL
REMARK 922        TOTAL FREE ENERGY PREDICTED BY IDOCK:   -5.25 KCAL/MOL
REMARK 923 INTER-LIGAND FREE ENERGY PREDICTED BY IDOCK:   -4.71 KCAL/MOL
REMARK 924 INTRA-LIGAND FREE ENERGY PREDICTED BY IDOCK:   -0.54 KCAL/MOL
REMARK 927      BINDING AFFINITY PREDICTED BY RF-SCORE:    0.00 PKD
ROOT
HETATM    1  O   UNL     1      -8.636  16.638  65.780  1.00  0.00    -0.464 OA 
HETATM    2  C   UNL     1      -9.550  15.729  66.192  1.00  0.00    -0.332 C  
HETATM    3  O   UNL     1      -9.389  15.052  67.194  1.00  0.00    -0.203 OA 
HETATM    4  C   UNL     1     -10.752  15.671  65.276  1.00  0.00    -0.444 C  
ENDROOT
BRANCH   4   5
HETATM    5  C   UNL     1     -11.772  14.640  65.754  1.00  0.00    -0.302 C  
BRANCH   5   6
HETATM    6  C   UNL     1     -11.933  13.496  64.754  1.00  0.00    -0.424 C  
BRANCH   6   7
HETATM    7  C   UNL     1     -11.413  12.184  65.343  1.00  0.00    -0.387 C  
BRANCH   7   8
HETATM    8  C   UNL     1     -11.319  12.251  66.867  1.00  0.00    -0.392 C  
BRANCH   8   9
HETATM    9  C   UNL     1     -11.240  10.850  67.472  1.00  0.00    -0.364 C  
BRANCH   9  10
HETATM   10  C   UNL     1      -9.888  10.194  67.189  1.00  0.00    -0.231 C  
BRANCH  10  11
HETATM   11  C   UNL     1     -10.070   8.841  66.498  1.00  0.00    -0.349 C  
BRANCH  11  12
HETATM   12  C   UNL     1     -10.614   7.813  67.447  1.00  0.00    -0.345 C  
HETATM   13  C   UNL     1     -10.873   6.544  67.106  1.00  0.00    -0.472 C  
ENDBRANCH  11  12
ENDBRANCH  10  11
ENDBRANCH   9  10
ENDBRANCH   8   9
ENDBRANCH   7   8
ENDBRANCH   6   7
ENDBRANCH   5   6
ENDBRANCH   4   5
TORSDOF 8
ENDMDL
MODEL      147
REMARK 921   NORMALIZED FREE ENERGY PREDICTED BY IDOCK:   -3.23 KCAL/MOL
REMARK 922        TOTAL FREE ENERGY PREDICTED BY IDOCK:   -5.22 KCAL/MOL
REMARK 923 INTER-LIGAND FREE ENERGY PREDICTED BY IDOCK:   -4.28 KCAL/MOL
REMARK 924 INTRA-LIGAND FREE ENERGY PREDICTED BY IDOCK:   -0.94 KCAL/MOL
REMARK 927      BINDING AFFINITY PREDICTED BY RF-SCORE:    0.00 PKD
ROOT
HETATM    1  O   UNL     1      -8.715   9.201  62.350  1.00  0.00    -0.213 OA 
HETATM    2  C   UNL     1      -9.297  10.103  63.174  1.00  0.00    -0.298 C  
HETATM    3  O   UNL     1      -9.723  11.173  62.772  1.00  0.00    -0.308 OA 
HETATM    4  C   UNL     1      -9.344   9.621  64.607  1.00  0.00    -0.271 C  
ENDROOT
BRANCH   4   5
HETATM    5  C   UNL     1     -10.002  10.650  65.524  1.00  0.00    -0.333 C  
BRANCH   5   6
HETATM    6  C   UNL     1      -8.970  11.394  66.372  1.00  0.00    -0.196 C  
BRANCH   6   7
HETATM    7  C   UNL     1      -9.535  11.710  67.758  1.00  0.00    -0.178 C  
BRANCH   7   8
HETATM    8  C   UNL     1     -11.006  11.311  67.869  1.00  0.00    -0.302 C  
BRANCH   8   9
HETATM    9  C   UNL     1     -11.889  12.538  68.099  1.00  0.00    -0.371 C  
BRANCH   9  10
HETATM   10  C   UNL     1     -11.301  13.782  67.434  1.00  0.00    -0.348 C  
BRANCH  10  11
HETATM   11  C   UNL     1     -12.248  14.332  66.365  1.00  0.00    -0.426 C  
BRANCH  11  12
HETATM   12  C   UNL     1     -12.560  13.294  65.327  1.00  0.00    -0.528 C  
HETATM   13  C   UNL     1     -12.083  13.321  64.076  1.00  0.00    -0.508 C  
ENDBRANCH  11  12
ENDBRANCH  10  11
ENDBRANCH   9  10
ENDBRANCH   8   9
ENDBRANCH   7   8
ENDBRANCH   6   7
ENDBRANCH   5   6
ENDBRANCH   4   5
TORSDOF 8
ENDMDL
MODEL      148
REMARK 921   NORMALIZED FREE ENERGY PREDICTED BY IDOCK:   -3.22 KCAL/MOL
REMARK 922        TOTAL FREE ENERGY PREDICTED BY IDOCK:   -5.21 KCAL/MOL
REMARK 923 INTER-LIGAND FREE ENERGY PREDICTED BY IDOCK:   -4.15 KCAL/MOL
REMARK 924 INTRA-LIGAND FREE ENERGY PREDICTED BY IDOCK:   -1.06 KCAL/MOL
REMARK 927      BINDING AFFINITY PREDICTED BY RF-SCORE:    0.00 PKD
ROOT
HETATM    1  O   UNL     1     -11.347  12.507  63.286  1.00  0.00    -0.456 OA 
HETATM    2  C   UNL     1     -12.086  12.635  64.413  1.00  0.00    -0.415 C  
HETATM    3  O   UNL     1     -13.260  12.308  64.462  1.00  0.00    -0.799 OA 
HETATM    4  C   UNL     1     -11.288  13.218  65.557  1.00  0.00    -0.315 C  
ENDROOT
BRANCH   4   5
HETATM    5  C   UNL     1     -12.137  13.358  66.819  1.00  0.00    -0.419 C  
BRANCH   5   6
HETATM    6  C   UNL     1     -11.893  14.695  67.520  1.00  0.00    -0.375 C  
BRANCH   6   7
HETATM    7  C   UNL     1     -11.490  14.475  68.979  1.00  0.00    -0.318 C  
BRANCH   7   8
HETATM    8  C   UNL     1     -10.149  15.135  69.297  1.00  0.00    -0.246 C  
BRANCH   8   9
HETATM    9  C   UNL     1      -9.218  15.093  68.085  1.00  0.00    -0.184 C  
BRANCH   9  10
HETATM   10  C   UNL     1      -8.038  14.151  68.319  1.00  0.00    -0.146 C  
BRANCH  10  11
HETATM   11  C   UNL     1      -8.070  12.976  67.339  1.00  0.00    -0.180 C  
BRANCH  11  12
HETATM   12  C   UNL     1      -8.880  11.836  67.883  1.00  0.00    -0.165 C  
HETATM   13  C   UNL     1      -8.348  10.730  68.419  1.00  0.00    -0.132 C  
ENDBRANCH  11  12
ENDBRANCH  10  11
ENDBRANCH   9  10
ENDBRANCH   8   9
ENDBRANCH   7   8
ENDBRANCH   6   7
ENDBRANCH   5   6
ENDBRANCH   4   5
TORSDOF 8
ENDMDL
MODEL      149
REMARK 921   NORMALIZED FREE ENERGY PREDICTED BY IDOCK:   -3.20 KCAL/MOL
REMARK 922        TOTAL FREE ENERGY PREDICTED BY IDOCK:   -5.17 KCAL/MOL
REMARK 923 INTER-LIGAND FREE ENERGY PREDICTED BY IDOCK:   -4.56 KCAL/MOL
REMARK 924 INTRA-LIGAND FREE ENERGY PREDICTED BY IDOCK:   -0.61 KCAL/MOL
REMARK 927      BINDING AFFINITY PREDICTED BY RF-SCORE:    0.00 PKD
ROOT
HETATM    1  O   UNL     1      -6.306  16.360  67.287  1.00  0.00    -0.153 OA 
HETATM    2  C   UNL     1      -7.038  17.061  68.185  1.00  0.00    -0.177 C  
HETATM    3  O   UNL     1      -6.914  16.907  69.388  1.00  0.00    -0.236 OA 
HETATM    4  C   UNL     1      -7.993  18.025  67.516  1.00  0.00    -0.224 C  
ENDROOT
BRANCH   4   5
HETATM    5  C   UNL     1      -8.812  18.806  68.542  1.00  0.00    -0.378 C  
BRANCH   5   6
HETATM    6  C   UNL     1     -10.305  18.507  68.420  1.00  0.00    -0.359 C  
BRANCH   6   7
HETATM    7  C   UNL     1     -10.533  17.155  67.742  1.00  0.00    -0.362 C  
BRANCH   7   8
HETATM    8  C   UNL     1     -11.369  16.221  68.617  1.00  0.00    -0.333 C  
BRANCH   8   9
HETATM    9  C   UNL     1     -10.731  16.047  69.996  1.00  0.00    -0.328 C  
BRANCH   9  10
HETATM   10  C   UNL     1     -11.769  16.164  71.111  1.00  0.00    -0.454 C  
BRANCH  10  11
HETATM   11  C   UNL     1     -13.051  15.411  70.748  1.00  0.00    -0.479 C  
BRANCH  11  12
HETATM   12  C   UNL     1     -13.095  14.062  71.404  1.00  0.00    -0.423 C  
HETATM   13  C   UNL     1     -13.535  13.852  72.652  1.00  0.00    -0.652 C  
ENDBRANCH  11  12
ENDBRANCH  10  11
ENDBRANCH   9  10
ENDBRANCH   8   9
ENDBRANCH   7   8
ENDBRANCH   6   7
ENDBRANCH   5   6
ENDBRANCH   4   5
TORSDOF 8
ENDMDL
MODEL      150
REMARK 921   NORMALIZED FREE ENERGY PREDICTED BY IDOCK:   -3.20 KCAL/MOL
REMARK 922        TOTAL FREE ENERGY PREDICTED BY IDOCK:   -5.17 KCAL/MOL
REMARK 923 INTER-LIGAND FREE ENERGY PREDICTED BY IDOCK:   -4.23 KCAL/MOL
REMARK 924 INTRA-LIGAND FREE ENERGY PREDICTED BY IDOCK:   -0.94 KCAL/MOL
REMARK 927      BINDING AFFINITY PREDICTED BY RF-SCORE:    0.00 PKD
ROOT
HETATM    1  O   UNL     1      -9.162  15.379  68.647  1.00  0.00    -0.182 OA 
HETATM    2  C   UNL     1      -9.197  15.438  67.295  1.00  0.00    -0.207 C  
HETATM    3  O   UNL     1      -8.190  15.344  66.613  1.00  0.00    -0.248 OA 
HETATM    4  C   UNL     1     -10.601  15.629  66.766  1.00  0.00    -0.307 C  
ENDROOT
BRANCH   4   5
HETATM    5  C   UNL     1     -10.622  15.695  65.241  1.00  0.00    -0.448 C  
BRANCH   5   6
HETATM    6  C   UNL     1     -10.872  14.322  64.618  1.00  0.00    -0.384 C  
BRANCH   6   7
HETATM    7  C   UNL     1     -12.292  13.841  64.920  1.00  0.00    -0.435 C  
BRANCH   7   8
HETATM    8  C   UNL     1     -12.286  12.578  65.780  1.00  0.00    -0.227 C  
BRANCH   8   9
HETATM    9  C   UNL     1     -10.905  11.923  65.780  1.00  0.00    -0.341 C  
BRANCH   9  10
HETATM   10  C   UNL     1     -10.338  11.814  67.195  1.00  0.00    -0.242 C  
BRANCH  10  11
HETATM   11  C   UNL     1     -11.396  12.173  68.239  1.00  0.00    -0.343 C  
BRANCH  11  12
HETATM   12  C   UNL     1     -11.579  11.064  69.234  1.00  0.00    -0.384 C  
HETATM   13  C   UNL     1     -12.097  11.234  70.457  1.00  0.00    -0.481 C  
ENDBRANCH  11  12
ENDBRANCH  10  11
ENDBRANCH   9  10
ENDBRANCH   8   9
ENDBRANCH   7   8
ENDBRANCH   6   7
ENDBRANCH   5   6
ENDBRANCH   4   5
TORSDOF 8
ENDMDL
MODEL      151
REMARK 921   NORMALIZED FREE ENERGY PREDICTED BY IDOCK:   -3.19 KCAL/MOL
REMARK 922        TOTAL FREE ENERGY PREDICTED BY IDOCK:   -5.16 KCAL/MOL
REMARK 923 INTER-LIGAND FREE ENERGY PREDICTED BY IDOCK:   -4.56 KCAL/MOL
REMARK 924 INTRA-LIGAND FREE ENERGY PREDICTED BY IDOCK:   -0.61 KCAL/MOL
REMARK 927      BINDING AFFINITY PREDICTED BY RF-SCORE:    0.00 PKD
ROOT
HETATM    1  O   UNL     1      -9.110  10.539  64.758  1.00  0.00    -0.187 OA 
HETATM    2  C   UNL     1     -10.152  10.874  65.554  1.00  0.00    -0.267 C  
HETATM    3  O   UNL     1     -10.515  10.171  66.482  1.00  0.00    -0.222 OA 
HETATM    4  C   UNL     1     -10.781  12.189  65.150  1.00  0.00    -0.333 C  
ENDROOT
BRANCH   4   5
HETATM    5  C   UNL     1     -11.956  12.551  66.056  1.00  0.00    -0.456 C  
BRANCH   5   6
HETATM    6  C   UNL     1     -12.306  14.036  65.962  1.00  0.00    -0.504 C  
BRANCH   6   7
HETATM    7  C   UNL     1     -12.063  14.561  64.547  1.00  0.00    -0.501 C  
BRANCH   7   8
HETATM    8  C   UNL     1     -11.259  15.861  64.560  1.00  0.00    -0.324 C  
BRANCH   8   9
HETATM    9  C   UNL     1     -10.190  15.832  65.653  1.00  0.00    -0.407 C  
BRANCH   9  10
HETATM   10  C   UNL     1      -9.946  17.225  66.233  1.00  0.00    -0.311 C  
BRANCH  10  11
HETATM   11  C   UNL     1     -10.730  17.424  67.531  1.00  0.00    -0.278 C  
BRANCH  11  12
HETATM   12  C   UNL     1      -9.927  18.193  68.540  1.00  0.00    -0.408 C  
HETATM   13  C   UNL     1      -8.670  18.608  68.336  1.00  0.00    -0.361 C  
ENDBRANCH  11  12
ENDBRANCH  10  11
ENDBRANCH   9  10
ENDBRANCH   8   9
ENDBRANCH   7   8
ENDBRANCH   6   7
ENDBRANCH   5   6
ENDBRANCH   4   5
TORSDOF 8
ENDMDL
MODEL      152
REMARK 921   NORMALIZED FREE ENERGY PREDICTED BY IDOCK:   -3.19 KCAL/MOL
REMARK 922        TOTAL FREE ENERGY PREDICTED BY IDOCK:   -5.16 KCAL/MOL
REMARK 923 INTER-LIGAND FREE ENERGY PREDICTED BY IDOCK:   -4.73 KCAL/MOL
REMARK 924 INTRA-LIGAND FREE ENERGY PREDICTED BY IDOCK:   -0.43 KCAL/MOL
REMARK 927      BINDING AFFINITY PREDICTED BY RF-SCORE:    0.00 PKD
ROOT
HETATM    1  O   UNL     1      -9.292   7.385  69.605  1.00  0.00    -0.150 OA 
HETATM    2  C   UNL     1      -9.414   8.698  69.302  1.00  0.00    -0.158 C  
HETATM    3  O   UNL     1      -8.758   9.560  69.862  1.00  0.00    -0.172 OA 
HETATM    4  C   UNL     1     -10.436   8.941  68.214  1.00  0.00    -0.243 C  
ENDROOT
BRANCH   4   5
HETATM    5  C   UNL     1     -10.563  10.427  67.885  1.00  0.00    -0.273 C  
BRANCH   5   6
HETATM    6  C   UNL     1     -11.680  11.092  68.690  1.00  0.00    -0.389 C  
BRANCH   6   7
HETATM    7  C   UNL     1     -11.213  12.434  69.256  1.00  0.00    -0.264 C  
BRANCH   7   8
HETATM    8  C   UNL     1     -12.234  13.017  70.232  1.00  0.00    -0.368 C  
BRANCH   8   9
HETATM    9  C   UNL     1     -11.999  14.513  70.441  1.00  0.00    -0.386 C  
BRANCH   9  10
HETATM   10  C   UNL     1     -13.198  15.178  71.116  1.00  0.00    -0.535 C  
BRANCH  10  11
HETATM   11  C   UNL     1     -13.617  14.409  72.371  1.00  0.00    -0.578 C  
BRANCH  11  12
HETATM   12  C   UNL     1     -12.870  14.892  73.580  1.00  0.00    -0.522 C  
HETATM   13  C   UNL     1     -12.573  16.178  73.811  1.00  0.00    -0.698 C  
ENDBRANCH  11  12
ENDBRANCH  10  11
ENDBRANCH   9  10
ENDBRANCH   8   9
ENDBRANCH   7   8
ENDBRANCH   6   7
ENDBRANCH   5   6
ENDBRANCH   4   5
TORSDOF 8
ENDMDL
MODEL      153
REMARK 921   NORMALIZED FREE ENERGY PREDICTED BY IDOCK:   -3.19 KCAL/MOL
REMARK 922        TOTAL FREE ENERGY PREDICTED BY IDOCK:   -5.16 KCAL/MOL
REMARK 923 INTER-LIGAND FREE ENERGY PREDICTED BY IDOCK:   -4.10 KCAL/MOL
REMARK 924 INTRA-LIGAND FREE ENERGY PREDICTED BY IDOCK:   -1.06 KCAL/MOL
REMARK 927      BINDING AFFINITY PREDICTED BY RF-SCORE:    0.00 PKD
ROOT
HETATM    1  O   UNL     1      -7.366  14.666  67.271  1.00  0.00    -0.193 OA 
HETATM    2  C   UNL     1      -8.524  13.964  67.278  1.00  0.00    -0.200 C  
HETATM    3  O   UNL     1      -8.676  12.967  67.964  1.00  0.00    -0.171 OA 
HETATM    4  C   UNL     1      -9.561  14.563  66.355  1.00  0.00    -0.324 C  
ENDROOT
BRANCH   4   5
HETATM    5  C   UNL     1     -10.860  13.759  66.374  1.00  0.00    -0.287 C  
BRANCH   5   6
HETATM    6  C   UNL     1     -11.986  14.518  67.074  1.00  0.00    -0.371 C  
BRANCH   6   7
HETATM    7  C   UNL     1     -11.883  14.360  68.592  1.00  0.00    -0.366 C  
BRANCH   7   8
HETATM    8  C   UNL     1     -11.892  15.714  69.300  1.00  0.00    -0.378 C  
BRANCH   8   9
HETATM    9  C   UNL     1     -10.469  16.241  69.490  1.00  0.00    -0.299 C  
BRANCH   9  10
HETATM   10  C   UNL     1     -10.351  17.700  69.051  1.00  0.00    -0.272 C  
BRANCH  10  11
HETATM   11  C   UNL     1      -9.497  17.826  67.788  1.00  0.00    -0.262 C  
BRANCH  11  12
HETATM   12  C   UNL     1     -10.342  18.147  66.589  1.00  0.00    -0.387 C  
HETATM   13  C   UNL     1     -10.359  19.343  65.986  1.00  0.00    -0.584 C  
ENDBRANCH  11  12
ENDBRANCH  10  11
ENDBRANCH   9  10
ENDBRANCH   8   9
ENDBRANCH   7   8
ENDBRANCH   6   7
ENDBRANCH   5   6
ENDBRANCH   4   5
TORSDOF 8
ENDMDL
MODEL      154
REMARK 921   NORMALIZED FREE ENERGY PREDICTED BY IDOCK:   -3.19 KCAL/MOL
REMARK 922        TOTAL FREE ENERGY PREDICTED BY IDOCK:   -5.16 KCAL/MOL
REMARK 923 INTER-LIGAND FREE ENERGY PREDICTED BY IDOCK:   -4.38 KCAL/MOL
REMARK 924 INTRA-LIGAND FREE ENERGY PREDICTED BY IDOCK:   -0.77 KCAL/MOL
REMARK 927      BINDING AFFINITY PREDICTED BY RF-SCORE:    0.00 PKD
ROOT
HETATM    1  O   UNL     1     -11.083   6.922  73.244  1.00  0.00    -0.254 OA 
HETATM    2  C   UNL     1     -10.682   8.035  72.586  1.00  0.00    -0.358 C  
HETATM    3  O   UNL     1      -9.518   8.399  72.570  1.00  0.00    -0.267 OA 
HETATM    4  C   UNL     1     -11.832   8.739  71.899  1.00  0.00    -0.437 C  
ENDROOT
BRANCH   4   5
HETATM    5  C   UNL     1     -11.363   9.992  71.163  1.00  0.00    -0.397 C  
BRANCH   5   6
HETATM    6  C   UNL     1     -12.397  10.469  70.143  1.00  0.00    -0.339 C  
BRANCH   6   7
HETATM    7  C   UNL     1     -11.759  11.423  69.132  1.00  0.00    -0.410 C  
BRANCH   7   8
HETATM    8  C   UNL     1     -11.405  10.706  67.830  1.00  0.00    -0.320 C  
BRANCH   8   9
HETATM    9  C   UNL     1      -9.926  10.319  67.803  1.00  0.00    -0.203 C  
BRANCH   9  10
HETATM   10  C   UNL     1      -9.736   8.822  68.046  1.00  0.00    -0.183 C  
BRANCH  10  11
HETATM   11  C   UNL     1     -10.250   8.005  66.859  1.00  0.00    -0.385 C  
BRANCH  11  12
HETATM   12  C   UNL     1     -10.995   6.786  67.320  1.00  0.00    -0.433 C  
HETATM   13  C   UNL     1     -10.875   6.254  68.543  1.00  0.00    -0.394 C  
ENDBRANCH  11  12
ENDBRANCH  10  11
ENDBRANCH   9  10
ENDBRANCH   8   9
ENDBRANCH   7   8
ENDBRANCH   6   7
ENDBRANCH   5   6
ENDBRANCH   4   5
TORSDOF 8
ENDMDL
MODEL      155
REMARK 921   NORMALIZED FREE ENERGY PREDICTED BY IDOCK:   -3.18 KCAL/MOL
REMARK 922        TOTAL FREE ENERGY PREDICTED BY IDOCK:   -5.15 KCAL/MOL
REMARK 923 INTER-LIGAND FREE ENERGY PREDICTED BY IDOCK:   -4.13 KCAL/MOL
REMARK 924 INTRA-LIGAND FREE ENERGY PREDICTED BY IDOCK:   -1.02 KCAL/MOL
REMARK 927      BINDING AFFINITY PREDICTED BY RF-SCORE:    0.00 PKD
ROOT
HETATM    1  O   UNL     1      -9.661   7.251  74.232  1.00  0.00    -0.232 OA 
HETATM    2  C   UNL     1      -8.988   8.001  73.328  1.00  0.00    -0.272 C  
HETATM    3  O   UNL     1      -7.919   8.529  73.587  1.00  0.00    -0.373 OA 
HETATM    4  C   UNL     1      -9.715   8.092  72.005  1.00  0.00    -0.292 C  
ENDROOT
BRANCH   4   5
HETATM    5  C   UNL     1      -8.943   8.943  70.999  1.00  0.00    -0.298 C  
BRANCH   5   6
HETATM    6  C   UNL     1      -9.611   8.939  69.624  1.00  0.00    -0.170 C  
BRANCH   6   7
HETATM    7  C   UNL     1      -9.803  10.367  69.110  1.00  0.00    -0.237 C  
BRANCH   7   8
HETATM    8  C   UNL     1     -10.940  10.450  68.093  1.00  0.00    -0.334 C  
BRANCH   8   9
HETATM    9  C   UNL     1     -12.021  11.424  68.560  1.00  0.00    -0.295 C  
BRANCH   9  10
HETATM   10  C   UNL     1     -11.663  12.055  69.905  1.00  0.00    -0.374 C  
BRANCH  10  11
HETATM   11  C   UNL     1     -12.753  11.788  70.945  1.00  0.00    -0.328 C  
BRANCH  11  12
HETATM   12  C   UNL     1     -12.507  10.498  71.672  1.00  0.00    -0.443 C  
HETATM   13  C   UNL     1     -13.425   9.533  71.813  1.00  0.00    -0.480 C  
ENDBRANCH  11  12
ENDBRANCH  10  11
ENDBRANCH   9  10
ENDBRANCH   8   9
ENDBRANCH   7   8
ENDBRANCH   6   7
ENDBRANCH   5   6
ENDBRANCH   4   5
TORSDOF 8
ENDMDL
MODEL      156
REMARK 921   NORMALIZED FREE ENERGY PREDICTED BY IDOCK:   -3.18 KCAL/MOL
REMARK 922        TOTAL FREE ENERGY PREDICTED BY IDOCK:   -5.14 KCAL/MOL
REMARK 923 INTER-LIGAND FREE ENERGY PREDICTED BY IDOCK:   -4.51 KCAL/MOL
REMARK 924 INTRA-LIGAND FREE ENERGY PREDICTED BY IDOCK:   -0.63 KCAL/MOL
REMARK 927      BINDING AFFINITY PREDICTED BY RF-SCORE:    0.00 PKD
ROOT
HETATM    1  O   UNL     1     -12.267  16.002  63.870  1.00  0.00    -0.883 OA 
HETATM    2  C   UNL     1     -12.324  14.688  64.189  1.00  0.00    -0.265 C  
HETATM    3  O   UNL     1     -12.719  13.843  63.403  1.00  0.00    -0.806 OA 
HETATM    4  C   UNL     1     -11.850  14.420  65.600  1.00  0.00    -0.355 C  
ENDROOT
BRANCH   4   5
HETATM    5  C   UNL     1     -11.923  12.934  65.945  1.00  0.00    -0.504 C  
BRANCH   5   6
HETATM    6  C   UNL     1     -10.981  12.573  67.093  1.00  0.00    -0.302 C  
BRANCH   6   7
HETATM    7  C   UNL     1     -11.405  11.257  67.747  1.00  0.00    -0.354 C  
BRANCH   7   8
HETATM    8  C   UNL     1     -10.857  10.050  66.987  1.00  0.00    -0.196 C  
BRANCH   8   9
HETATM    9  C   UNL     1     -10.333   8.987  67.953  1.00  0.00    -0.290 C  
BRANCH   9  10
HETATM   10  C   UNL     1      -8.843   8.721  67.737  1.00  0.00    -0.137 C  
BRANCH  10  11
HETATM   11  C   UNL     1      -8.088   8.723  69.068  1.00  0.00    -0.116 C  
BRANCH  11  12
HETATM   12  C   UNL     1      -7.986  10.109  69.635  1.00  0.00    -0.181 C  
HETATM   13  C   UNL     1      -7.523  11.164  68.951  1.00  0.00    -0.125 C  
ENDBRANCH  11  12
ENDBRANCH  10  11
ENDBRANCH   9  10
ENDBRANCH   8   9
ENDBRANCH   7   8
ENDBRANCH   6   7
ENDBRANCH   5   6
ENDBRANCH   4   5
TORSDOF 8
ENDMDL
MODEL      157
REMARK 921   NORMALIZED FREE ENERGY PREDICTED BY IDOCK:   -3.17 KCAL/MOL
REMARK 922        TOTAL FREE ENERGY PREDICTED BY IDOCK:   -5.14 KCAL/MOL
REMARK 923 INTER-LIGAND FREE ENERGY PREDICTED BY IDOCK:   -4.25 KCAL/MOL
REMARK 924 INTRA-LIGAND FREE ENERGY PREDICTED BY IDOCK:   -0.89 KCAL/MOL
REMARK 927      BINDING AFFINITY PREDICTED BY RF-SCORE:    0.00 PKD
ROOT
HETATM    1  O   UNL     1      -6.367  16.600  66.501  1.00  0.00    -0.273 OA 
HETATM    2  C   UNL     1      -6.865  17.420  67.456  1.00  0.00    -0.155 C  
HETATM    3  O   UNL     1      -7.193  17.013  68.558  1.00  0.00    -0.189 OA 
HETATM    4  C   UNL     1      -6.956  18.855  66.988  1.00  0.00    -0.211 C  
ENDROOT
BRANCH   4   5
HETATM    5  C   UNL     1      -7.521  19.766  68.076  1.00  0.00    -0.329 C  
BRANCH   5   6
HETATM    6  C   UNL     1      -9.022  19.993  67.901  1.00  0.00    -0.356 C  
BRANCH   6   7
HETATM    7  C   UNL     1      -9.412  19.920  66.424  1.00  0.00    -0.513 C  
BRANCH   7   8
HETATM    8  C   UNL     1     -10.508  18.884  66.183  1.00  0.00    -0.521 C  
BRANCH   8   9
HETATM    9  C   UNL     1     -10.583  17.887  67.340  1.00  0.00    -0.370 C  
BRANCH   9  10
HETATM   10  C   UNL     1     -10.373  16.453  66.857  1.00  0.00    -0.300 C  
BRANCH  10  11
HETATM   11  C   UNL     1     -10.486  15.461  68.017  1.00  0.00    -0.257 C  
BRANCH  11  12
HETATM   12  C   UNL     1     -11.688  15.752  68.868  1.00  0.00    -0.404 C  
HETATM   13  C   UNL     1     -11.697  15.664  70.204  1.00  0.00    -0.374 C  
ENDBRANCH  11  12
ENDBRANCH  10  11
ENDBRANCH   9  10
ENDBRANCH   8   9
ENDBRANCH   7   8
ENDBRANCH   6   7
ENDBRANCH   5   6
ENDBRANCH   4   5
TORSDOF 8
ENDMDL
MODEL      158
REMARK 921   NORMALIZED FREE ENERGY PREDICTED BY IDOCK:   -3.17 KCAL/MOL
REMARK 922        TOTAL FREE ENERGY PREDICTED BY IDOCK:   -5.14 KCAL/MOL
REMARK 923 INTER-LIGAND FREE ENERGY PREDICTED BY IDOCK:   -4.75 KCAL/MOL
REMARK 924 INTRA-LIGAND FREE ENERGY PREDICTED BY IDOCK:   -0.39 KCAL/MOL
REMARK 927      BINDING AFFINITY PREDICTED BY RF-SCORE:    0.00 PKD
ROOT
HETATM    1  O   UNL     1     -12.982  13.745  65.243  1.00  0.00    -0.731 OA 
HETATM    2  C   UNL     1     -12.494  12.682  64.562  1.00  0.00    -0.448 C  
HETATM    3  O   UNL     1     -13.111  12.151  63.654  1.00  0.00    -0.787 OA 
HETATM    4  C   UNL     1     -11.131  12.259  65.062  1.00  0.00    -0.359 C  
ENDROOT
BRANCH   4   5
HETATM    5  C   UNL     1     -10.595  11.058  64.285  1.00  0.00    -0.402 C  
BRANCH   5   6
HETATM    6  C   UNL     1      -9.688  10.183  65.150  1.00  0.00    -0.370 C  
BRANCH   6   7
HETATM    7  C   UNL     1     -10.138  10.215  66.611  1.00  0.00    -0.283 C  
BRANCH   7   8
HETATM    8  C   UNL     1     -10.457   8.814  67.131  1.00  0.00    -0.354 C  
BRANCH   8   9
HETATM    9  C   UNL     1      -9.440   7.795  66.618  1.00  0.00    -0.263 C  
BRANCH   9  10
HETATM   10  C   UNL     1      -9.872   6.364  66.937  1.00  0.00    -0.202 C  
BRANCH  10  11
HETATM   11  C   UNL     1      -9.075   5.353  66.111  1.00  0.00    -0.154 C  
BRANCH  11  12
HETATM   12  C   UNL     1      -9.985   4.405  65.384  1.00  0.00    -0.231 C  
HETATM   13  C   UNL     1      -9.584   3.592  64.398  1.00  0.00    -0.162 C  
ENDBRANCH  11  12
ENDBRANCH  10  11
ENDBRANCH   9  10
ENDBRANCH   8   9
ENDBRANCH   7   8
ENDBRANCH   6   7
ENDBRANCH   5   6
ENDBRANCH   4   5
TORSDOF 8
ENDMDL
MODEL      159
REMARK 921   NORMALIZED FREE ENERGY PREDICTED BY IDOCK:   -3.17 KCAL/MOL
REMARK 922        TOTAL FREE ENERGY PREDICTED BY IDOCK:   -5.14 KCAL/MOL
REMARK 923 INTER-LIGAND FREE ENERGY PREDICTED BY IDOCK:   -4.60 KCAL/MOL
REMARK 924 INTRA-LIGAND FREE ENERGY PREDICTED BY IDOCK:   -0.53 KCAL/MOL
REMARK 927      BINDING AFFINITY PREDICTED BY RF-SCORE:    0.00 PKD
ROOT
HETATM    1  O   UNL     1      -9.688  19.018  68.779  1.00  0.00    -0.382 OA 
HETATM    2  C   UNL     1      -9.802  18.707  67.467  1.00  0.00    -0.320 C  
HETATM    3  O   UNL     1      -9.541  19.505  66.583  1.00  0.00    -0.319 OA 
HETATM    4  C   UNL     1     -10.280  17.287  67.255  1.00  0.00    -0.320 C  
ENDROOT
BRANCH   4   5
HETATM    5  C   UNL     1     -10.405  16.953  65.770  1.00  0.00    -0.298 C  
BRANCH   5   6
HETATM    6  C   UNL     1      -9.870  15.556  65.457  1.00  0.00    -0.348 C  
BRANCH   6   7
HETATM    7  C   UNL     1     -10.999  14.637  64.988  1.00  0.00    -0.415 C  
BRANCH   7   8
HETATM    8  C   UNL     1     -10.772  13.194  65.439  1.00  0.00    -0.308 C  
BRANCH   8   9
HETATM    9  C   UNL     1     -11.813  12.776  66.478  1.00  0.00    -0.471 C  
BRANCH   9  10
HETATM   10  C   UNL     1     -11.663  13.575  67.772  1.00  0.00    -0.394 C  
BRANCH  10  11
HETATM   11  C   UNL     1     -11.052  12.715  68.880  1.00  0.00    -0.307 C  
BRANCH  11  12
HETATM   12  C   UNL     1     -12.117  12.042  69.697  1.00  0.00    -0.295 C  
HETATM   13  C   UNL     1     -12.126  10.733  69.979  1.00  0.00    -0.423 C  
ENDBRANCH  11  12
ENDBRANCH  10  11
ENDBRANCH   9  10
ENDBRANCH   8   9
ENDBRANCH   7   8
ENDBRANCH   6   7
ENDBRANCH   5   6
ENDBRANCH   4   5
TORSDOF 8
ENDMDL
MODEL      160
REMARK 921   NORMALIZED FREE ENERGY PREDICTED BY IDOCK:   -3.17 KCAL/MOL
REMARK 922        TOTAL FREE ENERGY PREDICTED BY IDOCK:   -5.13 KCAL/MOL
REMARK 923 INTER-LIGAND FREE ENERGY PREDICTED BY IDOCK:   -4.43 KCAL/MOL
REMARK 924 INTRA-LIGAND FREE ENERGY PREDICTED BY IDOCK:   -0.70 KCAL/MOL
REMARK 927      BINDING AFFINITY PREDICTED BY RF-SCORE:    0.00 PKD
ROOT
HETATM    1  O   UNL     1     -11.884  15.762  69.977  1.00  0.00    -0.344 OA 
HETATM    2  C   UNL     1     -11.711  14.873  68.972  1.00  0.00    -0.319 C  
HETATM    3  O   UNL     1     -11.498  15.222  67.822  1.00  0.00    -0.335 OA 
HETATM    4  C   UNL     1     -11.813  13.442  69.450  1.00  0.00    -0.390 C  
ENDROOT
BRANCH   4   5
HETATM    5  C   UNL     1     -11.617  12.452  68.304  1.00  0.00    -0.384 C  
BRANCH   5   6
HETATM    6  C   UNL     1     -11.547  11.010  68.807  1.00  0.00    -0.386 C  
BRANCH   6   7
HETATM    7  C   UNL     1     -10.786  10.127  67.816  1.00  0.00    -0.346 C  
BRANCH   7   8
HETATM    8  C   UNL     1      -9.862   9.145  68.534  1.00  0.00    -0.178 C  
BRANCH   8   9
HETATM    9  C   UNL     1      -9.707   9.517  70.009  1.00  0.00    -0.271 C  
BRANCH   9  10
HETATM   10  C   UNL     1      -9.832   8.290  70.911  1.00  0.00    -0.215 C  
BRANCH  10  11
HETATM   11  C   UNL     1     -10.474   8.658  72.250  1.00  0.00    -0.376 C  
BRANCH  11  12
HETATM   12  C   UNL     1     -11.930   8.292  72.275  1.00  0.00    -0.448 C  
HETATM   13  C   UNL     1     -12.902   9.056  71.759  1.00  0.00    -0.437 C  
ENDBRANCH  11  12
ENDBRANCH  10  11
ENDBRANCH   9  10
ENDBRANCH   8   9
ENDBRANCH   7   8
ENDBRANCH   6   7
ENDBRANCH   5   6
ENDBRANCH   4   5
TORSDOF 8
ENDMDL
MODEL      161
REMARK 921   NORMALIZED FREE ENERGY PREDICTED BY IDOCK:   -3.17 KCAL/MOL
REMARK 922        TOTAL FREE ENERGY PREDICTED BY IDOCK:   -5.13 KCAL/MOL
REMARK 923 INTER-LIGAND FREE ENERGY PREDICTED BY IDOCK:   -4.95 KCAL/MOL
REMARK 924 INTRA-LIGAND FREE ENERGY PREDICTED BY IDOCK:   -0.18 KCAL/MOL
REMARK 927      BINDING AFFINITY PREDICTED BY RF-SCORE:    0.00 PKD
ROOT
HETATM    1  O   UNL     1     -14.266   8.859  72.722  1.00  0.00    -0.557 OA 
HETATM    2  C   UNL     1     -13.028   9.001  72.192  1.00  0.00    -0.424 C  
HETATM    3  O   UNL     1     -12.089   8.302  72.533  1.00  0.00    -0.385 OA 
HETATM    4  C   UNL     1     -12.972  10.105  71.159  1.00  0.00    -0.488 C  
ENDROOT
BRANCH   4   5
HETATM    5  C   UNL     1     -11.569  10.253  70.573  1.00  0.00    -0.424 C  
BRANCH   5   6
HETATM    6  C   UNL     1     -11.442  11.517  69.723  1.00  0.00    -0.362 C  
BRANCH   6   7
HETATM    7  C   UNL     1     -11.418  11.169  68.234  1.00  0.00    -0.373 C  
BRANCH   7   8
HETATM    8  C   UNL     1     -11.192  12.409  67.371  1.00  0.00    -0.351 C  
BRANCH   8   9
HETATM    9  C   UNL     1     -11.973  13.605  67.916  1.00  0.00    -0.382 C  
BRANCH   9  10
HETATM   10  C   UNL     1     -11.056  14.582  68.652  1.00  0.00    -0.272 C  
BRANCH  10  11
HETATM   11  C   UNL     1     -11.389  16.029  68.283  1.00  0.00    -0.326 C  
BRANCH  11  12
HETATM   12  C   UNL     1     -10.166  16.770  67.825  1.00  0.00    -0.303 C  
HETATM   13  C   UNL     1      -9.770  16.840  66.547  1.00  0.00    -0.298 C  
ENDBRANCH  11  12
ENDBRANCH  10  11
ENDBRANCH   9  10
ENDBRANCH   8   9
ENDBRANCH   7   8
ENDBRANCH   6   7
ENDBRANCH   5   6
ENDBRANCH   4   5
TORSDOF 8
ENDMDL
MODEL      162
REMARK 921   NORMALIZED FREE ENERGY PREDICTED BY IDOCK:   -3.15 KCAL/MOL
REMARK 922        TOTAL FREE ENERGY PREDICTED BY IDOCK:   -5.11 KCAL/MOL
REMARK 923 INTER-LIGAND FREE ENERGY PREDICTED BY IDOCK:   -4.59 KCAL/MOL
REMARK 924 INTRA-LIGAND FREE ENERGY PREDICTED BY IDOCK:   -0.52 KCAL/MOL
REMARK 927      BINDING AFFINITY PREDICTED BY RF-SCORE:    0.00 PKD
ROOT
HETATM    1  O   UNL     1     -10.481  13.741  64.385  1.00  0.00    -0.422 OA 
HETATM    2  C   UNL     1     -10.360  13.854  65.728  1.00  0.00    -0.316 C  
HETATM    3  O   UNL     1      -9.322  13.593  66.313  1.00  0.00    -0.231 OA 
HETATM    4  C   UNL     1     -11.639  14.330  66.380  1.00  0.00    -0.381 C  
ENDROOT
BRANCH   4   5
HETATM    5  C   UNL     1     -11.486  14.451  67.895  1.00  0.00    -0.346 C  
BRANCH   5   6
HETATM    6  C   UNL     1     -11.630  15.898  68.365  1.00  0.00    -0.317 C  
BRANCH   6   7
HETATM    7  C   UNL     1     -10.276  16.609  68.351  1.00  0.00    -0.284 C  
BRANCH   7   8
HETATM    8  C   UNL     1     -10.120  17.496  67.117  1.00  0.00    -0.321 C  
BRANCH   8   9
HETATM    9  C   UNL     1     -10.449  18.953  67.445  1.00  0.00    -0.520 C  
BRANCH   9  10
HETATM   10  C   UNL     1      -9.329  19.892  66.998  1.00  0.00    -0.486 C  
BRANCH  10  11
HETATM   11  C   UNL     1      -8.172  19.109  66.374  1.00  0.00    -0.323 C  
BRANCH  11  12
HETATM   12  C   UNL     1      -7.196  20.027  65.697  1.00  0.00    -0.330 C  
HETATM   13  C   UNL     1      -6.353  20.836  66.352  1.00  0.00    -0.307 C  
ENDBRANCH  11  12
ENDBRANCH  10  11
ENDBRANCH   9  10
ENDBRANCH   8   9
ENDBRANCH   7   8
ENDBRANCH   6   7
ENDBRANCH   5   6
ENDBRANCH   4   5
TORSDOF 8
ENDMDL
MODEL      163
REMARK 921   NORMALIZED FREE ENERGY PREDICTED BY IDOCK:   -3.15 KCAL/MOL
REMARK 922        TOTAL FREE ENERGY PREDICTED BY IDOCK:   -5.10 KCAL/MOL
REMARK 923 INTER-LIGAND FREE ENERGY PREDICTED BY IDOCK:   -4.34 KCAL/MOL
REMARK 924 INTRA-LIGAND FREE ENERGY PREDICTED BY IDOCK:   -0.76 KCAL/MOL
REMARK 927      BINDING AFFINITY PREDICTED BY RF-SCORE:    0.00 PKD
ROOT
HETATM    1  O   UNL     1     -10.489  11.000  65.442  1.00  0.00    -0.266 OA 
HETATM    2  C   UNL     1     -10.876  12.123  64.794  1.00  0.00    -0.307 C  
HETATM    3  O   UNL     1     -11.577  12.092  63.796  1.00  0.00    -0.407 OA 
HETATM    4  C   UNL     1     -10.339  13.376  65.450  1.00  0.00    -0.321 C  
ENDROOT
BRANCH   4   5
HETATM    5  C   UNL     1     -10.783  14.634  64.706  1.00  0.00    -0.399 C  
BRANCH   5   6
HETATM    6  C   UNL     1     -10.548  15.895  65.536  1.00  0.00    -0.419 C  
BRANCH   6   7
HETATM    7  C   UNL     1     -10.489  15.559  67.027  1.00  0.00    -0.304 C  
BRANCH   7   8
HETATM    8  C   UNL     1     -10.779  16.785  67.892  1.00  0.00    -0.347 C  
BRANCH   8   9
HETATM    9  C   UNL     1     -10.412  18.073  67.155  1.00  0.00    -0.377 C  
BRANCH   9  10
HETATM   10  C   UNL     1      -9.073  18.631  67.639  1.00  0.00    -0.294 C  
BRANCH  10  11
HETATM   11  C   UNL     1      -8.081  18.755  66.481  1.00  0.00    -0.302 C  
BRANCH  11  12
HETATM   12  C   UNL     1      -7.312  17.481  66.284  1.00  0.00    -0.355 C  
HETATM   13  C   UNL     1      -5.993  17.365  66.484  1.00  0.00    -0.245 C  
ENDBRANCH  11  12
ENDBRANCH  10  11
ENDBRANCH   9  10
ENDBRANCH   8   9
ENDBRANCH   7   8
ENDBRANCH   6   7
ENDBRANCH   5   6
ENDBRANCH   4   5
TORSDOF 8
ENDMDL
MODEL      164
REMARK 921   NORMALIZED FREE ENERGY PREDICTED BY IDOCK:   -3.14 KCAL/MOL
REMARK 922        TOTAL FREE ENERGY PREDICTED BY IDOCK:   -5.09 KCAL/MOL
REMARK 923 INTER-LIGAND FREE ENERGY PREDICTED BY IDOCK:   -4.16 KCAL/MOL
REMARK 924 INTRA-LIGAND FREE ENERGY PREDICTED BY IDOCK:   -0.92 KCAL/MOL
REMARK 927      BINDING AFFINITY PREDICTED BY RF-SCORE:    0.00 PKD
ROOT
HETATM    1  O   UNL     1     -12.700  11.777  71.472  1.00  0.00    -0.358 OA 
HETATM    2  C   UNL     1     -12.084  11.865  70.270  1.00  0.00    -0.325 C  
HETATM    3  O   UNL     1     -11.777  10.879  69.622  1.00  0.00    -0.275 OA 
HETATM    4  C   UNL     1     -11.838  13.299  69.857  1.00  0.00    -0.380 C  
ENDROOT
BRANCH   4   5
HETATM    5  C   UNL     1     -11.141  13.381  68.501  1.00  0.00    -0.299 C  
BRANCH   5   6
HETATM    6  C   UNL     1     -12.035  14.027  67.443  1.00  0.00    -0.439 C  
BRANCH   6   7
HETATM    7  C   UNL     1     -11.236  14.345  66.179  1.00  0.00    -0.336 C  
BRANCH   7   8
HETATM    8  C   UNL     1      -9.744  14.077  66.375  1.00  0.00    -0.309 C  
BRANCH   8   9
HETATM    9  C   UNL     1      -8.967  15.387  66.517  1.00  0.00    -0.344 C  
BRANCH   9  10
HETATM   10  C   UNL     1      -8.134  15.406  67.798  1.00  0.00    -0.152 C  
BRANCH  10  11
HETATM   11  C   UNL     1      -8.494  16.612  68.668  1.00  0.00    -0.253 C  
BRANCH  11  12
HETATM   12  C   UNL     1      -9.847  17.156  68.313  1.00  0.00    -0.288 C  
HETATM   13  C   UNL     1     -10.191  18.444  68.437  1.00  0.00    -0.407 C  
ENDBRANCH  11  12
ENDBRANCH  10  11
ENDBRANCH   9  10
ENDBRANCH   8   9
ENDBRANCH   7   8
ENDBRANCH   6   7
ENDBRANCH   5   6
ENDBRANCH   4   5
TORSDOF 8
ENDMDL
MODEL      165
REMARK 921   NORMALIZED FREE ENERGY PREDICTED BY IDOCK:   -3.13 KCAL/MOL
REMARK 922        TOTAL FREE ENERGY PREDICTED BY IDOCK:   -5.08 KCAL/MOL
REMARK 923 INTER-LIGAND FREE ENERGY PREDICTED BY IDOCK:   -4.43 KCAL/MOL
REMARK 924 INTRA-LIGAND FREE ENERGY PREDICTED BY IDOCK:   -0.64 KCAL/MOL
REMARK 927      BINDING AFFINITY PREDICTED BY RF-SCORE:    0.00 PKD
ROOT
HETATM    1  O   UNL     1      -8.125  19.799  66.452  1.00  0.00    -0.300 OA 
HETATM    2  C   UNL     1      -8.750  18.601  66.531  1.00  0.00    -0.304 C  
HETATM    3  O   UNL     1      -8.390  17.635  65.880  1.00  0.00    -0.536 OA 
HETATM    4  C   UNL     1      -9.912  18.625  67.499  1.00  0.00    -0.371 C  
ENDROOT
BRANCH   4   5
HETATM    5  C   UNL     1     -10.606  17.267  67.575  1.00  0.00    -0.329 C  
BRANCH   5   6
HETATM    6  C   UNL     1     -10.757  16.788  69.018  1.00  0.00    -0.331 C  
BRANCH   6   7
HETATM    7  C   UNL     1     -11.437  15.419  69.066  1.00  0.00    -0.349 C  
BRANCH   7   8
HETATM    8  C   UNL     1     -10.427  14.284  68.908  1.00  0.00    -0.241 C  
BRANCH   8   9
HETATM    9  C   UNL     1     -10.691  13.491  67.627  1.00  0.00    -0.257 C  
BRANCH   9  10
HETATM   10  C   UNL     1      -9.537  13.633  66.635  1.00  0.00    -0.289 C  
BRANCH  10  11
HETATM   11  C   UNL     1      -9.976  14.407  65.390  1.00  0.00    -0.344 C  
BRANCH  11  12
HETATM   12  C   UNL     1     -11.449  14.697  65.420  1.00  0.00    -0.352 C  
HETATM   13  C   UNL     1     -12.374  13.930  64.828  1.00  0.00    -0.429 C  
ENDBRANCH  11  12
ENDBRANCH  10  11
ENDBRANCH   9  10
ENDBRANCH   8   9
ENDBRANCH   7   8
ENDBRANCH   6   7
ENDBRANCH   5   6
ENDBRANCH   4   5
TORSDOF 8
ENDMDL
MODEL      166
REMARK 921   NORMALIZED FREE ENERGY PREDICTED BY IDOCK:   -3.13 KCAL/MOL
REMARK 922        TOTAL FREE ENERGY PREDICTED BY IDOCK:   -5.07 KCAL/MOL
REMARK 923 INTER-LIGAND FREE ENERGY PREDICTED BY IDOCK:   -4.52 KCAL/MOL
REMARK 924 INTRA-LIGAND FREE ENERGY PREDICTED BY IDOCK:   -0.55 KCAL/MOL
REMARK 927      BINDING AFFINITY PREDICTED BY RF-SCORE:    0.00 PKD
ROOT
HETATM    1  O   UNL     1      -9.797   9.980  64.536  1.00  0.00    -0.305 OA 
HETATM    2  C   UNL     1     -10.401  11.186  64.652  1.00  0.00    -0.330 C  
HETATM    3  O   UNL     1     -10.940  11.738  63.707  1.00  0.00    -0.361 OA 
HETATM    4  C   UNL     1     -10.319  11.734  66.059  1.00  0.00    -0.276 C  
ENDROOT
BRANCH   4   5
HETATM    5  C   UNL     1     -11.004  13.095  66.172  1.00  0.00    -0.299 C  
BRANCH   5   6
HETATM    6  C   UNL     1     -12.140  13.073  67.194  1.00  0.00    -0.325 C  
BRANCH   6   7
HETATM    7  C   UNL     1     -11.605  13.327  68.604  1.00  0.00    -0.362 C  
BRANCH   7   8
HETATM    8  C   UNL     1     -12.232  14.573  69.227  1.00  0.00    -0.264 C  
BRANCH   8   9
HETATM    9  C   UNL     1     -12.180  14.507  70.754  1.00  0.00    -0.403 C  
BRANCH   9  10
HETATM   10  C   UNL     1     -13.560  14.225  71.348  1.00  0.00    -0.395 C  
BRANCH  10  11
HETATM   11  C   UNL     1     -13.529  12.986  72.244  1.00  0.00    -0.645 C  
BRANCH  11  12
HETATM   12  C   UNL     1     -12.683  11.900  71.642  1.00  0.00    -0.340 C  
HETATM   13  C   UNL     1     -13.181  10.825  71.019  1.00  0.00    -0.211 C  
ENDBRANCH  11  12
ENDBRANCH  10  11
ENDBRANCH   9  10
ENDBRANCH   8   9
ENDBRANCH   7   8
ENDBRANCH   6   7
ENDBRANCH   5   6
ENDBRANCH   4   5
TORSDOF 8
ENDMDL
MODEL      167
REMARK 921   NORMALIZED FREE ENERGY PREDICTED BY IDOCK:   -3.13 KCAL/MOL
REMARK 922        TOTAL FREE ENERGY PREDICTED BY IDOCK:   -5.07 KCAL/MOL
REMARK 923 INTER-LIGAND FREE ENERGY PREDICTED BY IDOCK:   -4.34 KCAL/MOL
REMARK 924 INTRA-LIGAND FREE ENERGY PREDICTED BY IDOCK:   -0.73 KCAL/MOL
REMARK 927      BINDING AFFINITY PREDICTED BY RF-SCORE:    0.00 PKD
ROOT
HETATM    1  O   UNL     1      -9.119  19.470  68.750  1.00  0.00    -0.368 OA 
HETATM    2  C   UNL     1      -9.963  18.698  68.028  1.00  0.00    -0.351 C  
HETATM    3  O   UNL     1     -10.905  19.164  67.409  1.00  0.00    -0.483 OA 
HETATM    4  C   UNL     1      -9.594  17.232  68.092  1.00  0.00    -0.283 C  
ENDROOT
BRANCH   4   5
HETATM    5  C   UNL     1     -10.557  16.374  67.274  1.00  0.00    -0.293 C  
BRANCH   5   6
HETATM    6  C   UNL     1     -11.398  15.461  68.165  1.00  0.00    -0.353 C  
BRANCH   6   7
HETATM    7  C   UNL     1     -11.816  14.201  67.407  1.00  0.00    -0.447 C  
BRANCH   7   8
HETATM    8  C   UNL     1     -10.729  13.742  66.437  1.00  0.00    -0.281 C  
BRANCH   8   9
HETATM    9  C   UNL     1      -9.716  12.836  67.138  1.00  0.00    -0.216 C  
BRANCH   9  10
HETATM   10  C   UNL     1      -9.795  11.401  66.618  1.00  0.00    -0.233 C  
BRANCH  10  11
HETATM   11  C   UNL     1     -11.000  10.668  67.212  1.00  0.00    -0.348 C  
BRANCH  11  12
HETATM   12  C   UNL     1     -10.991  10.730  68.711  1.00  0.00    -0.295 C  
HETATM   13  C   UNL     1     -12.051  11.080  69.451  1.00  0.00    -0.389 C  
ENDBRANCH  11  12
ENDBRANCH  10  11
ENDBRANCH   9  10
ENDBRANCH   8   9
ENDBRANCH   7   8
ENDBRANCH   6   7
ENDBRANCH   5   6
ENDBRANCH   4   5
TORSDOF 8
ENDMDL
MODEL      168
REMARK 921   NORMALIZED FREE ENERGY PREDICTED BY IDOCK:   -3.12 KCAL/MOL
REMARK 922        TOTAL FREE ENERGY PREDICTED BY IDOCK:   -5.06 KCAL/MOL
REMARK 923 INTER-LIGAND FREE ENERGY PREDICTED BY IDOCK:   -4.18 KCAL/MOL
REMARK 924 INTRA-LIGAND FREE ENERGY PREDICTED BY IDOCK:   -0.88 KCAL/MOL
REMARK 927      BINDING AFFINITY PREDICTED BY RF-SCORE:    0.00 PKD
ROOT
HETATM    1  O   UNL     1      -6.075  13.535  67.331  1.00  0.00    -0.330 OA 
HETATM    2  C   UNL     1      -7.019  14.207  68.029  1.00  0.00    -0.145 C  
HETATM    3  O   UNL     1      -6.749  14.883  69.007  1.00  0.00    -0.104 OA 
HETATM    4  C   UNL     1      -8.404  14.010  67.453  1.00  0.00    -0.207 C  
ENDROOT
BRANCH   4   5
HETATM    5  C   UNL     1      -9.458  14.773  68.253  1.00  0.00    -0.207 C  
BRANCH   5   6
HETATM    6  C   UNL     1     -10.625  15.218  67.372  1.00  0.00    -0.282 C  
BRANCH   6   7
HETATM    7  C   UNL     1     -11.870  14.376  67.656  1.00  0.00    -0.412 C  
BRANCH   7   8
HETATM    8  C   UNL     1     -12.387  13.695  66.390  1.00  0.00    -0.441 C  
BRANCH   8   9
HETATM    9  C   UNL     1     -11.591  14.141  65.164  1.00  0.00    -0.344 C  
BRANCH   9  10
HETATM   10  C   UNL     1     -11.724  13.140  64.016  1.00  0.00    -0.496 C  
BRANCH  10  11
HETATM   11  C   UNL     1     -10.419  12.369  63.807  1.00  0.00    -0.475 C  
BRANCH  11  12
HETATM   12  C   UNL     1     -10.477  11.014  64.451  1.00  0.00    -0.422 C  
HETATM   13  C   UNL     1     -10.204  10.788  65.742  1.00  0.00    -0.319 C  
ENDBRANCH  11  12
ENDBRANCH  10  11
ENDBRANCH   9  10
ENDBRANCH   8   9
ENDBRANCH   7   8
ENDBRANCH   6   7
ENDBRANCH   5   6
ENDBRANCH   4   5
TORSDOF 8
ENDMDL
MODEL      169
REMARK 921   NORMALIZED FREE ENERGY PREDICTED BY IDOCK:   -3.12 KCAL/MOL
REMARK 922        TOTAL FREE ENERGY PREDICTED BY IDOCK:   -5.06 KCAL/MOL
REMARK 923 INTER-LIGAND FREE ENERGY PREDICTED BY IDOCK:   -3.93 KCAL/MOL
REMARK 924 INTRA-LIGAND FREE ENERGY PREDICTED BY IDOCK:   -1.13 KCAL/MOL
REMARK 927      BINDING AFFINITY PREDICTED BY RF-SCORE:    0.00 PKD
ROOT
HETATM    1  O   UNL     1      -7.110  10.539  69.872  1.00  0.00    -0.140 OA 
HETATM    2  C   UNL     1      -7.654   9.402  70.364  1.00  0.00    -0.145 C  
HETATM    3  O   UNL     1      -6.972   8.467  70.750  1.00  0.00    -0.042 OA 
HETATM    4  C   UNL     1      -9.166   9.447  70.370  1.00  0.00    -0.305 C  
ENDROOT
BRANCH   4   5
HETATM    5  C   UNL     1      -9.764   8.156  70.926  1.00  0.00    -0.191 C  
BRANCH   5   6
HETATM    6  C   UNL     1     -10.231   8.326  72.372  1.00  0.00    -0.397 C  
BRANCH   6   7
HETATM    7  C   UNL     1     -11.425   7.417  72.665  1.00  0.00    -0.337 C  
BRANCH   7   8
HETATM    8  C   UNL     1     -12.514   7.560  71.602  1.00  0.00    -0.371 C  
BRANCH   8   9
HETATM    9  C   UNL     1     -13.606   8.525  72.064  1.00  0.00    -0.427 C  
BRANCH   9  10
HETATM   10  C   UNL     1     -13.768   9.693  71.091  1.00  0.00    -0.156 C  
BRANCH  10  11
HETATM   11  C   UNL     1     -13.027  10.933  71.595  1.00  0.00    -0.569 C  
BRANCH  11  12
HETATM   12  C   UNL     1     -12.218  11.566  70.501  1.00  0.00    -0.469 C  
HETATM   13  C   UNL     1     -12.154  11.094  69.249  1.00  0.00    -0.377 C  
ENDBRANCH  11  12
ENDBRANCH  10  11
ENDBRANCH   9  10
ENDBRANCH   8   9
ENDBRANCH   7   8
ENDBRANCH   6   7
ENDBRANCH   5   6
ENDBRANCH   4   5
TORSDOF 8
ENDMDL
MODEL      170
REMARK 921   NORMALIZED FREE ENERGY PREDICTED BY IDOCK:   -3.11 KCAL/MOL
REMARK 922        TOTAL FREE ENERGY PREDICTED BY IDOCK:   -5.04 KCAL/MOL
REMARK 923 INTER-LIGAND FREE ENERGY PREDICTED BY IDOCK:   -4.47 KCAL/MOL
REMARK 924 INTRA-LIGAND FREE ENERGY PREDICTED BY IDOCK:   -0.57 KCAL/MOL
REMARK 927      BINDING AFFINITY PREDICTED BY RF-SCORE:    0.00 PKD
ROOT
HETATM    1  O   UNL     1      -6.113  19.211  69.170  1.00  0.00    -0.239 OA 
HETATM    2  C   UNL     1      -7.286  18.632  68.820  1.00  0.00    -0.305 C  
HETATM    3  O   UNL     1      -8.361  19.180  68.996  1.00  0.00    -0.315 OA 
HETATM    4  C   UNL     1      -7.087  17.264  68.205  1.00  0.00    -0.197 C  
ENDROOT
BRANCH   4   5
HETATM    5  C   UNL     1      -8.418  16.624  67.818  1.00  0.00    -0.191 C  
BRANCH   5   6
HETATM    6  C   UNL     1      -8.557  16.480  66.302  1.00  0.00    -0.367 C  
BRANCH   6   7
HETATM    7  C   UNL     1      -9.975  16.048  65.928  1.00  0.00    -0.380 C  
BRANCH   7   8
HETATM    8  C   UNL     1     -10.453  14.881  66.792  1.00  0.00    -0.284 C  
BRANCH   8   9
HETATM    9  C   UNL     1      -9.745  13.584  66.401  1.00  0.00    -0.296 C  
BRANCH   9  10
HETATM   10  C   UNL     1     -10.738  12.436  66.226  1.00  0.00    -0.287 C  
BRANCH  10  11
HETATM   11  C   UNL     1     -12.125  12.962  65.852  1.00  0.00    -0.503 C  
BRANCH  11  12
HETATM   12  C   UNL     1     -12.529  12.506  64.480  1.00  0.00    -0.539 C  
HETATM   13  C   UNL     1     -11.720  12.540  63.413  1.00  0.00    -0.567 C  
ENDBRANCH  11  12
ENDBRANCH  10  11
ENDBRANCH   9  10
ENDBRANCH   8   9
ENDBRANCH   7   8
ENDBRANCH   6   7
ENDBRANCH   5   6
ENDBRANCH   4   5
TORSDOF 8
ENDMDL
MODEL      171
REMARK 921   NORMALIZED FREE ENERGY PREDICTED BY IDOCK:   -3.11 KCAL/MOL
REMARK 922        TOTAL FREE ENERGY PREDICTED BY IDOCK:   -5.04 KCAL/MOL
REMARK 923 INTER-LIGAND FREE ENERGY PREDICTED BY IDOCK:   -4.64 KCAL/MOL
REMARK 924 INTRA-LIGAND FREE ENERGY PREDICTED BY IDOCK:   -0.40 KCAL/MOL
REMARK 927      BINDING AFFINITY PREDICTED BY RF-SCORE:    0.00 PKD
ROOT
HETATM    1  O   UNL     1     -11.927  16.097  63.841  1.00  0.00    -0.947 OA 
HETATM    2  C   UNL     1     -12.191  14.828  64.233  1.00  0.00    -0.379 C  
HETATM    3  O   UNL     1     -12.631  13.988  63.467  1.00  0.00    -0.842 OA 
HETATM    4  C   UNL     1     -11.879  14.605  65.696  1.00  0.00    -0.273 C  
ENDROOT
BRANCH   4   5
HETATM    5  C   UNL     1     -12.185  13.171  66.123  1.00  0.00    -0.451 C  
BRANCH   5   6
HETATM    6  C   UNL     1     -11.058  12.580  66.969  1.00  0.00    -0.326 C  
BRANCH   6   7
HETATM    7  C   UNL     1     -11.017  11.057  66.830  1.00  0.00    -0.311 C  
BRANCH   7   8
HETATM    8  C   UNL     1     -10.139  10.624  65.657  1.00  0.00    -0.335 C  
BRANCH   8   9
HETATM    9  C   UNL     1      -8.823  10.023  66.152  1.00  0.00    -0.165 C  
BRANCH   9  10
HETATM   10  C   UNL     1      -8.767   8.516  65.901  1.00  0.00    -0.203 C  
BRANCH  10  11
HETATM   11  C   UNL     1      -7.489   8.131  65.155  1.00  0.00    -0.081 C  
BRANCH  11  12
HETATM   12  C   UNL     1      -7.767   7.850  63.706  1.00  0.00    -0.135 C  
HETATM   13  C   UNL     1      -8.258   8.755  62.850  1.00  0.00    -0.190 C  
ENDBRANCH  11  12
ENDBRANCH  10  11
ENDBRANCH   9  10
ENDBRANCH   8   9
ENDBRANCH   7   8
ENDBRANCH   6   7
ENDBRANCH   5   6
ENDBRANCH   4   5
TORSDOF 8
ENDMDL
MODEL      172
REMARK 921   NORMALIZED FREE ENERGY PREDICTED BY IDOCK:   -3.10 KCAL/MOL
REMARK 922        TOTAL FREE ENERGY PREDICTED BY IDOCK:   -5.03 KCAL/MOL
REMARK 923 INTER-LIGAND FREE ENERGY PREDICTED BY IDOCK:   -4.62 KCAL/MOL
REMARK 924 INTRA-LIGAND FREE ENERGY PREDICTED BY IDOCK:   -0.41 KCAL/MOL
REMARK 927      BINDING AFFINITY PREDICTED BY RF-SCORE:    0.00 PKD
ROOT
HETATM    1  O   UNL     1     -10.758   6.911  66.787  1.00  0.00    -0.297 OA 
HETATM    2  C   UNL     1     -10.083   7.483  67.811  1.00  0.00    -0.185 C  
HETATM    3  O   UNL     1      -9.221   6.889  68.436  1.00  0.00    -0.127 OA 
HETATM    4  C   UNL     1     -10.530   8.906  68.066  1.00  0.00    -0.263 C  
ENDROOT
BRANCH   4   5
HETATM    5  C   UNL     1      -9.761   9.536  69.225  1.00  0.00    -0.180 C  
BRANCH   5   6
HETATM    6  C   UNL     1     -10.580   9.534  70.515  1.00  0.00    -0.358 C  
BRANCH   6   7
HETATM    7  C   UNL     1     -11.545  10.721  70.545  1.00  0.00    -0.425 C  
BRANCH   7   8
HETATM    8  C   UNL     1     -12.789  10.412  71.378  1.00  0.00    -0.556 C  
BRANCH   8   9
HETATM    9  C   UNL     1     -13.372  11.689  71.984  1.00  0.00    -0.405 C  
BRANCH   9  10
HETATM   10  C   UNL     1     -12.744  12.938  71.366  1.00  0.00    -0.366 C  
BRANCH  10  11
HETATM   11  C   UNL     1     -13.220  14.203  72.084  1.00  0.00    -0.510 C  
BRANCH  11  12
HETATM   12  C   UNL     1     -12.976  15.427  71.250  1.00  0.00    -0.541 C  
HETATM   13  C   UNL     1     -11.819  15.689  70.627  1.00  0.00    -0.409 C  
ENDBRANCH  11  12
ENDBRANCH  10  11
ENDBRANCH   9  10
ENDBRANCH   8   9
ENDBRANCH   7   8
ENDBRANCH   6   7
ENDBRANCH   5   6
ENDBRANCH   4   5
TORSDOF 8
ENDMDL
MODEL      173
REMARK 921   NORMALIZED FREE ENERGY PREDICTED BY IDOCK:   -3.10 KCAL/MOL
REMARK 922        TOTAL FREE ENERGY PREDICTED BY IDOCK:   -5.03 KCAL/MOL
REMARK 923 INTER-LIGAND FREE ENERGY PREDICTED BY IDOCK:   -4.45 KCAL/MOL
REMARK 924 INTRA-LIGAND FREE ENERGY PREDICTED BY IDOCK:   -0.58 KCAL/MOL
REMARK 927      BINDING AFFINITY PREDICTED BY RF-SCORE:    0.00 PKD
ROOT
HETATM    1  O   UNL     1     -11.801  11.858  64.727  1.00  0.00    -0.286 OA 
HETATM    2  C   UNL     1     -12.259  12.910  65.444  1.00  0.00    -0.478 C  
HETATM    3  O   UNL     1     -13.138  13.648  65.030  1.00  0.00    -0.742 OA 
HETATM    4  C   UNL     1     -11.559  13.042  66.778  1.00  0.00    -0.420 C  
ENDROOT
BRANCH   4   5
HETATM    5  C   UNL     1     -12.086  14.235  67.573  1.00  0.00    -0.347 C  
BRANCH   5   6
HETATM    6  C   UNL     1     -11.457  14.311  68.964  1.00  0.00    -0.318 C  
BRANCH   6   7
HETATM    7  C   UNL     1     -11.423  15.755  69.465  1.00  0.00    -0.356 C  
BRANCH   7   8
HETATM    8  C   UNL     1     -10.063  16.405  69.212  1.00  0.00    -0.271 C  
BRANCH   8   9
HETATM    9  C   UNL     1      -8.987  15.347  68.971  1.00  0.00    -0.230 C  
BRANCH   9  10
HETATM   10  C   UNL     1      -7.583  15.933  69.118  1.00  0.00    -0.213 C  
BRANCH  10  11
HETATM   11  C   UNL     1      -7.541  17.383  68.629  1.00  0.00    -0.265 C  
BRANCH  11  12
HETATM   12  C   UNL     1      -6.746  17.507  67.362  1.00  0.00    -0.181 C  
HETATM   13  C   UNL     1      -7.285  17.478  66.136  1.00  0.00    -0.343 C  
ENDBRANCH  11  12
ENDBRANCH  10  11
ENDBRANCH   9  10
ENDBRANCH   8   9
ENDBRANCH   7   8
ENDBRANCH   6   7
ENDBRANCH   5   6
ENDBRANCH   4   5
TORSDOF 8
ENDMDL
MODEL      174
REMARK 921   NORMALIZED FREE ENERGY PREDICTED BY IDOCK:   -3.10 KCAL/MOL
REMARK 922        TOTAL FREE ENERGY PREDICTED BY IDOCK:   -5.02 KCAL/MOL
REMARK 923 INTER-LIGAND FREE ENERGY PREDICTED BY IDOCK:   -4.56 KCAL/MOL
REMARK 924 INTRA-LIGAND FREE ENERGY PREDICTED BY IDOCK:   -0.46 KCAL/MOL
REMARK 927      BINDING AFFINITY PREDICTED BY RF-SCORE:    0.00 PKD
ROOT
HETATM    1  O   UNL     1     -11.289  16.964  64.090  1.00  0.00    -1.208 OA 
HETATM    2  C   UNL     1     -10.816  16.548  65.288  1.00  0.00    -0.221 C  
HETATM    3  O   UNL     1     -10.262  17.305  66.068  1.00  0.00    -0.397 OA 
HETATM    4  C   UNL     1     -11.057  15.073  65.518  1.00  0.00    -0.358 C  
ENDROOT
BRANCH   4   5
HETATM    5  C   UNL     1     -10.516  14.620  66.872  1.00  0.00    -0.270 C  
BRANCH   5   6
HETATM    6  C   UNL     1      -9.359  13.632  66.718  1.00  0.00    -0.269 C  
BRANCH   6   7
HETATM    7  C   UNL     1      -9.146  12.842  68.010  1.00  0.00    -0.207 C  
BRANCH   7   8
HETATM    8  C   UNL     1      -9.498  11.366  67.830  1.00  0.00    -0.167 C  
BRANCH   8   9
HETATM    9  C   UNL     1     -11.005  11.181  67.648  1.00  0.00    -0.323 C  
BRANCH   9  10
HETATM   10  C   UNL     1     -11.792  11.885  68.753  1.00  0.00    -0.371 C  
BRANCH  10  11
HETATM   11  C   UNL     1     -12.392  10.871  69.729  1.00  0.00    -0.326 C  
BRANCH  11  12
HETATM   12  C   UNL     1     -12.276  11.348  71.148  1.00  0.00    -0.330 C  
HETATM   13  C   UNL     1     -12.745  10.670  72.205  1.00  0.00    -0.117 C  
ENDBRANCH  11  12
ENDBRANCH  10  11
ENDBRANCH   9  10
ENDBRANCH   8   9
ENDBRANCH   7   8
ENDBRANCH   6   7
ENDBRANCH   5   6
ENDBRANCH   4   5
TORSDOF 8
ENDMDL
MODEL      175
REMARK 921   NORMALIZED FREE ENERGY PREDICTED BY IDOCK:   -3.09 KCAL/MOL
REMARK 922        TOTAL FREE ENERGY PREDICTED BY IDOCK:   -5.01 KCAL/MOL
REMARK 923 INTER-LIGAND FREE ENERGY PREDICTED BY IDOCK:   -4.30 KCAL/MOL
REMARK 924 INTRA-LIGAND FREE ENERGY PREDICTED BY IDOCK:   -0.71 KCAL/MOL
REMARK 927      BINDING AFFINITY PREDICTED BY RF-SCORE:    0.00 PKD
ROOT
HETATM    1  O   UNL     1     -10.463  20.114  69.280  1.00  0.00    -0.218 OA 
HETATM    2  C   UNL     1      -9.720  19.061  68.867  1.00  0.00    -0.385 C  
HETATM    3  O   UNL     1     -10.178  17.933  68.784  1.00  0.00    -0.367 OA 
HETATM    4  C   UNL     1      -8.298  19.458  68.537  1.00  0.00    -0.399 C  
ENDROOT
BRANCH   4   5
HETATM    5  C   UNL     1      -7.474  18.258  68.075  1.00  0.00    -0.247 C  
BRANCH   5   6
HETATM    6  C   UNL     1      -7.423  18.159  66.551  1.00  0.00    -0.269 C  
BRANCH   6   7
HETATM    7  C   UNL     1      -7.913  16.789  66.080  1.00  0.00    -0.273 C  
BRANCH   7   8
HETATM    8  C   UNL     1      -8.057  15.813  67.247  1.00  0.00    -0.217 C  
BRANCH   8   9
HETATM    9  C   UNL     1      -9.191  14.820  66.993  1.00  0.00    -0.248 C  
BRANCH   9  10
HETATM   10  C   UNL     1     -10.319  15.455  66.180  1.00  0.00    -0.325 C  
BRANCH  10  11
HETATM   11  C   UNL     1     -10.645  14.615  64.944  1.00  0.00    -0.446 C  
BRANCH  11  12
HETATM   12  C   UNL     1     -12.127  14.443  64.778  1.00  0.00    -0.462 C  
HETATM   13  C   UNL     1     -12.868  13.594  65.502  1.00  0.00    -0.443 C  
ENDBRANCH  11  12
ENDBRANCH  10  11
ENDBRANCH   9  10
ENDBRANCH   8   9
ENDBRANCH   7   8
ENDBRANCH   6   7
ENDBRANCH   5   6
ENDBRANCH   4   5
TORSDOF 8
ENDMDL
MODEL      176
REMARK 921   NORMALIZED FREE ENERGY PREDICTED BY IDOCK:   -3.09 KCAL/MOL
REMARK 922        TOTAL FREE ENERGY PREDICTED BY IDOCK:   -5.01 KCAL/MOL
REMARK 923 INTER-LIGAND FREE ENERGY PREDICTED BY IDOCK:   -4.02 KCAL/MOL
REMARK 924 INTRA-LIGAND FREE ENERGY PREDICTED BY IDOCK:   -0.99 KCAL/MOL
REMARK 927      BINDING AFFINITY PREDICTED BY RF-SCORE:    0.00 PKD
ROOT
HETATM    1  O   UNL     1     -10.028   7.503  73.750  1.00  0.00    -0.305 OA 
HETATM    2  C   UNL     1      -9.407   8.296  72.845  1.00  0.00    -0.254 C  
HETATM    3  O   UNL     1      -8.258   8.679  72.994  1.00  0.00    -0.402 OA 
HETATM    4  C   UNL     1     -10.298   8.630  71.670  1.00  0.00    -0.366 C  
ENDROOT
BRANCH   4   5
HETATM    5  C   UNL     1      -9.583   9.526  70.660  1.00  0.00    -0.292 C  
BRANCH   5   6
HETATM    6  C   UNL     1     -10.475   9.852  69.462  1.00  0.00    -0.261 C  
BRANCH   6   7
HETATM    7  C   UNL     1      -9.681   9.768  68.158  1.00  0.00    -0.163 C  
BRANCH   7   8
HETATM    8  C   UNL     1     -10.430   8.967  67.094  1.00  0.00    -0.333 C  
BRANCH   8   9
HETATM    9  C   UNL     1      -9.967   7.510  67.079  1.00  0.00    -0.304 C  
BRANCH   9  10
HETATM   10  C   UNL     1     -11.125   6.553  67.358  1.00  0.00    -0.411 C  
BRANCH  10  11
HETATM   11  C   UNL     1     -11.263   6.280  68.857  1.00  0.00    -0.387 C  
BRANCH  11  12
HETATM   12  C   UNL     1      -9.986   5.740  69.432  1.00  0.00    -0.244 C  
HETATM   13  C   UNL     1      -9.819   4.468  69.818  1.00  0.00    -0.295 C  
ENDBRANCH  11  12
ENDBRANCH  10  11
ENDBRANCH   9  10
ENDBRANCH   8   9
ENDBRANCH   7   8
ENDBRANCH   6   7
ENDBRANCH   5   6
ENDBRANCH   4   5
TORSDOF 8
ENDMDL
MODEL      177
REMARK 921   NORMALIZED FREE ENERGY PREDICTED BY IDOCK:   -3.08 KCAL/MOL
REMARK 922        TOTAL FREE ENERGY PREDICTED BY IDOCK:   -5.00 KCAL/MOL
REMARK 923 INTER-LIGAND FREE ENERGY PREDICTED BY IDOCK:   -4.40 KCAL/MOL
REMARK 924 INTRA-LIGAND FREE ENERGY PREDICTED BY IDOCK:   -0.60 KCAL/MOL
REMARK 927      BINDING AFFINITY PREDICTED BY RF-SCORE:    0.00 PKD
ROOT
HETATM    1  O   UNL     1     -10.866   5.261  66.396  1.00  0.00    -0.292 OA 
HETATM    2  C   UNL     1     -10.749   6.252  67.311  1.00  0.00    -0.349 C  
HETATM    3  O   UNL     1     -11.168   6.140  68.450  1.00  0.00    -0.330 OA 
HETATM    4  C   UNL     1     -10.054   7.471  66.747  1.00  0.00    -0.313 C  
ENDROOT
BRANCH   4   5
HETATM    5  C   UNL     1      -9.931   8.580  67.790  1.00  0.00    -0.241 C  
BRANCH   5   6
HETATM    6  C   UNL     1     -10.711   9.829  67.382  1.00  0.00    -0.314 C  
BRANCH   6   7
HETATM    7  C   UNL     1      -9.757  10.966  67.011  1.00  0.00    -0.203 C  
BRANCH   7   8
HETATM    8  C   UNL     1     -10.172  12.283  67.665  1.00  0.00    -0.208 C  
BRANCH   8   9
HETATM    9  C   UNL     1     -11.693  12.381  67.782  1.00  0.00    -0.413 C  
BRANCH   9  10
HETATM   10  C   UNL     1     -12.260  13.433  66.829  1.00  0.00    -0.367 C  
BRANCH  10  11
HETATM   11  C   UNL     1     -12.433  12.860  65.420  1.00  0.00    -0.511 C  
BRANCH  11  12
HETATM   12  C   UNL     1     -12.076  13.874  64.373  1.00  0.00    -0.477 C  
HETATM   13  C   UNL     1     -11.458  15.033  64.634  1.00  0.00    -0.382 C  
ENDBRANCH  11  12
ENDBRANCH  10  11
ENDBRANCH   9  10
ENDBRANCH   8   9
ENDBRANCH   7   8
ENDBRANCH   6   7
ENDBRANCH   5   6
ENDBRANCH   4   5
TORSDOF 8
ENDMDL
MODEL      178
REMARK 921   NORMALIZED FREE ENERGY PREDICTED BY IDOCK:   -3.07 KCAL/MOL
REMARK 922        TOTAL FREE ENERGY PREDICTED BY IDOCK:   -4.98 KCAL/MOL
REMARK 923 INTER-LIGAND FREE ENERGY PREDICTED BY IDOCK:   -4.54 KCAL/MOL
REMARK 924 INTRA-LIGAND FREE ENERGY PREDICTED BY IDOCK:   -0.44 KCAL/MOL
REMARK 927      BINDING AFFINITY PREDICTED BY RF-SCORE:    0.00 PKD
ROOT
HETATM    1  O   UNL     1      -6.017  20.657  70.581  1.00  0.00    -0.547 OA 
HETATM    2  C   UNL     1      -6.138  20.282  69.286  1.00  0.00    -0.336 C  
HETATM    3  O   UNL     1      -5.633  20.916  68.374  1.00  0.00    -0.290 OA 
HETATM    4  C   UNL     1      -6.956  19.019  69.130  1.00  0.00    -0.346 C  
ENDROOT
BRANCH   4   5
HETATM    5  C   UNL     1      -7.084  18.611  67.664  1.00  0.00    -0.219 C  
BRANCH   5   6
HETATM    6  C   UNL     1      -8.547  18.481  67.239  1.00  0.00    -0.268 C  
BRANCH   6   7
HETATM    7  C   UNL     1      -8.774  17.177  66.473  1.00  0.00    -0.293 C  
BRANCH   7   8
HETATM    8  C   UNL     1      -9.380  16.098  67.370  1.00  0.00    -0.220 C  
BRANCH   8   9
HETATM    9  C   UNL     1     -10.676  15.552  66.769  1.00  0.00    -0.305 C  
BRANCH   9  10
HETATM   10  C   UNL     1     -10.761  15.838  65.270  1.00  0.00    -0.446 C  
BRANCH  10  11
HETATM   11  C   UNL     1     -11.712  14.860  64.578  1.00  0.00    -0.388 C  
BRANCH  11  12
HETATM   12  C   UNL     1     -11.238  13.443  64.725  1.00  0.00    -0.360 C  
HETATM   13  C   UNL     1     -11.103  12.590  63.701  1.00  0.00    -0.523 C  
ENDBRANCH  11  12
ENDBRANCH  10  11
ENDBRANCH   9  10
ENDBRANCH   8   9
ENDBRANCH   7   8
ENDBRANCH   6   7
ENDBRANCH   5   6
ENDBRANCH   4   5
TORSDOF 8
ENDMDL
MODEL      179
REMARK 921   NORMALIZED FREE ENERGY PREDICTED BY IDOCK:   -3.06 KCAL/MOL
REMARK 922        TOTAL FREE ENERGY PREDICTED BY IDOCK:   -4.97 KCAL/MOL
REMARK 923 INTER-LIGAND FREE ENERGY PREDICTED BY IDOCK:   -4.56 KCAL/MOL
REMARK 924 INTRA-LIGAND FREE ENERGY PREDICTED BY IDOCK:   -0.41 KCAL/MOL
REMARK 927      BINDING AFFINITY PREDICTED BY RF-SCORE:    0.00 PKD
ROOT
HETATM    1  O   UNL     1     -14.408   9.023  72.608  1.00  0.00    -0.603 OA 
HETATM    2  C   UNL     1     -13.094   8.853  72.334  1.00  0.00    -0.418 C  
HETATM    3  O   UNL     1     -12.439   7.946  72.820  1.00  0.00    -0.092 OA 
HETATM    4  C   UNL     1     -12.568   9.903  71.381  1.00  0.00    -0.497 C  
ENDROOT
BRANCH   4   5
HETATM    5  C   UNL     1     -11.083   9.698  71.084  1.00  0.00    -0.444 C  
BRANCH   5   6
HETATM    6  C   UNL     1     -10.682  10.323  69.748  1.00  0.00    -0.328 C  
BRANCH   6   7
HETATM    7  C   UNL     1     -10.123   9.261  68.800  1.00  0.00    -0.210 C  
BRANCH   7   8
HETATM    8  C   UNL     1      -9.714   9.866  67.458  1.00  0.00    -0.193 C  
BRANCH   8   9
HETATM    9  C   UNL     1     -10.754  10.876  66.973  1.00  0.00    -0.323 C  
BRANCH   9  10
HETATM   10  C   UNL     1     -10.133  12.254  66.751  1.00  0.00    -0.224 C  
BRANCH  10  11
HETATM   11  C   UNL     1     -10.577  12.846  65.412  1.00  0.00    -0.308 C  
BRANCH  11  12
HETATM   12  C   UNL     1     -11.105  11.782  64.494  1.00  0.00    -0.376 C  
HETATM   13  C   UNL     1     -12.254  11.886  63.813  1.00  0.00    -0.549 C  
ENDBRANCH  11  12
ENDBRANCH  10  11
ENDBRANCH   9  10
ENDBRANCH   8   9
ENDBRANCH   7   8
ENDBRANCH   6   7
ENDBRANCH   5   6
ENDBRANCH   4   5
TORSDOF 8
ENDMDL
MODEL      180
REMARK 921   NORMALIZED FREE ENERGY PREDICTED BY IDOCK:   -3.05 KCAL/MOL
REMARK 922        TOTAL FREE ENERGY PREDICTED BY IDOCK:   -4.96 KCAL/MOL
REMARK 923 INTER-LIGAND FREE ENERGY PREDICTED BY IDOCK:   -4.11 KCAL/MOL
REMARK 924 INTRA-LIGAND FREE ENERGY PREDICTED BY IDOCK:   -0.85 KCAL/MOL
REMARK 927      BINDING AFFINITY PREDICTED BY RF-SCORE:    0.00 PKD
ROOT
HETATM    1  O   UNL     1     -10.580   9.771  67.004  1.00  0.00    -0.239 OA 
HETATM    2  C   UNL     1     -11.228  10.608  67.847  1.00  0.00    -0.308 C  
HETATM    3  O   UNL     1     -11.843  11.585  67.451  1.00  0.00    -0.607 OA 
HETATM    4  C   UNL     1     -11.090  10.184  69.293  1.00  0.00    -0.270 C  
ENDROOT
BRANCH   4   5
HETATM    5  C   UNL     1     -11.825  11.140  70.230  1.00  0.00    -0.455 C  
BRANCH   5   6
HETATM    6  C   UNL     1     -12.437  10.405  71.422  1.00  0.00    -0.521 C  
BRANCH   6   7
HETATM    7  C   UNL     1     -12.490   8.899  71.160  1.00  0.00    -0.260 C  
BRANCH   7   8
HETATM    8  C   UNL     1     -12.209   8.097  72.430  1.00  0.00    -0.374 C  
BRANCH   8   9
HETATM    9  C   UNL     1     -10.726   8.153  72.796  1.00  0.00    -0.391 C  
BRANCH   9  10
HETATM   10  C   UNL     1      -9.845   7.726  71.622  1.00  0.00    -0.201 C  
BRANCH  10  11
HETATM   11  C   UNL     1      -8.599   8.608  71.523  1.00  0.00    -0.256 C  
BRANCH  11  12
HETATM   12  C   UNL     1      -7.648   8.339  72.653  1.00  0.00    -0.160 C  
HETATM   13  C   UNL     1      -6.898   7.234  72.751  1.00  0.00    -0.068 C  
ENDBRANCH  11  12
ENDBRANCH  10  11
ENDBRANCH   9  10
ENDBRANCH   8   9
ENDBRANCH   7   8
ENDBRANCH   6   7
ENDBRANCH   5   6
ENDBRANCH   4   5
TORSDOF 8
ENDMDL
MODEL      181
REMARK 921   NORMALIZED FREE ENERGY PREDICTED BY IDOCK:   -3.04 KCAL/MOL
REMARK 922        TOTAL FREE ENERGY PREDICTED BY IDOCK:   -4.94 KCAL/MOL
REMARK 923 INTER-LIGAND FREE ENERGY PREDICTED BY IDOCK:   -4.34 KCAL/MOL
REMARK 924 INTRA-LIGAND FREE ENERGY PREDICTED BY IDOCK:   -0.60 KCAL/MOL
REMARK 927      BINDING AFFINITY PREDICTED BY RF-SCORE:    0.00 PKD
ROOT
HETATM    1  O   UNL     1     -12.508  11.954  71.359  1.00  0.00    -0.272 OA 
HETATM    2  C   UNL     1     -12.381  12.777  70.291  1.00  0.00    -0.204 C  
HETATM    3  O   UNL     1     -12.636  13.968  70.353  1.00  0.00    -0.336 OA 
HETATM    4  C   UNL     1     -11.898  12.045  69.059  1.00  0.00    -0.372 C  
ENDROOT
BRANCH   4   5
HETATM    5  C   UNL     1     -11.761  12.986  67.864  1.00  0.00    -0.402 C  
BRANCH   5   6
HETATM    6  C   UNL     1     -10.328  13.025  67.335  1.00  0.00    -0.234 C  
BRANCH   6   7
HETATM    7  C   UNL     1     -10.075  14.314  66.551  1.00  0.00    -0.283 C  
BRANCH   7   8
HETATM    8  C   UNL     1     -10.855  15.490  67.137  1.00  0.00    -0.316 C  
BRANCH   8   9
HETATM    9  C   UNL     1      -9.968  16.333  68.054  1.00  0.00    -0.240 C  
BRANCH   9  10
HETATM   10  C   UNL     1      -9.139  17.340  67.258  1.00  0.00    -0.231 C  
BRANCH  10  11
HETATM   11  C   UNL     1     -10.018  18.118  66.276  1.00  0.00    -0.342 C  
BRANCH  11  12
HETATM   12  C   UNL     1     -10.668  19.296  66.942  1.00  0.00    -0.543 C  
HETATM   13  C   UNL     1      -9.992  20.332  67.455  1.00  0.00    -0.567 C  
ENDBRANCH  11  12
ENDBRANCH  10  11
ENDBRANCH   9  10
ENDBRANCH   8   9
ENDBRANCH   7   8
ENDBRANCH   6   7
ENDBRANCH   5   6
ENDBRANCH   4   5
TORSDOF 8
ENDMDL
MODEL      182
REMARK 921   NORMALIZED FREE ENERGY PREDICTED BY IDOCK:   -3.04 KCAL/MOL
REMARK 922        TOTAL FREE ENERGY PREDICTED BY IDOCK:   -4.94 KCAL/MOL
REMARK 923 INTER-LIGAND FREE ENERGY PREDICTED BY IDOCK:   -4.32 KCAL/MOL
REMARK 924 INTRA-LIGAND FREE ENERGY PREDICTED BY IDOCK:   -0.63 KCAL/MOL
REMARK 927      BINDING AFFINITY PREDICTED BY RF-SCORE:    0.00 PKD
ROOT
HETATM    1  O   UNL     1      -8.940   3.663  66.297  1.00  0.00    -0.128 OA 
HETATM    2  C   UNL     1      -9.186   4.973  66.534  1.00  0.00    -0.135 C  
HETATM    3  O   UNL     1      -8.309   5.819  66.484  1.00  0.00    -0.109 OA 
HETATM    4  C   UNL     1     -10.640   5.232  66.859  1.00  0.00    -0.283 C  
ENDROOT
BRANCH   4   5
HETATM    5  C   UNL     1     -10.899   6.714  67.126  1.00  0.00    -0.471 C  
BRANCH   5   6
HETATM    6  C   UNL     1     -10.925   7.024  68.623  1.00  0.00    -0.144 C  
BRANCH   6   7
HETATM    7  C   UNL     1     -10.948   5.733  69.442  1.00  0.00    -0.352 C  
BRANCH   7   8
HETATM    8  C   UNL     1     -11.044   6.020  70.940  1.00  0.00    -0.352 C  
BRANCH   8   9
HETATM    9  C   UNL     1     -12.256   6.898  71.252  1.00  0.00    -0.427 C  
BRANCH   9  10
HETATM   10  C   UNL     1     -11.902   8.008  72.241  1.00  0.00    -0.424 C  
BRANCH  10  11
HETATM   11  C   UNL     1     -11.061   9.095  71.569  1.00  0.00    -0.436 C  
BRANCH  11  12
HETATM   12  C   UNL     1     -11.929  10.168  70.979  1.00  0.00    -0.474 C  
HETATM   13  C   UNL     1     -13.012  10.671  71.585  1.00  0.00    -0.582 C  
ENDBRANCH  11  12
ENDBRANCH  10  11
ENDBRANCH   9  10
ENDBRANCH   8   9
ENDBRANCH   7   8
ENDBRANCH   6   7
ENDBRANCH   5   6
ENDBRANCH   4   5
TORSDOF 8
ENDMDL
MODEL      183
REMARK 921   NORMALIZED FREE ENERGY PREDICTED BY IDOCK:   -3.04 KCAL/MOL
REMARK 922        TOTAL FREE ENERGY PREDICTED BY IDOCK:   -4.94 KCAL/MOL
REMARK 923 INTER-LIGAND FREE ENERGY PREDICTED BY IDOCK:   -3.91 KCAL/MOL
REMARK 924 INTRA-LIGAND FREE ENERGY PREDICTED BY IDOCK:   -1.04 KCAL/MOL
REMARK 927      BINDING AFFINITY PREDICTED BY RF-SCORE:    0.00 PKD
ROOT
HETATM    1  O   UNL     1      -8.345   7.354  72.591  1.00  0.00    -0.104 OA 
HETATM    2  C   UNL     1      -9.356   6.627  72.061  1.00  0.00    -0.142 C  
HETATM    3  O   UNL     1      -9.241   6.021  71.009  1.00  0.00    -0.155 OA 
HETATM    4  C   UNL     1     -10.601   6.668  72.919  1.00  0.00    -0.272 C  
ENDROOT
BRANCH   4   5
HETATM    5  C   UNL     1     -11.732   5.844  72.307  1.00  0.00    -0.309 C  
BRANCH   5   6
HETATM    6  C   UNL     1     -12.582   6.676  71.347  1.00  0.00    -0.257 C  
BRANCH   6   7
HETATM    7  C   UNL     1     -13.770   7.303  72.080  1.00  0.00    -0.212 C  
BRANCH   7   8
HETATM    8  C   UNL     1     -14.055   8.718  71.580  1.00  0.00    -0.383 C  
BRANCH   8   9
HETATM    9  C   UNL     1     -13.048   9.715  72.154  1.00  0.00    -0.520 C  
BRANCH   9  10
HETATM   10  C   UNL     1     -13.018  11.010  71.343  1.00  0.00    -0.517 C  
BRANCH  10  11
HETATM   11  C   UNL     1     -11.920  10.966  70.279  1.00  0.00    -0.448 C  
BRANCH  11  12
HETATM   12  C   UNL     1     -10.823  10.017  70.666  1.00  0.00    -0.367 C  
HETATM   13  C   UNL     1     -10.157   9.248  69.795  1.00  0.00    -0.218 C  
ENDBRANCH  11  12
ENDBRANCH  10  11
ENDBRANCH   9  10
ENDBRANCH   8   9
ENDBRANCH   7   8
ENDBRANCH   6   7
ENDBRANCH   5   6
ENDBRANCH   4   5
TORSDOF 8
ENDMDL
MODEL      184
REMARK 921   NORMALIZED FREE ENERGY PREDICTED BY IDOCK:   -3.02 KCAL/MOL
REMARK 922        TOTAL FREE ENERGY PREDICTED BY IDOCK:   -4.91 KCAL/MOL
REMARK 923 INTER-LIGAND FREE ENERGY PREDICTED BY IDOCK:   -4.32 KCAL/MOL
REMARK 924 INTRA-LIGAND FREE ENERGY PREDICTED BY IDOCK:   -0.58 KCAL/MOL
REMARK 927      BINDING AFFINITY PREDICTED BY RF-SCORE:    0.00 PKD
ROOT
HETATM    1  O   UNL     1     -10.505   6.422  73.881  1.00  0.00    -0.289 OA 
HETATM    2  C   UNL     1     -10.315   7.556  73.166  1.00  0.00    -0.347 C  
HETATM    3  O   UNL     1      -9.233   8.116  73.109  1.00  0.00    -0.261 OA 
HETATM    4  C   UNL     1     -11.580   8.015  72.476  1.00  0.00    -0.464 C  
ENDROOT
BRANCH   4   5
HETATM    5  C   UNL     1     -11.349   9.296  71.676  1.00  0.00    -0.467 C  
BRANCH   5   6
HETATM    6  C   UNL     1     -12.654  10.052  71.429  1.00  0.00    -0.518 C  
BRANCH   6   7
HETATM    7  C   UNL     1     -12.393  11.345  70.655  1.00  0.00    -0.466 C  
BRANCH   7   8
HETATM    8  C   UNL     1     -11.991  11.062  69.208  1.00  0.00    -0.410 C  
BRANCH   8   9
HETATM    9  C   UNL     1     -10.753  11.869  68.816  1.00  0.00    -0.257 C  
BRANCH   9  10
HETATM   10  C   UNL     1      -9.512  10.981  68.725  1.00  0.00    -0.190 C  
BRANCH  10  11
HETATM   11  C   UNL     1      -8.992  10.911  67.288  1.00  0.00    -0.139 C  
BRANCH  11  12
HETATM   12  C   UNL     1      -8.932   9.492  66.799  1.00  0.00    -0.157 C  
HETATM   13  C   UNL     1     -10.011   8.766  66.480  1.00  0.00    -0.360 C  
ENDBRANCH  11  12
ENDBRANCH  10  11
ENDBRANCH   9  10
ENDBRANCH   8   9
ENDBRANCH   7   8
ENDBRANCH   6   7
ENDBRANCH   5   6
ENDBRANCH   4   5
TORSDOF 8
ENDMDL
MODEL      185
REMARK 921   NORMALIZED FREE ENERGY PREDICTED BY IDOCK:   -3.01 KCAL/MOL
REMARK 922        TOTAL FREE ENERGY PREDICTED BY IDOCK:   -4.90 KCAL/MOL
REMARK 923 INTER-LIGAND FREE ENERGY PREDICTED BY IDOCK:   -4.42 KCAL/MOL
REMARK 924 INTRA-LIGAND FREE ENERGY PREDICTED BY IDOCK:   -0.48 KCAL/MOL
REMARK 927      BINDING AFFINITY PREDICTED BY RF-SCORE:    0.00 PKD
ROOT
HETATM    1  O   UNL     1     -13.468  15.269  71.495  1.00  0.00    -0.416 OA 
HETATM    2  C   UNL     1     -13.573  13.961  71.825  1.00  0.00    -0.385 C  
HETATM    3  O   UNL     1     -14.338  13.567  72.690  1.00  0.00    -0.716 OA 
HETATM    4  C   UNL     1     -12.649  13.088  71.006  1.00  0.00    -0.386 C  
ENDROOT
BRANCH   4   5
HETATM    5  C   UNL     1     -12.779  11.616  71.393  1.00  0.00    -0.445 C  
BRANCH   5   6
HETATM    6  C   UNL     1     -12.322  10.692  70.264  1.00  0.00    -0.406 C  
BRANCH   6   7
HETATM    7  C   UNL     1     -11.123   9.852  70.704  1.00  0.00    -0.409 C  
BRANCH   7   8
HETATM    8  C   UNL     1     -11.550   8.685  71.594  1.00  0.00    -0.379 C  
BRANCH   8   9
HETATM    9  C   UNL     1     -10.995   7.362  71.066  1.00  0.00    -0.268 C  
BRANCH   9  10
HETATM   10  C   UNL     1     -10.643   7.456  69.582  1.00  0.00    -0.243 C  
BRANCH  10  11
HETATM   11  C   UNL     1      -9.225   6.944  69.321  1.00  0.00    -0.139 C  
BRANCH  11  12
HETATM   12  C   UNL     1      -8.294   8.070  68.977  1.00  0.00    -0.129 C  
HETATM   13  C   UNL     1      -7.425   8.037  67.957  1.00  0.00    -0.097 C  
ENDBRANCH  11  12
ENDBRANCH  10  11
ENDBRANCH   9  10
ENDBRANCH   8   9
ENDBRANCH   7   8
ENDBRANCH   6   7
ENDBRANCH   5   6
ENDBRANCH   4   5
TORSDOF 8
ENDMDL
MODEL      186
REMARK 921   NORMALIZED FREE ENERGY PREDICTED BY IDOCK:   -3.00 KCAL/MOL
REMARK 922        TOTAL FREE ENERGY PREDICTED BY IDOCK:   -4.89 KCAL/MOL
REMARK 923 INTER-LIGAND FREE ENERGY PREDICTED BY IDOCK:   -4.17 KCAL/MOL
REMARK 924 INTRA-LIGAND FREE ENERGY PREDICTED BY IDOCK:   -0.72 KCAL/MOL
REMARK 927      BINDING AFFINITY PREDICTED BY RF-SCORE:    0.00 PKD
ROOT
HETATM    1  O   UNL     1     -14.194  14.095  72.669  1.00  0.00    -0.598 OA 
HETATM    2  C   UNL     1     -13.667  14.498  71.489  1.00  0.00    -0.397 C  
HETATM    3  O   UNL     1     -13.905  15.595  71.010  1.00  0.00    -0.567 OA 
HETATM    4  C   UNL     1     -12.779  13.443  70.869  1.00  0.00    -0.349 C  
ENDROOT
BRANCH   4   5
HETATM    5  C   UNL     1     -12.194  13.913  69.538  1.00  0.00    -0.356 C  
BRANCH   5   6
HETATM    6  C   UNL     1     -11.771  12.736  68.660  1.00  0.00    -0.360 C  
BRANCH   6   7
HETATM    7  C   UNL     1     -11.300  13.226  67.289  1.00  0.00    -0.347 C  
BRANCH   7   8
HETATM    8  C   UNL     1      -9.854  13.716  67.335  1.00  0.00    -0.234 C  
BRANCH   8   9
HETATM    9  C   UNL     1      -8.900  12.659  66.777  1.00  0.00    -0.168 C  
BRANCH   9  10
HETATM   10  C   UNL     1      -8.210  11.881  67.897  1.00  0.00    -0.150 C  
BRANCH  10  11
HETATM   11  C   UNL     1      -8.272  10.375  67.637  1.00  0.00    -0.110 C  
BRANCH  11  12
HETATM   12  C   UNL     1      -9.691   9.885  67.607  1.00  0.00    -0.183 C  
HETATM   13  C   UNL     1     -10.137   8.940  66.769  1.00  0.00    -0.350 C  
ENDBRANCH  11  12
ENDBRANCH  10  11
ENDBRANCH   9  10
ENDBRANCH   8   9
ENDBRANCH   7   8
ENDBRANCH   6   7
ENDBRANCH   5   6
ENDBRANCH   4   5
TORSDOF 8
ENDMDL
MODEL      187
REMARK 921   NORMALIZED FREE ENERGY PREDICTED BY IDOCK:   -3.00 KCAL/MOL
REMARK 922        TOTAL FREE ENERGY PREDICTED BY IDOCK:   -4.88 KCAL/MOL
REMARK 923 INTER-LIGAND FREE ENERGY PREDICTED BY IDOCK:   -3.96 KCAL/MOL
REMARK 924 INTRA-LIGAND FREE ENERGY PREDICTED BY IDOCK:   -0.92 KCAL/MOL
REMARK 927      BINDING AFFINITY PREDICTED BY RF-SCORE:    0.00 PKD
ROOT
HETATM    1  O   UNL     1      -9.265  16.191  69.304  1.00  0.00    -0.255 OA 
HETATM    2  C   UNL     1     -10.348  15.827  68.578  1.00  0.00    -0.229 C  
HETATM    3  O   UNL     1     -11.346  16.523  68.503  1.00  0.00    -0.356 OA 
HETATM    4  C   UNL     1     -10.157  14.489  67.899  1.00  0.00    -0.227 C  
ENDROOT
BRANCH   4   5
HETATM    5  C   UNL     1     -11.387  14.092  67.085  1.00  0.00    -0.348 C  
BRANCH   5   6
HETATM    6  C   UNL     1     -11.123  12.854  66.227  1.00  0.00    -0.317 C  
BRANCH   6   7
HETATM    7  C   UNL     1     -10.351  11.800  67.022  1.00  0.00    -0.243 C  
BRANCH   7   8
HETATM    8  C   UNL     1     -11.233  10.603  67.371  1.00  0.00    -0.280 C  
BRANCH   8   9
HETATM    9  C   UNL     1     -10.627   9.793  68.519  1.00  0.00    -0.252 C  
BRANCH   9  10
HETATM   10  C   UNL     1     -10.529  10.625  69.798  1.00  0.00    -0.189 C  
BRANCH  10  11
HETATM   11  C   UNL     1     -11.643  10.255  70.779  1.00  0.00    -0.446 C  
BRANCH  11  12
HETATM   12  C   UNL     1     -12.481  11.450  71.128  1.00  0.00    -0.465 C  
HETATM   13  C   UNL     1     -12.396  12.631  70.501  1.00  0.00    -0.350 C  
ENDBRANCH  11  12
ENDBRANCH  10  11
ENDBRANCH   9  10
ENDBRANCH   8   9
ENDBRANCH   7   8
ENDBRANCH   6   7
ENDBRANCH   5   6
ENDBRANCH   4   5
TORSDOF 8
ENDMDL
MODEL      188
REMARK 921   NORMALIZED FREE ENERGY PREDICTED BY IDOCK:   -3.00 KCAL/MOL
REMARK 922        TOTAL FREE ENERGY PREDICTED BY IDOCK:   -4.88 KCAL/MOL
REMARK 923 INTER-LIGAND FREE ENERGY PREDICTED BY IDOCK:   -3.70 KCAL/MOL
REMARK 924 INTRA-LIGAND FREE ENERGY PREDICTED BY IDOCK:   -1.18 KCAL/MOL
REMARK 927      BINDING AFFINITY PREDICTED BY RF-SCORE:    0.00 PKD
ROOT
HETATM    1  O   UNL     1      -6.669  15.301  68.431  1.00  0.00    -0.104 OA 
HETATM    2  C   UNL     1      -7.243  15.718  67.278  1.00  0.00    -0.219 C  
HETATM    3  O   UNL     1      -6.648  16.407  66.466  1.00  0.00    -0.245 OA 
HETATM    4  C   UNL     1      -8.669  15.234  67.142  1.00  0.00    -0.234 C  
ENDROOT
BRANCH   4   5
HETATM    5  C   UNL     1      -9.303  15.715  65.838  1.00  0.00    -0.357 C  
BRANCH   5   6
HETATM    6  C   UNL     1     -10.178  14.636  65.202  1.00  0.00    -0.414 C  
BRANCH   6   7
HETATM    7  C   UNL     1     -11.616  14.733  65.713  1.00  0.00    -0.290 C  
BRANCH   7   8
HETATM    8  C   UNL     1     -12.144  13.373  66.169  1.00  0.00    -0.481 C  
BRANCH   8   9
HETATM    9  C   UNL     1     -11.747  13.090  67.618  1.00  0.00    -0.415 C  
BRANCH   9  10
HETATM   10  C   UNL     1     -10.872  11.841  67.724  1.00  0.00    -0.258 C  
BRANCH  10  11
HETATM   11  C   UNL     1     -10.639  11.217  66.347  1.00  0.00    -0.315 C  
BRANCH  11  12
HETATM   12  C   UNL     1      -9.177  10.989  66.092  1.00  0.00    -0.209 C  
HETATM   13  C   UNL     1      -8.196  11.600  66.769  1.00  0.00    -0.161 C  
ENDBRANCH  11  12
ENDBRANCH  10  11
ENDBRANCH   9  10
ENDBRANCH   8   9
ENDBRANCH   7   8
ENDBRANCH   6   7
ENDBRANCH   5   6
ENDBRANCH   4   5
TORSDOF 8
ENDMDL
MODEL      189
REMARK 921   NORMALIZED FREE ENERGY PREDICTED BY IDOCK:   -2.98 KCAL/MOL
REMARK 922        TOTAL FREE ENERGY PREDICTED BY IDOCK:   -4.86 KCAL/MOL
REMARK 923 INTER-LIGAND FREE ENERGY PREDICTED BY IDOCK:   -4.19 KCAL/MOL
REMARK 924 INTRA-LIGAND FREE ENERGY PREDICTED BY IDOCK:   -0.66 KCAL/MOL
REMARK 927      BINDING AFFINITY PREDICTED BY RF-SCORE:    0.00 PKD
ROOT
HETATM    1  O   UNL     1     -11.784  16.526  63.827  1.00  0.00    -1.086 OA 
HETATM    2  C   UNL     1     -11.274  15.964  64.947  1.00  0.00    -0.337 C  
HETATM    3  O   UNL     1     -11.579  14.840  65.309  1.00  0.00    -0.349 OA 
HETATM    4  C   UNL     1     -10.310  16.885  65.661  1.00  0.00    -0.254 C  
ENDROOT
BRANCH   4   5
HETATM    5  C   UNL     1      -9.745  16.237  66.923  1.00  0.00    -0.247 C  
BRANCH   5   6
HETATM    6  C   UNL     1      -8.290  15.807  66.736  1.00  0.00    -0.309 C  
BRANCH   6   7
HETATM    7  C   UNL     1      -8.000  14.526  67.519  1.00  0.00    -0.208 C  
BRANCH   7   8
HETATM    8  C   UNL     1      -9.286  13.867  68.015  1.00  0.00    -0.193 C  
BRANCH   8   9
HETATM    9  C   UNL     1      -9.333  12.391  67.618  1.00  0.00    -0.188 C  
BRANCH   9  10
HETATM   10  C   UNL     1      -9.668  12.222  66.136  1.00  0.00    -0.256 C  
BRANCH  10  11
HETATM   11  C   UNL     1     -10.472  10.942  65.898  1.00  0.00    -0.285 C  
BRANCH  11  12
HETATM   12  C   UNL     1      -9.574   9.741  65.820  1.00  0.00    -0.318 C  
HETATM   13  C   UNL     1      -8.488   9.670  65.039  1.00  0.00    -0.160 C  
ENDBRANCH  11  12
ENDBRANCH  10  11
ENDBRANCH   9  10
ENDBRANCH   8   9
ENDBRANCH   7   8
ENDBRANCH   6   7
ENDBRANCH   5   6
ENDBRANCH   4   5
TORSDOF 8
ENDMDL
MODEL      190
REMARK 921   NORMALIZED FREE ENERGY PREDICTED BY IDOCK:   -2.97 KCAL/MOL
REMARK 922        TOTAL FREE ENERGY PREDICTED BY IDOCK:   -4.85 KCAL/MOL
REMARK 923 INTER-LIGAND FREE ENERGY PREDICTED BY IDOCK:   -3.96 KCAL/MOL
REMARK 924 INTRA-LIGAND FREE ENERGY PREDICTED BY IDOCK:   -0.89 KCAL/MOL
REMARK 927      BINDING AFFINITY PREDICTED BY RF-SCORE:    0.00 PKD
ROOT
HETATM    1  O   UNL     1      -7.921  10.351  65.989  1.00  0.00    -0.132 OA 
HETATM    2  C   UNL     1      -9.190  10.600  66.391  1.00  0.00    -0.168 C  
HETATM    3  O   UNL     1      -9.942  11.324  65.760  1.00  0.00    -0.218 OA 
HETATM    4  C   UNL     1      -9.533   9.886  67.679  1.00  0.00    -0.167 C  
ENDROOT
BRANCH   4   5
HETATM    5  C   UNL     1     -10.966  10.179  68.119  1.00  0.00    -0.313 C  
BRANCH   5   6
HETATM    6  C   UNL     1     -11.019  11.288  69.170  1.00  0.00    -0.292 C  
BRANCH   6   7
HETATM    7  C   UNL     1     -11.955  10.903  70.316  1.00  0.00    -0.448 C  
BRANCH   7   8
HETATM    8  C   UNL     1     -11.504   9.613  71.001  1.00  0.00    -0.444 C  
BRANCH   8   9
HETATM    9  C   UNL     1     -12.687   8.895  71.650  1.00  0.00    -0.403 C  
BRANCH   9  10
HETATM   10  C   UNL     1     -12.813   7.457  71.147  1.00  0.00    -0.305 C  
BRANCH  10  11
HETATM   11  C   UNL     1     -11.434   6.824  70.946  1.00  0.00    -0.384 C  
BRANCH  11  12
HETATM   12  C   UNL     1     -11.261   6.331  69.539  1.00  0.00    -0.500 C  
HETATM   13  C   UNL     1     -10.098   6.359  68.876  1.00  0.00    -0.187 C  
ENDBRANCH  11  12
ENDBRANCH  10  11
ENDBRANCH   9  10
ENDBRANCH   8   9
ENDBRANCH   7   8
ENDBRANCH   6   7
ENDBRANCH   5   6
ENDBRANCH   4   5
TORSDOF 8
ENDMDL
MODEL      191
REMARK 921   NORMALIZED FREE ENERGY PREDICTED BY IDOCK:   -2.97 KCAL/MOL
REMARK 922        TOTAL FREE ENERGY PREDICTED BY IDOCK:   -4.84 KCAL/MOL
REMARK 923 INTER-LIGAND FREE ENERGY PREDICTED BY IDOCK:   -4.38 KCAL/MOL
REMARK 924 INTRA-LIGAND FREE ENERGY PREDICTED BY IDOCK:   -0.47 KCAL/MOL
REMARK 927      BINDING AFFINITY PREDICTED BY RF-SCORE:    0.00 PKD
ROOT
HETATM    1  O   UNL     1      -9.649  10.342  64.086  1.00  0.00    -0.289 OA 
HETATM    2  C   UNL     1     -10.318  10.722  65.199  1.00  0.00    -0.271 C  
HETATM    3  O   UNL     1     -11.046  11.700  65.220  1.00  0.00    -0.292 OA 
HETATM    4  C   UNL     1     -10.047   9.804  66.370  1.00  0.00    -0.313 C  
ENDROOT
BRANCH   4   5
HETATM    5  C   UNL     1     -10.807  10.247  67.619  1.00  0.00    -0.363 C  
BRANCH   5   6
HETATM    6  C   UNL     1     -10.125   9.764  68.898  1.00  0.00    -0.194 C  
BRANCH   6   7
HETATM    7  C   UNL     1     -10.635   8.377  69.293  1.00  0.00    -0.193 C  
BRANCH   7   8
HETATM    8  C   UNL     1     -11.340   8.403  70.648  1.00  0.00    -0.262 C  
BRANCH   8   9
HETATM    9  C   UNL     1     -11.428   9.829  71.192  1.00  0.00    -0.472 C  
BRANCH   9  10
HETATM   10  C   UNL     1     -12.798  10.448  70.917  1.00  0.00    -0.482 C  
BRANCH  10  11
HETATM   11  C   UNL     1     -13.084  11.599  71.883  1.00  0.00    -0.490 C  
BRANCH  11  12
HETATM   12  C   UNL     1     -12.848  12.930  71.230  1.00  0.00    -0.361 C  
HETATM   13  C   UNL     1     -12.087  13.104  70.142  1.00  0.00    -0.392 C  
ENDBRANCH  11  12
ENDBRANCH  10  11
ENDBRANCH   9  10
ENDBRANCH   8   9
ENDBRANCH   7   8
ENDBRANCH   6   7
ENDBRANCH   5   6
ENDBRANCH   4   5
TORSDOF 8
ENDMDL
MODEL      192
REMARK 921   NORMALIZED FREE ENERGY PREDICTED BY IDOCK:   -2.97 KCAL/MOL
REMARK 922        TOTAL FREE ENERGY PREDICTED BY IDOCK:   -4.84 KCAL/MOL
REMARK 923 INTER-LIGAND FREE ENERGY PREDICTED BY IDOCK:   -3.98 KCAL/MOL
REMARK 924 INTRA-LIGAND FREE ENERGY PREDICTED BY IDOCK:   -0.86 KCAL/MOL
REMARK 927      BINDING AFFINITY PREDICTED BY RF-SCORE:    0.00 PKD
ROOT
HETATM    1  O   UNL     1      -9.409   7.152  70.202  1.00  0.00    -0.159 OA 
HETATM    2  C   UNL     1      -9.770   8.373  70.661  1.00  0.00    -0.178 C  
HETATM    3  O   UNL     1      -9.079   9.006  71.442  1.00  0.00    -0.239 OA 
HETATM    4  C   UNL     1     -11.097   8.828  70.095  1.00  0.00    -0.214 C  
ENDROOT
BRANCH   4   5
HETATM    5  C   UNL     1     -11.490  10.206  70.624  1.00  0.00    -0.432 C  
BRANCH   5   6
HETATM    6  C   UNL     1     -11.309  11.292  69.564  1.00  0.00    -0.362 C  
BRANCH   6   7
HETATM    7  C   UNL     1     -11.359  10.691  68.159  1.00  0.00    -0.354 C  
BRANCH   7   8
HETATM    8  C   UNL     1     -10.191  11.173  67.300  1.00  0.00    -0.227 C  
BRANCH   8   9
HETATM    9  C   UNL     1     -10.638  11.424  65.860  1.00  0.00    -0.317 C  
BRANCH   9  10
HETATM   10  C   UNL     1     -11.801  12.413  65.799  1.00  0.00    -0.467 C  
BRANCH  10  11
HETATM   11  C   UNL     1     -11.339  13.825  66.165  1.00  0.00    -0.320 C  
BRANCH  11  12
HETATM   12  C   UNL     1     -12.043  14.328  67.392  1.00  0.00    -0.371 C  
HETATM   13  C   UNL     1     -11.448  15.045  68.354  1.00  0.00    -0.340 C  
ENDBRANCH  11  12
ENDBRANCH  10  11
ENDBRANCH   9  10
ENDBRANCH   8   9
ENDBRANCH   7   8
ENDBRANCH   6   7
ENDBRANCH   5   6
ENDBRANCH   4   5
TORSDOF 8
ENDMDL
MODEL      193
REMARK 921   NORMALIZED FREE ENERGY PREDICTED BY IDOCK:   -2.96 KCAL/MOL
REMARK 922        TOTAL FREE ENERGY PREDICTED BY IDOCK:   -4.82 KCAL/MOL
REMARK 923 INTER-LIGAND FREE ENERGY PREDICTED BY IDOCK:   -4.40 KCAL/MOL
REMARK 924 INTRA-LIGAND FREE ENERGY PREDICTED BY IDOCK:   -0.42 KCAL/MOL
REMARK 927      BINDING AFFINITY PREDICTED BY RF-SCORE:    0.00 PKD
ROOT
HETATM    1  O   UNL     1      -8.283  15.280  67.007  1.00  0.00    -0.202 OA 
HETATM    2  C   UNL     1      -9.222  15.791  66.178  1.00  0.00    -0.350 C  
HETATM    3  O   UNL     1      -9.200  16.953  65.806  1.00  0.00    -0.527 OA 
HETATM    4  C   UNL     1     -10.263  14.765  65.791  1.00  0.00    -0.359 C  
ENDROOT
BRANCH   4   5
HETATM    5  C   UNL     1     -11.317  15.358  64.857  1.00  0.00    -0.367 C  
BRANCH   5   6
HETATM    6  C   UNL     1     -12.186  14.273  64.222  1.00  0.00    -0.451 C  
BRANCH   6   7
HETATM    7  C   UNL     1     -11.871  12.904  64.827  1.00  0.00    -0.409 C  
BRANCH   7   8
HETATM    8  C   UNL     1     -11.504  11.885  63.750  1.00  0.00    -0.542 C  
BRANCH   8   9
HETATM    9  C   UNL     1     -10.002  11.908  63.464  1.00  0.00    -0.422 C  
BRANCH   9  10
HETATM   10  C   UNL     1      -9.567  10.682  62.662  1.00  0.00    -0.293 C  
BRANCH  10  11
HETATM   11  C   UNL     1      -8.781   9.704  63.538  1.00  0.00    -0.236 C  
BRANCH  11  12
HETATM   12  C   UNL     1      -8.406   8.468  62.773  1.00  0.00    -0.154 C  
HETATM   13  C   UNL     1      -7.183   7.922  62.789  1.00  0.00    -0.090 C  
ENDBRANCH  11  12
ENDBRANCH  10  11
ENDBRANCH   9  10
ENDBRANCH   8   9
ENDBRANCH   7   8
ENDBRANCH   6   7
ENDBRANCH   5   6
ENDBRANCH   4   5
TORSDOF 8
ENDMDL
MODEL      194
REMARK 921   NORMALIZED FREE ENERGY PREDICTED BY IDOCK:   -2.96 KCAL/MOL
REMARK 922        TOTAL FREE ENERGY PREDICTED BY IDOCK:   -4.82 KCAL/MOL
REMARK 923 INTER-LIGAND FREE ENERGY PREDICTED BY IDOCK:   -4.19 KCAL/MOL
REMARK 924 INTRA-LIGAND FREE ENERGY PREDICTED BY IDOCK:   -0.63 KCAL/MOL
REMARK 927      BINDING AFFINITY PREDICTED BY RF-SCORE:    0.00 PKD
ROOT
HETATM    1  O   UNL     1      -9.161   9.374  62.590  1.00  0.00    -0.252 OA 
HETATM    2  C   UNL     1      -9.426  10.546  63.213  1.00  0.00    -0.325 C  
HETATM    3  O   UNL     1      -9.301  11.623  62.655  1.00  0.00    -0.330 OA 
HETATM    4  C   UNL     1      -9.881  10.344  64.641  1.00  0.00    -0.405 C  
ENDROOT
BRANCH   4   5
HETATM    5  C   UNL     1     -10.175  11.675  65.330  1.00  0.00    -0.306 C  
BRANCH   5   6
HETATM    6  C   UNL     1      -9.107  12.024  66.367  1.00  0.00    -0.193 C  
BRANCH   6   7
HETATM    7  C   UNL     1      -9.665  12.984  67.418  1.00  0.00    -0.213 C  
BRANCH   7   8
HETATM    8  C   UNL     1     -10.881  13.746  66.892  1.00  0.00    -0.286 C  
BRANCH   8   9
HETATM    9  C   UNL     1     -12.079  13.576  67.827  1.00  0.00    -0.316 C  
BRANCH   9  10
HETATM   10  C   UNL     1     -11.639  13.160  69.230  1.00  0.00    -0.370 C  
BRANCH  10  11
HETATM   11  C   UNL     1     -12.381  13.965  70.299  1.00  0.00    -0.413 C  
BRANCH  11  12
HETATM   12  C   UNL     1     -12.184  15.441  70.103  1.00  0.00    -0.407 C  
HETATM   13  C   UNL     1     -10.986  16.039  70.080  1.00  0.00    -0.369 C  
ENDBRANCH  11  12
ENDBRANCH  10  11
ENDBRANCH   9  10
ENDBRANCH   8   9
ENDBRANCH   7   8
ENDBRANCH   6   7
ENDBRANCH   5   6
ENDBRANCH   4   5
TORSDOF 8
ENDMDL
MODEL      195
REMARK 921   NORMALIZED FREE ENERGY PREDICTED BY IDOCK:   -2.95 KCAL/MOL
REMARK 922        TOTAL FREE ENERGY PREDICTED BY IDOCK:   -4.81 KCAL/MOL
REMARK 923 INTER-LIGAND FREE ENERGY PREDICTED BY IDOCK:   -3.87 KCAL/MOL
REMARK 924 INTRA-LIGAND FREE ENERGY PREDICTED BY IDOCK:   -0.94 KCAL/MOL
REMARK 927      BINDING AFFINITY PREDICTED BY RF-SCORE:    0.00 PKD
ROOT
HETATM    1  O   UNL     1     -13.090  13.560  71.640  1.00  0.00    -0.357 OA 
HETATM    2  C   UNL     1     -12.707  14.462  70.706  1.00  0.00    -0.360 C  
HETATM    3  O   UNL     1     -13.181  15.584  70.651  1.00  0.00    -0.432 OA 
HETATM    4  C   UNL     1     -11.651  13.908  69.776  1.00  0.00    -0.335 C  
ENDROOT
BRANCH   4   5
HETATM    5  C   UNL     1     -11.231  14.937  68.728  1.00  0.00    -0.288 C  
BRANCH   5   6
HETATM    6  C   UNL     1     -10.588  14.274  67.510  1.00  0.00    -0.261 C  
BRANCH   6   7
HETATM    7  C   UNL     1     -11.057  14.944  66.218  1.00  0.00    -0.340 C  
BRANCH   7   8
HETATM    8  C   UNL     1     -10.502  16.362  66.087  1.00  0.00    -0.321 C  
BRANCH   8   9
HETATM    9  C   UNL     1      -8.973  16.356  66.123  1.00  0.00    -0.367 C  
BRANCH   9  10
HETATM   10  C   UNL     1      -8.433  17.415  67.083  1.00  0.00    -0.227 C  
BRANCH  10  11
HETATM   11  C   UNL     1      -7.244  16.877  67.881  1.00  0.00    -0.159 C  
BRANCH  11  12
HETATM   12  C   UNL     1      -7.688  16.282  69.186  1.00  0.00    -0.229 C  
HETATM   13  C   UNL     1      -7.257  15.104  69.656  1.00  0.00    -0.194 C  
ENDBRANCH  11  12
ENDBRANCH  10  11
ENDBRANCH   9  10
ENDBRANCH   8   9
ENDBRANCH   7   8
ENDBRANCH   6   7
ENDBRANCH   5   6
ENDBRANCH   4   5
TORSDOF 8
ENDMDL
MODEL      196
REMARK 921   NORMALIZED FREE ENERGY PREDICTED BY IDOCK:   -2.94 KCAL/MOL
REMARK 922        TOTAL FREE ENERGY PREDICTED BY IDOCK:   -4.79 KCAL/MOL
REMARK 923 INTER-LIGAND FREE ENERGY PREDICTED BY IDOCK:   -4.28 KCAL/MOL
REMARK 924 INTRA-LIGAND FREE ENERGY PREDICTED BY IDOCK:   -0.52 KCAL/MOL
REMARK 927      BINDING AFFINITY PREDICTED BY RF-SCORE:    0.00 PKD
ROOT
HETATM    1  O   UNL     1      -7.055   6.902  73.579  1.00  0.00    -0.075 OA 
HETATM    2  C   UNL     1      -8.271   6.402  73.258  1.00  0.00    -0.114 C  
HETATM    3  O   UNL     1      -8.408   5.312  72.727  1.00  0.00    -0.112 OA 
HETATM    4  C   UNL     1      -9.393   7.343  73.634  1.00  0.00    -0.306 C  
ENDROOT
BRANCH   4   5
HETATM    5  C   UNL     1     -10.758   6.765  73.265  1.00  0.00    -0.330 C  
BRANCH   5   6
HETATM    6  C   UNL     1     -11.675   7.825  72.655  1.00  0.00    -0.364 C  
BRANCH   6   7
HETATM    7  C   UNL     1     -11.259   8.139  71.217  1.00  0.00    -0.297 C  
BRANCH   7   8
HETATM    8  C   UNL     1     -10.719   9.563  71.087  1.00  0.00    -0.408 C  
BRANCH   8   9
HETATM    9  C   UNL     1     -11.452  10.327  69.983  1.00  0.00    -0.367 C  
BRANCH   9  10
HETATM   10  C   UNL     1     -12.899  10.625  70.376  1.00  0.00    -0.277 C  
BRANCH  10  11
HETATM   11  C   UNL     1     -12.971  11.259  71.766  1.00  0.00    -0.519 C  
BRANCH  11  12
HETATM   12  C   UNL     1     -12.936  12.757  71.684  1.00  0.00    -0.402 C  
HETATM   13  C   UNL     1     -13.737  13.564  72.393  1.00  0.00    -0.704 C  
ENDBRANCH  11  12
ENDBRANCH  10  11
ENDBRANCH   9  10
ENDBRANCH   8   9
ENDBRANCH   7   8
ENDBRANCH   6   7
ENDBRANCH   5   6
ENDBRANCH   4   5
TORSDOF 8
ENDMDL
MODEL      197
REMARK 921   NORMALIZED FREE ENERGY PREDICTED BY IDOCK:   -2.94 KCAL/MOL
REMARK 922        TOTAL FREE ENERGY PREDICTED BY IDOCK:   -4.79 KCAL/MOL
REMARK 923 INTER-LIGAND FREE ENERGY PREDICTED BY IDOCK:   -4.17 KCAL/MOL
REMARK 924 INTRA-LIGAND FREE ENERGY PREDICTED BY IDOCK:   -0.62 KCAL/MOL
REMARK 927      BINDING AFFINITY PREDICTED BY RF-SCORE:    0.00 PKD
ROOT
HETATM    1  O   UNL     1      -9.219   8.357  71.919  1.00  0.00    -0.190 OA 
HETATM    2  C   UNL     1     -10.545   8.599  72.040  1.00  0.00    -0.351 C  
HETATM    3  O   UNL     1     -11.230   8.062  72.895  1.00  0.00    -0.401 OA 
HETATM    4  C   UNL     1     -11.042   9.587  71.009  1.00  0.00    -0.433 C  
ENDROOT
BRANCH   4   5
HETATM    5  C   UNL     1     -12.540   9.848  71.158  1.00  0.00    -0.464 C  
BRANCH   5   6
HETATM    6  C   UNL     1     -12.816  11.143  71.922  1.00  0.00    -0.400 C  
BRANCH   6   7
HETATM    7  C   UNL     1     -13.140  12.283  70.955  1.00  0.00    -0.019 C  
BRANCH   7   8
HETATM    8  C   UNL     1     -12.570  13.613  71.446  1.00  0.00    -0.415 C  
BRANCH   8   9
HETATM    9  C   UNL     1     -11.637  14.227  70.402  1.00  0.00    -0.264 C  
BRANCH   9  10
HETATM   10  C   UNL     1     -12.009  13.781  68.988  1.00  0.00    -0.399 C  
BRANCH  10  11
HETATM   11  C   UNL     1     -10.759  13.441  68.173  1.00  0.00    -0.267 C  
BRANCH  11  12
HETATM   12  C   UNL     1     -11.057  12.411  67.124  1.00  0.00    -0.328 C  
HETATM   13  C   UNL     1     -10.122  11.828  66.362  1.00  0.00    -0.239 C  
ENDBRANCH  11  12
ENDBRANCH  10  11
ENDBRANCH   9  10
ENDBRANCH   8   9
ENDBRANCH   7   8
ENDBRANCH   6   7
ENDBRANCH   5   6
ENDBRANCH   4   5
TORSDOF 8
ENDMDL
MODEL      198
REMARK 921   NORMALIZED FREE ENERGY PREDICTED BY IDOCK:   -2.93 KCAL/MOL
REMARK 922        TOTAL FREE ENERGY PREDICTED BY IDOCK:   -4.79 KCAL/MOL
REMARK 923 INTER-LIGAND FREE ENERGY PREDICTED BY IDOCK:   -4.13 KCAL/MOL
REMARK 924 INTRA-LIGAND FREE ENERGY PREDICTED BY IDOCK:   -0.65 KCAL/MOL
REMARK 927      BINDING AFFINITY PREDICTED BY RF-SCORE:    0.00 PKD
ROOT
HETATM    1  O   UNL     1     -12.959  14.062  72.980  1.00  0.00    -0.452 OA 
HETATM    2  C   UNL     1     -12.949  13.071  72.058  1.00  0.00    -0.291 C  
HETATM    3  O   UNL     1     -13.361  11.949  72.302  1.00  0.00    -0.471 OA 
HETATM    4  C   UNL     1     -12.379  13.528  70.733  1.00  0.00    -0.440 C  
ENDROOT
BRANCH   4   5
HETATM    5  C   UNL     1     -12.373  12.398  69.705  1.00  0.00    -0.077 C  
BRANCH   5   6
HETATM    6  C   UNL     1     -10.954  11.923  69.394  1.00  0.00    -0.156 C  
BRANCH   6   7
HETATM    7  C   UNL     1     -10.671  10.582  70.074  1.00  0.00    -0.282 C  
BRANCH   7   8
HETATM    8  C   UNL     1     -11.953   9.777  70.282  1.00  0.00    -0.156 C  
BRANCH   8   9
HETATM    9  C   UNL     1     -11.639   8.372  70.799  1.00  0.00    -0.252 C  
BRANCH   9  10
HETATM   10  C   UNL     1     -11.999   8.228  72.277  1.00  0.00    -0.448 C  
BRANCH  10  11
HETATM   11  C   UNL     1     -10.895   7.497  73.043  1.00  0.00    -0.445 C  
BRANCH  11  12
HETATM   12  C   UNL     1      -9.551   8.115  72.783  1.00  0.00    -0.353 C  
HETATM   13  C   UNL     1      -8.542   8.105  73.663  1.00  0.00    -0.312 C  
ENDBRANCH  11  12
ENDBRANCH  10  11
ENDBRANCH   9  10
ENDBRANCH   8   9
ENDBRANCH   7   8
ENDBRANCH   6   7
ENDBRANCH   5   6
ENDBRANCH   4   5
TORSDOF 8
ENDMDL
MODEL      199
REMARK 921   NORMALIZED FREE ENERGY PREDICTED BY IDOCK:   -2.93 KCAL/MOL
REMARK 922        TOTAL FREE ENERGY PREDICTED BY IDOCK:   -4.79 KCAL/MOL
REMARK 923 INTER-LIGAND FREE ENERGY PREDICTED BY IDOCK:   -3.79 KCAL/MOL
REMARK 924 INTRA-LIGAND FREE ENERGY PREDICTED BY IDOCK:   -0.99 KCAL/MOL
REMARK 927      BINDING AFFINITY PREDICTED BY RF-SCORE:    0.00 PKD
ROOT
HETATM    1  O   UNL     1      -5.672  15.736  67.722  1.00  0.00    -0.131 OA 
HETATM    2  C   UNL     1      -5.934  16.467  68.831  1.00  0.00    -0.134 C  
HETATM    3  O   UNL     1      -6.651  16.055  69.728  1.00  0.00    -0.195 OA 
HETATM    4  C   UNL     1      -5.244  17.812  68.805  1.00  0.00    -0.156 C  
ENDROOT
BRANCH   4   5
HETATM    5  C   UNL     1      -5.552  18.625  70.061  1.00  0.00    -0.239 C  
BRANCH   5   6
HETATM    6  C   UNL     1      -6.312  19.910  69.733  1.00  0.00    -0.402 C  
BRANCH   6   7
HETATM    7  C   UNL     1      -5.919  20.432  68.350  1.00  0.00    -0.324 C  
BRANCH   7   8
HETATM    8  C   UNL     1      -7.148  20.801  67.519  1.00  0.00    -0.397 C  
BRANCH   8   9
HETATM    9  C   UNL     1      -7.052  20.214  66.110  1.00  0.00    -0.303 C  
BRANCH   9  10
HETATM   10  C   UNL     1      -7.425  18.732  66.095  1.00  0.00    -0.287 C  
BRANCH  10  11
HETATM   11  C   UNL     1      -8.555  18.441  67.084  1.00  0.00    -0.262 C  
BRANCH  11  12
HETATM   12  C   UNL     1      -9.899  18.712  66.472  1.00  0.00    -0.388 C  
HETATM   13  C   UNL     1     -10.779  19.595  66.960  1.00  0.00    -0.575 C  
ENDBRANCH  11  12
ENDBRANCH  10  11
ENDBRANCH   9  10
ENDBRANCH   8   9
ENDBRANCH   7   8
ENDBRANCH   6   7
ENDBRANCH   5   6
ENDBRANCH   4   5
TORSDOF 8
ENDMDL
MODEL      200
REMARK 921   NORMALIZED FREE ENERGY PREDICTED BY IDOCK:   -2.91 KCAL/MOL
REMARK 922        TOTAL FREE ENERGY PREDICTED BY IDOCK:   -4.76 KCAL/MOL
REMARK 923 INTER-LIGAND FREE ENERGY PREDICTED BY IDOCK:   -3.95 KCAL/MOL
REMARK 924 INTRA-LIGAND FREE ENERGY PREDICTED BY IDOCK:   -0.81 KCAL/MOL
REMARK 927      BINDING AFFINITY PREDICTED BY RF-SCORE:    0.00 PKD
ROOT
HETATM    1  O   UNL     1      -9.769   5.993  70.608  1.00  0.00    -0.170 OA 
HETATM    2  C   UNL     1     -10.420   6.406  69.496  1.00  0.00    -0.230 C  
HETATM    3  O   UNL     1     -11.607   6.191  69.318  1.00  0.00    -0.329 OA 
HETATM    4  C   UNL     1      -9.508   7.143  68.540  1.00  0.00    -0.139 C  
ENDROOT
BRANCH   4   5
HETATM    5  C   UNL     1     -10.257   7.600  67.290  1.00  0.00    -0.342 C  
BRANCH   5   6
HETATM    6  C   UNL     1     -10.619   9.083  67.358  1.00  0.00    -0.309 C  
BRANCH   6   7
HETATM    7  C   UNL     1      -9.537   9.936  66.695  1.00  0.00    -0.235 C  
BRANCH   7   8
HETATM    8  C   UNL     1     -10.095  10.742  65.523  1.00  0.00    -0.335 C  
BRANCH   8   9
HETATM    9  C   UNL     1     -10.303  12.205  65.915  1.00  0.00    -0.286 C  
BRANCH   9  10
HETATM   10  C   UNL     1     -11.770  12.497  66.228  1.00  0.00    -0.462 C  
BRANCH  10  11
HETATM   11  C   UNL     1     -11.900  13.401  67.456  1.00  0.00    -0.408 C  
BRANCH  11  12
HETATM   12  C   UNL     1     -11.140  12.844  68.625  1.00  0.00    -0.307 C  
HETATM   13  C   UNL     1     -11.627  11.915  69.459  1.00  0.00    -0.394 C  
ENDBRANCH  11  12
ENDBRANCH  10  11
ENDBRANCH   9  10
ENDBRANCH   8   9
ENDBRANCH   7   8
ENDBRANCH   6   7
ENDBRANCH   5   6
ENDBRANCH   4   5
TORSDOF 8
ENDMDL
MODEL      201
REMARK 921   NORMALIZED FREE ENERGY PREDICTED BY IDOCK:   -2.90 KCAL/MOL
REMARK 922        TOTAL FREE ENERGY PREDICTED BY IDOCK:   -4.73 KCAL/MOL
REMARK 923 INTER-LIGAND FREE ENERGY PREDICTED BY IDOCK:   -4.23 KCAL/MOL
REMARK 924 INTRA-LIGAND FREE ENERGY PREDICTED BY IDOCK:   -0.51 KCAL/MOL
REMARK 927      BINDING AFFINITY PREDICTED BY RF-SCORE:    0.00 PKD
ROOT
HETATM    1  O   UNL     1      -7.654  14.582  68.789  1.00  0.00    -0.120 OA 
HETATM    2  C   UNL     1      -8.210  13.541  68.125  1.00  0.00    -0.162 C  
HETATM    3  O   UNL     1      -7.542  12.742  67.491  1.00  0.00    -0.140 OA 
HETATM    4  C   UNL     1      -9.715  13.507  68.272  1.00  0.00    -0.224 C  
ENDROOT
BRANCH   4   5
HETATM    5  C   UNL     1     -10.326  12.329  67.516  1.00  0.00    -0.214 C  
BRANCH   5   6
HETATM    6  C   UNL     1     -11.722  11.986  68.035  1.00  0.00    -0.398 C  
BRANCH   6   7
HETATM    7  C   UNL     1     -11.635  11.127  69.297  1.00  0.00    -0.388 C  
BRANCH   7   8
HETATM    8  C   UNL     1     -12.217  11.851  70.511  1.00  0.00    -0.426 C  
BRANCH   8   9
HETATM    9  C   UNL     1     -12.853  10.861  71.486  1.00  0.00    -0.560 C  
BRANCH   9  10
HETATM   10  C   UNL     1     -12.058   9.557  71.557  1.00  0.00    -0.468 C  
BRANCH  10  11
HETATM   11  C   UNL     1     -12.988   8.355  71.730  1.00  0.00    -0.368 C  
BRANCH  11  12
HETATM   12  C   UNL     1     -12.327   7.085  71.281  1.00  0.00    -0.426 C  
HETATM   13  C   UNL     1     -11.471   7.011  70.253  1.00  0.00    -0.333 C  
ENDBRANCH  11  12
ENDBRANCH  10  11
ENDBRANCH   9  10
ENDBRANCH   8   9
ENDBRANCH   7   8
ENDBRANCH   6   7
ENDBRANCH   5   6
ENDBRANCH   4   5
TORSDOF 8
ENDMDL
MODEL      202
REMARK 921   NORMALIZED FREE ENERGY PREDICTED BY IDOCK:   -2.89 KCAL/MOL
REMARK 922        TOTAL FREE ENERGY PREDICTED BY IDOCK:   -4.73 KCAL/MOL
REMARK 923 INTER-LIGAND FREE ENERGY PREDICTED BY IDOCK:   -3.99 KCAL/MOL
REMARK 924 INTRA-LIGAND FREE ENERGY PREDICTED BY IDOCK:   -0.73 KCAL/MOL
REMARK 927      BINDING AFFINITY PREDICTED BY RF-SCORE:    0.00 PKD
ROOT
HETATM    1  O   UNL     1      -9.066   9.365  62.346  1.00  0.00    -0.265 OA 
HETATM    2  C   UNL     1      -9.306  10.468  63.093  1.00  0.00    -0.320 C  
HETATM    3  O   UNL     1      -9.358  11.586  62.606  1.00  0.00    -0.341 OA 
HETATM    4  C   UNL     1      -9.491  10.138  64.557  1.00  0.00    -0.364 C  
ENDROOT
BRANCH   4   5
HETATM    5  C   UNL     1      -9.759  11.393  65.386  1.00  0.00    -0.265 C  
BRANCH   5   6
HETATM    6  C   UNL     1     -11.161  11.948  65.136  1.00  0.00    -0.346 C  
BRANCH   6   7
HETATM    7  C   UNL     1     -11.223  13.437  65.479  1.00  0.00    -0.303 C  
BRANCH   7   8
HETATM    8  C   UNL     1     -10.131  13.830  66.472  1.00  0.00    -0.286 C  
BRANCH   8   9
HETATM    9  C   UNL     1     -10.725  14.556  67.680  1.00  0.00    -0.254 C  
BRANCH   9  10
HETATM   10  C   UNL     1     -12.081  13.969  68.072  1.00  0.00    -0.312 C  
BRANCH  10  11
HETATM   11  C   UNL     1     -11.952  13.062  69.297  1.00  0.00    -0.331 C  
BRANCH  11  12
HETATM   12  C   UNL     1     -10.993  11.935  69.041  1.00  0.00    -0.267 C  
HETATM   13  C   UNL     1     -11.371  10.692  68.714  1.00  0.00    -0.339 C  
ENDBRANCH  11  12
ENDBRANCH  10  11
ENDBRANCH   9  10
ENDBRANCH   8   9
ENDBRANCH   7   8
ENDBRANCH   6   7
ENDBRANCH   5   6
ENDBRANCH   4   5
TORSDOF 8
ENDMDL
MODEL      203
REMARK 921   NORMALIZED FREE ENERGY PREDICTED BY IDOCK:   -2.89 KCAL/MOL
REMARK 922        TOTAL FREE ENERGY PREDICTED BY IDOCK:   -4.72 KCAL/MOL
REMARK 923 INTER-LIGAND FREE ENERGY PREDICTED BY IDOCK:   -3.67 KCAL/MOL
REMARK 924 INTRA-LIGAND FREE ENERGY PREDICTED BY IDOCK:   -1.05 KCAL/MOL
REMARK 927      BINDING AFFINITY PREDICTED BY RF-SCORE:    0.00 PKD
ROOT
HETATM    1  O   UNL     1     -13.365  12.218  72.160  1.00  0.00    -0.526 OA 
HETATM    2  C   UNL     1     -12.654  12.315  71.012  1.00  0.00    -0.257 C  
HETATM    3  O   UNL     1     -12.213  13.378  70.607  1.00  0.00    -0.356 OA 
HETATM    4  C   UNL     1     -12.488  10.977  70.327  1.00  0.00    -0.365 C  
ENDROOT
BRANCH   4   5
HETATM    5  C   UNL     1     -11.686  11.104  69.034  1.00  0.00    -0.408 C  
BRANCH   5   6
HETATM    6  C   UNL     1     -10.262  10.573  69.196  1.00  0.00    -0.241 C  
BRANCH   6   7
HETATM    7  C   UNL     1      -9.248  11.553  68.604  1.00  0.00    -0.136 C  
BRANCH   7   8
HETATM    8  C   UNL     1      -9.937  12.765  67.978  1.00  0.00    -0.225 C  
BRANCH   8   9
HETATM    9  C   UNL     1      -9.695  12.814  66.470  1.00  0.00    -0.255 C  
BRANCH   9  10
HETATM   10  C   UNL     1      -8.880  11.611  65.995  1.00  0.00    -0.105 C  
BRANCH  10  11
HETATM   11  C   UNL     1      -9.737  10.668  65.149  1.00  0.00    -0.327 C  
BRANCH  11  12
HETATM   12  C   UNL     1      -9.601   9.246  65.612  1.00  0.00    -0.324 C  
HETATM   13  C   UNL     1      -8.541   8.777  66.282  1.00  0.00    -0.144 C  
ENDBRANCH  11  12
ENDBRANCH  10  11
ENDBRANCH   9  10
ENDBRANCH   8   9
ENDBRANCH   7   8
ENDBRANCH   6   7
ENDBRANCH   5   6
ENDBRANCH   4   5
TORSDOF 8
ENDMDL
MODEL      204
REMARK 921   NORMALIZED FREE ENERGY PREDICTED BY IDOCK:   -2.89 KCAL/MOL
REMARK 922        TOTAL FREE ENERGY PREDICTED BY IDOCK:   -4.72 KCAL/MOL
REMARK 923 INTER-LIGAND FREE ENERGY PREDICTED BY IDOCK:   -4.30 KCAL/MOL
REMARK 924 INTRA-LIGAND FREE ENERGY PREDICTED BY IDOCK:   -0.42 KCAL/MOL
REMARK 927      BINDING AFFINITY PREDICTED BY RF-SCORE:    0.00 PKD
ROOT
HETATM    1  O   UNL     1     -14.410   8.877  72.700  1.00  0.00    -0.613 OA 
HETATM    2  C   UNL     1     -13.350   9.448  72.081  1.00  0.00    -0.468 C  
HETATM    3  O   UNL     1     -13.146  10.650  72.117  1.00  0.00    -0.460 OA 
HETATM    4  C   UNL     1     -12.489   8.432  71.366  1.00  0.00    -0.313 C  
ENDROOT
BRANCH   4   5
HETATM    5  C   UNL     1     -11.300   9.093  70.671  1.00  0.00    -0.323 C  
BRANCH   5   6
HETATM    6  C   UNL     1     -10.240   8.069  70.265  1.00  0.00    -0.200 C  
BRANCH   6   7
HETATM    7  C   UNL     1     -10.517   7.533  68.860  1.00  0.00    -0.214 C  
BRANCH   7   8
HETATM    8  C   UNL     1     -11.041   6.098  68.898  1.00  0.00    -0.417 C  
BRANCH   8   9
HETATM    9  C   UNL     1     -10.818   5.471  70.275  1.00  0.00    -0.285 C  
BRANCH   9  10
HETATM   10  C   UNL     1      -9.550   4.618  70.301  1.00  0.00    -0.270 C  
BRANCH  10  11
HETATM   11  C   UNL     1      -9.398   3.903  71.646  1.00  0.00    -0.202 C  
BRANCH  11  12
HETATM   12  C   UNL     1      -9.770   4.805  72.787  1.00  0.00    -0.171 C  
HETATM   13  C   UNL     1     -10.905   4.692  73.489  1.00  0.00    -0.362 C  
ENDBRANCH  11  12
ENDBRANCH  10  11
ENDBRANCH   9  10
ENDBRANCH   8   9
ENDBRANCH   7   8
ENDBRANCH   6   7
ENDBRANCH   5   6
ENDBRANCH   4   5
TORSDOF 8
ENDMDL
MODEL      205
REMARK 921   NORMALIZED FREE ENERGY PREDICTED BY IDOCK:   -2.89 KCAL/MOL
REMARK 922        TOTAL FREE ENERGY PREDICTED BY IDOCK:   -4.71 KCAL/MOL
REMARK 923 INTER-LIGAND FREE ENERGY PREDICTED BY IDOCK:   -3.81 KCAL/MOL
REMARK 924 INTRA-LIGAND FREE ENERGY PREDICTED BY IDOCK:   -0.91 KCAL/MOL
REMARK 927      BINDING AFFINITY PREDICTED BY RF-SCORE:    0.00 PKD
ROOT
HETATM    1  O   UNL     1      -6.076  13.881  70.458  1.00  0.00    -0.173 OA 
HETATM    2  C   UNL     1      -6.517  13.675  69.195  1.00  0.00    -0.107 C  
HETATM    3  O   UNL     1      -5.959  12.909  68.427  1.00  0.00    -0.065 OA 
HETATM    4  C   UNL     1      -7.748  14.495  68.879  1.00  0.00    -0.132 C  
ENDROOT
BRANCH   4   5
HETATM    5  C   UNL     1      -8.231  14.253  67.450  1.00  0.00    -0.217 C  
BRANCH   5   6
HETATM    6  C   UNL     1      -9.252  13.117  67.383  1.00  0.00    -0.213 C  
BRANCH   6   7
HETATM    7  C   UNL     1     -10.484  13.446  68.226  1.00  0.00    -0.256 C  
BRANCH   7   8
HETATM    8  C   UNL     1     -11.736  12.756  67.685  1.00  0.00    -0.422 C  
BRANCH   8   9
HETATM    9  C   UNL     1     -11.378  11.758  66.584  1.00  0.00    -0.381 C  
BRANCH   9  10
HETATM   10  C   UNL     1     -11.869  12.233  65.217  1.00  0.00    -0.411 C  
BRANCH  10  11
HETATM   11  C   UNL     1     -12.700  13.512  65.347  1.00  0.00    -0.495 C  
BRANCH  11  12
HETATM   12  C   UNL     1     -12.121  14.623  64.521  1.00  0.00    -0.490 C  
HETATM   13  C   UNL     1     -11.005  15.291  64.843  1.00  0.00    -0.445 C  
ENDBRANCH  11  12
ENDBRANCH  10  11
ENDBRANCH   9  10
ENDBRANCH   8   9
ENDBRANCH   7   8
ENDBRANCH   6   7
ENDBRANCH   5   6
ENDBRANCH   4   5
TORSDOF 8
ENDMDL
MODEL      206
REMARK 921   NORMALIZED FREE ENERGY PREDICTED BY IDOCK:   -2.88 KCAL/MOL
REMARK 922        TOTAL FREE ENERGY PREDICTED BY IDOCK:   -4.71 KCAL/MOL
REMARK 923 INTER-LIGAND FREE ENERGY PREDICTED BY IDOCK:   -4.10 KCAL/MOL
REMARK 924 INTRA-LIGAND FREE ENERGY PREDICTED BY IDOCK:   -0.61 KCAL/MOL
REMARK 927      BINDING AFFINITY PREDICTED BY RF-SCORE:    0.00 PKD
ROOT
HETATM    1  O   UNL     1     -11.250  16.899  64.235  1.00  0.00    -1.204 OA 
HETATM    2  C   UNL     1     -10.765  17.132  65.477  1.00  0.00    -0.117 C  
HETATM    3  O   UNL     1     -10.376  16.233  66.203  1.00  0.00    -0.314 OA 
HETATM    4  C   UNL     1     -10.772  18.604  65.827  1.00  0.00    -0.224 C  
ENDROOT
BRANCH   4   5
HETATM    5  C   UNL     1     -10.224  18.849  67.231  1.00  0.00    -0.454 C  
BRANCH   5   6
HETATM    6  C   UNL     1      -8.719  19.116  67.213  1.00  0.00    -0.310 C  
BRANCH   6   7
HETATM    7  C   UNL     1      -8.170  19.222  68.636  1.00  0.00    -0.408 C  
BRANCH   7   8
HETATM    8  C   UNL     1      -7.042  18.221  68.879  1.00  0.00    -0.286 C  
BRANCH   8   9
HETATM    9  C   UNL     1      -7.298  16.914  68.129  1.00  0.00    -0.180 C  
BRANCH   9  10
HETATM   10  C   UNL     1      -7.909  15.854  69.046  1.00  0.00    -0.216 C  
BRANCH  10  11
HETATM   11  C   UNL     1      -6.822  15.108  69.822  1.00  0.00    -0.179 C  
BRANCH  11  12
HETATM   12  C   UNL     1      -6.613  13.726  69.274  1.00  0.00    -0.113 C  
HETATM   13  C   UNL     1      -5.748  13.433  68.294  1.00  0.00    -0.098 C  
ENDBRANCH  11  12
ENDBRANCH  10  11
ENDBRANCH   9  10
ENDBRANCH   8   9
ENDBRANCH   7   8
ENDBRANCH   6   7
ENDBRANCH   5   6
ENDBRANCH   4   5
TORSDOF 8
ENDMDL
MODEL      207
REMARK 921   NORMALIZED FREE ENERGY PREDICTED BY IDOCK:   -2.87 KCAL/MOL
REMARK 922        TOTAL FREE ENERGY PREDICTED BY IDOCK:   -4.69 KCAL/MOL
REMARK 923 INTER-LIGAND FREE ENERGY PREDICTED BY IDOCK:   -4.14 KCAL/MOL
REMARK 924 INTRA-LIGAND FREE ENERGY PREDICTED BY IDOCK:   -0.56 KCAL/MOL
REMARK 927      BINDING AFFINITY PREDICTED BY RF-SCORE:    0.00 PKD
ROOT
HETATM    1  O   UNL     1     -10.517  14.599  68.164  1.00  0.00    -0.232 OA 
HETATM    2  C   UNL     1     -10.463  13.257  68.334  1.00  0.00    -0.253 C  
HETATM    3  O   UNL     1      -9.417  12.634  68.266  1.00  0.00    -0.213 OA 
HETATM    4  C   UNL     1     -11.825  12.660  68.608  1.00  0.00    -0.342 C  
ENDROOT
BRANCH   4   5
HETATM    5  C   UNL     1     -11.747  11.146  68.795  1.00  0.00    -0.394 C  
BRANCH   5   6
HETATM    6  C   UNL     1     -11.758  10.757  70.273  1.00  0.00    -0.442 C  
BRANCH   6   7
HETATM    7  C   UNL     1     -10.673   9.720  70.568  1.00  0.00    -0.381 C  
BRANCH   7   8
HETATM    8  C   UNL     1     -10.657   8.610  69.518  1.00  0.00    -0.218 C  
BRANCH   8   9
HETATM    9  C   UNL     1     -10.929   7.248  70.157  1.00  0.00    -0.280 C  
BRANCH   9  10
HETATM   10  C   UNL     1     -10.927   6.130  69.115  1.00  0.00    -0.450 C  
BRANCH  10  11
HETATM   11  C   UNL     1     -11.017   6.702  67.698  1.00  0.00    -0.392 C  
BRANCH  11  12
HETATM   12  C   UNL     1     -10.332   5.808  66.705  1.00  0.00    -0.312 C  
HETATM   13  C   UNL     1     -10.010   4.530  66.948  1.00  0.00    -0.229 C  
ENDBRANCH  11  12
ENDBRANCH  10  11
ENDBRANCH   9  10
ENDBRANCH   8   9
ENDBRANCH   7   8
ENDBRANCH   6   7
ENDBRANCH   5   6
ENDBRANCH   4   5
TORSDOF 8
ENDMDL
MODEL      208
REMARK 921   NORMALIZED FREE ENERGY PREDICTED BY IDOCK:   -2.87 KCAL/MOL
REMARK 922        TOTAL FREE ENERGY PREDICTED BY IDOCK:   -4.69 KCAL/MOL
REMARK 923 INTER-LIGAND FREE ENERGY PREDICTED BY IDOCK:   -3.92 KCAL/MOL
REMARK 924 INTRA-LIGAND FREE ENERGY PREDICTED BY IDOCK:   -0.77 KCAL/MOL
REMARK 927      BINDING AFFINITY PREDICTED BY RF-SCORE:    0.00 PKD
ROOT
HETATM    1  O   UNL     1     -11.539   5.719  72.412  1.00  0.00    -0.301 OA 
HETATM    2  C   UNL     1     -11.527   6.901  71.752  1.00  0.00    -0.275 C  
HETATM    3  O   UNL     1     -11.971   7.925  72.243  1.00  0.00    -0.321 OA 
HETATM    4  C   UNL     1     -10.911   6.782  70.376  1.00  0.00    -0.330 C  
ENDROOT
BRANCH   4   5
HETATM    5  C   UNL     1     -10.907   8.123  69.645  1.00  0.00    -0.162 C  
BRANCH   5   6
HETATM    6  C   UNL     1      -9.807   8.186  68.586  1.00  0.00    -0.191 C  
BRANCH   6   7
HETATM    7  C   UNL     1     -10.404   8.428  67.199  1.00  0.00    -0.381 C  
BRANCH   7   8
HETATM    8  C   UNL     1      -9.325   8.778  66.176  1.00  0.00    -0.297 C  
BRANCH   8   9
HETATM    9  C   UNL     1      -9.751   9.969  65.317  1.00  0.00    -0.373 C  
BRANCH   9  10
HETATM   10  C   UNL     1      -9.464  11.296  66.019  1.00  0.00    -0.240 C  
BRANCH  10  11
HETATM   11  C   UNL     1     -10.615  12.284  65.817  1.00  0.00    -0.289 C  
BRANCH  11  12
HETATM   12  C   UNL     1     -11.615  12.192  66.933  1.00  0.00    -0.408 C  
HETATM   13  C   UNL     1     -11.295  11.895  68.199  1.00  0.00    -0.350 C  
ENDBRANCH  11  12
ENDBRANCH  10  11
ENDBRANCH   9  10
ENDBRANCH   8   9
ENDBRANCH   7   8
ENDBRANCH   6   7
ENDBRANCH   5   6
ENDBRANCH   4   5
TORSDOF 8
ENDMDL
MODEL      209
REMARK 921   NORMALIZED FREE ENERGY PREDICTED BY IDOCK:   -2.86 KCAL/MOL
REMARK 922        TOTAL FREE ENERGY PREDICTED BY IDOCK:   -4.67 KCAL/MOL
REMARK 923 INTER-LIGAND FREE ENERGY PREDICTED BY IDOCK:   -4.21 KCAL/MOL
REMARK 924 INTRA-LIGAND FREE ENERGY PREDICTED BY IDOCK:   -0.46 KCAL/MOL
REMARK 927      BINDING AFFINITY PREDICTED BY RF-SCORE:    0.00 PKD
ROOT
HETATM    1  O   UNL     1      -6.448  20.269  69.995  1.00  0.00    -0.331 OA 
HETATM    2  C   UNL     1      -6.807  19.179  69.277  1.00  0.00    -0.301 C  
HETATM    3  O   UNL     1      -6.127  18.168  69.245  1.00  0.00    -0.225 OA 
HETATM    4  C   UNL     1      -8.117  19.381  68.548  1.00  0.00    -0.396 C  
ENDROOT
BRANCH   4   5
HETATM    5  C   UNL     1      -8.506  18.143  67.742  1.00  0.00    -0.251 C  
BRANCH   5   6
HETATM    6  C   UNL     1      -9.655  17.378  68.399  1.00  0.00    -0.292 C  
BRANCH   6   7
HETATM    7  C   UNL     1      -9.464  15.869  68.233  1.00  0.00    -0.201 C  
BRANCH   7   8
HETATM    8  C   UNL     1     -10.385  15.302  67.153  1.00  0.00    -0.265 C  
BRANCH   8   9
HETATM    9  C   UNL     1     -11.692  14.793  67.761  1.00  0.00    -0.368 C  
BRANCH   9  10
HETATM   10  C   UNL     1     -11.477  14.245  69.172  1.00  0.00    -0.330 C  
BRANCH  10  11
HETATM   11  C   UNL     1     -12.275  15.049  70.200  1.00  0.00    -0.392 C  
BRANCH  11  12
HETATM   12  C   UNL     1     -11.974  14.594  71.599  1.00  0.00    -0.379 C  
HETATM   13  C   UNL     1     -12.350  15.260  72.699  1.00  0.00    -0.482 C  
ENDBRANCH  11  12
ENDBRANCH  10  11
ENDBRANCH   9  10
ENDBRANCH   8   9
ENDBRANCH   7   8
ENDBRANCH   6   7
ENDBRANCH   5   6
ENDBRANCH   4   5
TORSDOF 8
ENDMDL
MODEL      210
REMARK 921   NORMALIZED FREE ENERGY PREDICTED BY IDOCK:   -2.83 KCAL/MOL
REMARK 922        TOTAL FREE ENERGY PREDICTED BY IDOCK:   -4.64 KCAL/MOL
REMARK 923 INTER-LIGAND FREE ENERGY PREDICTED BY IDOCK:   -4.18 KCAL/MOL
REMARK 924 INTRA-LIGAND FREE ENERGY PREDICTED BY IDOCK:   -0.45 KCAL/MOL
REMARK 927      BINDING AFFINITY PREDICTED BY RF-SCORE:    0.00 PKD
ROOT
HETATM    1  O   UNL     1      -5.778  14.204  69.559  1.00  0.00    -0.091 OA 
HETATM    2  C   UNL     1      -6.781  14.346  68.662  1.00  0.00    -0.090 C  
HETATM    3  O   UNL     1      -6.747  13.827  67.559  1.00  0.00    -0.172 OA 
HETATM    4  C   UNL     1      -7.907  15.205  69.193  1.00  0.00    -0.199 C  
ENDROOT
BRANCH   4   5
HETATM    5  C   UNL     1      -9.029  15.357  68.169  1.00  0.00    -0.176 C  
BRANCH   5   6
HETATM    6  C   UNL     1     -10.244  14.502  68.529  1.00  0.00    -0.240 C  
BRANCH   6   7
HETATM    7  C   UNL     1     -11.347  15.363  69.147  1.00  0.00    -0.323 C  
BRANCH   7   8
HETATM    8  C   UNL     1     -12.138  14.590  70.201  1.00  0.00    -0.394 C  
BRANCH   8   9
HETATM    9  C   UNL     1     -13.410  15.343  70.592  1.00  0.00    -0.286 C  
BRANCH   9  10
HETATM   10  C   UNL     1     -13.930  14.891  71.956  1.00  0.00    -0.591 C  
BRANCH  10  11
HETATM   11  C   UNL     1     -12.837  14.174  72.750  1.00  0.00    -0.445 C  
BRANCH  11  12
HETATM   12  C   UNL     1     -12.239  15.074  73.792  1.00  0.00    -0.628 C  
HETATM   13  C   UNL     1     -12.575  16.361  73.948  1.00  0.00    -0.550 C  
ENDBRANCH  11  12
ENDBRANCH  10  11
ENDBRANCH   9  10
ENDBRANCH   8   9
ENDBRANCH   7   8
ENDBRANCH   6   7
ENDBRANCH   5   6
ENDBRANCH   4   5
TORSDOF 8
ENDMDL
MODEL      211
REMARK 921   NORMALIZED FREE ENERGY PREDICTED BY IDOCK:   -2.83 KCAL/MOL
REMARK 922        TOTAL FREE ENERGY PREDICTED BY IDOCK:   -4.63 KCAL/MOL
REMARK 923 INTER-LIGAND FREE ENERGY PREDICTED BY IDOCK:   -3.80 KCAL/MOL
REMARK 924 INTRA-LIGAND FREE ENERGY PREDICTED BY IDOCK:   -0.83 KCAL/MOL
REMARK 927      BINDING AFFINITY PREDICTED BY RF-SCORE:    0.00 PKD
ROOT
HETATM    1  O   UNL     1     -11.580   9.002  71.950  1.00  0.00    -0.345 OA 
HETATM    2  C   UNL     1     -12.287  10.097  71.584  1.00  0.00    -0.377 C  
HETATM    3  O   UNL     1     -13.322  10.420  72.144  1.00  0.00    -0.441 OA 
HETATM    4  C   UNL     1     -11.645  10.834  70.430  1.00  0.00    -0.431 C  
ENDROOT
BRANCH   4   5
HETATM    5  C   UNL     1     -12.457  12.064  70.029  1.00  0.00    -0.067 C  
BRANCH   5   6
HETATM    6  C   UNL     1     -11.810  13.356  70.528  1.00  0.00    -0.236 C  
BRANCH   6   7
HETATM    7  C   UNL     1     -12.603  14.575  70.054  1.00  0.00    -0.281 C  
BRANCH   7   8
HETATM    8  C   UNL     1     -11.790  15.862  70.193  1.00  0.00    -0.327 C  
BRANCH   8   9
HETATM    9  C   UNL     1     -10.410  15.709  69.551  1.00  0.00    -0.277 C  
BRANCH   9  10
HETATM   10  C   UNL     1     -10.304  16.514  68.256  1.00  0.00    -0.293 C  
BRANCH  10  11
HETATM   11  C   UNL     1      -9.821  15.635  67.101  1.00  0.00    -0.229 C  
BRANCH  11  12
HETATM   12  C   UNL     1     -10.209  14.200  67.310  1.00  0.00    -0.256 C  
HETATM   13  C   UNL     1      -9.406  13.162  67.041  1.00  0.00    -0.238 C  
ENDBRANCH  11  12
ENDBRANCH  10  11
ENDBRANCH   9  10
ENDBRANCH   8   9
ENDBRANCH   7   8
ENDBRANCH   6   7
ENDBRANCH   5   6
ENDBRANCH   4   5
TORSDOF 8
ENDMDL
MODEL      212
REMARK 921   NORMALIZED FREE ENERGY PREDICTED BY IDOCK:   -2.83 KCAL/MOL
REMARK 922        TOTAL FREE ENERGY PREDICTED BY IDOCK:   -4.63 KCAL/MOL
REMARK 923 INTER-LIGAND FREE ENERGY PREDICTED BY IDOCK:   -3.66 KCAL/MOL
REMARK 924 INTRA-LIGAND FREE ENERGY PREDICTED BY IDOCK:   -0.97 KCAL/MOL
REMARK 927      BINDING AFFINITY PREDICTED BY RF-SCORE:    0.00 PKD
ROOT
HETATM    1  O   UNL     1      -8.794   7.460  66.162  1.00  0.00    -0.156 OA 
HETATM    2  C   UNL     1      -8.762   8.738  65.718  1.00  0.00    -0.179 C  
HETATM    3  O   UNL     1      -7.841   9.172  65.045  1.00  0.00    -0.105 OA 
HETATM    4  C   UNL     1      -9.978   9.526  66.154  1.00  0.00    -0.342 C  
ENDROOT
BRANCH   4   5
HETATM    5  C   UNL     1      -9.925  10.965  65.646  1.00  0.00    -0.305 C  
BRANCH   5   6
HETATM    6  C   UNL     1     -10.034  11.973  66.791  1.00  0.00    -0.218 C  
BRANCH   6   7
HETATM    7  C   UNL     1     -11.498  12.227  67.151  1.00  0.00    -0.419 C  
BRANCH   7   8
HETATM    8  C   UNL     1     -11.700  12.298  68.664  1.00  0.00    -0.377 C  
BRANCH   8   9
HETATM    9  C   UNL     1     -12.155  10.948  69.219  1.00  0.00    -0.332 C  
BRANCH   9  10
HETATM   10  C   UNL     1     -11.566  10.685  70.604  1.00  0.00    -0.432 C  
BRANCH  10  11
HETATM   11  C   UNL     1     -10.803   9.359  70.634  1.00  0.00    -0.346 C  
BRANCH  11  12
HETATM   12  C   UNL     1      -9.319   9.584  70.629  1.00  0.00    -0.263 C  
HETATM   13  C   UNL     1      -8.594   9.767  69.517  1.00  0.00    -0.186 C  
ENDBRANCH  11  12
ENDBRANCH  10  11
ENDBRANCH   9  10
ENDBRANCH   8   9
ENDBRANCH   7   8
ENDBRANCH   6   7
ENDBRANCH   5   6
ENDBRANCH   4   5
TORSDOF 8
ENDMDL
MODEL      213
REMARK 921   NORMALIZED FREE ENERGY PREDICTED BY IDOCK:   -2.80 KCAL/MOL
REMARK 922        TOTAL FREE ENERGY PREDICTED BY IDOCK:   -4.58 KCAL/MOL
REMARK 923 INTER-LIGAND FREE ENERGY PREDICTED BY IDOCK:   -4.11 KCAL/MOL
REMARK 924 INTRA-LIGAND FREE ENERGY PREDICTED BY IDOCK:   -0.48 KCAL/MOL
REMARK 927      BINDING AFFINITY PREDICTED BY RF-SCORE:    0.00 PKD
ROOT
HETATM    1  O   UNL     1      -9.287   9.176  71.850  1.00  0.00    -0.349 OA 
HETATM    2  C   UNL     1     -10.339   9.385  71.024  1.00  0.00    -0.312 C  
HETATM    3  O   UNL     1     -11.471   9.560  71.444  1.00  0.00    -0.342 OA 
HETATM    4  C   UNL     1      -9.935   9.370  69.567  1.00  0.00    -0.200 C  
ENDROOT
BRANCH   4   5
HETATM    5  C   UNL     1     -11.133   9.605  68.650  1.00  0.00    -0.085 C  
BRANCH   5   6
HETATM    6  C   UNL     1     -10.756  10.445  67.429  1.00  0.00    -0.338 C  
BRANCH   6   7
HETATM    7  C   UNL     1     -10.900  11.937  67.733  1.00  0.00    -0.254 C  
BRANCH   7   8
HETATM    8  C   UNL     1     -11.624  12.672  66.606  1.00  0.00    -0.443 C  
BRANCH   8   9
HETATM    9  C   UNL     1     -12.095  14.051  67.067  1.00  0.00    -0.455 C  
BRANCH   9  10
HETATM   10  C   UNL     1     -11.700  14.320  68.519  1.00  0.00    -0.376 C  
BRANCH  10  11
HETATM   11  C   UNL     1     -11.773  15.815  68.839  1.00  0.00    -0.404 C  
BRANCH  11  12
HETATM   12  C   UNL     1     -10.602  16.554  68.261  1.00  0.00    -0.326 C  
HETATM   13  C   UNL     1     -10.706  17.496  67.314  1.00  0.00    -0.222 C  
ENDBRANCH  11  12
ENDBRANCH  10  11
ENDBRANCH   9  10
ENDBRANCH   8   9
ENDBRANCH   7   8
ENDBRANCH   6   7
ENDBRANCH   5   6
ENDBRANCH   4   5
TORSDOF 8
ENDMDL
MODEL      214
REMARK 921   NORMALIZED FREE ENERGY PREDICTED BY IDOCK:   -2.79 KCAL/MOL
REMARK 922        TOTAL FREE ENERGY PREDICTED BY IDOCK:   -4.58 KCAL/MOL
REMARK 923 INTER-LIGAND FREE ENERGY PREDICTED BY IDOCK:   -3.99 KCAL/MOL
REMARK 924 INTRA-LIGAND FREE ENERGY PREDICTED BY IDOCK:   -0.59 KCAL/MOL
REMARK 927      BINDING AFFINITY PREDICTED BY RF-SCORE:    0.00 PKD
ROOT
HETATM    1  O   UNL     1      -9.570   7.124  71.492  1.00  0.00    -0.158 OA 
HETATM    2  C   UNL     1     -10.907   7.333  71.468  1.00  0.00    -0.224 C  
HETATM    3  O   UNL     1     -11.678   6.560  70.925  1.00  0.00    -0.346 OA 
HETATM    4  C   UNL     1     -11.299   8.609  72.180  1.00  0.00    -0.434 C  
ENDROOT
BRANCH   4   5
HETATM    5  C   UNL     1     -12.810   8.831  72.142  1.00  0.00    -0.456 C  
BRANCH   5   6
HETATM    6  C   UNL     1     -13.203   9.869  71.091  1.00  0.00    -0.424 C  
BRANCH   6   7
HETATM    7  C   UNL     1     -12.080  10.888  70.890  1.00  0.00    -0.455 C  
BRANCH   7   8
HETATM    8  C   UNL     1     -11.941  11.288  69.422  1.00  0.00    -0.410 C  
BRANCH   8   9
HETATM    9  C   UNL     1     -11.086  10.277  68.658  1.00  0.00    -0.290 C  
BRANCH   9  10
HETATM   10  C   UNL     1     -10.168  10.969  67.651  1.00  0.00    -0.211 C  
BRANCH  10  11
HETATM   11  C   UNL     1      -9.701  12.327  68.178  1.00  0.00    -0.213 C  
BRANCH  11  12
HETATM   12  C   UNL     1      -8.896  13.065  67.147  1.00  0.00    -0.218 C  
HETATM   13  C   UNL     1      -7.703  13.622  67.389  1.00  0.00    -0.156 C  
ENDBRANCH  11  12
ENDBRANCH  10  11
ENDBRANCH   9  10
ENDBRANCH   8   9
ENDBRANCH   7   8
ENDBRANCH   6   7
ENDBRANCH   5   6
ENDBRANCH   4   5
TORSDOF 8
ENDMDL
MODEL      215
REMARK 921   NORMALIZED FREE ENERGY PREDICTED BY IDOCK:   -2.79 KCAL/MOL
REMARK 922        TOTAL FREE ENERGY PREDICTED BY IDOCK:   -4.57 KCAL/MOL
REMARK 923 INTER-LIGAND FREE ENERGY PREDICTED BY IDOCK:   -3.65 KCAL/MOL
REMARK 924 INTRA-LIGAND FREE ENERGY PREDICTED BY IDOCK:   -0.92 KCAL/MOL
REMARK 927      BINDING AFFINITY PREDICTED BY RF-SCORE:    0.00 PKD
ROOT
HETATM    1  O   UNL     1      -7.783  12.126  67.173  1.00  0.00    -0.160 OA 
HETATM    2  C   UNL     1      -7.704  13.437  67.499  1.00  0.00    -0.176 C  
HETATM    3  O   UNL     1      -6.672  14.076  67.384  1.00  0.00    -0.243 OA 
HETATM    4  C   UNL     1      -9.021  13.980  68.008  1.00  0.00    -0.182 C  
ENDROOT
BRANCH   4   5
HETATM    5  C   UNL     1      -8.915  15.459  68.373  1.00  0.00    -0.189 C  
BRANCH   5   6
HETATM    6  C   UNL     1     -10.123  16.253  67.877  1.00  0.00    -0.247 C  
BRANCH   6   7
HETATM    7  C   UNL     1     -10.240  16.165  66.354  1.00  0.00    -0.315 C  
BRANCH   7   8
HETATM    8  C   UNL     1     -10.378  17.548  65.721  1.00  0.00    -0.217 C  
BRANCH   8   9
HETATM    9  C   UNL     1     -10.701  18.605  66.778  1.00  0.00    -0.337 C  
BRANCH   9  10
HETATM   10  C   UNL     1      -9.945  19.907  66.516  1.00  0.00    -0.591 C  
BRANCH  10  11
HETATM   11  C   UNL     1      -8.858  20.131  67.569  1.00  0.00    -0.431 C  
BRANCH  11  12
HETATM   12  C   UNL     1      -7.769  19.104  67.456  1.00  0.00    -0.263 C  
HETATM   13  C   UNL     1      -7.052  18.658  68.495  1.00  0.00    -0.297 C  
ENDBRANCH  11  12
ENDBRANCH  10  11
ENDBRANCH   9  10
ENDBRANCH   8   9
ENDBRANCH   7   8
ENDBRANCH   6   7
ENDBRANCH   5   6
ENDBRANCH   4   5
TORSDOF 8
ENDMDL
MODEL      216
REMARK 921   NORMALIZED FREE ENERGY PREDICTED BY IDOCK:   -2.77 KCAL/MOL
REMARK 922        TOTAL FREE ENERGY PREDICTED BY IDOCK:   -4.55 KCAL/MOL
REMARK 923 INTER-LIGAND FREE ENERGY PREDICTED BY IDOCK:   -3.53 KCAL/MOL
REMARK 924 INTRA-LIGAND FREE ENERGY PREDICTED BY IDOCK:   -1.02 KCAL/MOL
REMARK 927      BINDING AFFINITY PREDICTED BY RF-SCORE:    0.00 PKD
ROOT
HETATM    1  O   UNL     1     -11.200   5.772  71.266  1.00  0.00    -0.246 OA 
HETATM    2  C   UNL     1     -10.378   5.504  70.225  1.00  0.00    -0.279 C  
HETATM    3  O   UNL     1      -9.252   5.062  70.382  1.00  0.00    -0.136 OA 
HETATM    4  C   UNL     1     -11.021   5.817  68.893  1.00  0.00    -0.250 C  
ENDROOT
BRANCH   4   5
HETATM    5  C   UNL     1     -10.079   5.512  67.729  1.00  0.00    -0.214 C  
BRANCH   5   6
HETATM    6  C   UNL     1      -9.968   6.693  66.766  1.00  0.00    -0.238 C  
BRANCH   6   7
HETATM    7  C   UNL     1     -10.637   7.936  67.354  1.00  0.00    -0.342 C  
BRANCH   7   8
HETATM    8  C   UNL     1      -9.631   9.067  67.567  1.00  0.00    -0.182 C  
BRANCH   8   9
HETATM    9  C   UNL     1      -8.875   8.886  68.884  1.00  0.00    -0.137 C  
BRANCH   9  10
HETATM   10  C   UNL     1      -9.367   9.865  69.949  1.00  0.00    -0.250 C  
BRANCH  10  11
HETATM   11  C   UNL     1     -10.170   9.140  71.031  1.00  0.00    -0.372 C  
BRANCH  11  12
HETATM   12  C   UNL     1     -11.596   9.609  71.057  1.00  0.00    -0.436 C  
HETATM   13  C   UNL     1     -11.974  10.868  70.800  1.00  0.00    -0.449 C  
ENDBRANCH  11  12
ENDBRANCH  10  11
ENDBRANCH   9  10
ENDBRANCH   8   9
ENDBRANCH   7   8
ENDBRANCH   6   7
ENDBRANCH   5   6
ENDBRANCH   4   5
TORSDOF 8
ENDMDL
MODEL      217
REMARK 921   NORMALIZED FREE ENERGY PREDICTED BY IDOCK:   -2.77 KCAL/MOL
REMARK 922        TOTAL FREE ENERGY PREDICTED BY IDOCK:   -4.55 KCAL/MOL
REMARK 923 INTER-LIGAND FREE ENERGY PREDICTED BY IDOCK:   -4.02 KCAL/MOL
REMARK 924 INTRA-LIGAND FREE ENERGY PREDICTED BY IDOCK:   -0.53 KCAL/MOL
REMARK 927      BINDING AFFINITY PREDICTED BY RF-SCORE:    0.00 PKD
ROOT
HETATM    1  O   UNL     1     -10.244  19.823  68.891  1.00  0.00    -0.443 OA 
HETATM    2  C   UNL     1     -10.345  19.196  67.695  1.00  0.00    -0.430 C  
HETATM    3  O   UNL     1     -11.050  19.621  66.795  1.00  0.00    -0.377 OA 
HETATM    4  C   UNL     1      -9.500  17.944  67.632  1.00  0.00    -0.260 C  
ENDROOT
BRANCH   4   5
HETATM    5  C   UNL     1      -9.627  17.248  66.279  1.00  0.00    -0.268 C  
BRANCH   5   6
HETATM    6  C   UNL     1      -8.959  15.873  66.284  1.00  0.00    -0.381 C  
BRANCH   6   7
HETATM    7  C   UNL     1      -9.275  15.122  67.578  1.00  0.00    -0.188 C  
BRANCH   7   8
HETATM    8  C   UNL     1      -8.135  14.187  67.977  1.00  0.00    -0.149 C  
BRANCH   8   9
HETATM    9  C   UNL     1      -8.459  12.740  67.605  1.00  0.00    -0.178 C  
BRANCH   9  10
HETATM   10  C   UNL     1      -9.957  12.543  67.379  1.00  0.00    -0.207 C  
BRANCH  10  11
HETATM   11  C   UNL     1     -10.248  12.172  65.923  1.00  0.00    -0.272 C  
BRANCH  11  12
HETATM   12  C   UNL     1     -11.724  12.054  65.676  1.00  0.00    -0.312 C  
HETATM   13  C   UNL     1     -12.478  13.039  65.170  1.00  0.00    -0.552 C  
ENDBRANCH  11  12
ENDBRANCH  10  11
ENDBRANCH   9  10
ENDBRANCH   8   9
ENDBRANCH   7   8
ENDBRANCH   6   7
ENDBRANCH   5   6
ENDBRANCH   4   5
TORSDOF 8
ENDMDL
MODEL      218
REMARK 921   NORMALIZED FREE ENERGY PREDICTED BY IDOCK:   -2.77 KCAL/MOL
REMARK 922        TOTAL FREE ENERGY PREDICTED BY IDOCK:   -4.54 KCAL/MOL
REMARK 923 INTER-LIGAND FREE ENERGY PREDICTED BY IDOCK:   -4.25 KCAL/MOL
REMARK 924 INTRA-LIGAND FREE ENERGY PREDICTED BY IDOCK:   -0.29 KCAL/MOL
REMARK 927      BINDING AFFINITY PREDICTED BY RF-SCORE:    0.00 PKD
ROOT
HETATM    1  O   UNL     1     -10.957  16.702  67.767  1.00  0.00    -0.320 OA 
HETATM    2  C   UNL     1     -10.546  15.578  68.398  1.00  0.00    -0.252 C  
HETATM    3  O   UNL     1      -9.668  15.590  69.245  1.00  0.00    -0.235 OA 
HETATM    4  C   UNL     1     -11.295  14.351  67.927  1.00  0.00    -0.322 C  
ENDROOT
BRANCH   4   5
HETATM    5  C   UNL     1     -10.818  13.091  68.647  1.00  0.00    -0.287 C  
BRANCH   5   6
HETATM    6  C   UNL     1     -11.874  12.559  69.616  1.00  0.00    -0.382 C  
BRANCH   6   7
HETATM    7  C   UNL     1     -11.878  11.029  69.625  1.00  0.00    -0.414 C  
BRANCH   7   8
HETATM    8  C   UNL     1     -11.959  10.477  71.047  1.00  0.00    -0.466 C  
BRANCH   8   9
HETATM    9  C   UNL     1     -11.039   9.268  71.218  1.00  0.00    -0.427 C  
BRANCH   9  10
HETATM   10  C   UNL     1     -11.763   7.963  70.888  1.00  0.00    -0.271 C  
BRANCH  10  11
HETATM   11  C   UNL     1     -12.059   7.163  72.158  1.00  0.00    -0.284 C  
BRANCH  11  12
HETATM   12  C   UNL     1     -11.446   5.794  72.095  1.00  0.00    -0.295 C  
HETATM   13  C   UNL     1     -10.464   5.453  71.250  1.00  0.00    -0.296 C  
ENDBRANCH  11  12
ENDBRANCH  10  11
ENDBRANCH   9  10
ENDBRANCH   8   9
ENDBRANCH   7   8
ENDBRANCH   6   7
ENDBRANCH   5   6
ENDBRANCH   4   5
TORSDOF 8
ENDMDL
MODEL      219
REMARK 921   NORMALIZED FREE ENERGY PREDICTED BY IDOCK:   -2.77 KCAL/MOL
REMARK 922        TOTAL FREE ENERGY PREDICTED BY IDOCK:   -4.54 KCAL/MOL
REMARK 923 INTER-LIGAND FREE ENERGY PREDICTED BY IDOCK:   -3.95 KCAL/MOL
REMARK 924 INTRA-LIGAND FREE ENERGY PREDICTED BY IDOCK:   -0.59 KCAL/MOL
REMARK 927      BINDING AFFINITY PREDICTED BY RF-SCORE:    0.00 PKD
ROOT
HETATM    1  O   UNL     1      -9.562  10.507  62.634  1.00  0.00    -0.301 OA 
HETATM    2  C   UNL     1     -10.295  10.944  63.684  1.00  0.00    -0.298 C  
HETATM    3  O   UNL     1     -10.179  10.470  64.802  1.00  0.00    -0.341 OA 
HETATM    4  C   UNL     1     -11.242  12.059  63.297  1.00  0.00    -0.403 C  
ENDROOT
BRANCH   4   5
HETATM    5  C   UNL     1     -12.062  12.539  64.492  1.00  0.00    -0.496 C  
BRANCH   5   6
HETATM    6  C   UNL     1     -11.794  14.010  64.808  1.00  0.00    -0.415 C  
BRANCH   6   7
HETATM    7  C   UNL     1     -11.333  14.178  66.257  1.00  0.00    -0.340 C  
BRANCH   7   8
HETATM    8  C   UNL     1     -11.895  13.078  67.156  1.00  0.00    -0.431 C  
BRANCH   8   9
HETATM    9  C   UNL     1     -11.196  13.072  68.516  1.00  0.00    -0.309 C  
BRANCH   9  10
HETATM   10  C   UNL     1      -9.724  12.680  68.386  1.00  0.00    -0.187 C  
BRANCH  10  11
HETATM   11  C   UNL     1      -9.575  11.173  68.169  1.00  0.00    -0.181 C  
BRANCH  11  12
HETATM   12  C   UNL     1      -8.574  10.582  69.118  1.00  0.00    -0.157 C  
HETATM   13  C   UNL     1      -8.017   9.374  68.961  1.00  0.00    -0.091 C  
ENDBRANCH  11  12
ENDBRANCH  10  11
ENDBRANCH   9  10
ENDBRANCH   8   9
ENDBRANCH   7   8
ENDBRANCH   6   7
ENDBRANCH   5   6
ENDBRANCH   4   5
TORSDOF 8
ENDMDL
MODEL      220
REMARK 921   NORMALIZED FREE ENERGY PREDICTED BY IDOCK:   -2.76 KCAL/MOL
REMARK 922        TOTAL FREE ENERGY PREDICTED BY IDOCK:   -4.54 KCAL/MOL
REMARK 923 INTER-LIGAND FREE ENERGY PREDICTED BY IDOCK:   -3.98 KCAL/MOL
REMARK 924 INTRA-LIGAND FREE ENERGY PREDICTED BY IDOCK:   -0.56 KCAL/MOL
REMARK 927      BINDING AFFINITY PREDICTED BY RF-SCORE:    0.00 PKD
ROOT
HETATM    1  O   UNL     1      -7.512   6.735  72.173  1.00  0.00    -0.091 OA 
HETATM    2  C   UNL     1      -8.536   6.255  71.430  1.00  0.00    -0.131 C  
HETATM    3  O   UNL     1      -8.362   5.728  70.344  1.00  0.00    -0.117 OA 
HETATM    4  C   UNL     1      -9.875   6.454  72.104  1.00  0.00    -0.170 C  
ENDROOT
BRANCH   4   5
HETATM    5  C   UNL     1     -11.020   5.909  71.252  1.00  0.00    -0.325 C  
BRANCH   5   6
HETATM    6  C   UNL     1     -11.911   7.029  70.717  1.00  0.00    -0.401 C  
BRANCH   6   7
HETATM    7  C   UNL     1     -12.769   7.620  71.837  1.00  0.00    -0.320 C  
BRANCH   7   8
HETATM    8  C   UNL     1     -12.528   9.120  71.997  1.00  0.00    -0.452 C  
BRANCH   8   9
HETATM    9  C   UNL     1     -11.565   9.637  70.928  1.00  0.00    -0.420 C  
BRANCH   9  10
HETATM   10  C   UNL     1     -11.950  11.040  70.460  1.00  0.00    -0.474 C  
BRANCH  10  11
HETATM   11  C   UNL     1     -11.546  11.261  69.001  1.00  0.00    -0.386 C  
BRANCH  11  12
HETATM   12  C   UNL     1     -11.348  12.720  68.706  1.00  0.00    -0.332 C  
HETATM   13  C   UNL     1     -11.606  13.701  69.580  1.00  0.00    -0.361 C  
ENDBRANCH  11  12
ENDBRANCH  10  11
ENDBRANCH   9  10
ENDBRANCH   8   9
ENDBRANCH   7   8
ENDBRANCH   6   7
ENDBRANCH   5   6
ENDBRANCH   4   5
TORSDOF 8
ENDMDL
MODEL      221
REMARK 921   NORMALIZED FREE ENERGY PREDICTED BY IDOCK:   -2.75 KCAL/MOL
REMARK 922        TOTAL FREE ENERGY PREDICTED BY IDOCK:   -4.51 KCAL/MOL
REMARK 923 INTER-LIGAND FREE ENERGY PREDICTED BY IDOCK:   -4.16 KCAL/MOL
REMARK 924 INTRA-LIGAND FREE ENERGY PREDICTED BY IDOCK:   -0.35 KCAL/MOL
REMARK 927      BINDING AFFINITY PREDICTED BY RF-SCORE:    0.00 PKD
ROOT
HETATM    1  O   UNL     1     -11.727   7.960  72.646  1.00  0.00    -0.370 OA 
HETATM    2  C   UNL     1     -12.492   9.003  72.247  1.00  0.00    -0.357 C  
HETATM    3  O   UNL     1     -13.629   9.171  72.655  1.00  0.00    -0.465 OA 
HETATM    4  C   UNL     1     -11.771   9.897  71.263  1.00  0.00    -0.472 C  
ENDROOT
BRANCH   4   5
HETATM    5  C   UNL     1     -12.647  11.067  70.821  1.00  0.00    -0.463 C  
BRANCH   5   6
HETATM    6  C   UNL     1     -11.858  12.087  70.001  1.00  0.00    -0.392 C  
BRANCH   6   7
HETATM    7  C   UNL     1     -10.801  11.391  69.142  1.00  0.00    -0.260 C  
BRANCH   7   8
HETATM    8  C   UNL     1     -11.036  11.637  67.653  1.00  0.00    -0.314 C  
BRANCH   8   9
HETATM    9  C   UNL     1      -9.837  11.174  66.826  1.00  0.00    -0.230 C  
BRANCH   9  10
HETATM   10  C   UNL     1     -10.245  10.132  65.785  1.00  0.00    -0.283 C  
BRANCH  10  11
HETATM   11  C   UNL     1      -9.393   8.867  65.911  1.00  0.00    -0.301 C  
BRANCH  11  12
HETATM   12  C   UNL     1      -8.312   8.833  64.869  1.00  0.00    -0.179 C  
HETATM   13  C   UNL     1      -7.200   8.093  64.970  1.00  0.00    -0.076 C  
ENDBRANCH  11  12
ENDBRANCH  10  11
ENDBRANCH   9  10
ENDBRANCH   8   9
ENDBRANCH   7   8
ENDBRANCH   6   7
ENDBRANCH   5   6
ENDBRANCH   4   5
TORSDOF 8
ENDMDL
MODEL      222
REMARK 921   NORMALIZED FREE ENERGY PREDICTED BY IDOCK:   -2.72 KCAL/MOL
REMARK 922        TOTAL FREE ENERGY PREDICTED BY IDOCK:   -4.47 KCAL/MOL
REMARK 923 INTER-LIGAND FREE ENERGY PREDICTED BY IDOCK:   -3.58 KCAL/MOL
REMARK 924 INTRA-LIGAND FREE ENERGY PREDICTED BY IDOCK:   -0.89 KCAL/MOL
REMARK 927      BINDING AFFINITY PREDICTED BY RF-SCORE:    0.00 PKD
ROOT
HETATM    1  O   UNL     1      -8.476  12.143  68.490  1.00  0.00    -0.151 OA 
HETATM    2  C   UNL     1      -7.892  11.533  67.433  1.00  0.00    -0.143 C  
HETATM    3  O   UNL     1      -6.924  12.006  66.861  1.00  0.00    -0.122 OA 
HETATM    4  C   UNL     1      -8.577  10.235  67.071  1.00  0.00    -0.129 C  
ENDROOT
BRANCH   4   5
HETATM    5  C   UNL     1      -7.907   9.560  65.876  1.00  0.00    -0.100 C  
BRANCH   5   6
HETATM    6  C   UNL     1      -8.892   9.332  64.729  1.00  0.00    -0.225 C  
BRANCH   6   7
HETATM    7  C   UNL     1      -9.163  10.638  63.980  1.00  0.00    -0.269 C  
BRANCH   7   8
HETATM    8  C   UNL     1     -10.644  11.012  64.021  1.00  0.00    -0.395 C  
BRANCH   8   9
HETATM    9  C   UNL     1     -10.859  12.446  63.534  1.00  0.00    -0.487 C  
BRANCH   9  10
HETATM   10  C   UNL     1     -11.880  13.182  64.401  1.00  0.00    -0.441 C  
BRANCH  10  11
HETATM   11  C   UNL     1     -11.952  12.572  65.802  1.00  0.00    -0.482 C  
BRANCH  11  12
HETATM   12  C   UNL     1     -11.365  13.496  66.830  1.00  0.00    -0.351 C  
HETATM   13  C   UNL     1     -10.480  14.460  66.548  1.00  0.00    -0.289 C  
ENDBRANCH  11  12
ENDBRANCH  10  11
ENDBRANCH   9  10
ENDBRANCH   8   9
ENDBRANCH   7   8
ENDBRANCH   6   7
ENDBRANCH   5   6
ENDBRANCH   4   5
TORSDOF 8
ENDMDL
MODEL      223
REMARK 921   NORMALIZED FREE ENERGY PREDICTED BY IDOCK:   -2.71 KCAL/MOL
REMARK 922        TOTAL FREE ENERGY PREDICTED BY IDOCK:   -4.46 KCAL/MOL
REMARK 923 INTER-LIGAND FREE ENERGY PREDICTED BY IDOCK:   -3.83 KCAL/MOL
REMARK 924 INTRA-LIGAND FREE ENERGY PREDICTED BY IDOCK:   -0.63 KCAL/MOL
REMARK 927      BINDING AFFINITY PREDICTED BY RF-SCORE:    0.00 PKD
ROOT
HETATM    1  O   UNL     1     -10.667  16.504  67.427  1.00  0.00    -0.315 OA 
HETATM    2  C   UNL     1     -10.567  15.167  67.615  1.00  0.00    -0.263 C  
HETATM    3  O   UNL     1      -9.505  14.573  67.520  1.00  0.00    -0.197 OA 
HETATM    4  C   UNL     1     -11.900  14.534  67.943  1.00  0.00    -0.370 C  
ENDROOT
BRANCH   4   5
HETATM    5  C   UNL     1     -11.771  13.026  68.150  1.00  0.00    -0.391 C  
BRANCH   5   6
HETATM    6  C   UNL     1     -11.764  12.656  69.633  1.00  0.00    -0.373 C  
BRANCH   6   7
HETATM    7  C   UNL     1     -12.242  11.218  69.834  1.00  0.00    -0.358 C  
BRANCH   7   8
HETATM    8  C   UNL     1     -11.186  10.368  70.538  1.00  0.00    -0.395 C  
BRANCH   8   9
HETATM    9  C   UNL     1     -10.801   9.157  69.688  1.00  0.00    -0.210 C  
BRANCH   9  10
HETATM   10  C   UNL     1      -9.812   9.539  68.587  1.00  0.00    -0.173 C  
BRANCH  10  11
HETATM   11  C   UNL     1     -10.446   9.390  67.203  1.00  0.00    -0.315 C  
BRANCH  11  12
HETATM   12  C   UNL     1      -9.641   8.469  66.332  1.00  0.00    -0.314 C  
HETATM   13  C   UNL     1      -8.960   7.412  66.790  1.00  0.00    -0.159 C  
ENDBRANCH  11  12
ENDBRANCH  10  11
ENDBRANCH   9  10
ENDBRANCH   8   9
ENDBRANCH   7   8
ENDBRANCH   6   7
ENDBRANCH   5   6
ENDBRANCH   4   5
TORSDOF 8
ENDMDL
MODEL      224
REMARK 921   NORMALIZED FREE ENERGY PREDICTED BY IDOCK:   -2.71 KCAL/MOL
REMARK 922        TOTAL FREE ENERGY PREDICTED BY IDOCK:   -4.46 KCAL/MOL
REMARK 923 INTER-LIGAND FREE ENERGY PREDICTED BY IDOCK:   -3.72 KCAL/MOL
REMARK 924 INTRA-LIGAND FREE ENERGY PREDICTED BY IDOCK:   -0.74 KCAL/MOL
REMARK 927      BINDING AFFINITY PREDICTED BY RF-SCORE:    0.00 PKD
ROOT
HETATM    1  O   UNL     1     -14.261   8.146  71.648  1.00  0.00    -0.409 OA 
HETATM    2  C   UNL     1     -13.026   8.696  71.570  1.00  0.00    -0.312 C  
HETATM    3  O   UNL     1     -12.807   9.853  71.888  1.00  0.00    -0.395 OA 
HETATM    4  C   UNL     1     -11.996   7.716  71.053  1.00  0.00    -0.296 C  
ENDROOT
BRANCH   4   5
HETATM    5  C   UNL     1     -10.610   8.353  70.969  1.00  0.00    -0.258 C  
BRANCH   5   6
HETATM    6  C   UNL     1     -10.332   8.921  69.578  1.00  0.00    -0.213 C  
BRANCH   6   7
HETATM    7  C   UNL     1      -9.818  10.359  69.674  1.00  0.00    -0.179 C  
BRANCH   7   8
HETATM    8  C   UNL     1     -10.751  11.338  68.962  1.00  0.00    -0.257 C  
BRANCH   8   9
HETATM    9  C   UNL     1     -11.136  10.818  67.577  1.00  0.00    -0.374 C  
BRANCH   9  10
HETATM   10  C   UNL     1     -10.583  11.716  66.470  1.00  0.00    -0.292 C  
BRANCH  10  11
HETATM   11  C   UNL     1     -10.262  10.904  65.214  1.00  0.00    -0.351 C  
BRANCH  11  12
HETATM   12  C   UNL     1      -9.041  10.054  65.412  1.00  0.00    -0.235 C  
HETATM   13  C   UNL     1      -9.054   8.715  65.411  1.00  0.00    -0.150 C  
ENDBRANCH  11  12
ENDBRANCH  10  11
ENDBRANCH   9  10
ENDBRANCH   8   9
ENDBRANCH   7   8
ENDBRANCH   6   7
ENDBRANCH   5   6
ENDBRANCH   4   5
TORSDOF 8
ENDMDL
MODEL      225
REMARK 921   NORMALIZED FREE ENERGY PREDICTED BY IDOCK:   -2.71 KCAL/MOL
REMARK 922        TOTAL FREE ENERGY PREDICTED BY IDOCK:   -4.46 KCAL/MOL
REMARK 923 INTER-LIGAND FREE ENERGY PREDICTED BY IDOCK:   -3.66 KCAL/MOL
REMARK 924 INTRA-LIGAND FREE ENERGY PREDICTED BY IDOCK:   -0.80 KCAL/MOL
REMARK 927      BINDING AFFINITY PREDICTED BY RF-SCORE:    0.00 PKD
ROOT
HETATM    1  O   UNL     1     -10.962   6.368  68.843  1.00  0.00    -0.295 OA 
HETATM    2  C   UNL     1     -11.404   6.223  70.114  1.00  0.00    -0.406 C  
HETATM    3  O   UNL     1     -12.439   6.735  70.506  1.00  0.00    -0.273 OA 
HETATM    4  C   UNL     1     -10.473   5.373  70.949  1.00  0.00    -0.307 C  
ENDROOT
BRANCH   4   5
HETATM    5  C   UNL     1     -10.985   5.221  72.380  1.00  0.00    -0.273 C  
BRANCH   5   6
HETATM    6  C   UNL     1     -10.231   6.129  73.351  1.00  0.00    -0.228 C  
BRANCH   6   7
HETATM    7  C   UNL     1      -8.959   6.678  72.702  1.00  0.00    -0.136 C  
BRANCH   7   8
HETATM    8  C   UNL     1      -8.869   8.197  72.838  1.00  0.00    -0.307 C  
BRANCH   8   9
HETATM    9  C   UNL     1     -10.042   8.880  72.135  1.00  0.00    -0.287 C  
BRANCH   9  10
HETATM   10  C   UNL     1      -9.641   9.398  70.754  1.00  0.00    -0.322 C  
BRANCH  10  11
HETATM   11  C   UNL     1     -10.862   9.904  69.983  1.00  0.00    -0.339 C  
BRANCH  11  12
HETATM   12  C   UNL     1     -10.463  10.870  68.905  1.00  0.00    -0.228 C  
HETATM   13  C   UNL     1     -10.391  10.552  67.606  1.00  0.00    -0.257 C  
ENDBRANCH  11  12
ENDBRANCH  10  11
ENDBRANCH   9  10
ENDBRANCH   8   9
ENDBRANCH   7   8
ENDBRANCH   6   7
ENDBRANCH   5   6
ENDBRANCH   4   5
TORSDOF 8
ENDMDL
MODEL      226
REMARK 921   NORMALIZED FREE ENERGY PREDICTED BY IDOCK:   -2.71 KCAL/MOL
REMARK 922        TOTAL FREE ENERGY PREDICTED BY IDOCK:   -4.46 KCAL/MOL
REMARK 923 INTER-LIGAND FREE ENERGY PREDICTED BY IDOCK:   -3.75 KCAL/MOL
REMARK 924 INTRA-LIGAND FREE ENERGY PREDICTED BY IDOCK:   -0.71 KCAL/MOL
REMARK 927      BINDING AFFINITY PREDICTED BY RF-SCORE:    0.00 PKD
ROOT
HETATM    1  O   UNL     1     -10.252   9.711  65.476  1.00  0.00    -0.228 OA 
HETATM    2  C   UNL     1      -9.289   9.304  66.336  1.00  0.00    -0.192 C  
HETATM    3  O   UNL     1      -8.323   9.998  66.608  1.00  0.00    -0.124 OA 
HETATM    4  C   UNL     1      -9.564   7.925  66.891  1.00  0.00    -0.263 C  
ENDROOT
BRANCH   4   5
HETATM    5  C   UNL     1      -8.468   7.480  67.857  1.00  0.00    -0.122 C  
BRANCH   5   6
HETATM    6  C   UNL     1      -8.964   7.456  69.303  1.00  0.00    -0.136 C  
BRANCH   6   7
HETATM    7  C   UNL     1      -8.848   6.049  69.892  1.00  0.00    -0.138 C  
BRANCH   7   8
HETATM    8  C   UNL     1     -10.214   5.376  70.013  1.00  0.00    -0.349 C  
BRANCH   8   9
HETATM    9  C   UNL     1     -11.336   6.415  70.034  1.00  0.00    -0.496 C  
BRANCH   9  10
HETATM   10  C   UNL     1     -11.903   6.596  71.442  1.00  0.00    -0.388 C  
BRANCH  10  11
HETATM   11  C   UNL     1     -11.262   7.796  72.141  1.00  0.00    -0.348 C  
BRANCH  11  12
HETATM   12  C   UNL     1     -12.153   9.003  72.078  1.00  0.00    -0.440 C  
HETATM   13  C   UNL     1     -13.448   8.995  72.422  1.00  0.00    -0.524 C  
ENDBRANCH  11  12
ENDBRANCH  10  11
ENDBRANCH   9  10
ENDBRANCH   8   9
ENDBRANCH   7   8
ENDBRANCH   6   7
ENDBRANCH   5   6
ENDBRANCH   4   5
TORSDOF 8
ENDMDL
MODEL      227
REMARK 921   NORMALIZED FREE ENERGY PREDICTED BY IDOCK:   -2.71 KCAL/MOL
REMARK 922        TOTAL FREE ENERGY PREDICTED BY IDOCK:   -4.45 KCAL/MOL
REMARK 923 INTER-LIGAND FREE ENERGY PREDICTED BY IDOCK:   -3.74 KCAL/MOL
REMARK 924 INTRA-LIGAND FREE ENERGY PREDICTED BY IDOCK:   -0.71 KCAL/MOL
REMARK 927      BINDING AFFINITY PREDICTED BY RF-SCORE:    0.00 PKD
ROOT
HETATM    1  O   UNL     1      -6.509   8.217  65.720  1.00  0.00    -0.051 OA 
HETATM    2  C   UNL     1      -7.820   7.884  65.758  1.00  0.00    -0.103 C  
HETATM    3  O   UNL     1      -8.360   7.260  64.860  1.00  0.00    -0.111 OA 
HETATM    4  C   UNL     1      -8.498   8.373  67.019  1.00  0.00    -0.122 C  
ENDROOT
BRANCH   4   5
HETATM    5  C   UNL     1      -9.976   7.991  67.046  1.00  0.00    -0.324 C  
BRANCH   5   6
HETATM    6  C   UNL     1     -10.463   7.711  68.467  1.00  0.00    -0.206 C  
BRANCH   6   7
HETATM    7  C   UNL     1     -11.021   6.292  68.578  1.00  0.00    -0.421 C  
BRANCH   7   8
HETATM    8  C   UNL     1     -10.673   5.655  69.923  1.00  0.00    -0.399 C  
BRANCH   8   9
HETATM    9  C   UNL     1     -10.839   6.659  71.064  1.00  0.00    -0.289 C  
BRANCH   9  10
HETATM   10  C   UNL     1     -12.181   6.481  71.773  1.00  0.00    -0.374 C  
BRANCH  10  11
HETATM   11  C   UNL     1     -13.051   7.730  71.620  1.00  0.00    -0.378 C  
BRANCH  11  12
HETATM   12  C   UNL     1     -12.258   8.981  71.865  1.00  0.00    -0.451 C  
HETATM   13  C   UNL     1     -12.471  10.138  71.226  1.00  0.00    -0.510 C  
ENDBRANCH  11  12
ENDBRANCH  10  11
ENDBRANCH   9  10
ENDBRANCH   8   9
ENDBRANCH   7   8
ENDBRANCH   6   7
ENDBRANCH   5   6
ENDBRANCH   4   5
TORSDOF 8
ENDMDL
MODEL      228
REMARK 921   NORMALIZED FREE ENERGY PREDICTED BY IDOCK:   -2.69 KCAL/MOL
REMARK 922        TOTAL FREE ENERGY PREDICTED BY IDOCK:   -4.43 KCAL/MOL
REMARK 923 INTER-LIGAND FREE ENERGY PREDICTED BY IDOCK:   -3.69 KCAL/MOL
REMARK 924 INTRA-LIGAND FREE ENERGY PREDICTED BY IDOCK:   -0.74 KCAL/MOL
REMARK 927      BINDING AFFINITY PREDICTED BY RF-SCORE:    0.00 PKD
ROOT
HETATM    1  O   UNL     1      -8.713   6.304  65.609  1.00  0.00    -0.154 OA 
HETATM    2  C   UNL     1      -9.648   5.794  66.444  1.00  0.00    -0.153 C  
HETATM    3  O   UNL     1     -10.429   4.925  66.094  1.00  0.00    -0.283 OA 
HETATM    4  C   UNL     1      -9.593   6.424  67.818  1.00  0.00    -0.123 C  
ENDROOT
BRANCH   4   5
HETATM    5  C   UNL     1     -10.654   5.839  68.747  1.00  0.00    -0.321 C  
BRANCH   5   6
HETATM    6  C   UNL     1     -10.060   4.808  69.706  1.00  0.00    -0.289 C  
BRANCH   6   7
HETATM    7  C   UNL     1      -9.590   5.478  70.998  1.00  0.00    -0.217 C  
BRANCH   7   8
HETATM    8  C   UNL     1     -10.681   6.359  71.603  1.00  0.00    -0.274 C  
BRANCH   8   9
HETATM    9  C   UNL     1     -10.075   7.561  72.329  1.00  0.00    -0.244 C  
BRANCH   9  10
HETATM   10  C   UNL     1     -10.921   8.818  72.130  1.00  0.00    -0.404 C  
BRANCH  10  11
HETATM   11  C   UNL     1     -11.985   8.599  71.053  1.00  0.00    -0.278 C  
BRANCH  11  12
HETATM   12  C   UNL     1     -13.366   8.606  71.643  1.00  0.00    -0.386 C  
HETATM   13  C   UNL     1     -14.263   7.630  71.457  1.00  0.00    -0.564 C  
ENDBRANCH  11  12
ENDBRANCH  10  11
ENDBRANCH   9  10
ENDBRANCH   8   9
ENDBRANCH   7   8
ENDBRANCH   6   7
ENDBRANCH   5   6
ENDBRANCH   4   5
TORSDOF 8
ENDMDL
MODEL      229
REMARK 921   NORMALIZED FREE ENERGY PREDICTED BY IDOCK:   -2.69 KCAL/MOL
REMARK 922        TOTAL FREE ENERGY PREDICTED BY IDOCK:   -4.42 KCAL/MOL
REMARK 923 INTER-LIGAND FREE ENERGY PREDICTED BY IDOCK:   -3.60 KCAL/MOL
REMARK 924 INTRA-LIGAND FREE ENERGY PREDICTED BY IDOCK:   -0.83 KCAL/MOL
REMARK 927      BINDING AFFINITY PREDICTED BY RF-SCORE:    0.00 PKD
ROOT
HETATM    1  O   UNL     1      -6.576   8.276  65.808  1.00  0.00    -0.052 OA 
HETATM    2  C   UNL     1      -7.923   8.389  65.882  1.00  0.00    -0.099 C  
HETATM    3  O   UNL     1      -8.656   8.050  64.968  1.00  0.00    -0.119 OA 
HETATM    4  C   UNL     1      -8.376   8.973  67.201  1.00  0.00    -0.110 C  
ENDROOT
BRANCH   4   5
HETATM    5  C   UNL     1      -9.897   9.096  67.267  1.00  0.00    -0.244 C  
BRANCH   5   6
HETATM    6  C   UNL     1     -10.350  10.555  67.223  1.00  0.00    -0.275 C  
BRANCH   6   7
HETATM    7  C   UNL     1     -11.352  10.845  68.342  1.00  0.00    -0.370 C  
BRANCH   7   8
HETATM    8  C   UNL     1     -11.294  12.307  68.782  1.00  0.00    -0.337 C  
BRANCH   8   9
HETATM    9  C   UNL     1     -10.797  13.202  67.646  1.00  0.00    -0.269 C  
BRANCH   9  10
HETATM   10  C   UNL     1     -11.956  13.900  66.937  1.00  0.00    -0.467 C  
BRANCH  10  11
HETATM   11  C   UNL     1     -12.047  13.464  65.473  1.00  0.00    -0.467 C  
BRANCH  11  12
HETATM   12  C   UNL     1     -10.682  13.300  64.868  1.00  0.00    -0.365 C  
HETATM   13  C   UNL     1     -10.364  12.337  63.994  1.00  0.00    -0.423 C  
ENDBRANCH  11  12
ENDBRANCH  10  11
ENDBRANCH   9  10
ENDBRANCH   8   9
ENDBRANCH   7   8
ENDBRANCH   6   7
ENDBRANCH   5   6
ENDBRANCH   4   5
TORSDOF 8
ENDMDL
MODEL      230
REMARK 921   NORMALIZED FREE ENERGY PREDICTED BY IDOCK:   -2.69 KCAL/MOL
REMARK 922        TOTAL FREE ENERGY PREDICTED BY IDOCK:   -4.42 KCAL/MOL
REMARK 923 INTER-LIGAND FREE ENERGY PREDICTED BY IDOCK:   -3.82 KCAL/MOL
REMARK 924 INTRA-LIGAND FREE ENERGY PREDICTED BY IDOCK:   -0.61 KCAL/MOL
REMARK 927      BINDING AFFINITY PREDICTED BY RF-SCORE:    0.00 PKD
ROOT
HETATM    1  O   UNL     1     -12.779  12.269  65.219  1.00  0.00    -0.543 OA 
HETATM    2  C   UNL     1     -12.047  13.371  65.504  1.00  0.00    -0.428 C  
HETATM    3  O   UNL     1     -11.898  14.278  64.703  1.00  0.00    -0.400 OA 
HETATM    4  C   UNL     1     -11.461  13.324  66.898  1.00  0.00    -0.376 C  
ENDROOT
BRANCH   4   5
HETATM    5  C   UNL     1     -10.637  14.573  67.202  1.00  0.00    -0.274 C  
BRANCH   5   6
HETATM    6  C   UNL     1      -9.160  14.373  66.863  1.00  0.00    -0.269 C  
BRANCH   6   7
HETATM    7  C   UNL     1      -8.281  15.301  67.703  1.00  0.00    -0.175 C  
BRANCH   7   8
HETATM    8  C   UNL     1      -7.382  16.170  66.825  1.00  0.00    -0.220 C  
BRANCH   8   9
HETATM    9  C   UNL     1      -8.208  17.182  66.030  1.00  0.00    -0.183 C  
BRANCH   9  10
HETATM   10  C   UNL     1      -8.115  18.581  66.639  1.00  0.00    -0.280 C  
BRANCH  10  11
HETATM   11  C   UNL     1      -6.663  18.951  66.944  1.00  0.00    -0.204 C  
BRANCH  11  12
HETATM   12  C   UNL     1      -6.497  19.376  68.374  1.00  0.00    -0.277 C  
HETATM   13  C   UNL     1      -6.846  18.620  69.423  1.00  0.00    -0.188 C  
ENDBRANCH  11  12
ENDBRANCH  10  11
ENDBRANCH   9  10
ENDBRANCH   8   9
ENDBRANCH   7   8
ENDBRANCH   6   7
ENDBRANCH   5   6
ENDBRANCH   4   5
TORSDOF 8
ENDMDL
MODEL      231
REMARK 921   NORMALIZED FREE ENERGY PREDICTED BY IDOCK:   -2.68 KCAL/MOL
REMARK 922        TOTAL FREE ENERGY PREDICTED BY IDOCK:   -4.42 KCAL/MOL
REMARK 923 INTER-LIGAND FREE ENERGY PREDICTED BY IDOCK:   -3.76 KCAL/MOL
REMARK 924 INTRA-LIGAND FREE ENERGY PREDICTED BY IDOCK:   -0.66 KCAL/MOL
REMARK 927      BINDING AFFINITY PREDICTED BY RF-SCORE:    0.00 PKD
ROOT
HETATM    1  O   UNL     1      -9.647   7.933  68.302  1.00  0.00    -0.152 OA 
HETATM    2  C   UNL     1     -10.472   8.368  69.282  1.00  0.00    -0.215 C  
HETATM    3  O   UNL     1     -10.937   7.617  70.123  1.00  0.00    -0.255 OA 
HETATM    4  C   UNL     1     -10.731   9.856  69.195  1.00  0.00    -0.247 C  
ENDROOT
BRANCH   4   5
HETATM    5  C   UNL     1     -11.664  10.329  70.307  1.00  0.00    -0.388 C  
BRANCH   5   6
HETATM    6  C   UNL     1     -12.176  11.747  70.052  1.00  0.00    -0.317 C  
BRANCH   6   7
HETATM    7  C   UNL     1     -12.719  12.367  71.340  1.00  0.00    -0.346 C  
BRANCH   7   8
HETATM    8  C   UNL     1     -13.018  13.855  71.164  1.00  0.00    -0.388 C  
BRANCH   8   9
HETATM    9  C   UNL     1     -12.176  14.453  70.037  1.00  0.00    -0.408 C  
BRANCH   9  10
HETATM   10  C   UNL     1     -11.062  15.345  70.585  1.00  0.00    -0.364 C  
BRANCH  10  11
HETATM   11  C   UNL     1     -10.161  15.853  69.457  1.00  0.00    -0.279 C  
BRANCH  11  12
HETATM   12  C   UNL     1      -9.971  14.806  68.398  1.00  0.00    -0.223 C  
HETATM   13  C   UNL     1      -8.934  13.958  68.364  1.00  0.00    -0.178 C  
ENDBRANCH  11  12
ENDBRANCH  10  11
ENDBRANCH   9  10
ENDBRANCH   8   9
ENDBRANCH   7   8
ENDBRANCH   6   7
ENDBRANCH   5   6
ENDBRANCH   4   5
TORSDOF 8
ENDMDL
MODEL      232
REMARK 921   NORMALIZED FREE ENERGY PREDICTED BY IDOCK:   -2.68 KCAL/MOL
REMARK 922        TOTAL FREE ENERGY PREDICTED BY IDOCK:   -4.41 KCAL/MOL
REMARK 923 INTER-LIGAND FREE ENERGY PREDICTED BY IDOCK:   -4.84 KCAL/MOL
REMARK 924 INTRA-LIGAND FREE ENERGY PREDICTED BY IDOCK:    0.43 KCAL/MOL
REMARK 927      BINDING AFFINITY PREDICTED BY RF-SCORE:    0.00 PKD
ROOT
HETATM    1  O   UNL     1     -11.095  19.087  65.527  1.00  0.00    -0.288 OA 
HETATM    2  C   UNL     1     -10.507  17.874  65.398  1.00  0.00     0.170 C  
HETATM    3  O   UNL     1     -10.843  17.075  64.541  1.00  0.00    -0.825 OA 
HETATM    4  C   UNL     1      -9.417  17.656  66.424  1.00  0.00    -0.274 C  
ENDROOT
BRANCH   4   5
HETATM    5  C   UNL     1      -8.765  16.284  66.266  1.00  0.00    -0.370 C  
BRANCH   5   6
HETATM    6  C   UNL     1      -9.804  15.163  66.232  1.00  0.00    -0.317 C  
BRANCH   6   7
HETATM    7  C   UNL     1     -10.009  14.572  67.627  1.00  0.00    -0.224 C  
BRANCH   7   8
HETATM    8  C   UNL     1     -10.730  15.552  68.552  1.00  0.00    -0.259 C  
BRANCH   8   9
HETATM    9  C   UNL     1     -12.034  14.951  69.077  1.00  0.00    -0.307 C  
BRANCH   9  10
HETATM   10  C   UNL     1     -12.161  15.126  70.590  1.00  0.00    -0.378 C  
BRANCH  10  11
HETATM   11  C   UNL     1     -13.608  15.421  70.989  1.00  0.00    -0.465 C  
BRANCH  11  12
HETATM   12  C   UNL     1     -14.063  14.519  72.099  1.00  0.00    -0.616 C  
HETATM   13  C   UNL     1     -13.675  13.244  72.232  1.00  0.00    -0.686 C  
ENDBRANCH  11  12
ENDBRANCH  10  11
ENDBRANCH   9  10
ENDBRANCH   8   9
ENDBRANCH   7   8
ENDBRANCH   6   7
ENDBRANCH   5   6
ENDBRANCH   4   5
TORSDOF 8
ENDMDL
MODEL      233
REMARK 921   NORMALIZED FREE ENERGY PREDICTED BY IDOCK:   -2.68 KCAL/MOL
REMARK 922        TOTAL FREE ENERGY PREDICTED BY IDOCK:   -4.41 KCAL/MOL
REMARK 923 INTER-LIGAND FREE ENERGY PREDICTED BY IDOCK:   -4.19 KCAL/MOL
REMARK 924 INTRA-LIGAND FREE ENERGY PREDICTED BY IDOCK:   -0.22 KCAL/MOL
REMARK 927      BINDING AFFINITY PREDICTED BY RF-SCORE:    0.00 PKD
ROOT
HETATM    1  O   UNL     1     -14.395   8.991  72.480  1.00  0.00    -0.570 OA 
HETATM    2  C   UNL     1     -13.162   8.616  72.067  1.00  0.00    -0.386 C  
HETATM    3  O   UNL     1     -12.850   7.445  71.927  1.00  0.00    -0.317 OA 
HETATM    4  C   UNL     1     -12.258   9.802  71.812  1.00  0.00    -0.449 C  
ENDROOT
BRANCH   4   5
HETATM    5  C   UNL     1     -10.871   9.362  71.348  1.00  0.00    -0.430 C  
BRANCH   5   6
HETATM    6  C   UNL     1     -10.452  10.074  70.063  1.00  0.00    -0.337 C  
BRANCH   6   7
HETATM    7  C   UNL     1      -9.137   9.502  69.531  1.00  0.00    -0.193 C  
BRANCH   7   8
HETATM    8  C   UNL     1      -9.142   9.404  68.007  1.00  0.00    -0.131 C  
BRANCH   8   9
HETATM    9  C   UNL     1     -10.000   8.229  67.537  1.00  0.00    -0.252 C  
BRANCH   9  10
HETATM   10  C   UNL     1     -10.231   7.221  68.663  1.00  0.00    -0.191 C  
BRANCH  10  11
HETATM   11  C   UNL     1     -10.855   5.931  68.125  1.00  0.00    -0.323 C  
BRANCH  11  12
HETATM   12  C   UNL     1     -10.494   5.711  66.685  1.00  0.00    -0.340 C  
HETATM   13  C   UNL     1      -9.962   4.576  66.213  1.00  0.00    -0.268 C  
ENDBRANCH  11  12
ENDBRANCH  10  11
ENDBRANCH   9  10
ENDBRANCH   8   9
ENDBRANCH   7   8
ENDBRANCH   6   7
ENDBRANCH   5   6
ENDBRANCH   4   5
TORSDOF 8
ENDMDL
MODEL      234
REMARK 921   NORMALIZED FREE ENERGY PREDICTED BY IDOCK:   -2.68 KCAL/MOL
REMARK 922        TOTAL FREE ENERGY PREDICTED BY IDOCK:   -4.41 KCAL/MOL
REMARK 923 INTER-LIGAND FREE ENERGY PREDICTED BY IDOCK:   -3.63 KCAL/MOL
REMARK 924 INTRA-LIGAND FREE ENERGY PREDICTED BY IDOCK:   -0.78 KCAL/MOL
REMARK 927      BINDING AFFINITY PREDICTED BY RF-SCORE:    0.00 PKD
ROOT
HETATM    1  O   UNL     1      -7.838   3.727  70.139  1.00  0.00    -0.048 OA 
HETATM    2  C   UNL     1      -8.114   4.670  69.207  1.00  0.00    -0.069 C  
HETATM    3  O   UNL     1      -7.408   5.650  69.043  1.00  0.00    -0.078 OA 
HETATM    4  C   UNL     1      -9.371   4.352  68.428  1.00  0.00    -0.203 C  
ENDROOT
BRANCH   4   5
HETATM    5  C   UNL     1      -9.669   5.425  67.383  1.00  0.00    -0.153 C  
BRANCH   5   6
HETATM    6  C   UNL     1     -11.023   6.093  67.627  1.00  0.00    -0.400 C  
BRANCH   6   7
HETATM    7  C   UNL     1     -11.278   6.266  69.125  1.00  0.00    -0.439 C  
BRANCH   7   8
HETATM    8  C   UNL     1     -10.683   7.571  69.650  1.00  0.00    -0.236 C  
BRANCH   8   9
HETATM    9  C   UNL     1     -10.077   7.377  71.040  1.00  0.00    -0.191 C  
BRANCH   9  10
HETATM   10  C   UNL     1     -10.535   8.468  72.007  1.00  0.00    -0.407 C  
BRANCH  10  11
HETATM   11  C   UNL     1     -11.946   8.183  72.527  1.00  0.00    -0.410 C  
BRANCH  11  12
HETATM   12  C   UNL     1     -12.855   9.358  72.309  1.00  0.00    -0.452 C  
HETATM   13  C   UNL     1     -12.669  10.279  71.355  1.00  0.00    -0.547 C  
ENDBRANCH  11  12
ENDBRANCH  10  11
ENDBRANCH   9  10
ENDBRANCH   8   9
ENDBRANCH   7   8
ENDBRANCH   6   7
ENDBRANCH   5   6
ENDBRANCH   4   5
TORSDOF 8
ENDMDL
MODEL      235
REMARK 921   NORMALIZED FREE ENERGY PREDICTED BY IDOCK:   -2.66 KCAL/MOL
REMARK 922        TOTAL FREE ENERGY PREDICTED BY IDOCK:   -4.38 KCAL/MOL
REMARK 923 INTER-LIGAND FREE ENERGY PREDICTED BY IDOCK:   -3.98 KCAL/MOL
REMARK 924 INTRA-LIGAND FREE ENERGY PREDICTED BY IDOCK:   -0.40 KCAL/MOL
REMARK 927      BINDING AFFINITY PREDICTED BY RF-SCORE:    0.00 PKD
ROOT
HETATM    1  O   UNL     1      -7.099  10.764  66.830  1.00  0.00    -0.100 OA 
HETATM    2  C   UNL     1      -7.893  11.860  66.855  1.00  0.00    -0.120 C  
HETATM    3  O   UNL     1      -7.532  12.915  67.349  1.00  0.00    -0.148 OA 
HETATM    4  C   UNL     1      -9.239  11.606  66.213  1.00  0.00    -0.225 C  
ENDROOT
BRANCH   4   5
HETATM    5  C   UNL     1     -10.123  12.850  66.251  1.00  0.00    -0.281 C  
BRANCH   5   6
HETATM    6  C   UNL     1     -11.326  12.661  67.174  1.00  0.00    -0.373 C  
BRANCH   6   7
HETATM    7  C   UNL     1     -11.026  11.615  68.248  1.00  0.00    -0.273 C  
BRANCH   7   8
HETATM    8  C   UNL     1     -12.282  11.236  69.031  1.00  0.00    -0.211 C  
BRANCH   8   9
HETATM    9  C   UNL     1     -11.983  11.126  70.526  1.00  0.00    -0.475 C  
BRANCH   9  10
HETATM   10  C   UNL     1     -12.870  12.065  71.344  1.00  0.00    -0.391 C  
BRANCH  10  11
HETATM   11  C   UNL     1     -12.573  13.528  71.012  1.00  0.00    -0.438 C  
BRANCH  11  12
HETATM   12  C   UNL     1     -12.841  14.419  72.190  1.00  0.00    -0.418 C  
HETATM   13  C   UNL     1     -11.921  15.217  72.748  1.00  0.00    -0.522 C  
ENDBRANCH  11  12
ENDBRANCH  10  11
ENDBRANCH   9  10
ENDBRANCH   8   9
ENDBRANCH   7   8
ENDBRANCH   6   7
ENDBRANCH   5   6
ENDBRANCH   4   5
TORSDOF 8
ENDMDL
MODEL      236
REMARK 921   NORMALIZED FREE ENERGY PREDICTED BY IDOCK:   -2.65 KCAL/MOL
REMARK 922        TOTAL FREE ENERGY PREDICTED BY IDOCK:   -4.38 KCAL/MOL
REMARK 923 INTER-LIGAND FREE ENERGY PREDICTED BY IDOCK:   -3.98 KCAL/MOL
REMARK 924 INTRA-LIGAND FREE ENERGY PREDICTED BY IDOCK:   -0.39 KCAL/MOL
REMARK 927      BINDING AFFINITY PREDICTED BY RF-SCORE:    0.00 PKD
ROOT
HETATM    1  O   UNL     1      -8.407   7.113  74.075  1.00  0.00    -0.127 OA 
HETATM    2  C   UNL     1      -9.012   7.217  72.869  1.00  0.00    -0.134 C  
HETATM    3  O   UNL     1      -8.690   6.527  71.917  1.00  0.00    -0.130 OA 
HETATM    4  C   UNL     1     -10.100   8.268  72.864  1.00  0.00    -0.285 C  
ENDROOT
BRANCH   4   5
HETATM    5  C   UNL     1     -10.771   8.374  71.496  1.00  0.00    -0.313 C  
BRANCH   5   6
HETATM    6  C   UNL     1     -11.471   9.720  71.313  1.00  0.00    -0.457 C  
BRANCH   6   7
HETATM    7  C   UNL     1     -11.013  10.397  70.020  1.00  0.00    -0.370 C  
BRANCH   7   8
HETATM    8  C   UNL     1     -12.096  11.314  69.452  1.00  0.00    -0.384 C  
BRANCH   8   9
HETATM    9  C   UNL     1     -11.476  12.530  68.762  1.00  0.00    -0.353 C  
BRANCH   9  10
HETATM   10  C   UNL     1     -12.138  13.829  69.218  1.00  0.00    -0.374 C  
BRANCH  10  11
HETATM   11  C   UNL     1     -11.339  14.485  70.346  1.00  0.00    -0.196 C  
BRANCH  11  12
HETATM   12  C   UNL     1     -12.053  14.366  71.661  1.00  0.00    -0.339 C  
HETATM   13  C   UNL     1     -12.146  15.360  72.554  1.00  0.00    -0.522 C  
ENDBRANCH  11  12
ENDBRANCH  10  11
ENDBRANCH   9  10
ENDBRANCH   8   9
ENDBRANCH   7   8
ENDBRANCH   6   7
ENDBRANCH   5   6
ENDBRANCH   4   5
TORSDOF 8
ENDMDL
MODEL      237
REMARK 921   NORMALIZED FREE ENERGY PREDICTED BY IDOCK:   -2.65 KCAL/MOL
REMARK 922        TOTAL FREE ENERGY PREDICTED BY IDOCK:   -4.38 KCAL/MOL
REMARK 923 INTER-LIGAND FREE ENERGY PREDICTED BY IDOCK:   -3.92 KCAL/MOL
REMARK 924 INTRA-LIGAND FREE ENERGY PREDICTED BY IDOCK:   -0.46 KCAL/MOL
REMARK 927      BINDING AFFINITY PREDICTED BY RF-SCORE:    0.00 PKD
ROOT
HETATM    1  O   UNL     1     -11.779   6.337  70.398  1.00  0.00    -0.367 OA 
HETATM    2  C   UNL     1     -11.242   7.464  70.919  1.00  0.00    -0.270 C  
HETATM    3  O   UNL     1     -11.217   7.680  72.119  1.00  0.00    -0.254 OA 
HETATM    4  C   UNL     1     -10.698   8.386  69.850  1.00  0.00    -0.227 C  
ENDROOT
BRANCH   4   5
HETATM    5  C   UNL     1     -10.097   9.654  70.454  1.00  0.00    -0.336 C  
BRANCH   5   6
HETATM    6  C   UNL     1      -9.002  10.241  69.565  1.00  0.00    -0.176 C  
BRANCH   6   7
HETATM    7  C   UNL     1      -9.510  10.432  68.135  1.00  0.00    -0.152 C  
BRANCH   7   8
HETATM    8  C   UNL     1      -9.491  11.904  67.725  1.00  0.00    -0.184 C  
BRANCH   8   9
HETATM    9  C   UNL     1     -10.845  12.563  67.988  1.00  0.00    -0.252 C  
BRANCH   9  10
HETATM   10  C   UNL     1     -11.742  12.511  66.751  1.00  0.00    -0.453 C  
BRANCH  10  11
HETATM   11  C   UNL     1     -12.125  13.919  66.291  1.00  0.00    -0.484 C  
BRANCH  11  12
HETATM   12  C   UNL     1     -11.000  14.572  65.541  1.00  0.00    -0.337 C  
HETATM   13  C   UNL     1     -11.157  15.622  64.725  1.00  0.00    -0.426 C  
ENDBRANCH  11  12
ENDBRANCH  10  11
ENDBRANCH   9  10
ENDBRANCH   8   9
ENDBRANCH   7   8
ENDBRANCH   6   7
ENDBRANCH   5   6
ENDBRANCH   4   5
TORSDOF 8
ENDMDL
MODEL      238
REMARK 921   NORMALIZED FREE ENERGY PREDICTED BY IDOCK:   -2.65 KCAL/MOL
REMARK 922        TOTAL FREE ENERGY PREDICTED BY IDOCK:   -4.37 KCAL/MOL
REMARK 923 INTER-LIGAND FREE ENERGY PREDICTED BY IDOCK:   -3.67 KCAL/MOL
REMARK 924 INTRA-LIGAND FREE ENERGY PREDICTED BY IDOCK:   -0.70 KCAL/MOL
REMARK 927      BINDING AFFINITY PREDICTED BY RF-SCORE:    0.00 PKD
ROOT
HETATM    1  O   UNL     1      -7.696  10.591  66.672  1.00  0.00    -0.112 OA 
HETATM    2  C   UNL     1      -7.279  11.809  67.089  1.00  0.00    -0.147 C  
HETATM    3  O   UNL     1      -6.205  12.280  66.754  1.00  0.00    -0.185 OA 
HETATM    4  C   UNL     1      -8.289  12.479  67.994  1.00  0.00    -0.171 C  
ENDROOT
BRANCH   4   5
HETATM    5  C   UNL     1      -7.803  13.851  68.458  1.00  0.00    -0.139 C  
BRANCH   5   6
HETATM    6  C   UNL     1      -8.959  14.838  68.614  1.00  0.00    -0.185 C  
BRANCH   6   7
HETATM    7  C   UNL     1      -9.575  15.171  67.254  1.00  0.00    -0.211 C  
BRANCH   7   8
HETATM    8  C   UNL     1     -11.098  15.267  67.336  1.00  0.00    -0.326 C  
BRANCH   8   9
HETATM    9  C   UNL     1     -11.759  14.413  66.254  1.00  0.00    -0.394 C  
BRANCH   9  10
HETATM   10  C   UNL     1     -10.921  14.384  64.976  1.00  0.00    -0.398 C  
BRANCH  10  11
HETATM   11  C   UNL     1     -10.535  12.951  64.606  1.00  0.00    -0.385 C  
BRANCH  11  12
HETATM   12  C   UNL     1     -11.751  12.095  64.399  1.00  0.00    -0.430 C  
HETATM   13  C   UNL     1     -12.565  12.195  63.340  1.00  0.00    -0.584 C  
ENDBRANCH  11  12
ENDBRANCH  10  11
ENDBRANCH   9  10
ENDBRANCH   8   9
ENDBRANCH   7   8
ENDBRANCH   6   7
ENDBRANCH   5   6
ENDBRANCH   4   5
TORSDOF 8
ENDMDL
MODEL      239
REMARK 921   NORMALIZED FREE ENERGY PREDICTED BY IDOCK:   -2.65 KCAL/MOL
REMARK 922        TOTAL FREE ENERGY PREDICTED BY IDOCK:   -4.36 KCAL/MOL
REMARK 923 INTER-LIGAND FREE ENERGY PREDICTED BY IDOCK:   -3.59 KCAL/MOL
REMARK 924 INTRA-LIGAND FREE ENERGY PREDICTED BY IDOCK:   -0.77 KCAL/MOL
REMARK 927      BINDING AFFINITY PREDICTED BY RF-SCORE:    0.00 PKD
ROOT
HETATM    1  O   UNL     1      -7.896  15.116  68.716  1.00  0.00    -0.128 OA 
HETATM    2  C   UNL     1      -7.790  14.069  67.865  1.00  0.00    -0.160 C  
HETATM    3  O   UNL     1      -6.730  13.752  67.351  1.00  0.00    -0.220 OA 
HETATM    4  C   UNL     1      -9.114  13.372  67.648  1.00  0.00    -0.203 C  
ENDROOT
BRANCH   4   5
HETATM    5  C   UNL     1      -8.978  12.194  66.685  1.00  0.00    -0.198 C  
BRANCH   5   6
HETATM    6  C   UNL     1      -8.796  10.872  67.430  1.00  0.00    -0.133 C  
BRANCH   6   7
HETATM    7  C   UNL     1      -9.814   9.836  66.951  1.00  0.00    -0.256 C  
BRANCH   7   8
HETATM    8  C   UNL     1     -10.839   9.512  68.037  1.00  0.00    -0.225 C  
BRANCH   8   9
HETATM    9  C   UNL     1     -10.150   9.030  69.314  1.00  0.00    -0.197 C  
BRANCH   9  10
HETATM   10  C   UNL     1     -10.565   9.867  70.523  1.00  0.00    -0.359 C  
BRANCH  10  11
HETATM   11  C   UNL     1     -11.642  10.885  70.142  1.00  0.00    -0.425 C  
BRANCH  11  12
HETATM   12  C   UNL     1     -12.746  10.916  71.160  1.00  0.00    -0.530 C  
HETATM   13  C   UNL     1     -13.153   9.845  71.854  1.00  0.00    -0.559 C  
ENDBRANCH  11  12
ENDBRANCH  10  11
ENDBRANCH   9  10
ENDBRANCH   8   9
ENDBRANCH   7   8
ENDBRANCH   6   7
ENDBRANCH   5   6
ENDBRANCH   4   5
TORSDOF 8
ENDMDL
MODEL      240
REMARK 921   NORMALIZED FREE ENERGY PREDICTED BY IDOCK:   -2.64 KCAL/MOL
REMARK 922        TOTAL FREE ENERGY PREDICTED BY IDOCK:   -4.35 KCAL/MOL
REMARK 923 INTER-LIGAND FREE ENERGY PREDICTED BY IDOCK:   -3.24 KCAL/MOL
REMARK 924 INTRA-LIGAND FREE ENERGY PREDICTED BY IDOCK:   -1.11 KCAL/MOL
REMARK 927      BINDING AFFINITY PREDICTED BY RF-SCORE:    0.00 PKD
ROOT
HETATM    1  O   UNL     1      -5.909  13.000  67.310  1.00  0.00    -0.330 OA 
HETATM    2  C   UNL     1      -6.279  14.070  68.053  1.00  0.00    -0.142 C  
HETATM    3  O   UNL     1      -5.807  14.292  69.155  1.00  0.00    -0.086 OA 
HETATM    4  C   UNL     1      -7.319  14.918  67.356  1.00  0.00    -0.222 C  
ENDROOT
BRANCH   4   5
HETATM    5  C   UNL     1      -7.727  16.119  68.207  1.00  0.00    -0.148 C  
BRANCH   5   6
HETATM    6  C   UNL     1      -8.117  17.319  67.344  1.00  0.00    -0.205 C  
BRANCH   6   7
HETATM    7  C   UNL     1      -9.448  17.910  67.810  1.00  0.00    -0.263 C  
BRANCH   7   8
HETATM    8  C   UNL     1     -10.624  17.341  67.017  1.00  0.00    -0.231 C  
BRANCH   8   9
HETATM    9  C   UNL     1     -10.180  16.895  65.624  1.00  0.00    -0.227 C  
BRANCH   9  10
HETATM   10  C   UNL     1     -11.025  15.728  65.114  1.00  0.00    -0.394 C  
BRANCH  10  11
HETATM   11  C   UNL     1     -10.187  14.453  64.999  1.00  0.00    -0.406 C  
BRANCH  11  12
HETATM   12  C   UNL     1     -10.646  13.410  65.976  1.00  0.00    -0.290 C  
HETATM   13  C   UNL     1     -10.970  13.669  67.250  1.00  0.00    -0.299 C  
ENDBRANCH  11  12
ENDBRANCH  10  11
ENDBRANCH   9  10
ENDBRANCH   8   9
ENDBRANCH   7   8
ENDBRANCH   6   7
ENDBRANCH   5   6
ENDBRANCH   4   5
TORSDOF 8
ENDMDL
MODEL      241
REMARK 921   NORMALIZED FREE ENERGY PREDICTED BY IDOCK:   -2.63 KCAL/MOL
REMARK 922        TOTAL FREE ENERGY PREDICTED BY IDOCK:   -4.35 KCAL/MOL
REMARK 923 INTER-LIGAND FREE ENERGY PREDICTED BY IDOCK:   -3.64 KCAL/MOL
REMARK 924 INTRA-LIGAND FREE ENERGY PREDICTED BY IDOCK:   -0.71 KCAL/MOL
REMARK 927      BINDING AFFINITY PREDICTED BY RF-SCORE:    0.00 PKD
ROOT
HETATM    1  O   UNL     1      -7.323  14.454  69.377  1.00  0.00    -0.129 OA 
HETATM    2  C   UNL     1      -6.995  13.649  68.340  1.00  0.00    -0.104 C  
HETATM    3  O   UNL     1      -5.902  13.696  67.799  1.00  0.00    -0.162 OA 
HETATM    4  C   UNL     1      -8.125  12.719  67.957  1.00  0.00    -0.162 C  
ENDROOT
BRANCH   4   5
HETATM    5  C   UNL     1      -7.739  11.819  66.785  1.00  0.00    -0.086 C  
BRANCH   5   6
HETATM    6  C   UNL     1      -8.695  10.636  66.641  1.00  0.00    -0.144 C  
BRANCH   6   7
HETATM    7  C   UNL     1     -10.016  11.081  66.010  1.00  0.00    -0.285 C  
BRANCH   7   8
HETATM    8  C   UNL     1      -9.807  11.626  64.598  1.00  0.00    -0.259 C  
BRANCH   8   9
HETATM    9  C   UNL     1     -11.027  11.349  63.719  1.00  0.00    -0.448 C  
BRANCH   9  10
HETATM   10  C   UNL     1     -12.281  12.026  64.273  1.00  0.00    -0.404 C  
BRANCH  10  11
HETATM   11  C   UNL     1     -12.127  13.548  64.275  1.00  0.00    -0.482 C  
BRANCH  11  12
HETATM   12  C   UNL     1     -12.626  14.144  65.559  1.00  0.00    -0.501 C  
HETATM   13  C   UNL     1     -12.117  13.856  66.764  1.00  0.00    -0.476 C  
ENDBRANCH  11  12
ENDBRANCH  10  11
ENDBRANCH   9  10
ENDBRANCH   8   9
ENDBRANCH   7   8
ENDBRANCH   6   7
ENDBRANCH   5   6
ENDBRANCH   4   5
TORSDOF 8
ENDMDL
MODEL      242
REMARK 921   NORMALIZED FREE ENERGY PREDICTED BY IDOCK:   -2.63 KCAL/MOL
REMARK 922        TOTAL FREE ENERGY PREDICTED BY IDOCK:   -4.34 KCAL/MOL
REMARK 923 INTER-LIGAND FREE ENERGY PREDICTED BY IDOCK:   -3.55 KCAL/MOL
REMARK 924 INTRA-LIGAND FREE ENERGY PREDICTED BY IDOCK:   -0.80 KCAL/MOL
REMARK 927      BINDING AFFINITY PREDICTED BY RF-SCORE:    0.00 PKD
ROOT
HETATM    1  O   UNL     1      -9.342   8.573  72.022  1.00  0.00    -0.234 OA 
HETATM    2  C   UNL     1     -10.482   9.078  71.496  1.00  0.00    -0.339 C  
HETATM    3  O   UNL     1     -11.573   8.899  72.011  1.00  0.00    -0.351 OA 
HETATM    4  C   UNL     1     -10.228   9.864  70.229  1.00  0.00    -0.322 C  
ENDROOT
BRANCH   4   5
HETATM    5  C   UNL     1     -11.523  10.425  69.647  1.00  0.00    -0.326 C  
BRANCH   5   6
HETATM    6  C   UNL     1     -11.356  10.834  68.183  1.00  0.00    -0.377 C  
BRANCH   6   7
HETATM    7  C   UNL     1     -10.878   9.650  67.342  1.00  0.00    -0.242 C  
BRANCH   7   8
HETATM    8  C   UNL     1      -9.989  10.105  66.186  1.00  0.00    -0.310 C  
BRANCH   8   9
HETATM    9  C   UNL     1      -8.899   9.073  65.895  1.00  0.00    -0.210 C  
BRANCH   9  10
HETATM   10  C   UNL     1      -8.649   8.169  67.102  1.00  0.00    -0.124 C  
BRANCH  10  11
HETATM   11  C   UNL     1      -8.621   6.696  66.687  1.00  0.00    -0.123 C  
BRANCH  11  12
HETATM   12  C   UNL     1     -10.009   6.163  66.480  1.00  0.00    -0.179 C  
HETATM   13  C   UNL     1     -10.959   6.163  67.424  1.00  0.00    -0.409 C  
ENDBRANCH  11  12
ENDBRANCH  10  11
ENDBRANCH   9  10
ENDBRANCH   8   9
ENDBRANCH   7   8
ENDBRANCH   6   7
ENDBRANCH   5   6
ENDBRANCH   4   5
TORSDOF 8
ENDMDL
MODEL      243
REMARK 921   NORMALIZED FREE ENERGY PREDICTED BY IDOCK:   -2.63 KCAL/MOL
REMARK 922        TOTAL FREE ENERGY PREDICTED BY IDOCK:   -4.34 KCAL/MOL
REMARK 923 INTER-LIGAND FREE ENERGY PREDICTED BY IDOCK:   -3.94 KCAL/MOL
REMARK 924 INTRA-LIGAND FREE ENERGY PREDICTED BY IDOCK:   -0.40 KCAL/MOL
REMARK 927      BINDING AFFINITY PREDICTED BY RF-SCORE:    0.00 PKD
ROOT
HETATM    1  O   UNL     1      -6.366  20.636  72.075  1.00  0.00    -0.492 OA 
HETATM    2  C   UNL     1      -5.877  19.763  71.163  1.00  0.00    -0.231 C  
HETATM    3  O   UNL     1      -5.142  18.841  71.474  1.00  0.00    -0.429 OA 
HETATM    4  C   UNL     1      -6.349  20.076  69.761  1.00  0.00    -0.389 C  
ENDROOT
BRANCH   4   5
HETATM    5  C   UNL     1      -5.787  19.083  68.745  1.00  0.00    -0.223 C  
BRANCH   5   6
HETATM    6  C   UNL     1      -6.739  17.910  68.514  1.00  0.00    -0.227 C  
BRANCH   6   7
HETATM    7  C   UNL     1      -7.508  18.088  67.203  1.00  0.00    -0.221 C  
BRANCH   7   8
HETATM    8  C   UNL     1      -8.850  18.783  67.429  1.00  0.00    -0.285 C  
BRANCH   8   9
HETATM    9  C   UNL     1      -9.950  18.138  66.586  1.00  0.00    -0.363 C  
BRANCH   9  10
HETATM   10  C   UNL     1      -9.459  16.857  65.913  1.00  0.00    -0.148 C  
BRANCH  10  11
HETATM   11  C   UNL     1      -9.966  15.619  66.655  1.00  0.00    -0.269 C  
BRANCH  11  12
HETATM   12  C   UNL     1     -11.310  15.188  66.141  1.00  0.00    -0.220 C  
HETATM   13  C   UNL     1     -11.868  14.001  66.412  1.00  0.00    -0.437 C  
ENDBRANCH  11  12
ENDBRANCH  10  11
ENDBRANCH   9  10
ENDBRANCH   8   9
ENDBRANCH   7   8
ENDBRANCH   6   7
ENDBRANCH   5   6
ENDBRANCH   4   5
TORSDOF 8
ENDMDL
MODEL      244
REMARK 921   NORMALIZED FREE ENERGY PREDICTED BY IDOCK:   -2.61 KCAL/MOL
REMARK 922        TOTAL FREE ENERGY PREDICTED BY IDOCK:   -4.31 KCAL/MOL
REMARK 923 INTER-LIGAND FREE ENERGY PREDICTED BY IDOCK:   -3.72 KCAL/MOL
REMARK 924 INTRA-LIGAND FREE ENERGY PREDICTED BY IDOCK:   -0.59 KCAL/MOL
REMARK 927      BINDING AFFINITY PREDICTED BY RF-SCORE:    0.00 PKD
ROOT
HETATM    1  O   UNL     1      -7.267   9.615  67.775  1.00  0.00    -0.084 OA 
HETATM    2  C   UNL     1      -8.006  10.420  66.977  1.00  0.00    -0.116 C  
HETATM    3  O   UNL     1      -7.685  11.572  66.738  1.00  0.00    -0.151 OA 
HETATM    4  C   UNL     1      -9.237   9.722  66.443  1.00  0.00    -0.200 C  
ENDROOT
BRANCH   4   5
HETATM    5  C   UNL     1     -10.060  10.645  65.546  1.00  0.00    -0.343 C  
BRANCH   5   6
HETATM    6  C   UNL     1     -11.152  11.371  66.332  1.00  0.00    -0.301 C  
BRANCH   6   7
HETATM    7  C   UNL     1     -11.154  12.864  66.001  1.00  0.00    -0.308 C  
BRANCH   7   8
HETATM    8  C   UNL     1     -11.983  13.661  67.008  1.00  0.00    -0.448 C  
BRANCH   8   9
HETATM    9  C   UNL     1     -11.773  13.135  68.428  1.00  0.00    -0.386 C  
BRANCH   9  10
HETATM   10  C   UNL     1     -11.372  14.256  69.386  1.00  0.00    -0.325 C  
BRANCH  10  11
HETATM   11  C   UNL     1     -11.816  15.619  68.851  1.00  0.00    -0.368 C  
BRANCH  11  12
HETATM   12  C   UNL     1     -10.796  16.680  69.148  1.00  0.00    -0.315 C  
HETATM   13  C   UNL     1     -10.288  17.508  68.226  1.00  0.00    -0.379 C  
ENDBRANCH  11  12
ENDBRANCH  10  11
ENDBRANCH   9  10
ENDBRANCH   8   9
ENDBRANCH   7   8
ENDBRANCH   6   7
ENDBRANCH   5   6
ENDBRANCH   4   5
TORSDOF 8
ENDMDL
MODEL      245
REMARK 921   NORMALIZED FREE ENERGY PREDICTED BY IDOCK:   -2.61 KCAL/MOL
REMARK 922        TOTAL FREE ENERGY PREDICTED BY IDOCK:   -4.30 KCAL/MOL
REMARK 923 INTER-LIGAND FREE ENERGY PREDICTED BY IDOCK:   -3.74 KCAL/MOL
REMARK 924 INTRA-LIGAND FREE ENERGY PREDICTED BY IDOCK:   -0.56 KCAL/MOL
REMARK 927      BINDING AFFINITY PREDICTED BY RF-SCORE:    0.00 PKD
ROOT
HETATM    1  O   UNL     1     -12.333  11.980  71.431  1.00  0.00    -0.190 OA 
HETATM    2  C   UNL     1     -12.165  12.325  70.133  1.00  0.00    -0.226 C  
HETATM    3  O   UNL     1     -12.279  13.475  69.744  1.00  0.00    -0.313 OA 
HETATM    4  C   UNL     1     -11.829  11.133  69.264  1.00  0.00    -0.422 C  
ENDROOT
BRANCH   4   5
HETATM    5  C   UNL     1     -11.644  11.538  67.803  1.00  0.00    -0.338 C  
BRANCH   5   6
HETATM    6  C   UNL     1     -10.431  10.852  67.175  1.00  0.00    -0.281 C  
BRANCH   6   7
HETATM    7  C   UNL     1      -9.829  11.723  66.071  1.00  0.00    -0.258 C  
BRANCH   7   8
HETATM    8  C   UNL     1      -9.997  13.211  66.375  1.00  0.00    -0.282 C  
BRANCH   8   9
HETATM    9  C   UNL     1      -8.876  13.714  67.285  1.00  0.00    -0.227 C  
BRANCH   9  10
HETATM   10  C   UNL     1      -8.648  15.215  67.113  1.00  0.00    -0.247 C  
BRANCH  10  11
HETATM   11  C   UNL     1      -9.906  15.903  66.580  1.00  0.00    -0.277 C  
BRANCH  11  12
HETATM   12  C   UNL     1     -10.688  16.544  67.689  1.00  0.00    -0.311 C  
HETATM   13  C   UNL     1     -10.166  17.405  68.572  1.00  0.00    -0.369 C  
ENDBRANCH  11  12
ENDBRANCH  10  11
ENDBRANCH   9  10
ENDBRANCH   8   9
ENDBRANCH   7   8
ENDBRANCH   6   7
ENDBRANCH   5   6
ENDBRANCH   4   5
TORSDOF 8
ENDMDL
MODEL      246
REMARK 921   NORMALIZED FREE ENERGY PREDICTED BY IDOCK:   -2.59 KCAL/MOL
REMARK 922        TOTAL FREE ENERGY PREDICTED BY IDOCK:   -4.29 KCAL/MOL
REMARK 923 INTER-LIGAND FREE ENERGY PREDICTED BY IDOCK:   -3.91 KCAL/MOL
REMARK 924 INTRA-LIGAND FREE ENERGY PREDICTED BY IDOCK:   -0.37 KCAL/MOL
REMARK 927      BINDING AFFINITY PREDICTED BY RF-SCORE:    0.00 PKD
ROOT
HETATM    1  O   UNL     1      -9.860   7.870  68.520  1.00  0.00    -0.167 OA 
HETATM    2  C   UNL     1     -10.435   9.053  68.841  1.00  0.00    -0.210 C  
HETATM    3  O   UNL     1     -10.633   9.388  69.997  1.00  0.00    -0.208 OA 
HETATM    4  C   UNL     1     -10.784   9.870  67.617  1.00  0.00    -0.339 C  
ENDROOT
BRANCH   4   5
HETATM    5  C   UNL     1     -11.433  11.199  67.996  1.00  0.00    -0.366 C  
BRANCH   5   6
HETATM    6  C   UNL     1     -11.298  12.234  66.880  1.00  0.00    -0.392 C  
BRANCH   6   7
HETATM    7  C   UNL     1     -11.620  13.636  67.399  1.00  0.00    -0.389 C  
BRANCH   7   8
HETATM    8  C   UNL     1     -10.508  14.170  68.301  1.00  0.00    -0.249 C  
BRANCH   8   9
HETATM    9  C   UNL     1     -11.046  15.225  69.268  1.00  0.00    -0.277 C  
BRANCH   9  10
HETATM   10  C   UNL     1      -9.951  16.200  69.698  1.00  0.00    -0.179 C  
BRANCH  10  11
HETATM   11  C   UNL     1      -9.406  16.977  68.498  1.00  0.00    -0.265 C  
BRANCH  11  12
HETATM   12  C   UNL     1     -10.066  18.320  68.373  1.00  0.00    -0.412 C  
HETATM   13  C   UNL     1      -9.459  19.480  68.654  1.00  0.00    -0.462 C  
ENDBRANCH  11  12
ENDBRANCH  10  11
ENDBRANCH   9  10
ENDBRANCH   8   9
ENDBRANCH   7   8
ENDBRANCH   6   7
ENDBRANCH   5   6
ENDBRANCH   4   5
TORSDOF 8
ENDMDL
MODEL      247
REMARK 921   NORMALIZED FREE ENERGY PREDICTED BY IDOCK:   -2.59 KCAL/MOL
REMARK 922        TOTAL FREE ENERGY PREDICTED BY IDOCK:   -4.28 KCAL/MOL
REMARK 923 INTER-LIGAND FREE ENERGY PREDICTED BY IDOCK:   -3.48 KCAL/MOL
REMARK 924 INTRA-LIGAND FREE ENERGY PREDICTED BY IDOCK:   -0.80 KCAL/MOL
REMARK 927      BINDING AFFINITY PREDICTED BY RF-SCORE:    0.00 PKD
ROOT
HETATM    1  O   UNL     1     -11.818  15.167  64.465  1.00  0.00    -0.416 OA 
HETATM    2  C   UNL     1     -12.026  13.932  64.980  1.00  0.00    -0.390 C  
HETATM    3  O   UNL     1     -12.750  13.114  64.438  1.00  0.00    -0.653 OA 
HETATM    4  C   UNL     1     -11.265  13.714  66.269  1.00  0.00    -0.313 C  
ENDROOT
BRANCH   4   5
HETATM    5  C   UNL     1     -11.511  12.318  66.836  1.00  0.00    -0.418 C  
BRANCH   5   6
HETATM    6  C   UNL     1     -10.225  11.495  66.891  1.00  0.00    -0.249 C  
BRANCH   6   7
HETATM    7  C   UNL     1      -8.997  12.406  66.864  1.00  0.00    -0.212 C  
BRANCH   7   8
HETATM    8  C   UNL     1      -7.969  11.995  67.917  1.00  0.00    -0.147 C  
BRANCH   8   9
HETATM    9  C   UNL     1      -7.373  10.625  67.594  1.00  0.00    -0.090 C  
BRANCH   9  10
HETATM   10  C   UNL     1      -7.229   9.768  68.852  1.00  0.00    -0.072 C  
BRANCH  10  11
HETATM   11  C   UNL     1      -8.378  10.029  69.828  1.00  0.00    -0.187 C  
BRANCH  11  12
HETATM   12  C   UNL     1      -9.429   8.962  69.729  1.00  0.00    -0.174 C  
HETATM   13  C   UNL     1      -9.701   8.282  68.607  1.00  0.00    -0.162 C  
ENDBRANCH  11  12
ENDBRANCH  10  11
ENDBRANCH   9  10
ENDBRANCH   8   9
ENDBRANCH   7   8
ENDBRANCH   6   7
ENDBRANCH   5   6
ENDBRANCH   4   5
TORSDOF 8
ENDMDL
MODEL      248
REMARK 921   NORMALIZED FREE ENERGY PREDICTED BY IDOCK:   -2.59 KCAL/MOL
REMARK 922        TOTAL FREE ENERGY PREDICTED BY IDOCK:   -4.28 KCAL/MOL
REMARK 923 INTER-LIGAND FREE ENERGY PREDICTED BY IDOCK:   -3.70 KCAL/MOL
REMARK 924 INTRA-LIGAND FREE ENERGY PREDICTED BY IDOCK:   -0.58 KCAL/MOL
REMARK 927      BINDING AFFINITY PREDICTED BY RF-SCORE:    0.00 PKD
ROOT
HETATM    1  O   UNL     1      -6.149  13.280  67.208  1.00  0.00    -0.328 OA 
HETATM    2  C   UNL     1      -6.387  14.485  67.777  1.00  0.00    -0.152 C  
HETATM    3  O   UNL     1      -5.699  14.925  68.683  1.00  0.00    -0.085 OA 
HETATM    4  C   UNL     1      -7.578  15.184  67.159  1.00  0.00    -0.204 C  
ENDROOT
BRANCH   4   5
HETATM    5  C   UNL     1      -7.834  16.540  67.813  1.00  0.00    -0.164 C  
BRANCH   5   6
HETATM    6  C   UNL     1      -9.199  17.107  67.426  1.00  0.00    -0.232 C  
BRANCH   6   7
HETATM    7  C   UNL     1     -10.105  17.224  68.653  1.00  0.00    -0.341 C  
BRANCH   7   8
HETATM    8  C   UNL     1     -11.335  16.326  68.530  1.00  0.00    -0.330 C  
BRANCH   8   9
HETATM    9  C   UNL     1     -10.973  14.863  68.783  1.00  0.00    -0.259 C  
BRANCH   9  10
HETATM   10  C   UNL     1     -12.185  14.061  69.258  1.00  0.00    -0.319 C  
BRANCH  10  11
HETATM   11  C   UNL     1     -11.956  13.501  70.663  1.00  0.00    -0.308 C  
BRANCH  11  12
HETATM   12  C   UNL     1     -13.045  13.930  71.604  1.00  0.00    -0.446 C  
HETATM   13  C   UNL     1     -13.513  15.182  71.684  1.00  0.00    -0.535 C  
ENDBRANCH  11  12
ENDBRANCH  10  11
ENDBRANCH   9  10
ENDBRANCH   8   9
ENDBRANCH   7   8
ENDBRANCH   6   7
ENDBRANCH   5   6
ENDBRANCH   4   5
TORSDOF 8
ENDMDL
MODEL      249
REMARK 921   NORMALIZED FREE ENERGY PREDICTED BY IDOCK:   -2.59 KCAL/MOL
REMARK 922        TOTAL FREE ENERGY PREDICTED BY IDOCK:   -4.28 KCAL/MOL
REMARK 923 INTER-LIGAND FREE ENERGY PREDICTED BY IDOCK:   -3.58 KCAL/MOL
REMARK 924 INTRA-LIGAND FREE ENERGY PREDICTED BY IDOCK:   -0.70 KCAL/MOL
REMARK 927      BINDING AFFINITY PREDICTED BY RF-SCORE:    0.00 PKD
ROOT
HETATM    1  O   UNL     1      -8.998  16.126  68.710  1.00  0.00    -0.211 OA 
HETATM    2  C   UNL     1     -10.221  15.907  68.175  1.00  0.00    -0.232 C  
HETATM    3  O   UNL     1     -11.060  16.788  68.084  1.00  0.00    -0.363 OA 
HETATM    4  C   UNL     1     -10.400  14.474  67.724  1.00  0.00    -0.237 C  
ENDROOT
BRANCH   4   5
HETATM    5  C   UNL     1     -11.786  14.243  67.125  1.00  0.00    -0.430 C  
BRANCH   5   6
HETATM    6  C   UNL     1     -11.990  12.784  66.717  1.00  0.00    -0.389 C  
BRANCH   6   7
HETATM    7  C   UNL     1     -11.287  11.845  67.698  1.00  0.00    -0.372 C  
BRANCH   7   8
HETATM    8  C   UNL     1     -12.214  11.431  68.841  1.00  0.00    -0.153 C  
BRANCH   8   9
HETATM    9  C   UNL     1     -11.411  10.951  70.050  1.00  0.00    -0.386 C  
BRANCH   9  10
HETATM   10  C   UNL     1     -10.729   9.611  69.772  1.00  0.00    -0.269 C  
BRANCH  10  11
HETATM   11  C   UNL     1      -9.217   9.711  69.984  1.00  0.00    -0.275 C  
BRANCH  11  12
HETATM   12  C   UNL     1      -8.469   9.451  68.708  1.00  0.00    -0.122 C  
HETATM   13  C   UNL     1      -9.046   9.022  67.578  1.00  0.00    -0.145 C  
ENDBRANCH  11  12
ENDBRANCH  10  11
ENDBRANCH   9  10
ENDBRANCH   8   9
ENDBRANCH   7   8
ENDBRANCH   6   7
ENDBRANCH   5   6
ENDBRANCH   4   5
TORSDOF 8
ENDMDL
MODEL      250
REMARK 921   NORMALIZED FREE ENERGY PREDICTED BY IDOCK:   -2.58 KCAL/MOL
REMARK 922        TOTAL FREE ENERGY PREDICTED BY IDOCK:   -4.26 KCAL/MOL
REMARK 923 INTER-LIGAND FREE ENERGY PREDICTED BY IDOCK:   -3.93 KCAL/MOL
REMARK 924 INTRA-LIGAND FREE ENERGY PREDICTED BY IDOCK:   -0.33 KCAL/MOL
REMARK 927      BINDING AFFINITY PREDICTED BY RF-SCORE:    0.00 PKD
ROOT
HETATM    1  O   UNL     1     -12.947  13.711  65.258  1.00  0.00    -0.719 OA 
HETATM    2  C   UNL     1     -12.450  12.754  64.441  1.00  0.00    -0.399 C  
HETATM    3  O   UNL     1     -13.022  12.405  63.422  1.00  0.00    -0.723 OA 
HETATM    4  C   UNL     1     -11.137  12.196  64.945  1.00  0.00    -0.367 C  
ENDROOT
BRANCH   4   5
HETATM    5  C   UNL     1     -10.591  11.116  64.013  1.00  0.00    -0.436 C  
BRANCH   5   6
HETATM    6  C   UNL     1      -9.906   9.991  64.790  1.00  0.00    -0.325 C  
BRANCH   6   7
HETATM    7  C   UNL     1      -8.386  10.146  64.737  1.00  0.00    -0.167 C  
BRANCH   7   8
HETATM    8  C   UNL     1      -7.748   9.892  66.102  1.00  0.00    -0.107 C  
BRANCH   8   9
HETATM    9  C   UNL     1      -8.254   8.582  66.707  1.00  0.00    -0.105 C  
BRANCH   9  10
HETATM   10  C   UNL     1      -7.775   8.411  68.149  1.00  0.00    -0.103 C  
BRANCH  10  11
HETATM   11  C   UNL     1      -8.463   7.219  68.817  1.00  0.00    -0.129 C  
BRANCH  11  12
HETATM   12  C   UNL     1      -9.081   7.612  70.128  1.00  0.00    -0.150 C  
HETATM   13  C   UNL     1      -9.947   6.846  70.804  1.00  0.00    -0.201 C  
ENDBRANCH  11  12
ENDBRANCH  10  11
ENDBRANCH   9  10
ENDBRANCH   8   9
ENDBRANCH   7   8
ENDBRANCH   6   7
ENDBRANCH   5   6
ENDBRANCH   4   5
TORSDOF 8
ENDMDL
MODEL      251
REMARK 921   NORMALIZED FREE ENERGY PREDICTED BY IDOCK:   -2.57 KCAL/MOL
REMARK 922        TOTAL FREE ENERGY PREDICTED BY IDOCK:   -4.25 KCAL/MOL
REMARK 923 INTER-LIGAND FREE ENERGY PREDICTED BY IDOCK:   -3.76 KCAL/MOL
REMARK 924 INTRA-LIGAND FREE ENERGY PREDICTED BY IDOCK:   -0.49 KCAL/MOL
REMARK 927      BINDING AFFINITY PREDICTED BY RF-SCORE:    0.00 PKD
ROOT
HETATM    1  O   UNL     1      -6.464  14.541  69.220  1.00  0.00    -0.107 OA 
HETATM    2  C   UNL     1      -6.918  15.049  68.051  1.00  0.00    -0.137 C  
HETATM    3  O   UNL     1      -6.188  15.226  67.090  1.00  0.00    -0.293 OA 
HETATM    4  C   UNL     1      -8.399  15.355  68.098  1.00  0.00    -0.145 C  
ENDROOT
BRANCH   4   5
HETATM    5  C   UNL     1      -8.895  15.929  66.772  1.00  0.00    -0.294 C  
BRANCH   5   6
HETATM    6  C   UNL     1     -10.039  15.099  66.189  1.00  0.00    -0.314 C  
BRANCH   6   7
HETATM    7  C   UNL     1     -10.164  13.761  66.920  1.00  0.00    -0.261 C  
BRANCH   7   8
HETATM    8  C   UNL     1     -10.490  12.622  65.955  1.00  0.00    -0.295 C  
BRANCH   8   9
HETATM    9  C   UNL     1     -11.039  11.409  66.706  1.00  0.00    -0.343 C  
BRANCH   9  10
HETATM   10  C   UNL     1     -10.793  11.525  68.210  1.00  0.00    -0.257 C  
BRANCH  10  11
HETATM   11  C   UNL     1     -12.093  11.335  68.994  1.00  0.00    -0.325 C  
BRANCH  11  12
HETATM   12  C   UNL     1     -11.820  10.904  70.406  1.00  0.00    -0.449 C  
HETATM   13  C   UNL     1     -12.771  10.745  71.336  1.00  0.00    -0.544 C  
ENDBRANCH  11  12
ENDBRANCH  10  11
ENDBRANCH   9  10
ENDBRANCH   8   9
ENDBRANCH   7   8
ENDBRANCH   6   7
ENDBRANCH   5   6
ENDBRANCH   4   5
TORSDOF 8
ENDMDL
MODEL      252
REMARK 921   NORMALIZED FREE ENERGY PREDICTED BY IDOCK:   -2.56 KCAL/MOL
REMARK 922        TOTAL FREE ENERGY PREDICTED BY IDOCK:   -4.24 KCAL/MOL
REMARK 923 INTER-LIGAND FREE ENERGY PREDICTED BY IDOCK:   -3.90 KCAL/MOL
REMARK 924 INTRA-LIGAND FREE ENERGY PREDICTED BY IDOCK:   -0.33 KCAL/MOL
REMARK 927      BINDING AFFINITY PREDICTED BY RF-SCORE:    0.00 PKD
ROOT
HETATM    1  O   UNL     1     -10.642   6.201  68.867  1.00  0.00    -0.215 OA 
HETATM    2  C   UNL     1      -9.782   6.918  68.108  1.00  0.00    -0.131 C  
HETATM    3  O   UNL     1      -8.580   6.923  68.313  1.00  0.00    -0.125 OA 
HETATM    4  C   UNL     1     -10.488   7.684  67.011  1.00  0.00    -0.419 C  
ENDROOT
BRANCH   4   5
HETATM    5  C   UNL     1      -9.504   8.489  66.165  1.00  0.00    -0.286 C  
BRANCH   5   6
HETATM    6  C   UNL     1     -10.027   9.896  65.873  1.00  0.00    -0.347 C  
BRANCH   6   7
HETATM    7  C   UNL     1     -10.747  10.470  67.095  1.00  0.00    -0.323 C  
BRANCH   7   8
HETATM    8  C   UNL     1     -10.400  11.942  67.310  1.00  0.00    -0.228 C  
BRANCH   8   9
HETATM    9  C   UNL     1     -11.654  12.815  67.248  1.00  0.00    -0.420 C  
BRANCH   9  10
HETATM   10  C   UNL     1     -11.752  13.740  68.461  1.00  0.00    -0.391 C  
BRANCH  10  11
HETATM   11  C   UNL     1     -11.765  15.208  68.031  1.00  0.00    -0.304 C  
BRANCH  11  12
HETATM   12  C   UNL     1     -11.261  16.101  69.128  1.00  0.00    -0.336 C  
HETATM   13  C   UNL     1     -11.136  15.718  70.405  1.00  0.00    -0.380 C  
ENDBRANCH  11  12
ENDBRANCH  10  11
ENDBRANCH   9  10
ENDBRANCH   8   9
ENDBRANCH   7   8
ENDBRANCH   6   7
ENDBRANCH   5   6
ENDBRANCH   4   5
TORSDOF 8
ENDMDL
MODEL      253
REMARK 921   NORMALIZED FREE ENERGY PREDICTED BY IDOCK:   -2.55 KCAL/MOL
REMARK 922        TOTAL FREE ENERGY PREDICTED BY IDOCK:   -4.22 KCAL/MOL
REMARK 923 INTER-LIGAND FREE ENERGY PREDICTED BY IDOCK:   -3.58 KCAL/MOL
REMARK 924 INTRA-LIGAND FREE ENERGY PREDICTED BY IDOCK:   -0.64 KCAL/MOL
REMARK 927      BINDING AFFINITY PREDICTED BY RF-SCORE:    0.00 PKD
ROOT
HETATM    1  O   UNL     1      -6.623  15.768  69.147  1.00  0.00    -0.130 OA 
HETATM    2  C   UNL     1      -7.108  14.784  68.354  1.00  0.00    -0.114 C  
HETATM    3  O   UNL     1      -6.570  14.467  67.306  1.00  0.00    -0.288 OA 
HETATM    4  C   UNL     1      -8.361  14.157  68.924  1.00  0.00    -0.003 C  
ENDROOT
BRANCH   4   5
HETATM    5  C   UNL     1      -8.896  13.051  68.017  1.00  0.00    -0.191 C  
BRANCH   5   6
HETATM    6  C   UNL     1     -10.320  12.646  68.397  1.00  0.00    -0.241 C  
BRANCH   6   7
HETATM    7  C   UNL     1     -11.264  12.800  67.204  1.00  0.00    -0.336 C  
BRANCH   7   8
HETATM    8  C   UNL     1     -11.838  14.213  67.119  1.00  0.00    -0.454 C  
BRANCH   8   9
HETATM    9  C   UNL     1     -11.799  14.902  68.484  1.00  0.00    -0.325 C  
BRANCH   9  10
HETATM   10  C   UNL     1     -11.025  16.218  68.424  1.00  0.00    -0.351 C  
BRANCH  10  11
HETATM   11  C   UNL     1     -10.607  16.543  66.988  1.00  0.00    -0.255 C  
BRANCH  11  12
HETATM   12  C   UNL     1      -9.998  17.912  66.895  1.00  0.00    -0.335 C  
HETATM   13  C   UNL     1     -10.626  19.036  67.265  1.00  0.00    -0.554 C  
ENDBRANCH  11  12
ENDBRANCH  10  11
ENDBRANCH   9  10
ENDBRANCH   8   9
ENDBRANCH   7   8
ENDBRANCH   6   7
ENDBRANCH   5   6
ENDBRANCH   4   5
TORSDOF 8
ENDMDL
MODEL      254
REMARK 921   NORMALIZED FREE ENERGY PREDICTED BY IDOCK:   -2.53 KCAL/MOL
REMARK 922        TOTAL FREE ENERGY PREDICTED BY IDOCK:   -4.19 KCAL/MOL
REMARK 923 INTER-LIGAND FREE ENERGY PREDICTED BY IDOCK:   -3.37 KCAL/MOL
REMARK 924 INTRA-LIGAND FREE ENERGY PREDICTED BY IDOCK:   -0.82 KCAL/MOL
REMARK 927      BINDING AFFINITY PREDICTED BY RF-SCORE:    0.00 PKD
ROOT
HETATM    1  O   UNL     1     -10.128  10.567  65.999  1.00  0.00    -0.238 OA 
HETATM    2  C   UNL     1      -9.368  11.239  66.895  1.00  0.00    -0.177 C  
HETATM    3  O   UNL     1      -8.371  10.750  67.400  1.00  0.00    -0.118 OA 
HETATM    4  C   UNL     1      -9.904  12.625  67.175  1.00  0.00    -0.212 C  
ENDROOT
BRANCH   4   5
HETATM    5  C   UNL     1      -9.037  13.368  68.189  1.00  0.00    -0.207 C  
BRANCH   5   6
HETATM    6  C   UNL     1      -9.153  14.884  68.030  1.00  0.00    -0.180 C  
BRANCH   6   7
HETATM    7  C   UNL     1      -9.857  15.503  69.238  1.00  0.00    -0.270 C  
BRANCH   7   8
HETATM    8  C   UNL     1     -10.714  16.701  68.836  1.00  0.00    -0.337 C  
BRANCH   8   9
HETATM    9  C   UNL     1     -10.641  16.945  67.328  1.00  0.00    -0.270 C  
BRANCH   9  10
HETATM   10  C   UNL     1     -10.488  18.432  67.009  1.00  0.00    -0.429 C  
BRANCH  10  11
HETATM   11  C   UNL     1      -9.041  18.767  66.643  1.00  0.00    -0.323 C  
BRANCH  11  12
HETATM   12  C   UNL     1      -8.252  19.172  67.854  1.00  0.00    -0.325 C  
HETATM   13  C   UNL     1      -7.204  18.486  68.327  1.00  0.00    -0.279 C  
ENDBRANCH  11  12
ENDBRANCH  10  11
ENDBRANCH   9  10
ENDBRANCH   8   9
ENDBRANCH   7   8
ENDBRANCH   6   7
ENDBRANCH   5   6
ENDBRANCH   4   5
TORSDOF 8
ENDMDL
MODEL      255
REMARK 921   NORMALIZED FREE ENERGY PREDICTED BY IDOCK:   -2.52 KCAL/MOL
REMARK 922        TOTAL FREE ENERGY PREDICTED BY IDOCK:   -4.18 KCAL/MOL
REMARK 923 INTER-LIGAND FREE ENERGY PREDICTED BY IDOCK:   -3.74 KCAL/MOL
REMARK 924 INTRA-LIGAND FREE ENERGY PREDICTED BY IDOCK:   -0.43 KCAL/MOL
REMARK 927      BINDING AFFINITY PREDICTED BY RF-SCORE:    0.00 PKD
ROOT
HETATM    1  O   UNL     1      -8.675  14.018  67.230  1.00  0.00    -0.196 OA 
HETATM    2  C   UNL     1      -8.649  12.868  67.942  1.00  0.00    -0.185 C  
HETATM    3  O   UNL     1      -7.609  12.375  68.345  1.00  0.00    -0.117 OA 
HETATM    4  C   UNL     1     -10.033  12.299  68.160  1.00  0.00    -0.210 C  
ENDROOT
BRANCH   4   5
HETATM    5  C   UNL     1      -9.986  11.000  68.963  1.00  0.00    -0.184 C  
BRANCH   5   6
HETATM    6  C   UNL     1     -11.387  10.490  69.297  1.00  0.00    -0.325 C  
BRANCH   6   7
HETATM    7  C   UNL     1     -11.631  10.526  70.807  1.00  0.00    -0.432 C  
BRANCH   7   8
HETATM    8  C   UNL     1     -11.030   9.305  71.501  1.00  0.00    -0.446 C  
BRANCH   8   9
HETATM    9  C   UNL     1     -12.020   8.139  71.512  1.00  0.00    -0.334 C  
BRANCH   9  10
HETATM   10  C   UNL     1     -11.638   7.072  70.487  1.00  0.00    -0.364 C  
BRANCH  10  11
HETATM   11  C   UNL     1     -11.036   5.844  71.172  1.00  0.00    -0.327 C  
BRANCH  11  12
HETATM   12  C   UNL     1     -11.545   5.699  72.577  1.00  0.00    -0.303 C  
HETATM   13  C   UNL     1     -10.754   5.547  73.646  1.00  0.00    -0.321 C  
ENDBRANCH  11  12
ENDBRANCH  10  11
ENDBRANCH   9  10
ENDBRANCH   8   9
ENDBRANCH   7   8
ENDBRANCH   6   7
ENDBRANCH   5   6
ENDBRANCH   4   5
TORSDOF 8
ENDMDL
MODEL      256
REMARK 921   NORMALIZED FREE ENERGY PREDICTED BY IDOCK:   -2.51 KCAL/MOL
REMARK 922        TOTAL FREE ENERGY PREDICTED BY IDOCK:   -4.17 KCAL/MOL
REMARK 923 INTER-LIGAND FREE ENERGY PREDICTED BY IDOCK:   -3.09 KCAL/MOL
REMARK 924 INTRA-LIGAND FREE ENERGY PREDICTED BY IDOCK:   -1.08 KCAL/MOL
REMARK 927      BINDING AFFINITY PREDICTED BY RF-SCORE:    0.00 PKD
ROOT
HETATM    1  O   UNL     1     -11.371   6.170  69.055  1.00  0.00    -0.390 OA 
HETATM    2  C   UNL     1     -10.388   6.976  68.589  1.00  0.00    -0.186 C  
HETATM    3  O   UNL     1      -9.419   7.280  69.265  1.00  0.00    -0.154 OA 
HETATM    4  C   UNL     1     -10.646   7.431  67.170  1.00  0.00    -0.413 C  
ENDROOT
BRANCH   4   5
HETATM    5  C   UNL     1      -9.529   8.340  66.660  1.00  0.00    -0.271 C  
BRANCH   5   6
HETATM    6  C   UNL     1     -10.065   9.701  66.218  1.00  0.00    -0.322 C  
BRANCH   6   7
HETATM    7  C   UNL     1     -10.700  10.442  67.396  1.00  0.00    -0.338 C  
BRANCH   7   8
HETATM    8  C   UNL     1     -10.661  11.956  67.194  1.00  0.00    -0.264 C  
BRANCH   8   9
HETATM    9  C   UNL     1      -9.439  12.367  66.372  1.00  0.00    -0.240 C  
BRANCH   9  10
HETATM   10  C   UNL     1      -8.237  12.663  67.269  1.00  0.00    -0.184 C  
BRANCH  10  11
HETATM   11  C   UNL     1      -7.074  11.718  66.957  1.00  0.00    -0.132 C  
BRANCH  11  12
HETATM   12  C   UNL     1      -6.902  10.692  68.040  1.00  0.00    -0.072 C  
HETATM   13  C   UNL     1      -7.166  10.918  69.333  1.00  0.00    -0.126 C  
ENDBRANCH  11  12
ENDBRANCH  10  11
ENDBRANCH   9  10
ENDBRANCH   8   9
ENDBRANCH   7   8
ENDBRANCH   6   7
ENDBRANCH   5   6
ENDBRANCH   4   5
TORSDOF 8
ENDMDL
MODEL      257
REMARK 921   NORMALIZED FREE ENERGY PREDICTED BY IDOCK:   -2.51 KCAL/MOL
REMARK 922        TOTAL FREE ENERGY PREDICTED BY IDOCK:   -4.17 KCAL/MOL
REMARK 923 INTER-LIGAND FREE ENERGY PREDICTED BY IDOCK:   -3.69 KCAL/MOL
REMARK 924 INTRA-LIGAND FREE ENERGY PREDICTED BY IDOCK:   -0.47 KCAL/MOL
REMARK 927      BINDING AFFINITY PREDICTED BY RF-SCORE:    0.00 PKD
ROOT
HETATM    1  O   UNL     1      -8.093   7.894  72.624  1.00  0.00    -0.108 OA 
HETATM    2  C   UNL     1      -9.386   7.937  72.228  1.00  0.00    -0.180 C  
HETATM    3  O   UNL     1     -10.210   7.121  72.604  1.00  0.00    -0.182 OA 
HETATM    4  C   UNL     1      -9.659   9.093  71.291  1.00  0.00    -0.331 C  
ENDROOT
BRANCH   4   5
HETATM    5  C   UNL     1     -11.122   9.127  70.853  1.00  0.00    -0.356 C  
BRANCH   5   6
HETATM    6  C   UNL     1     -11.264   9.547  69.390  1.00  0.00    -0.066 C  
BRANCH   6   7
HETATM    7  C   UNL     1     -10.770  10.981  69.188  1.00  0.00    -0.274 C  
BRANCH   7   8
HETATM    8  C   UNL     1     -11.694  11.994  69.863  1.00  0.00    -0.374 C  
BRANCH   8   9
HETATM    9  C   UNL     1     -11.896  13.224  68.978  1.00  0.00    -0.365 C  
BRANCH   9  10
HETATM   10  C   UNL     1     -11.693  12.890  67.501  1.00  0.00    -0.422 C  
BRANCH  10  11
HETATM   11  C   UNL     1     -11.962  14.112  66.620  1.00  0.00    -0.470 C  
BRANCH  11  12
HETATM   12  C   UNL     1     -10.687  14.673  66.061  1.00  0.00    -0.313 C  
HETATM   13  C   UNL     1      -9.891  15.524  66.723  1.00  0.00    -0.252 C  
ENDBRANCH  11  12
ENDBRANCH  10  11
ENDBRANCH   9  10
ENDBRANCH   8   9
ENDBRANCH   7   8
ENDBRANCH   6   7
ENDBRANCH   5   6
ENDBRANCH   4   5
TORSDOF 8
ENDMDL
MODEL      258
REMARK 921   NORMALIZED FREE ENERGY PREDICTED BY IDOCK:   -2.50 KCAL/MOL
REMARK 922        TOTAL FREE ENERGY PREDICTED BY IDOCK:   -4.15 KCAL/MOL
REMARK 923 INTER-LIGAND FREE ENERGY PREDICTED BY IDOCK:   -3.61 KCAL/MOL
REMARK 924 INTRA-LIGAND FREE ENERGY PREDICTED BY IDOCK:   -0.55 KCAL/MOL
REMARK 927      BINDING AFFINITY PREDICTED BY RF-SCORE:    0.00 PKD
ROOT
HETATM    1  O   UNL     1     -10.692  10.850  65.943  1.00  0.00    -0.215 OA 
HETATM    2  C   UNL     1     -11.110  12.079  66.327  1.00  0.00    -0.317 C  
HETATM    3  O   UNL     1     -12.291  12.370  66.405  1.00  0.00    -0.539 OA 
HETATM    4  C   UNL     1      -9.954  13.006  66.632  1.00  0.00    -0.250 C  
ENDROOT
BRANCH   4   5
HETATM    5  C   UNL     1     -10.442  14.388  67.061  1.00  0.00    -0.268 C  
BRANCH   5   6
HETATM    6  C   UNL     1     -10.859  15.239  65.862  1.00  0.00    -0.345 C  
BRANCH   6   7
HETATM    7  C   UNL     1     -10.000  16.501  65.769  1.00  0.00    -0.302 C  
BRANCH   7   8
HETATM    8  C   UNL     1      -8.550  16.224  66.163  1.00  0.00    -0.342 C  
BRANCH   8   9
HETATM    9  C   UNL     1      -7.874  17.490  66.691  1.00  0.00    -0.285 C  
BRANCH   9  10
HETATM   10  C   UNL     1      -8.357  17.836  68.099  1.00  0.00    -0.264 C  
BRANCH  10  11
HETATM   11  C   UNL     1      -7.324  17.425  69.150  1.00  0.00    -0.144 C  
BRANCH  11  12
HETATM   12  C   UNL     1      -7.385  15.951  69.426  1.00  0.00    -0.217 C  
HETATM   13  C   UNL     1      -6.336  15.126  69.316  1.00  0.00    -0.117 C  
ENDBRANCH  11  12
ENDBRANCH  10  11
ENDBRANCH   9  10
ENDBRANCH   8   9
ENDBRANCH   7   8
ENDBRANCH   6   7
ENDBRANCH   5   6
ENDBRANCH   4   5
TORSDOF 8
ENDMDL
MODEL      259
REMARK 921   NORMALIZED FREE ENERGY PREDICTED BY IDOCK:   -2.50 KCAL/MOL
REMARK 922        TOTAL FREE ENERGY PREDICTED BY IDOCK:   -4.15 KCAL/MOL
REMARK 923 INTER-LIGAND FREE ENERGY PREDICTED BY IDOCK:   -3.67 KCAL/MOL
REMARK 924 INTRA-LIGAND FREE ENERGY PREDICTED BY IDOCK:   -0.48 KCAL/MOL
REMARK 927      BINDING AFFINITY PREDICTED BY RF-SCORE:    0.00 PKD
ROOT
HETATM    1  O   UNL     1      -9.076   5.465  65.456  1.00  0.00    -0.160 OA 
HETATM    2  C   UNL     1      -8.529   6.498  66.137  1.00  0.00    -0.137 C  
HETATM    3  O   UNL     1      -7.327   6.706  66.150  1.00  0.00    -0.073 OA 
HETATM    4  C   UNL     1      -9.571   7.327  66.853  1.00  0.00    -0.225 C  
ENDROOT
BRANCH   4   5
HETATM    5  C   UNL     1      -8.937   8.488  67.618  1.00  0.00    -0.141 C  
BRANCH   5   6
HETATM    6  C   UNL     1      -8.751   8.156  69.098  1.00  0.00    -0.140 C  
BRANCH   6   7
HETATM    7  C   UNL     1      -9.041   9.380  69.968  1.00  0.00    -0.244 C  
BRANCH   7   8
HETATM    8  C   UNL     1      -9.331   8.984  71.415  1.00  0.00    -0.310 C  
BRANCH   8   9
HETATM    9  C   UNL     1     -10.792   8.566  71.585  1.00  0.00    -0.356 C  
BRANCH   9  10
HETATM   10  C   UNL     1     -11.707   9.327  70.625  1.00  0.00    -0.276 C  
BRANCH  10  11
HETATM   11  C   UNL     1     -12.784  10.098  71.390  1.00  0.00    -0.530 C  
BRANCH  11  12
HETATM   12  C   UNL     1     -13.523   9.203  72.342  1.00  0.00    -0.535 C  
HETATM   13  C   UNL     1     -14.408   8.274  71.959  1.00  0.00    -0.541 C  
ENDBRANCH  11  12
ENDBRANCH  10  11
ENDBRANCH   9  10
ENDBRANCH   8   9
ENDBRANCH   7   8
ENDBRANCH   6   7
ENDBRANCH   5   6
ENDBRANCH   4   5
TORSDOF 8
ENDMDL
MODEL      260
REMARK 921   NORMALIZED FREE ENERGY PREDICTED BY IDOCK:   -2.49 KCAL/MOL
REMARK 922        TOTAL FREE ENERGY PREDICTED BY IDOCK:   -4.13 KCAL/MOL
REMARK 923 INTER-LIGAND FREE ENERGY PREDICTED BY IDOCK:   -3.69 KCAL/MOL
REMARK 924 INTRA-LIGAND FREE ENERGY PREDICTED BY IDOCK:   -0.45 KCAL/MOL
REMARK 927      BINDING AFFINITY PREDICTED BY RF-SCORE:    0.00 PKD
ROOT
HETATM    1  O   UNL     1      -6.379  20.188  70.012  1.00  0.00    -0.354 OA 
HETATM    2  C   UNL     1      -6.227  19.000  69.382  1.00  0.00    -0.266 C  
HETATM    3  O   UNL     1      -5.343  18.214  69.679  1.00  0.00    -0.184 OA 
HETATM    4  C   UNL     1      -7.263  18.789  68.301  1.00  0.00    -0.283 C  
ENDROOT
BRANCH   4   5
HETATM    5  C   UNL     1      -7.076  17.446  67.599  1.00  0.00    -0.176 C  
BRANCH   5   6
HETATM    6  C   UNL     1      -8.223  16.483  67.905  1.00  0.00    -0.172 C  
BRANCH   6   7
HETATM    7  C   UNL     1      -8.362  15.437  66.798  1.00  0.00    -0.285 C  
BRANCH   7   8
HETATM    8  C   UNL     1      -9.367  15.878  65.733  1.00  0.00    -0.280 C  
BRANCH   8   9
HETATM    9  C   UNL     1     -10.731  15.228  65.967  1.00  0.00    -0.324 C  
BRANCH   9  10
HETATM   10  C   UNL     1     -10.588  13.795  66.478  1.00  0.00    -0.279 C  
BRANCH  10  11
HETATM   11  C   UNL     1     -11.472  13.559  67.704  1.00  0.00    -0.351 C  
BRANCH  11  12
HETATM   12  C   UNL     1     -11.389  12.135  68.170  1.00  0.00    -0.349 C  
HETATM   13  C   UNL     1     -11.952  11.683  69.298  1.00  0.00    -0.382 C  
ENDBRANCH  11  12
ENDBRANCH  10  11
ENDBRANCH   9  10
ENDBRANCH   8   9
ENDBRANCH   7   8
ENDBRANCH   6   7
ENDBRANCH   5   6
ENDBRANCH   4   5
TORSDOF 8
ENDMDL
MODEL      261
REMARK 921   NORMALIZED FREE ENERGY PREDICTED BY IDOCK:   -2.49 KCAL/MOL
REMARK 922        TOTAL FREE ENERGY PREDICTED BY IDOCK:   -4.13 KCAL/MOL
REMARK 923 INTER-LIGAND FREE ENERGY PREDICTED BY IDOCK:   -3.73 KCAL/MOL
REMARK 924 INTRA-LIGAND FREE ENERGY PREDICTED BY IDOCK:   -0.40 KCAL/MOL
REMARK 927      BINDING AFFINITY PREDICTED BY RF-SCORE:    0.00 PKD
ROOT
HETATM    1  O   UNL     1     -11.316   6.126  68.969  1.00  0.00    -0.390 OA 
HETATM    2  C   UNL     1     -10.534   7.208  69.187  1.00  0.00    -0.211 C  
HETATM    3  O   UNL     1     -10.735   7.983  70.108  1.00  0.00    -0.238 OA 
HETATM    4  C   UNL     1      -9.419   7.322  68.172  1.00  0.00    -0.134 C  
ENDROOT
BRANCH   4   5
HETATM    5  C   UNL     1      -8.547   8.549  68.430  1.00  0.00    -0.139 C  
BRANCH   5   6
HETATM    6  C   UNL     1      -8.638   9.559  67.287  1.00  0.00    -0.128 C  
BRANCH   6   7
HETATM    7  C   UNL     1      -9.968   9.419  66.545  1.00  0.00    -0.339 C  
BRANCH   7   8
HETATM    8  C   UNL     1     -10.838  10.665  66.712  1.00  0.00    -0.233 C  
BRANCH   8   9
HETATM    9  C   UNL     1     -11.533  10.667  68.074  1.00  0.00    -0.289 C  
BRANCH   9  10
HETATM   10  C   UNL     1     -11.381  12.016  68.776  1.00  0.00    -0.331 C  
BRANCH  10  11
HETATM   11  C   UNL     1     -12.147  12.034  70.101  1.00  0.00    -0.377 C  
BRANCH  11  12
HETATM   12  C   UNL     1     -12.117  10.689  70.766  1.00  0.00    -0.474 C  
HETATM   13  C   UNL     1     -13.214   9.989  71.085  1.00  0.00    -0.441 C  
ENDBRANCH  11  12
ENDBRANCH  10  11
ENDBRANCH   9  10
ENDBRANCH   8   9
ENDBRANCH   7   8
ENDBRANCH   6   7
ENDBRANCH   5   6
ENDBRANCH   4   5
TORSDOF 8
ENDMDL
MODEL      262
REMARK 921   NORMALIZED FREE ENERGY PREDICTED BY IDOCK:   -2.48 KCAL/MOL
REMARK 922        TOTAL FREE ENERGY PREDICTED BY IDOCK:   -4.12 KCAL/MOL
REMARK 923 INTER-LIGAND FREE ENERGY PREDICTED BY IDOCK:   -3.64 KCAL/MOL
REMARK 924 INTRA-LIGAND FREE ENERGY PREDICTED BY IDOCK:   -0.48 KCAL/MOL
REMARK 927      BINDING AFFINITY PREDICTED BY RF-SCORE:    0.00 PKD
ROOT
HETATM    1  O   UNL     1     -14.356   8.861  72.717  1.00  0.00    -0.600 OA 
HETATM    2  C   UNL     1     -13.315   9.473  72.105  1.00  0.00    -0.461 C  
HETATM    3  O   UNL     1     -13.139  10.678  72.169  1.00  0.00    -0.460 OA 
HETATM    4  C   UNL     1     -12.436   8.495  71.359  1.00  0.00    -0.327 C  
ENDROOT
BRANCH   4   5
HETATM    5  C   UNL     1     -11.268   9.201  70.673  1.00  0.00    -0.322 C  
BRANCH   5   6
HETATM    6  C   UNL     1     -10.177   8.216  70.256  1.00  0.00    -0.200 C  
BRANCH   6   7
HETATM    7  C   UNL     1     -10.474   7.631  68.874  1.00  0.00    -0.211 C  
BRANCH   7   8
HETATM    8  C   UNL     1     -10.804   6.141  68.954  1.00  0.00    -0.406 C  
BRANCH   8   9
HETATM    9  C   UNL     1     -10.338   5.548  70.284  1.00  0.00    -0.349 C  
BRANCH   9  10
HETATM   10  C   UNL     1      -8.961   4.899  70.154  1.00  0.00    -0.146 C  
BRANCH  10  11
HETATM   11  C   UNL     1      -7.936   5.603  71.046  1.00  0.00    -0.111 C  
BRANCH  11  12
HETATM   12  C   UNL     1      -6.685   4.786  71.189  1.00  0.00    -0.031 C  
HETATM   13  C   UNL     1      -5.537   5.060  70.556  1.00  0.00    -0.015 C  
ENDBRANCH  11  12
ENDBRANCH  10  11
ENDBRANCH   9  10
ENDBRANCH   8   9
ENDBRANCH   7   8
ENDBRANCH   6   7
ENDBRANCH   5   6
ENDBRANCH   4   5
TORSDOF 8
ENDMDL
MODEL      263
REMARK 921   NORMALIZED FREE ENERGY PREDICTED BY IDOCK:   -2.47 KCAL/MOL
REMARK 922        TOTAL FREE ENERGY PREDICTED BY IDOCK:   -4.10 KCAL/MOL
REMARK 923 INTER-LIGAND FREE ENERGY PREDICTED BY IDOCK:   -3.51 KCAL/MOL
REMARK 924 INTRA-LIGAND FREE ENERGY PREDICTED BY IDOCK:   -0.59 KCAL/MOL
REMARK 927      BINDING AFFINITY PREDICTED BY RF-SCORE:    0.00 PKD
ROOT
HETATM    1  O   UNL     1     -10.662  10.844  65.936  1.00  0.00    -0.215 OA 
HETATM    2  C   UNL     1     -10.923  12.129  66.271  1.00  0.00    -0.295 C  
HETATM    3  O   UNL     1     -12.041  12.609  66.188  1.00  0.00    -0.521 OA 
HETATM    4  C   UNL     1      -9.686  12.860  66.742  1.00  0.00    -0.246 C  
ENDROOT
BRANCH   4   5
HETATM    5  C   UNL     1      -9.997  14.308  67.114  1.00  0.00    -0.255 C  
BRANCH   5   6
HETATM    6  C   UNL     1      -9.883  15.239  65.907  1.00  0.00    -0.385 C  
BRANCH   6   7
HETATM    7  C   UNL     1      -8.869  16.352  66.175  1.00  0.00    -0.349 C  
BRANCH   7   8
HETATM    8  C   UNL     1      -7.751  15.880  67.104  1.00  0.00    -0.247 C  
BRANCH   8   9
HETATM    9  C   UNL     1      -7.207  17.040  67.938  1.00  0.00    -0.162 C  
BRANCH   9  10
HETATM   10  C   UNL     1      -5.773  17.390  67.540  1.00  0.00    -0.151 C  
BRANCH  10  11
HETATM   11  C   UNL     1      -5.661  18.860  67.129  1.00  0.00    -0.157 C  
BRANCH  11  12
HETATM   12  C   UNL     1      -6.124  19.067  65.716  1.00  0.00    -0.241 C  
HETATM   13  C   UNL     1      -7.084  19.931  65.363  1.00  0.00    -0.289 C  
ENDBRANCH  11  12
ENDBRANCH  10  11
ENDBRANCH   9  10
ENDBRANCH   8   9
ENDBRANCH   7   8
ENDBRANCH   6   7
ENDBRANCH   5   6
ENDBRANCH   4   5
TORSDOF 8
ENDMDL
MODEL      264
REMARK 921   NORMALIZED FREE ENERGY PREDICTED BY IDOCK:   -2.46 KCAL/MOL
REMARK 922        TOTAL FREE ENERGY PREDICTED BY IDOCK:   -4.10 KCAL/MOL
REMARK 923 INTER-LIGAND FREE ENERGY PREDICTED BY IDOCK:   -3.48 KCAL/MOL
REMARK 924 INTRA-LIGAND FREE ENERGY PREDICTED BY IDOCK:   -0.61 KCAL/MOL
REMARK 927      BINDING AFFINITY PREDICTED BY RF-SCORE:    0.00 PKD
ROOT
HETATM    1  O   UNL     1      -9.609  16.289  68.911  1.00  0.00    -0.223 OA 
HETATM    2  C   UNL     1     -10.795  15.728  68.576  1.00  0.00    -0.290 C  
HETATM    3  O   UNL     1     -11.850  16.332  68.670  1.00  0.00    -0.255 OA 
HETATM    4  C   UNL     1     -10.637  14.305  68.090  1.00  0.00    -0.246 C  
ENDROOT
BRANCH   4   5
HETATM    5  C   UNL     1     -11.984  13.687  67.719  1.00  0.00    -0.387 C  
BRANCH   5   6
HETATM    6  C   UNL     1     -11.844  12.660  66.595  1.00  0.00    -0.449 C  
BRANCH   6   7
HETATM    7  C   UNL     1     -10.731  11.660  66.910  1.00  0.00    -0.295 C  
BRANCH   7   8
HETATM    8  C   UNL     1     -11.236  10.514  67.785  1.00  0.00    -0.344 C  
BRANCH   8   9
HETATM    9  C   UNL     1     -10.394   9.255  67.578  1.00  0.00    -0.323 C  
BRANCH   9  10
HETATM   10  C   UNL     1     -10.096   9.019  66.098  1.00  0.00    -0.242 C  
BRANCH  10  11
HETATM   11  C   UNL     1      -8.803   8.221  65.919  1.00  0.00    -0.197 C  
BRANCH  11  12
HETATM   12  C   UNL     1      -7.630   9.128  65.687  1.00  0.00    -0.094 C  
HETATM   13  C   UNL     1      -7.642  10.164  64.839  1.00  0.00    -0.138 C  
ENDBRANCH  11  12
ENDBRANCH  10  11
ENDBRANCH   9  10
ENDBRANCH   8   9
ENDBRANCH   7   8
ENDBRANCH   6   7
ENDBRANCH   5   6
ENDBRANCH   4   5
TORSDOF 8
ENDMDL
MODEL      265
REMARK 921   NORMALIZED FREE ENERGY PREDICTED BY IDOCK:   -2.44 KCAL/MOL
REMARK 922        TOTAL FREE ENERGY PREDICTED BY IDOCK:   -4.06 KCAL/MOL
REMARK 923 INTER-LIGAND FREE ENERGY PREDICTED BY IDOCK:   -3.23 KCAL/MOL
REMARK 924 INTRA-LIGAND FREE ENERGY PREDICTED BY IDOCK:   -0.82 KCAL/MOL
REMARK 927      BINDING AFFINITY PREDICTED BY RF-SCORE:    0.00 PKD
ROOT
HETATM    1  O   UNL     1     -14.383   8.194  71.675  1.00  0.00    -0.426 OA 
HETATM    2  C   UNL     1     -13.135   8.631  71.961  1.00  0.00    -0.381 C  
HETATM    3  O   UNL     1     -12.833   9.813  71.922  1.00  0.00    -0.384 OA 
HETATM    4  C   UNL     1     -12.200   7.498  72.321  1.00  0.00    -0.233 C  
ENDROOT
BRANCH   4   5
HETATM    5  C   UNL     1     -10.796   8.007  72.639  1.00  0.00    -0.436 C  
BRANCH   5   6
HETATM    6  C   UNL     1      -9.828   7.758  71.483  1.00  0.00    -0.200 C  
BRANCH   6   7
HETATM    7  C   UNL     1      -8.977   8.999  71.212  1.00  0.00    -0.281 C  
BRANCH   7   8
HETATM    8  C   UNL     1      -9.116   9.469  69.764  1.00  0.00    -0.219 C  
BRANCH   8   9
HETATM    9  C   UNL     1     -10.197  10.543  69.638  1.00  0.00    -0.207 C  
BRANCH   9  10
HETATM   10  C   UNL     1     -11.314  10.103  68.692  1.00  0.00    -0.172 C  
BRANCH  10  11
HETATM   11  C   UNL     1     -11.065   8.686  68.171  1.00  0.00     0.275 C  
BRANCH  11  12
HETATM   12  C   UNL     1     -10.529   8.707  66.769  1.00  0.00    -0.298 C  
HETATM   13  C   UNL     1      -9.367   8.148  66.405  1.00  0.00    -0.269 C  
ENDBRANCH  11  12
ENDBRANCH  10  11
ENDBRANCH   9  10
ENDBRANCH   8   9
ENDBRANCH   7   8
ENDBRANCH   6   7
ENDBRANCH   5   6
ENDBRANCH   4   5
TORSDOF 8
ENDMDL
MODEL      266
REMARK 921   NORMALIZED FREE ENERGY PREDICTED BY IDOCK:   -2.43 KCAL/MOL
REMARK 922        TOTAL FREE ENERGY PREDICTED BY IDOCK:   -4.05 KCAL/MOL
REMARK 923 INTER-LIGAND FREE ENERGY PREDICTED BY IDOCK:   -3.10 KCAL/MOL
REMARK 924 INTRA-LIGAND FREE ENERGY PREDICTED BY IDOCK:   -0.95 KCAL/MOL
REMARK 927      BINDING AFFINITY PREDICTED BY RF-SCORE:    0.00 PKD
ROOT
HETATM    1  O   UNL     1      -8.621  20.075  67.562  1.00  0.00    -0.322 OA 
HETATM    2  C   UNL     1      -7.691  19.097  67.459  1.00  0.00    -0.237 C  
HETATM    3  O   UNL     1      -6.522  19.275  67.754  1.00  0.00    -0.216 OA 
HETATM    4  C   UNL     1      -8.280  17.801  66.946  1.00  0.00    -0.254 C  
ENDROOT
BRANCH   4   5
HETATM    5  C   UNL     1      -7.218  16.709  66.833  1.00  0.00    -0.261 C  
BRANCH   5   6
HETATM    6  C   UNL     1      -7.193  15.814  68.072  1.00  0.00    -0.141 C  
BRANCH   6   7
HETATM    7  C   UNL     1      -6.864  14.370  67.691  1.00  0.00    -0.202 C  
BRANCH   7   8
HETATM    8  C   UNL     1      -7.512  13.374  68.652  1.00  0.00    -0.104 C  
BRANCH   8   9
HETATM    9  C   UNL     1      -8.695  12.666  67.991  1.00  0.00    -0.190 C  
BRANCH   9  10
HETATM   10  C   UNL     1     -10.013  13.379  68.292  1.00  0.00    -0.240 C  
BRANCH  10  11
HETATM   11  C   UNL     1     -10.650  13.917  67.010  1.00  0.00    -0.279 C  
BRANCH  11  12
HETATM   12  C   UNL     1     -11.433  15.170  67.275  1.00  0.00    -0.284 C  
HETATM   13  C   UNL     1     -11.411  15.833  68.439  1.00  0.00    -0.367 C  
ENDBRANCH  11  12
ENDBRANCH  10  11
ENDBRANCH   9  10
ENDBRANCH   8   9
ENDBRANCH   7   8
ENDBRANCH   6   7
ENDBRANCH   5   6
ENDBRANCH   4   5
TORSDOF 8
ENDMDL
MODEL      267
REMARK 921   NORMALIZED FREE ENERGY PREDICTED BY IDOCK:   -2.42 KCAL/MOL
REMARK 922        TOTAL FREE ENERGY PREDICTED BY IDOCK:   -4.04 KCAL/MOL
REMARK 923 INTER-LIGAND FREE ENERGY PREDICTED BY IDOCK:   -3.72 KCAL/MOL
REMARK 924 INTRA-LIGAND FREE ENERGY PREDICTED BY IDOCK:   -0.32 KCAL/MOL
REMARK 927      BINDING AFFINITY PREDICTED BY RF-SCORE:    0.00 PKD
ROOT
HETATM    1  O   UNL     1      -8.606   5.350  72.220  1.00  0.00    -0.124 OA 
HETATM    2  C   UNL     1      -9.418   6.057  71.401  1.00  0.00    -0.156 C  
HETATM    3  O   UNL     1      -9.545   5.787  70.218  1.00  0.00    -0.157 OA 
HETATM    4  C   UNL     1     -10.119   7.185  72.124  1.00  0.00    -0.199 C  
ENDROOT
BRANCH   4   5
HETATM    5  C   UNL     1     -11.030   7.974  71.185  1.00  0.00    -0.271 C  
BRANCH   5   6
HETATM    6  C   UNL     1     -11.430   9.322  71.785  1.00  0.00    -0.448 C  
BRANCH   6   7
HETATM    7  C   UNL     1     -11.644  10.362  70.684  1.00  0.00    -0.440 C  
BRANCH   7   8
HETATM    8  C   UNL     1     -10.922   9.971  69.395  1.00  0.00    -0.280 C  
BRANCH   8   9
HETATM    9  C   UNL     1     -11.515  10.705  68.192  1.00  0.00    -0.303 C  
BRANCH   9  10
HETATM   10  C   UNL     1     -10.427  11.383  67.359  1.00  0.00    -0.239 C  
BRANCH  10  11
HETATM   11  C   UNL     1     -10.520  10.964  65.890  1.00  0.00    -0.285 C  
BRANCH  11  12
HETATM   12  C   UNL     1     -10.523  12.159  64.982  1.00  0.00    -0.326 C  
HETATM   13  C   UNL     1     -11.234  12.236  63.849  1.00  0.00    -0.488 C  
ENDBRANCH  11  12
ENDBRANCH  10  11
ENDBRANCH   9  10
ENDBRANCH   8   9
ENDBRANCH   7   8
ENDBRANCH   6   7
ENDBRANCH   5   6
ENDBRANCH   4   5
TORSDOF 8
ENDMDL
MODEL      268
REMARK 921   NORMALIZED FREE ENERGY PREDICTED BY IDOCK:   -2.42 KCAL/MOL
REMARK 922        TOTAL FREE ENERGY PREDICTED BY IDOCK:   -4.03 KCAL/MOL
REMARK 923 INTER-LIGAND FREE ENERGY PREDICTED BY IDOCK:   -3.61 KCAL/MOL
REMARK 924 INTRA-LIGAND FREE ENERGY PREDICTED BY IDOCK:   -0.42 KCAL/MOL
REMARK 927      BINDING AFFINITY PREDICTED BY RF-SCORE:    0.00 PKD
ROOT
HETATM    1  O   UNL     1     -10.879   5.406  69.408  1.00  0.00    -0.252 OA 
HETATM    2  C   UNL     1     -10.798   6.317  68.410  1.00  0.00    -0.319 C  
HETATM    3  O   UNL     1     -10.968   6.017  67.239  1.00  0.00    -0.313 OA 
HETATM    4  C   UNL     1     -10.480   7.703  68.924  1.00  0.00    -0.211 C  
ENDROOT
BRANCH   4   5
HETATM    5  C   UNL     1     -10.390   8.717  67.786  1.00  0.00    -0.297 C  
BRANCH   5   6
HETATM    6  C   UNL     1      -9.383   9.825  68.094  1.00  0.00    -0.136 C  
BRANCH   6   7
HETATM    7  C   UNL     1     -10.085  11.180  68.198  1.00  0.00    -0.193 C  
BRANCH   7   8
HETATM    8  C   UNL     1     -11.525  11.032  68.686  1.00  0.00    -0.375 C  
BRANCH   8   9
HETATM    9  C   UNL     1     -11.613  11.231  70.200  1.00  0.00    -0.393 C  
BRANCH   9  10
HETATM   10  C   UNL     1     -13.048  11.515  70.643  1.00  0.00     0.139 C  
BRANCH  10  11
HETATM   11  C   UNL     1     -13.130  11.684  72.161  1.00  0.00    -0.290 C  
BRANCH  11  12
HETATM   12  C   UNL     1     -13.290  13.127  72.541  1.00  0.00    -0.525 C  
HETATM   13  C   UNL     1     -13.606  14.098  71.674  1.00  0.00    -0.446 C  
ENDBRANCH  11  12
ENDBRANCH  10  11
ENDBRANCH   9  10
ENDBRANCH   8   9
ENDBRANCH   7   8
ENDBRANCH   6   7
ENDBRANCH   5   6
ENDBRANCH   4   5
TORSDOF 8
ENDMDL
MODEL      269
REMARK 921   NORMALIZED FREE ENERGY PREDICTED BY IDOCK:   -2.42 KCAL/MOL
REMARK 922        TOTAL FREE ENERGY PREDICTED BY IDOCK:   -4.03 KCAL/MOL
REMARK 923 INTER-LIGAND FREE ENERGY PREDICTED BY IDOCK:   -3.31 KCAL/MOL
REMARK 924 INTRA-LIGAND FREE ENERGY PREDICTED BY IDOCK:   -0.71 KCAL/MOL
REMARK 927      BINDING AFFINITY PREDICTED BY RF-SCORE:    0.00 PKD
ROOT
HETATM    1  O   UNL     1      -9.753   6.914  70.883  1.00  0.00    -0.178 OA 
HETATM    2  C   UNL     1      -9.556   6.609  69.580  1.00  0.00    -0.146 C  
HETATM    3  O   UNL     1      -8.536   6.069  69.184  1.00  0.00    -0.113 OA 
HETATM    4  C   UNL     1     -10.728   7.013  68.714  1.00  0.00    -0.226 C  
ENDROOT
BRANCH   4   5
HETATM    5  C   UNL     1     -10.488   6.664  67.246  1.00  0.00    -0.342 C  
BRANCH   5   6
HETATM    6  C   UNL     1     -10.138   7.901  66.420  1.00  0.00    -0.149 C  
BRANCH   6   7
HETATM    7  C   UNL     1     -10.441   9.179  67.203  1.00  0.00    -0.325 C  
BRANCH   7   8
HETATM    8  C   UNL     1      -9.254  10.141  67.190  1.00  0.00    -0.157 C  
BRANCH   8   9
HETATM    9  C   UNL     1      -9.553  11.367  66.327  1.00  0.00    -0.237 C  
BRANCH   9  10
HETATM   10  C   UNL     1      -9.059  11.176  64.893  1.00  0.00    -0.111 C  
BRANCH  10  11
HETATM   11  C   UNL     1     -10.226  10.901  63.943  1.00  0.00    -0.418 C  
BRANCH  11  12
HETATM   12  C   UNL     1     -11.450  11.670  64.347  1.00  0.00    -0.302 C  
HETATM   13  C   UNL     1     -12.509  11.862  63.550  1.00  0.00    -0.609 C  
ENDBRANCH  11  12
ENDBRANCH  10  11
ENDBRANCH   9  10
ENDBRANCH   8   9
ENDBRANCH   7   8
ENDBRANCH   6   7
ENDBRANCH   5   6
ENDBRANCH   4   5
TORSDOF 8
ENDMDL
MODEL      270
REMARK 921   NORMALIZED FREE ENERGY PREDICTED BY IDOCK:   -2.40 KCAL/MOL
REMARK 922        TOTAL FREE ENERGY PREDICTED BY IDOCK:   -4.00 KCAL/MOL
REMARK 923 INTER-LIGAND FREE ENERGY PREDICTED BY IDOCK:   -3.48 KCAL/MOL
REMARK 924 INTRA-LIGAND FREE ENERGY PREDICTED BY IDOCK:   -0.52 KCAL/MOL
REMARK 927      BINDING AFFINITY PREDICTED BY RF-SCORE:    0.00 PKD
ROOT
HETATM    1  O   UNL     1      -7.215   9.032  69.955  1.00  0.00    -0.052 OA 
HETATM    2  C   UNL     1      -8.199   9.138  70.878  1.00  0.00    -0.177 C  
HETATM    3  O   UNL     1      -8.000   8.948  72.067  1.00  0.00    -0.350 OA 
HETATM    4  C   UNL     1      -9.528   9.508  70.258  1.00  0.00    -0.307 C  
ENDROOT
BRANCH   4   5
HETATM    5  C   UNL     1     -10.627   9.621  71.312  1.00  0.00    -0.269 C  
BRANCH   5   6
HETATM    6  C   UNL     1     -11.843   8.765  70.957  1.00  0.00    -0.315 C  
BRANCH   6   7
HETATM    7  C   UNL     1     -12.308   7.956  72.168  1.00  0.00    -0.331 C  
BRANCH   7   8
HETATM    8  C   UNL     1     -11.142   7.238  72.846  1.00  0.00    -0.369 C  
BRANCH   8   9
HETATM    9  C   UNL     1     -11.105   5.761  72.452  1.00  0.00    -0.332 C  
BRANCH   9  10
HETATM   10  C   UNL     1     -10.689   5.582  70.992  1.00  0.00    -0.275 C  
BRANCH  10  11
HETATM   11  C   UNL     1      -9.700   4.425  70.841  1.00  0.00    -0.267 C  
BRANCH  11  12
HETATM   12  C   UNL     1      -9.472   4.087  69.396  1.00  0.00    -0.259 C  
HETATM   13  C   UNL     1      -9.525   4.984  68.403  1.00  0.00    -0.178 C  
ENDBRANCH  11  12
ENDBRANCH  10  11
ENDBRANCH   9  10
ENDBRANCH   8   9
ENDBRANCH   7   8
ENDBRANCH   6   7
ENDBRANCH   5   6
ENDBRANCH   4   5
TORSDOF 8
ENDMDL
MODEL      271
REMARK 921   NORMALIZED FREE ENERGY PREDICTED BY IDOCK:   -2.40 KCAL/MOL
REMARK 922        TOTAL FREE ENERGY PREDICTED BY IDOCK:   -4.00 KCAL/MOL
REMARK 923 INTER-LIGAND FREE ENERGY PREDICTED BY IDOCK:   -3.83 KCAL/MOL
REMARK 924 INTRA-LIGAND FREE ENERGY PREDICTED BY IDOCK:   -0.17 KCAL/MOL
REMARK 927      BINDING AFFINITY PREDICTED BY RF-SCORE:    0.00 PKD
ROOT
HETATM    1  O   UNL     1      -8.643  20.247  67.472  1.00  0.00    -0.334 OA 
HETATM    2  C   UNL     1      -8.434  18.911  67.419  1.00  0.00    -0.276 C  
HETATM    3  O   UNL     1      -7.479  18.379  67.959  1.00  0.00    -0.241 OA 
HETATM    4  C   UNL     1      -9.507  18.195  66.628  1.00  0.00    -0.303 C  
ENDROOT
BRANCH   4   5
HETATM    5  C   UNL     1      -9.256  16.690  66.577  1.00  0.00    -0.297 C  
BRANCH   5   6
HETATM    6  C   UNL     1      -9.725  15.993  67.854  1.00  0.00    -0.220 C  
BRANCH   6   7
HETATM    7  C   UNL     1     -10.671  14.838  67.524  1.00  0.00    -0.269 C  
BRANCH   7   8
HETATM    8  C   UNL     1     -11.717  14.638  68.619  1.00  0.00    -0.362 C  
BRANCH   8   9
HETATM    9  C   UNL     1     -11.521  13.296  69.325  1.00  0.00    -0.345 C  
BRANCH   9  10
HETATM   10  C   UNL     1     -11.844  12.124  68.398  1.00  0.00    -0.360 C  
BRANCH  10  11
HETATM   11  C   UNL     1     -10.567  11.405  67.959  1.00  0.00    -0.224 C  
BRANCH  11  12
HETATM   12  C   UNL     1     -10.882  10.187  67.139  1.00  0.00    -0.257 C  
HETATM   13  C   UNL     1      -9.961   9.464  66.490  1.00  0.00    -0.339 C  
ENDBRANCH  11  12
ENDBRANCH  10  11
ENDBRANCH   9  10
ENDBRANCH   8   9
ENDBRANCH   7   8
ENDBRANCH   6   7
ENDBRANCH   5   6
ENDBRANCH   4   5
TORSDOF 8
ENDMDL
MODEL      272
REMARK 921   NORMALIZED FREE ENERGY PREDICTED BY IDOCK:   -2.39 KCAL/MOL
REMARK 922        TOTAL FREE ENERGY PREDICTED BY IDOCK:   -3.98 KCAL/MOL
REMARK 923 INTER-LIGAND FREE ENERGY PREDICTED BY IDOCK:   -3.19 KCAL/MOL
REMARK 924 INTRA-LIGAND FREE ENERGY PREDICTED BY IDOCK:   -0.80 KCAL/MOL
REMARK 927      BINDING AFFINITY PREDICTED BY RF-SCORE:    0.00 PKD
ROOT
HETATM    1  O   UNL     1     -10.246  13.465  65.317  1.00  0.00    -0.309 OA 
HETATM    2  C   UNL     1     -11.202  13.095  66.201  1.00  0.00    -0.295 C  
HETATM    3  O   UNL     1     -12.363  12.921  65.870  1.00  0.00    -0.493 OA 
HETATM    4  C   UNL     1     -10.654  12.932  67.601  1.00  0.00    -0.232 C  
ENDROOT
BRANCH   4   5
HETATM    5  C   UNL     1     -11.745  12.516  68.586  1.00  0.00    -0.368 C  
BRANCH   5   6
HETATM    6  C   UNL     1     -11.717  11.013  68.860  1.00  0.00    -0.400 C  
BRANCH   6   7
HETATM    7  C   UNL     1     -10.356  10.589  69.415  1.00  0.00    -0.258 C  
BRANCH   7   8
HETATM    8  C   UNL     1     -10.162   9.076  69.333  1.00  0.00    -0.206 C  
BRANCH   8   9
HETATM    9  C   UNL     1      -8.897   8.728  68.549  1.00  0.00    -0.138 C  
BRANCH   9  10
HETATM   10  C   UNL     1      -8.316   9.958  67.852  1.00  0.00    -0.114 C  
BRANCH  10  11
HETATM   11  C   UNL     1      -8.619   9.933  66.352  1.00  0.00    -0.136 C  
BRANCH  11  12
HETATM   12  C   UNL     1      -7.663   9.038  65.618  1.00  0.00    -0.091 C  
HETATM   13  C   UNL     1      -8.044   8.009  64.849  1.00  0.00    -0.147 C  
ENDBRANCH  11  12
ENDBRANCH  10  11
ENDBRANCH   9  10
ENDBRANCH   8   9
ENDBRANCH   7   8
ENDBRANCH   6   7
ENDBRANCH   5   6
ENDBRANCH   4   5
TORSDOF 8
ENDMDL
MODEL      273
REMARK 921   NORMALIZED FREE ENERGY PREDICTED BY IDOCK:   -2.38 KCAL/MOL
REMARK 922        TOTAL FREE ENERGY PREDICTED BY IDOCK:   -3.97 KCAL/MOL
REMARK 923 INTER-LIGAND FREE ENERGY PREDICTED BY IDOCK:   -3.52 KCAL/MOL
REMARK 924 INTRA-LIGAND FREE ENERGY PREDICTED BY IDOCK:   -0.46 KCAL/MOL
REMARK 927      BINDING AFFINITY PREDICTED BY RF-SCORE:    0.00 PKD
ROOT
HETATM    1  O   UNL     1      -9.580   3.866  67.334  1.00  0.00    -0.192 OA 
HETATM    2  C   UNL     1      -9.455   5.201  67.524  1.00  0.00    -0.133 C  
HETATM    3  O   UNL     1      -8.386   5.724  67.787  1.00  0.00    -0.105 OA 
HETATM    4  C   UNL     1     -10.774   5.926  67.372  1.00  0.00    -0.370 C  
ENDROOT
BRANCH   4   5
HETATM    5  C   UNL     1     -10.616   7.429  67.591  1.00  0.00    -0.309 C  
BRANCH   5   6
HETATM    6  C   UNL     1     -10.886   7.821  69.044  1.00  0.00    -0.042 C  
BRANCH   6   7
HETATM    7  C   UNL     1     -10.141   9.107  69.405  1.00  0.00    -0.198 C  
BRANCH   7   8
HETATM    8  C   UNL     1     -10.488   9.580  70.816  1.00  0.00    -0.384 C  
BRANCH   8   9
HETATM    9  C   UNL     1      -9.967   8.598  71.866  1.00  0.00    -0.392 C  
BRANCH   9  10
HETATM   10  C   UNL     1     -11.113   7.959  72.651  1.00  0.00    -0.447 C  
BRANCH  10  11
HETATM   11  C   UNL     1     -10.629   6.733  73.427  1.00  0.00    -0.351 C  
BRANCH  11  12
HETATM   12  C   UNL     1     -11.241   5.471  72.890  1.00  0.00    -0.358 C  
HETATM   13  C   UNL     1     -10.531   4.414  72.475  1.00  0.00    -0.235 C  
ENDBRANCH  11  12
ENDBRANCH  10  11
ENDBRANCH   9  10
ENDBRANCH   8   9
ENDBRANCH   7   8
ENDBRANCH   6   7
ENDBRANCH   5   6
ENDBRANCH   4   5
TORSDOF 8
ENDMDL
MODEL      274
REMARK 921   NORMALIZED FREE ENERGY PREDICTED BY IDOCK:   -2.37 KCAL/MOL
REMARK 922        TOTAL FREE ENERGY PREDICTED BY IDOCK:   -3.97 KCAL/MOL
REMARK 923 INTER-LIGAND FREE ENERGY PREDICTED BY IDOCK:   -3.52 KCAL/MOL
REMARK 924 INTRA-LIGAND FREE ENERGY PREDICTED BY IDOCK:   -0.44 KCAL/MOL
REMARK 927      BINDING AFFINITY PREDICTED BY RF-SCORE:    0.00 PKD
ROOT
HETATM    1  O   UNL     1      -8.460   3.560  65.803  1.00  0.00    -0.104 OA 
HETATM    2  C   UNL     1      -9.584   4.313  65.798  1.00  0.00    -0.189 C  
HETATM    3  O   UNL     1     -10.525   4.073  65.060  1.00  0.00    -0.211 OA 
HETATM    4  C   UNL     1      -9.517   5.448  66.795  1.00  0.00    -0.144 C  
ENDROOT
BRANCH   4   5
HETATM    5  C   UNL     1     -10.792   6.288  66.776  1.00  0.00    -0.367 C  
BRANCH   5   6
HETATM    6  C   UNL     1     -10.496   7.771  67.000  1.00  0.00    -0.419 C  
BRANCH   6   7
HETATM    7  C   UNL     1      -9.084   8.119  66.526  1.00  0.00    -0.216 C  
BRANCH   7   8
HETATM    8  C   UNL     1      -9.110   9.107  65.361  1.00  0.00    -0.271 C  
BRANCH   8   9
HETATM    9  C   UNL     1     -10.073  10.261  65.644  1.00  0.00    -0.341 C  
BRANCH   9  10
HETATM   10  C   UNL     1      -9.374  11.403  66.381  1.00  0.00    -0.219 C  
BRANCH  10  11
HETATM   11  C   UNL     1      -9.936  12.760  65.949  1.00  0.00    -0.273 C  
BRANCH  11  12
HETATM   12  C   UNL     1     -10.981  13.247  66.910  1.00  0.00    -0.298 C  
HETATM   13  C   UNL     1     -11.971  14.085  66.575  1.00  0.00    -0.470 C  
ENDBRANCH  11  12
ENDBRANCH  10  11
ENDBRANCH   9  10
ENDBRANCH   8   9
ENDBRANCH   7   8
ENDBRANCH   6   7
ENDBRANCH   5   6
ENDBRANCH   4   5
TORSDOF 8
ENDMDL
MODEL      275
REMARK 921   NORMALIZED FREE ENERGY PREDICTED BY IDOCK:   -2.36 KCAL/MOL
REMARK 922        TOTAL FREE ENERGY PREDICTED BY IDOCK:   -3.95 KCAL/MOL
REMARK 923 INTER-LIGAND FREE ENERGY PREDICTED BY IDOCK:   -3.26 KCAL/MOL
REMARK 924 INTRA-LIGAND FREE ENERGY PREDICTED BY IDOCK:   -0.69 KCAL/MOL
REMARK 927      BINDING AFFINITY PREDICTED BY RF-SCORE:    0.00 PKD
ROOT
HETATM    1  O   UNL     1     -12.779   8.919  72.813  1.00  0.00    -0.327 OA 
HETATM    2  C   UNL     1     -12.300   8.440  71.642  1.00  0.00    -0.320 C  
HETATM    3  O   UNL     1     -12.050   9.165  70.694  1.00  0.00    -0.206 OA 
HETATM    4  C   UNL     1     -12.126   6.937  71.668  1.00  0.00    -0.394 C  
ENDROOT
BRANCH   4   5
HETATM    5  C   UNL     1     -11.588   6.412  70.339  1.00  0.00    -0.440 C  
BRANCH   5   6
HETATM    6  C   UNL     1     -10.091   6.683  70.188  1.00  0.00    -0.200 C  
BRANCH   6   7
HETATM    7  C   UNL     1      -9.278   5.431  70.521  1.00  0.00    -0.183 C  
BRANCH   7   8
HETATM    8  C   UNL     1      -8.543   5.576  71.853  1.00  0.00    -0.131 C  
BRANCH   8   9
HETATM    9  C   UNL     1      -8.732   4.332  72.721  1.00  0.00    -0.108 C  
BRANCH   9  10
HETATM   10  C   UNL     1      -9.774   4.567  73.815  1.00  0.00    -0.155 C  
BRANCH  10  11
HETATM   11  C   UNL     1     -11.126   3.968  73.423  1.00  0.00    -0.341 C  
BRANCH  11  12
HETATM   12  C   UNL     1     -11.250   2.548  73.897  1.00  0.00    -0.232 C  
HETATM   13  C   UNL     1     -11.310   1.490  73.078  1.00  0.00    -0.222 C  
ENDBRANCH  11  12
ENDBRANCH  10  11
ENDBRANCH   9  10
ENDBRANCH   8   9
ENDBRANCH   7   8
ENDBRANCH   6   7
ENDBRANCH   5   6
ENDBRANCH   4   5
TORSDOF 8
ENDMDL
MODEL      276
REMARK 921   NORMALIZED FREE ENERGY PREDICTED BY IDOCK:   -2.34 KCAL/MOL
REMARK 922        TOTAL FREE ENERGY PREDICTED BY IDOCK:   -3.92 KCAL/MOL
REMARK 923 INTER-LIGAND FREE ENERGY PREDICTED BY IDOCK:   -3.20 KCAL/MOL
REMARK 924 INTRA-LIGAND FREE ENERGY PREDICTED BY IDOCK:   -0.72 KCAL/MOL
REMARK 927      BINDING AFFINITY PREDICTED BY RF-SCORE:    0.00 PKD
ROOT
HETATM    1  O   UNL     1     -10.541  16.046  67.001  1.00  0.00    -0.309 OA 
HETATM    2  C   UNL     1      -9.337  15.452  67.166  1.00  0.00    -0.214 C  
HETATM    3  O   UNL     1      -8.862  14.699  66.332  1.00  0.00    -0.212 OA 
HETATM    4  C   UNL     1      -8.685  15.833  68.477  1.00  0.00    -0.184 C  
ENDROOT
BRANCH   4   5
HETATM    5  C   UNL     1      -7.329  15.153  68.649  1.00  0.00    -0.121 C  
BRANCH   5   6
HETATM    6  C   UNL     1      -6.174  16.119  68.389  1.00  0.00    -0.113 C  
BRANCH   6   7
HETATM    7  C   UNL     1      -6.300  17.363  69.271  1.00  0.00    -0.244 C  
BRANCH   7   8
HETATM    8  C   UNL     1      -5.614  18.572  68.638  1.00  0.00    -0.186 C  
BRANCH   8   9
HETATM    9  C   UNL     1      -6.291  18.960  67.323  1.00  0.00    -0.187 C  
BRANCH   9  10
HETATM   10  C   UNL     1      -7.300  20.090  67.527  1.00  0.00    -0.314 C  
BRANCH  10  11
HETATM   11  C   UNL     1      -8.543  19.589  68.266  1.00  0.00    -0.380 C  
BRANCH  11  12
HETATM   12  C   UNL     1      -9.719  19.477  67.340  1.00  0.00    -0.449 C  
HETATM   13  C   UNL     1      -9.640  19.024  66.082  1.00  0.00    -0.291 C  
ENDBRANCH  11  12
ENDBRANCH  10  11
ENDBRANCH   9  10
ENDBRANCH   8   9
ENDBRANCH   7   8
ENDBRANCH   6   7
ENDBRANCH   5   6
ENDBRANCH   4   5
TORSDOF 8
ENDMDL
MODEL      277
REMARK 921   NORMALIZED FREE ENERGY PREDICTED BY IDOCK:   -2.34 KCAL/MOL
REMARK 922        TOTAL FREE ENERGY PREDICTED BY IDOCK:   -3.92 KCAL/MOL
REMARK 923 INTER-LIGAND FREE ENERGY PREDICTED BY IDOCK:   -2.94 KCAL/MOL
REMARK 924 INTRA-LIGAND FREE ENERGY PREDICTED BY IDOCK:   -0.98 KCAL/MOL
REMARK 927      BINDING AFFINITY PREDICTED BY RF-SCORE:    0.00 PKD
ROOT
HETATM    1  O   UNL     1     -12.731   8.953  72.694  1.00  0.00    -0.369 OA 
HETATM    2  C   UNL     1     -12.222   9.594  71.616  1.00  0.00    -0.402 C  
HETATM    3  O   UNL     1     -12.462  10.766  71.381  1.00  0.00    -0.369 OA 
HETATM    4  C   UNL     1     -11.349   8.690  70.773  1.00  0.00    -0.299 C  
ENDROOT
BRANCH   4   5
HETATM    5  C   UNL     1     -10.785   9.427  69.560  1.00  0.00    -0.238 C  
BRANCH   5   6
HETATM    6  C   UNL     1      -9.498  10.178  69.902  1.00  0.00    -0.150 C  
BRANCH   6   7
HETATM    7  C   UNL     1      -8.273   9.395  69.428  1.00  0.00    -0.119 C  
BRANCH   7   8
HETATM    8  C   UNL     1      -7.781   8.420  70.498  1.00  0.00    -0.080 C  
BRANCH   8   9
HETATM    9  C   UNL     1      -7.383   7.081  69.877  1.00  0.00    -0.085 C  
BRANCH   9  10
HETATM   10  C   UNL     1      -8.604   6.200  69.618  1.00  0.00    -0.128 C  
BRANCH  10  11
HETATM   11  C   UNL     1      -8.724   5.852  68.133  1.00  0.00    -0.111 C  
BRANCH  11  12
HETATM   12  C   UNL     1      -9.765   6.697  67.457  1.00  0.00    -0.149 C  
HETATM   13  C   UNL     1     -10.916   6.218  66.969  1.00  0.00    -0.442 C  
ENDBRANCH  11  12
ENDBRANCH  10  11
ENDBRANCH   9  10
ENDBRANCH   8   9
ENDBRANCH   7   8
ENDBRANCH   6   7
ENDBRANCH   5   6
ENDBRANCH   4   5
TORSDOF 8
ENDMDL
MODEL      278
REMARK 921   NORMALIZED FREE ENERGY PREDICTED BY IDOCK:   -2.34 KCAL/MOL
REMARK 922        TOTAL FREE ENERGY PREDICTED BY IDOCK:   -3.92 KCAL/MOL
REMARK 923 INTER-LIGAND FREE ENERGY PREDICTED BY IDOCK:   -3.34 KCAL/MOL
REMARK 924 INTRA-LIGAND FREE ENERGY PREDICTED BY IDOCK:   -0.57 KCAL/MOL
REMARK 927      BINDING AFFINITY PREDICTED BY RF-SCORE:    0.00 PKD
ROOT
HETATM    1  O   UNL     1      -8.254   8.599  73.181  1.00  0.00    -0.409 OA 
HETATM    2  C   UNL     1      -9.420   8.363  72.537  1.00  0.00    -0.289 C  
HETATM    3  O   UNL     1     -10.292   7.652  73.008  1.00  0.00    -0.273 OA 
HETATM    4  C   UNL     1      -9.492   9.073  71.204  1.00  0.00    -0.348 C  
ENDROOT
BRANCH   4   5
HETATM    5  C   UNL     1     -10.813   8.795  70.489  1.00  0.00    -0.268 C  
BRANCH   5   6
HETATM    6  C   UNL     1     -10.967   9.648  69.231  1.00  0.00    -0.194 C  
BRANCH   6   7
HETATM    7  C   UNL     1     -10.406   8.918  68.010  1.00  0.00    -0.271 C  
BRANCH   7   8
HETATM    8  C   UNL     1      -9.146   9.599  67.477  1.00  0.00    -0.142 C  
BRANCH   8   9
HETATM    9  C   UNL     1      -9.246   9.832  65.969  1.00  0.00    -0.226 C  
BRANCH   9  10
HETATM   10  C   UNL     1     -10.530  10.574  65.602  1.00  0.00    -0.213 C  
BRANCH  10  11
HETATM   11  C   UNL     1     -10.225  11.999  65.134  1.00  0.00    -0.308 C  
BRANCH  11  12
HETATM   12  C   UNL     1      -9.430  12.751  66.161  1.00  0.00    -0.169 C  
HETATM   13  C   UNL     1      -9.940  13.215  67.309  1.00  0.00    -0.230 C  
ENDBRANCH  11  12
ENDBRANCH  10  11
ENDBRANCH   9  10
ENDBRANCH   8   9
ENDBRANCH   7   8
ENDBRANCH   6   7
ENDBRANCH   5   6
ENDBRANCH   4   5
TORSDOF 8
ENDMDL
MODEL      279
REMARK 921   NORMALIZED FREE ENERGY PREDICTED BY IDOCK:   -2.34 KCAL/MOL
REMARK 922        TOTAL FREE ENERGY PREDICTED BY IDOCK:   -3.92 KCAL/MOL
REMARK 923 INTER-LIGAND FREE ENERGY PREDICTED BY IDOCK:   -3.33 KCAL/MOL
REMARK 924 INTRA-LIGAND FREE ENERGY PREDICTED BY IDOCK:   -0.58 KCAL/MOL
REMARK 927      BINDING AFFINITY PREDICTED BY RF-SCORE:    0.00 PKD
ROOT
HETATM    1  O   UNL     1     -10.827   7.762  69.930  1.00  0.00    -0.247 OA 
HETATM    2  C   UNL     1      -9.976   8.781  69.668  1.00  0.00    -0.191 C  
HETATM    3  O   UNL     1      -9.663   9.602  70.514  1.00  0.00    -0.259 OA 
HETATM    4  C   UNL     1      -9.486   8.764  68.237  1.00  0.00    -0.150 C  
ENDROOT
BRANCH   4   5
HETATM    5  C   UNL     1      -8.530   9.921  67.957  1.00  0.00    -0.117 C  
BRANCH   5   6
HETATM    6  C   UNL     1      -9.063  10.844  66.862  1.00  0.00    -0.164 C  
BRANCH   6   7
HETATM    7  C   UNL     1     -10.531  10.538  66.563  1.00  0.00    -0.276 C  
BRANCH   7   8
HETATM    8  C   UNL     1     -11.427  11.739  66.861  1.00  0.00    -0.364 C  
BRANCH   8   9
HETATM    9  C   UNL     1     -10.676  12.795  67.672  1.00  0.00    -0.236 C  
BRANCH   9  10
HETATM   10  C   UNL     1     -10.946  14.203  67.143  1.00  0.00    -0.304 C  
BRANCH  10  11
HETATM   11  C   UNL     1     -10.074  14.508  65.924  1.00  0.00    -0.346 C  
BRANCH  11  12
HETATM   12  C   UNL     1     -10.071  15.976  65.610  1.00  0.00    -0.384 C  
HETATM   13  C   UNL     1      -9.297  16.873  66.234  1.00  0.00    -0.292 C  
ENDBRANCH  11  12
ENDBRANCH  10  11
ENDBRANCH   9  10
ENDBRANCH   8   9
ENDBRANCH   7   8
ENDBRANCH   6   7
ENDBRANCH   5   6
ENDBRANCH   4   5
TORSDOF 8
ENDMDL
MODEL      280
REMARK 921   NORMALIZED FREE ENERGY PREDICTED BY IDOCK:   -2.31 KCAL/MOL
REMARK 922        TOTAL FREE ENERGY PREDICTED BY IDOCK:   -3.88 KCAL/MOL
REMARK 923 INTER-LIGAND FREE ENERGY PREDICTED BY IDOCK:   -3.32 KCAL/MOL
REMARK 924 INTRA-LIGAND FREE ENERGY PREDICTED BY IDOCK:   -0.56 KCAL/MOL
REMARK 927      BINDING AFFINITY PREDICTED BY RF-SCORE:    0.00 PKD
ROOT
HETATM    1  O   UNL     1     -11.620   6.890  70.234  1.00  0.00    -0.324 OA 
HETATM    2  C   UNL     1     -10.734   7.859  70.559  1.00  0.00    -0.233 C  
HETATM    3  O   UNL     1     -10.601   8.263  71.702  1.00  0.00    -0.216 OA 
HETATM    4  C   UNL     1      -9.962   8.355  69.357  1.00  0.00    -0.191 C  
ENDROOT
BRANCH   4   5
HETATM    5  C   UNL     1      -8.968   9.449  69.741  1.00  0.00    -0.199 C  
BRANCH   5   6
HETATM    6  C   UNL     1      -8.542  10.277  68.528  1.00  0.00    -0.126 C  
BRANCH   6   7
HETATM    7  C   UNL     1      -9.584  10.179  67.413  1.00  0.00    -0.180 C  
BRANCH   7   8
HETATM    8  C   UNL     1      -9.929  11.555  66.844  1.00  0.00    -0.231 C  
BRANCH   8   9
HETATM    9  C   UNL     1      -9.824  12.635  67.922  1.00  0.00    -0.218 C  
BRANCH   9  10
HETATM   10  C   UNL     1     -11.110  12.734  68.740  1.00  0.00    -0.303 C  
BRANCH  10  11
HETATM   11  C   UNL     1     -11.800  14.082  68.517  1.00  0.00    -0.399 C  
BRANCH  11  12
HETATM   12  C   UNL     1     -12.254  14.684  69.815  1.00  0.00    -0.347 C  
HETATM   13  C   UNL     1     -11.420  15.147  70.756  1.00  0.00    -0.350 C  
ENDBRANCH  11  12
ENDBRANCH  10  11
ENDBRANCH   9  10
ENDBRANCH   8   9
ENDBRANCH   7   8
ENDBRANCH   6   7
ENDBRANCH   5   6
ENDBRANCH   4   5
TORSDOF 8
ENDMDL
MODEL      281
REMARK 921   NORMALIZED FREE ENERGY PREDICTED BY IDOCK:   -2.31 KCAL/MOL
REMARK 922        TOTAL FREE ENERGY PREDICTED BY IDOCK:   -3.86 KCAL/MOL
REMARK 923 INTER-LIGAND FREE ENERGY PREDICTED BY IDOCK:   -3.68 KCAL/MOL
REMARK 924 INTRA-LIGAND FREE ENERGY PREDICTED BY IDOCK:   -0.18 KCAL/MOL
REMARK 927      BINDING AFFINITY PREDICTED BY RF-SCORE:    0.00 PKD
ROOT
HETATM    1  O   UNL     1     -10.219   8.725  68.770  1.00  0.00    -0.197 OA 
HETATM    2  C   UNL     1     -10.696   9.788  69.459  1.00  0.00    -0.233 C  
HETATM    3  O   UNL     1     -10.699   9.827  70.678  1.00  0.00    -0.290 OA 
HETATM    4  C   UNL     1     -11.206  10.880  68.544  1.00  0.00    -0.335 C  
ENDROOT
BRANCH   4   5
HETATM    5  C   UNL     1     -11.742  12.071  69.336  1.00  0.00    -0.402 C  
BRANCH   5   6
HETATM    6  C   UNL     1     -11.763  13.347  68.495  1.00  0.00    -0.392 C  
BRANCH   6   7
HETATM    7  C   UNL     1     -11.527  14.577  69.372  1.00  0.00    -0.323 C  
BRANCH   7   8
HETATM    8  C   UNL     1     -10.607  15.587  68.686  1.00  0.00    -0.243 C  
BRANCH   8   9
HETATM    9  C   UNL     1     -11.148  15.973  67.309  1.00  0.00    -0.131 C  
BRANCH   9  10
HETATM   10  C   UNL     1     -10.102  15.757  66.217  1.00  0.00    -0.320 C  
BRANCH  10  11
HETATM   11  C   UNL     1      -8.688  15.762  66.802  1.00  0.00    -0.305 C  
BRANCH  11  12
HETATM   12  C   UNL     1      -8.286  17.140  67.242  1.00  0.00    -0.208 C  
HETATM   13  C   UNL     1      -7.801  18.076  66.417  1.00  0.00    -0.304 C  
ENDBRANCH  11  12
ENDBRANCH  10  11
ENDBRANCH   9  10
ENDBRANCH   8   9
ENDBRANCH   7   8
ENDBRANCH   6   7
ENDBRANCH   5   6
ENDBRANCH   4   5
TORSDOF 8
ENDMDL
MODEL      282
REMARK 921   NORMALIZED FREE ENERGY PREDICTED BY IDOCK:   -2.30 KCAL/MOL
REMARK 922        TOTAL FREE ENERGY PREDICTED BY IDOCK:   -3.86 KCAL/MOL
REMARK 923 INTER-LIGAND FREE ENERGY PREDICTED BY IDOCK:   -3.33 KCAL/MOL
REMARK 924 INTRA-LIGAND FREE ENERGY PREDICTED BY IDOCK:   -0.53 KCAL/MOL
REMARK 927      BINDING AFFINITY PREDICTED BY RF-SCORE:    0.00 PKD
ROOT
HETATM    1  O   UNL     1      -6.670  10.613  65.654  1.00  0.00    -0.124 OA 
HETATM    2  C   UNL     1      -7.312  10.337  66.813  1.00  0.00    -0.106 C  
HETATM    3  O   UNL     1      -7.750  11.213  67.540  1.00  0.00    -0.109 OA 
HETATM    4  C   UNL     1      -7.406   8.850  67.074  1.00  0.00    -0.083 C  
ENDROOT
BRANCH   4   5
HETATM    5  C   UNL     1      -8.131   8.556  68.386  1.00  0.00    -0.122 C  
BRANCH   5   6
HETATM    6  C   UNL     1      -9.052   7.342  68.263  1.00  0.00    -0.128 C  
BRANCH   6   7
HETATM    7  C   UNL     1     -10.508   7.740  68.510  1.00  0.00    -0.202 C  
BRANCH   7   8
HETATM    8  C   UNL     1     -11.282   6.628  69.216  1.00  0.00    -0.326 C  
BRANCH   8   9
HETATM    9  C   UNL     1     -11.700   7.059  70.623  1.00  0.00    -0.384 C  
BRANCH   9  10
HETATM   10  C   UNL     1     -11.218   8.475  70.939  1.00  0.00    -0.304 C  
BRANCH  10  11
HETATM   11  C   UNL     1     -12.199   9.193  71.868  1.00  0.00    -0.449 C  
BRANCH  11  12
HETATM   12  C   UNL     1     -12.895  10.319  71.159  1.00  0.00    -0.504 C  
HETATM   13  C   UNL     1     -12.271  11.413  70.702  1.00  0.00    -0.484 C  
ENDBRANCH  11  12
ENDBRANCH  10  11
ENDBRANCH   9  10
ENDBRANCH   8   9
ENDBRANCH   7   8
ENDBRANCH   6   7
ENDBRANCH   5   6
ENDBRANCH   4   5
TORSDOF 8
ENDMDL
MODEL      283
REMARK 921   NORMALIZED FREE ENERGY PREDICTED BY IDOCK:   -2.30 KCAL/MOL
REMARK 922        TOTAL FREE ENERGY PREDICTED BY IDOCK:   -3.85 KCAL/MOL
REMARK 923 INTER-LIGAND FREE ENERGY PREDICTED BY IDOCK:   -3.35 KCAL/MOL
REMARK 924 INTRA-LIGAND FREE ENERGY PREDICTED BY IDOCK:   -0.50 KCAL/MOL
REMARK 927      BINDING AFFINITY PREDICTED BY RF-SCORE:    0.00 PKD
ROOT
HETATM    1  O   UNL     1     -13.304  12.327  63.973  1.00  0.00    -0.677 OA 
HETATM    2  C   UNL     1     -12.025  12.021  64.292  1.00  0.00    -0.335 C  
HETATM    3  O   UNL     1     -11.262  11.501  63.496  1.00  0.00    -0.413 OA 
HETATM    4  C   UNL     1     -11.685  12.398  65.717  1.00  0.00    -0.470 C  
ENDROOT
BRANCH   4   5
HETATM    5  C   UNL     1     -10.240  12.044  66.061  1.00  0.00    -0.256 C  
BRANCH   5   6
HETATM    6  C   UNL     1     -10.139  10.685  66.755  1.00  0.00    -0.272 C  
BRANCH   6   7
HETATM    7  C   UNL     1      -8.677  10.268  66.917  1.00  0.00    -0.131 C  
BRANCH   7   8
HETATM    8  C   UNL     1      -7.732  11.457  66.754  1.00  0.00    -0.150 C  
BRANCH   8   9
HETATM    9  C   UNL     1      -7.186  11.912  68.108  1.00  0.00    -0.085 C  
BRANCH   9  10
HETATM   10  C   UNL     1      -5.918  12.750  67.946  1.00  0.00    -0.118 C  
BRANCH  10  11
HETATM   11  C   UNL     1      -6.259  14.228  67.746  1.00  0.00    -0.152 C  
BRANCH  11  12
HETATM   12  C   UNL     1      -7.163  14.730  68.834  1.00  0.00    -0.126 C  
HETATM   13  C   UNL     1      -6.844  15.725  69.672  1.00  0.00    -0.169 C  
ENDBRANCH  11  12
ENDBRANCH  10  11
ENDBRANCH   9  10
ENDBRANCH   8   9
ENDBRANCH   7   8
ENDBRANCH   6   7
ENDBRANCH   5   6
ENDBRANCH   4   5
TORSDOF 8
ENDMDL
MODEL      284
REMARK 921   NORMALIZED FREE ENERGY PREDICTED BY IDOCK:   -2.29 KCAL/MOL
REMARK 922        TOTAL FREE ENERGY PREDICTED BY IDOCK:   -3.84 KCAL/MOL
REMARK 923 INTER-LIGAND FREE ENERGY PREDICTED BY IDOCK:   -3.37 KCAL/MOL
REMARK 924 INTRA-LIGAND FREE ENERGY PREDICTED BY IDOCK:   -0.47 KCAL/MOL
REMARK 927      BINDING AFFINITY PREDICTED BY RF-SCORE:    0.00 PKD
ROOT
HETATM    1  O   UNL     1      -6.485  15.357  69.921  1.00  0.00    -0.161 OA 
HETATM    2  C   UNL     1      -6.857  14.998  68.670  1.00  0.00    -0.109 C  
HETATM    3  O   UNL     1      -6.093  15.054  67.722  1.00  0.00    -0.147 OA 
HETATM    4  C   UNL     1      -8.296  14.537  68.613  1.00  0.00    -0.164 C  
ENDROOT
BRANCH   4   5
HETATM    5  C   UNL     1      -8.701  14.137  67.195  1.00  0.00    -0.239 C  
BRANCH   5   6
HETATM    6  C   UNL     1      -9.052  15.356  66.342  1.00  0.00    -0.350 C  
BRANCH   6   7
HETATM    7  C   UNL     1     -10.389  15.955  66.779  1.00  0.00    -0.298 C  
BRANCH   7   8
HETATM    8  C   UNL     1     -10.294  17.470  66.957  1.00  0.00    -0.324 C  
BRANCH   8   9
HETATM    9  C   UNL     1      -9.026  17.853  67.720  1.00  0.00    -0.254 C  
BRANCH   9  10
HETATM   10  C   UNL     1      -8.116  18.749  66.880  1.00  0.00    -0.267 C  
BRANCH  10  11
HETATM   11  C   UNL     1      -8.332  20.224  67.222  1.00  0.00    -0.404 C  
BRANCH  11  12
HETATM   12  C   UNL     1      -7.030  20.969  67.270  1.00  0.00    -0.428 C  
HETATM   13  C   UNL     1      -5.844  20.387  67.490  1.00  0.00    -0.231 C  
ENDBRANCH  11  12
ENDBRANCH  10  11
ENDBRANCH   9  10
ENDBRANCH   8   9
ENDBRANCH   7   8
ENDBRANCH   6   7
ENDBRANCH   5   6
ENDBRANCH   4   5
TORSDOF 8
ENDMDL
MODEL      285
REMARK 921   NORMALIZED FREE ENERGY PREDICTED BY IDOCK:   -2.28 KCAL/MOL
REMARK 922        TOTAL FREE ENERGY PREDICTED BY IDOCK:   -3.82 KCAL/MOL
REMARK 923 INTER-LIGAND FREE ENERGY PREDICTED BY IDOCK:   -3.06 KCAL/MOL
REMARK 924 INTRA-LIGAND FREE ENERGY PREDICTED BY IDOCK:   -0.77 KCAL/MOL
REMARK 927      BINDING AFFINITY PREDICTED BY RF-SCORE:    0.00 PKD
ROOT
HETATM    1  O   UNL     1      -9.828  16.025  69.019  1.00  0.00    -0.214 OA 
HETATM    2  C   UNL     1     -10.887  15.229  68.741  1.00  0.00    -0.254 C  
HETATM    3  O   UNL     1     -12.015  15.486  69.128  1.00  0.00    -0.348 OA 
HETATM    4  C   UNL     1     -10.495  14.022  67.918  1.00  0.00    -0.241 C  
ENDROOT
BRANCH   4   5
HETATM    5  C   UNL     1     -11.700  13.133  67.616  1.00  0.00    -0.414 C  
BRANCH   5   6
HETATM    6  C   UNL     1     -11.615  12.521  66.218  1.00  0.00    -0.449 C  
BRANCH   6   7
HETATM    7  C   UNL     1     -10.784  11.237  66.239  1.00  0.00    -0.312 C  
BRANCH   7   8
HETATM    8  C   UNL     1      -9.725  11.236  65.138  1.00  0.00    -0.285 C  
BRANCH   8   9
HETATM    9  C   UNL     1      -8.418  10.618  65.636  1.00  0.00    -0.180 C  
BRANCH   9  10
HETATM   10  C   UNL     1      -8.191  10.911  67.118  1.00  0.00    -0.126 C  
BRANCH  10  11
HETATM   11  C   UNL     1      -7.242  12.097  67.304  1.00  0.00    -0.144 C  
BRANCH  11  12
HETATM   12  C   UNL     1      -6.178  11.789  68.318  1.00  0.00    -0.050 C  
HETATM   13  C   UNL     1      -5.923  10.560  68.784  1.00  0.00    -0.040 C  
ENDBRANCH  11  12
ENDBRANCH  10  11
ENDBRANCH   9  10
ENDBRANCH   8   9
ENDBRANCH   7   8
ENDBRANCH   6   7
ENDBRANCH   5   6
ENDBRANCH   4   5
TORSDOF 8
ENDMDL
MODEL      286
REMARK 921   NORMALIZED FREE ENERGY PREDICTED BY IDOCK:   -2.27 KCAL/MOL
REMARK 922        TOTAL FREE ENERGY PREDICTED BY IDOCK:   -3.82 KCAL/MOL
REMARK 923 INTER-LIGAND FREE ENERGY PREDICTED BY IDOCK:   -3.14 KCAL/MOL
REMARK 924 INTRA-LIGAND FREE ENERGY PREDICTED BY IDOCK:   -0.68 KCAL/MOL
REMARK 927      BINDING AFFINITY PREDICTED BY RF-SCORE:    0.00 PKD
ROOT
HETATM    1  O   UNL     1      -6.157   4.094  71.486  1.00  0.00    -0.013 OA 
HETATM    2  C   UNL     1      -6.996   4.995  70.924  1.00  0.00    -0.048 C  
HETATM    3  O   UNL     1      -6.909   5.325  69.753  1.00  0.00    -0.052 OA 
HETATM    4  C   UNL     1      -8.018   5.518  71.909  1.00  0.00    -0.114 C  
ENDROOT
BRANCH   4   5
HETATM    5  C   UNL     1      -8.955   6.534  71.260  1.00  0.00    -0.141 C  
BRANCH   5   6
HETATM    6  C   UNL     1     -10.245   5.880  70.767  1.00  0.00    -0.268 C  
BRANCH   6   7
HETATM    7  C   UNL     1     -11.443   6.801  71.003  1.00  0.00    -0.372 C  
BRANCH   7   8
HETATM    8  C   UNL     1     -11.687   7.034  72.493  1.00  0.00    -0.202 C  
BRANCH   8   9
HETATM    9  C   UNL     1     -11.873   8.522  72.791  1.00  0.00    -0.158 C  
BRANCH   9  10
HETATM   10  C   UNL     1     -12.973   9.133  71.923  1.00  0.00    -0.473 C  
BRANCH  10  11
HETATM   11  C   UNL     1     -12.718  10.622  71.681  1.00  0.00    -0.531 C  
BRANCH  11  12
HETATM   12  C   UNL     1     -12.375  10.890  70.244  1.00  0.00    -0.412 C  
HETATM   13  C   UNL     1     -11.184  10.615  69.697  1.00  0.00    -0.351 C  
ENDBRANCH  11  12
ENDBRANCH  10  11
ENDBRANCH   9  10
ENDBRANCH   8   9
ENDBRANCH   7   8
ENDBRANCH   6   7
ENDBRANCH   5   6
ENDBRANCH   4   5
TORSDOF 8
ENDMDL
MODEL      287
REMARK 921   NORMALIZED FREE ENERGY PREDICTED BY IDOCK:   -2.25 KCAL/MOL
REMARK 922        TOTAL FREE ENERGY PREDICTED BY IDOCK:   -3.79 KCAL/MOL
REMARK 923 INTER-LIGAND FREE ENERGY PREDICTED BY IDOCK:   -3.14 KCAL/MOL
REMARK 924 INTRA-LIGAND FREE ENERGY PREDICTED BY IDOCK:   -0.64 KCAL/MOL
REMARK 927      BINDING AFFINITY PREDICTED BY RF-SCORE:    0.00 PKD
ROOT
HETATM    1  O   UNL     1      -8.534   8.619  73.327  1.00  0.00    -0.395 OA 
HETATM    2  C   UNL     1      -9.691   8.343  72.681  1.00  0.00    -0.262 C  
HETATM    3  O   UNL     1     -10.547   7.619  73.159  1.00  0.00    -0.343 OA 
HETATM    4  C   UNL     1      -9.772   9.030  71.335  1.00  0.00    -0.369 C  
ENDROOT
BRANCH   4   5
HETATM    5  C   UNL     1     -11.081   8.707  70.619  1.00  0.00    -0.282 C  
BRANCH   5   6
HETATM    6  C   UNL     1     -10.845   7.890  69.348  1.00  0.00    -0.114 C  
BRANCH   6   7
HETATM    7  C   UNL     1     -11.038   6.398  69.621  1.00  0.00    -0.465 C  
BRANCH   7   8
HETATM    8  C   UNL     1      -9.704   5.696  69.870  1.00  0.00    -0.222 C  
BRANCH   8   9
HETATM    9  C   UNL     1      -9.610   4.398  69.066  1.00  0.00    -0.244 C  
BRANCH   9  10
HETATM   10  C   UNL     1      -9.651   4.669  67.562  1.00  0.00    -0.198 C  
BRANCH  10  11
HETATM   11  C   UNL     1      -8.304   5.194  67.062  1.00  0.00    -0.107 C  
BRANCH  11  12
HETATM   12  C   UNL     1      -7.580   4.155  66.256  1.00  0.00    -0.089 C  
HETATM   13  C   UNL     1      -6.871   3.153  66.793  1.00  0.00    -0.053 C  
ENDBRANCH  11  12
ENDBRANCH  10  11
ENDBRANCH   9  10
ENDBRANCH   8   9
ENDBRANCH   7   8
ENDBRANCH   6   7
ENDBRANCH   5   6
ENDBRANCH   4   5
TORSDOF 8
ENDMDL
MODEL      288
REMARK 921   NORMALIZED FREE ENERGY PREDICTED BY IDOCK:   -2.25 KCAL/MOL
REMARK 922        TOTAL FREE ENERGY PREDICTED BY IDOCK:   -3.78 KCAL/MOL
REMARK 923 INTER-LIGAND FREE ENERGY PREDICTED BY IDOCK:   -3.41 KCAL/MOL
REMARK 924 INTRA-LIGAND FREE ENERGY PREDICTED BY IDOCK:   -0.36 KCAL/MOL
REMARK 927      BINDING AFFINITY PREDICTED BY RF-SCORE:    0.00 PKD
ROOT
HETATM    1  O   UNL     1      -6.639   7.859  70.352  1.00  0.00    -0.037 OA 
HETATM    2  C   UNL     1      -7.832   7.602  70.938  1.00  0.00    -0.090 C  
HETATM    3  O   UNL     1      -7.929   7.314  72.119  1.00  0.00    -0.092 OA 
HETATM    4  C   UNL     1      -8.984   7.715  69.964  1.00  0.00    -0.143 C  
ENDROOT
BRANCH   4   5
HETATM    5  C   UNL     1     -10.321   7.420  70.639  1.00  0.00    -0.217 C  
BRANCH   5   6
HETATM    6  C   UNL     1     -10.988   8.695  71.155  1.00  0.00    -0.320 C  
BRANCH   6   7
HETATM    7  C   UNL     1     -10.696   9.873  70.225  1.00  0.00    -0.367 C  
BRANCH   7   8
HETATM    8  C   UNL     1     -11.982  10.482  69.669  1.00  0.00    -0.279 C  
BRANCH   8   9
HETATM    9  C   UNL     1     -12.388  11.723  70.465  1.00  0.00    -0.387 C  
BRANCH   9  10
HETATM   10  C   UNL     1     -11.826  12.998  69.838  1.00  0.00    -0.377 C  
BRANCH  10  11
HETATM   11  C   UNL     1     -11.317  12.734  68.419  1.00  0.00    -0.331 C  
BRANCH  11  12
HETATM   12  C   UNL     1     -11.955  13.664  67.429  1.00  0.00    -0.413 C  
HETATM   13  C   UNL     1     -11.398  14.807  67.011  1.00  0.00    -0.358 C  
ENDBRANCH  11  12
ENDBRANCH  10  11
ENDBRANCH   9  10
ENDBRANCH   8   9
ENDBRANCH   7   8
ENDBRANCH   6   7
ENDBRANCH   5   6
ENDBRANCH   4   5
TORSDOF 8
ENDMDL
MODEL      289
REMARK 921   NORMALIZED FREE ENERGY PREDICTED BY IDOCK:   -2.24 KCAL/MOL
REMARK 922        TOTAL FREE ENERGY PREDICTED BY IDOCK:   -3.77 KCAL/MOL
REMARK 923 INTER-LIGAND FREE ENERGY PREDICTED BY IDOCK:   -3.32 KCAL/MOL
REMARK 924 INTRA-LIGAND FREE ENERGY PREDICTED BY IDOCK:   -0.45 KCAL/MOL
REMARK 927      BINDING AFFINITY PREDICTED BY RF-SCORE:    0.00 PKD
ROOT
HETATM    1  O   UNL     1      -7.210   9.612  69.636  1.00  0.00    -0.066 OA 
HETATM    2  C   UNL     1      -8.001   9.355  70.703  1.00  0.00    -0.158 C  
HETATM    3  O   UNL     1      -7.546   9.074  71.799  1.00  0.00    -0.321 OA 
HETATM    4  C   UNL     1      -9.471   9.459  70.363  1.00  0.00    -0.319 C  
ENDROOT
BRANCH   4   5
HETATM    5  C   UNL     1     -10.351   9.164  71.577  1.00  0.00    -0.414 C  
BRANCH   5   6
HETATM    6  C   UNL     1     -11.738   8.671  71.164  1.00  0.00    -0.334 C  
BRANCH   6   7
HETATM    7  C   UNL     1     -12.162   7.475  72.017  1.00  0.00    -0.314 C  
BRANCH   7   8
HETATM    8  C   UNL     1     -10.958   6.650  72.467  1.00  0.00    -0.280 C  
BRANCH   8   9
HETATM    9  C   UNL     1     -11.399   5.293  73.016  1.00  0.00    -0.376 C  
BRANCH   9  10
HETATM   10  C   UNL     1     -10.334   4.688  73.931  1.00  0.00    -0.279 C  
BRANCH  10  11
HETATM   11  C   UNL     1      -9.168   4.124  73.117  1.00  0.00    -0.123 C  
BRANCH  11  12
HETATM   12  C   UNL     1      -9.259   2.630  72.996  1.00  0.00    -0.113 C  
HETATM   13  C   UNL     1     -10.011   1.999  72.085  1.00  0.00    -0.225 C  
ENDBRANCH  11  12
ENDBRANCH  10  11
ENDBRANCH   9  10
ENDBRANCH   8   9
ENDBRANCH   7   8
ENDBRANCH   6   7
ENDBRANCH   5   6
ENDBRANCH   4   5
TORSDOF 8
ENDMDL
MODEL      290
REMARK 921   NORMALIZED FREE ENERGY PREDICTED BY IDOCK:   -2.24 KCAL/MOL
REMARK 922        TOTAL FREE ENERGY PREDICTED BY IDOCK:   -3.76 KCAL/MOL
REMARK 923 INTER-LIGAND FREE ENERGY PREDICTED BY IDOCK:   -3.10 KCAL/MOL
REMARK 924 INTRA-LIGAND FREE ENERGY PREDICTED BY IDOCK:   -0.66 KCAL/MOL
REMARK 927      BINDING AFFINITY PREDICTED BY RF-SCORE:    0.00 PKD
ROOT
HETATM    1  O   UNL     1      -5.527   8.951  70.834  1.00  0.00    -0.027 OA 
HETATM    2  C   UNL     1      -6.865   9.139  70.761  1.00  0.00    -0.087 C  
HETATM    3  O   UNL     1      -7.581   9.121  71.749  1.00  0.00    -0.339 OA 
HETATM    4  C   UNL     1      -7.334   9.365  69.341  1.00  0.00    -0.078 C  
ENDROOT
BRANCH   4   5
HETATM    5  C   UNL     1      -8.846   9.572  69.276  1.00  0.00    -0.153 C  
BRANCH   5   6
HETATM    6  C   UNL     1      -9.204  10.979  68.797  1.00  0.00    -0.167 C  
BRANCH   6   7
HETATM    7  C   UNL     1      -8.809  11.169  67.331  1.00  0.00    -0.139 C  
BRANCH   7   8
HETATM    8  C   UNL     1      -9.311  10.017  66.461  1.00  0.00    -0.201 C  
BRANCH   8   9
HETATM    9  C   UNL     1     -10.408  10.491  65.506  1.00  0.00    -0.287 C  
BRANCH   9  10
HETATM   10  C   UNL     1      -9.928  11.653  64.637  1.00  0.00    -0.291 C  
BRANCH  10  11
HETATM   11  C   UNL     1     -11.049  12.670  64.413  1.00  0.00    -0.385 C  
BRANCH  11  12
HETATM   12  C   UNL     1     -12.054  12.626  65.527  1.00  0.00    -0.515 C  
HETATM   13  C   UNL     1     -12.183  13.584  66.455  1.00  0.00    -0.433 C  
ENDBRANCH  11  12
ENDBRANCH  10  11
ENDBRANCH   9  10
ENDBRANCH   8   9
ENDBRANCH   7   8
ENDBRANCH   6   7
ENDBRANCH   5   6
ENDBRANCH   4   5
TORSDOF 8
ENDMDL
MODEL      291
REMARK 921   NORMALIZED FREE ENERGY PREDICTED BY IDOCK:   -2.22 KCAL/MOL
REMARK 922        TOTAL FREE ENERGY PREDICTED BY IDOCK:   -3.74 KCAL/MOL
REMARK 923 INTER-LIGAND FREE ENERGY PREDICTED BY IDOCK:   -3.25 KCAL/MOL
REMARK 924 INTRA-LIGAND FREE ENERGY PREDICTED BY IDOCK:   -0.49 KCAL/MOL
REMARK 927      BINDING AFFINITY PREDICTED BY RF-SCORE:    0.00 PKD
ROOT
HETATM    1  O   UNL     1     -10.958  18.166  67.510  1.00  0.00    -0.324 OA 
HETATM    2  C   UNL     1     -10.186  17.246  66.885  1.00  0.00    -0.322 C  
HETATM    3  O   UNL     1      -9.160  17.547  66.299  1.00  0.00    -0.371 OA 
HETATM    4  C   UNL     1     -10.749  15.848  67.009  1.00  0.00    -0.292 C  
ENDROOT
BRANCH   4   5
HETATM    5  C   UNL     1      -9.868  14.823  66.298  1.00  0.00    -0.316 C  
BRANCH   5   6
HETATM    6  C   UNL     1      -8.789  14.264  67.224  1.00  0.00    -0.224 C  
BRANCH   6   7
HETATM    7  C   UNL     1      -8.732  12.738  67.131  1.00  0.00    -0.202 C  
BRANCH   7   8
HETATM    8  C   UNL     1     -10.128  12.132  66.992  1.00  0.00    -0.219 C  
BRANCH   8   9
HETATM    9  C   UNL     1     -10.140  10.675  67.455  1.00  0.00    -0.217 C  
BRANCH   9  10
HETATM   10  C   UNL     1      -9.172  10.450  68.617  1.00  0.00    -0.164 C  
BRANCH  10  11
HETATM   11  C   UNL     1      -9.142   8.976  69.027  1.00  0.00    -0.143 C  
BRANCH  11  12
HETATM   12  C   UNL     1     -10.385   8.261  68.583  1.00  0.00    -0.225 C  
HETATM   13  C   UNL     1     -10.634   6.969  68.834  1.00  0.00    -0.233 C  
ENDBRANCH  11  12
ENDBRANCH  10  11
ENDBRANCH   9  10
ENDBRANCH   8   9
ENDBRANCH   7   8
ENDBRANCH   6   7
ENDBRANCH   5   6
ENDBRANCH   4   5
TORSDOF 8
ENDMDL
MODEL      292
REMARK 921   NORMALIZED FREE ENERGY PREDICTED BY IDOCK:   -2.22 KCAL/MOL
REMARK 922        TOTAL FREE ENERGY PREDICTED BY IDOCK:   -3.74 KCAL/MOL
REMARK 923 INTER-LIGAND FREE ENERGY PREDICTED BY IDOCK:   -3.04 KCAL/MOL
REMARK 924 INTRA-LIGAND FREE ENERGY PREDICTED BY IDOCK:   -0.70 KCAL/MOL
REMARK 927      BINDING AFFINITY PREDICTED BY RF-SCORE:    0.00 PKD
ROOT
HETATM    1  O   UNL     1      -8.902   7.809  65.774  1.00  0.00    -0.160 OA 
HETATM    2  C   UNL     1      -8.844   7.129  66.943  1.00  0.00    -0.128 C  
HETATM    3  O   UNL     1      -9.354   6.029  67.082  1.00  0.00    -0.115 OA 
HETATM    4  C   UNL     1      -8.092   7.889  68.011  1.00  0.00    -0.126 C  
ENDROOT
BRANCH   4   5
HETATM    5  C   UNL     1      -8.038   7.109  69.323  1.00  0.00    -0.120 C  
BRANCH   5   6
HETATM    6  C   UNL     1      -9.115   7.574  70.303  1.00  0.00    -0.154 C  
BRANCH   6   7
HETATM    7  C   UNL     1      -8.996   9.075  70.567  1.00  0.00    -0.249 C  
BRANCH   7   8
HETATM    8  C   UNL     1     -10.368   9.741  70.654  1.00  0.00    -0.330 C  
BRANCH   8   9
HETATM    9  C   UNL     1     -11.034   9.804  69.280  1.00  0.00    -0.222 C  
BRANCH   9  10
HETATM   10  C   UNL     1     -12.117  10.882  69.232  1.00  0.00    -0.332 C  
BRANCH  10  11
HETATM   11  C   UNL     1     -11.627  12.181  69.874  1.00  0.00    -0.297 C  
BRANCH  11  12
HETATM   12  C   UNL     1     -12.635  12.724  70.845  1.00  0.00    -0.342 C  
HETATM   13  C   UNL     1     -13.164  12.013  71.849  1.00  0.00    -0.469 C  
ENDBRANCH  11  12
ENDBRANCH  10  11
ENDBRANCH   9  10
ENDBRANCH   8   9
ENDBRANCH   7   8
ENDBRANCH   6   7
ENDBRANCH   5   6
ENDBRANCH   4   5
TORSDOF 8
ENDMDL
MODEL      293
REMARK 921   NORMALIZED FREE ENERGY PREDICTED BY IDOCK:   -2.22 KCAL/MOL
REMARK 922        TOTAL FREE ENERGY PREDICTED BY IDOCK:   -3.74 KCAL/MOL
REMARK 923 INTER-LIGAND FREE ENERGY PREDICTED BY IDOCK:   -3.27 KCAL/MOL
REMARK 924 INTRA-LIGAND FREE ENERGY PREDICTED BY IDOCK:   -0.46 KCAL/MOL
REMARK 927      BINDING AFFINITY PREDICTED BY RF-SCORE:    0.00 PKD
ROOT
HETATM    1  O   UNL     1      -7.530   6.131  65.132  1.00  0.00    -0.077 OA 
HETATM    2  C   UNL     1      -8.359   7.023  65.723  1.00  0.00    -0.143 C  
HETATM    3  O   UNL     1      -9.005   6.750  66.720  1.00  0.00    -0.125 OA 
HETATM    4  C   UNL     1      -8.372   8.354  65.005  1.00  0.00    -0.169 C  
ENDROOT
BRANCH   4   5
HETATM    5  C   UNL     1      -9.313   9.348  65.683  1.00  0.00    -0.309 C  
BRANCH   5   6
HETATM    6  C   UNL     1      -8.548  10.513  66.311  1.00  0.00    -0.151 C  
BRANCH   6   7
HETATM    7  C   UNL     1      -9.513  11.513  66.949  1.00  0.00    -0.194 C  
BRANCH   7   8
HETATM    8  C   UNL     1     -10.970  11.110  66.724  1.00  0.00    -0.309 C  
BRANCH   8   9
HETATM    9  C   UNL     1     -11.867  11.657  67.835  1.00  0.00    -0.273 C  
BRANCH   9  10
HETATM   10  C   UNL     1     -11.098  11.817  69.146  1.00  0.00    -0.294 C  
BRANCH  10  11
HETATM   11  C   UNL     1     -12.006  11.557  70.349  1.00  0.00    -0.459 C  
BRANCH  11  12
HETATM   12  C   UNL     1     -12.648  12.826  70.831  1.00  0.00    -0.342 C  
HETATM   13  C   UNL     1     -12.279  14.050  70.430  1.00  0.00    -0.433 C  
ENDBRANCH  11  12
ENDBRANCH  10  11
ENDBRANCH   9  10
ENDBRANCH   8   9
ENDBRANCH   7   8
ENDBRANCH   6   7
ENDBRANCH   5   6
ENDBRANCH   4   5
TORSDOF 8
ENDMDL
MODEL      294
REMARK 921   NORMALIZED FREE ENERGY PREDICTED BY IDOCK:   -2.14 KCAL/MOL
REMARK 922        TOTAL FREE ENERGY PREDICTED BY IDOCK:   -3.61 KCAL/MOL
REMARK 923 INTER-LIGAND FREE ENERGY PREDICTED BY IDOCK:   -3.31 KCAL/MOL
REMARK 924 INTRA-LIGAND FREE ENERGY PREDICTED BY IDOCK:   -0.31 KCAL/MOL
REMARK 927      BINDING AFFINITY PREDICTED BY RF-SCORE:    0.00 PKD
ROOT
HETATM    1  O   UNL     1      -5.824   5.856  65.047  1.00  0.00    -0.023 OA 
HETATM    2  C   UNL     1      -6.906   6.388  65.662  1.00  0.00    -0.052 C  
HETATM    3  O   UNL     1      -7.709   5.704  66.274  1.00  0.00    -0.096 OA 
HETATM    4  C   UNL     1      -6.982   7.889  65.491  1.00  0.00    -0.059 C  
ENDROOT
BRANCH   4   5
HETATM    5  C   UNL     1      -8.209   8.472  66.188  1.00  0.00    -0.115 C  
BRANCH   5   6
HETATM    6  C   UNL     1      -9.079   9.277  65.223  1.00  0.00    -0.271 C  
BRANCH   6   7
HETATM    7  C   UNL     1     -10.077  10.146  65.990  1.00  0.00    -0.317 C  
BRANCH   7   8
HETATM    8  C   UNL     1      -9.930   9.969  67.501  1.00  0.00    -0.232 C  
BRANCH   8   9
HETATM    9  C   UNL     1     -11.033  10.718  68.249  1.00  0.00    -0.307 C  
BRANCH   9  10
HETATM   10  C   UNL     1     -11.057  10.344  69.731  1.00  0.00    -0.352 C  
BRANCH  10  11
HETATM   11  C   UNL     1     -12.433  10.615  70.343  1.00  0.00    -0.421 C  
BRANCH  11  12
HETATM   12  C   UNL     1     -12.562   9.978  71.696  1.00  0.00    -0.524 C  
HETATM   13  C   UNL     1     -13.629   9.272  72.091  1.00  0.00    -0.536 C  
ENDBRANCH  11  12
ENDBRANCH  10  11
ENDBRANCH   9  10
ENDBRANCH   8   9
ENDBRANCH   7   8
ENDBRANCH   6   7
ENDBRANCH   5   6
ENDBRANCH   4   5
TORSDOF 8
ENDMDL
MODEL      295
REMARK 921   NORMALIZED FREE ENERGY PREDICTED BY IDOCK:   -2.12 KCAL/MOL
REMARK 922        TOTAL FREE ENERGY PREDICTED BY IDOCK:   -3.60 KCAL/MOL
REMARK 923 INTER-LIGAND FREE ENERGY PREDICTED BY IDOCK:   -3.30 KCAL/MOL
REMARK 924 INTRA-LIGAND FREE ENERGY PREDICTED BY IDOCK:   -0.29 KCAL/MOL
REMARK 927      BINDING AFFINITY PREDICTED BY RF-SCORE:    0.00 PKD
ROOT
HETATM    1  O   UNL     1     -10.840   5.825  67.279  1.00  0.00    -0.272 OA 
HETATM    2  C   UNL     1     -10.936   6.431  68.486  1.00  0.00    -0.319 C  
HETATM    3  O   UNL     1     -11.458   5.891  69.447  1.00  0.00    -0.265 OA 
HETATM    4  C   UNL     1     -10.332   7.817  68.478  1.00  0.00    -0.226 C  
ENDROOT
BRANCH   4   5
HETATM    5  C   UNL     1     -10.450   8.488  69.846  1.00  0.00    -0.219 C  
BRANCH   5   6
HETATM    6  C   UNL     1      -9.434   9.618  70.011  1.00  0.00    -0.277 C  
BRANCH   6   7
HETATM    7  C   UNL     1      -8.142   9.097  70.641  1.00  0.00    -0.198 C  
BRANCH   7   8
HETATM    8  C   UNL     1      -8.405   7.899  71.552  1.00  0.00    -0.130 C  
BRANCH   8   9
HETATM    9  C   UNL     1      -9.184   8.319  72.798  1.00  0.00    -0.336 C  
BRANCH   9  10
HETATM   10  C   UNL     1      -8.781   7.489  74.016  1.00  0.00    -0.283 C  
BRANCH  10  11
HETATM   11  C   UNL     1      -8.914   5.992  73.728  1.00  0.00    -0.127 C  
BRANCH  11  12
HETATM   12  C   UNL     1     -10.322   5.519  73.945  1.00  0.00    -0.285 C  
HETATM   13  C   UNL     1     -10.915   4.572  73.206  1.00  0.00    -0.369 C  
ENDBRANCH  11  12
ENDBRANCH  10  11
ENDBRANCH   9  10
ENDBRANCH   8   9
ENDBRANCH   7   8
ENDBRANCH   6   7
ENDBRANCH   5   6
ENDBRANCH   4   5
TORSDOF 8
ENDMDL
MODEL      296
REMARK 921   NORMALIZED FREE ENERGY PREDICTED BY IDOCK:   -2.11 KCAL/MOL
REMARK 922        TOTAL FREE ENERGY PREDICTED BY IDOCK:   -3.58 KCAL/MOL
REMARK 923 INTER-LIGAND FREE ENERGY PREDICTED BY IDOCK:   -2.96 KCAL/MOL
REMARK 924 INTRA-LIGAND FREE ENERGY PREDICTED BY IDOCK:   -0.62 KCAL/MOL
REMARK 927      BINDING AFFINITY PREDICTED BY RF-SCORE:    0.00 PKD
ROOT
HETATM    1  O   UNL     1      -8.017   3.176  68.558  1.00  0.00    -0.058 OA 
HETATM    2  C   UNL     1      -8.337   4.270  67.829  1.00  0.00    -0.098 C  
HETATM    3  O   UNL     1      -7.620   5.256  67.784  1.00  0.00    -0.085 OA 
HETATM    4  C   UNL     1      -9.656   4.111  67.106  1.00  0.00    -0.229 C  
ENDROOT
BRANCH   4   5
HETATM    5  C   UNL     1     -10.003   5.354  66.290  1.00  0.00    -0.199 C  
BRANCH   5   6
HETATM    6  C   UNL     1     -11.195   6.106  66.883  1.00  0.00    -0.157 C  
BRANCH   6   7
HETATM    7  C   UNL     1     -10.791   6.839  68.163  1.00  0.00    -0.296 C  
BRANCH   7   8
HETATM    8  C   UNL     1     -10.479   8.310  67.892  1.00  0.00    -0.259 C  
BRANCH   8   9
HETATM    9  C   UNL     1      -9.316   8.791  68.760  1.00  0.00    -0.141 C  
BRANCH   9  10
HETATM   10  C   UNL     1      -9.673  10.072  69.513  1.00  0.00    -0.253 C  
BRANCH  10  11
HETATM   11  C   UNL     1     -10.949   9.887  70.336  1.00  0.00    -0.379 C  
BRANCH  11  12
HETATM   12  C   UNL     1     -11.935  10.986  70.067  1.00  0.00    -0.430 C  
HETATM   13  C   UNL     1     -11.903  11.769  68.980  1.00  0.00    -0.379 C  
ENDBRANCH  11  12
ENDBRANCH  10  11
ENDBRANCH   9  10
ENDBRANCH   8   9
ENDBRANCH   7   8
ENDBRANCH   6   7
ENDBRANCH   5   6
ENDBRANCH   4   5
TORSDOF 8
ENDMDL
MODEL      297
REMARK 921   NORMALIZED FREE ENERGY PREDICTED BY IDOCK:   -2.06 KCAL/MOL
REMARK 922        TOTAL FREE ENERGY PREDICTED BY IDOCK:   -3.51 KCAL/MOL
REMARK 923 INTER-LIGAND FREE ENERGY PREDICTED BY IDOCK:   -2.93 KCAL/MOL
REMARK 924 INTRA-LIGAND FREE ENERGY PREDICTED BY IDOCK:   -0.58 KCAL/MOL
REMARK 927      BINDING AFFINITY PREDICTED BY RF-SCORE:    0.00 PKD
ROOT
HETATM    1  O   UNL     1      -7.888   7.239  66.888  1.00  0.00    -0.107 OA 
HETATM    2  C   UNL     1      -9.015   7.899  67.244  1.00  0.00    -0.127 C  
HETATM    3  O   UNL     1      -9.889   7.378  67.916  1.00  0.00    -0.140 OA 
HETATM    4  C   UNL     1      -9.040   9.315  66.716  1.00  0.00    -0.170 C  
ENDROOT
BRANCH   4   5
HETATM    5  C   UNL     1     -10.318  10.044  67.125  1.00  0.00    -0.300 C  
BRANCH   5   6
HETATM    6  C   UNL     1     -10.363  11.466  66.565  1.00  0.00    -0.277 C  
BRANCH   6   7
HETATM    7  C   UNL     1     -11.547  12.240  67.146  1.00  0.00    -0.423 C  
BRANCH   7   8
HETATM    8  C   UNL     1     -11.084  13.460  67.941  1.00  0.00    -0.289 C  
BRANCH   8   9
HETATM    9  C   UNL     1      -9.652  13.275  68.444  1.00  0.00    -0.185 C  
BRANCH   9  10
HETATM   10  C   UNL     1      -8.874  14.590  68.409  1.00  0.00    -0.180 C  
BRANCH  10  11
HETATM   11  C   UNL     1      -9.818  15.782  68.243  1.00  0.00    -0.213 C  
BRANCH  11  12
HETATM   12  C   UNL     1      -9.342  16.708  67.161  1.00  0.00    -0.236 C  
HETATM   13  C   UNL     1      -9.652  16.567  65.866  1.00  0.00    -0.284 C  
ENDBRANCH  11  12
ENDBRANCH  10  11
ENDBRANCH   9  10
ENDBRANCH   8   9
ENDBRANCH   7   8
ENDBRANCH   6   7
ENDBRANCH   5   6
ENDBRANCH   4   5
TORSDOF 8
ENDMDL
MODEL      298
REMARK 921   NORMALIZED FREE ENERGY PREDICTED BY IDOCK:   -2.04 KCAL/MOL
REMARK 922        TOTAL FREE ENERGY PREDICTED BY IDOCK:   -3.48 KCAL/MOL
REMARK 923 INTER-LIGAND FREE ENERGY PREDICTED BY IDOCK:   -2.53 KCAL/MOL
REMARK 924 INTRA-LIGAND FREE ENERGY PREDICTED BY IDOCK:   -0.94 KCAL/MOL
REMARK 927      BINDING AFFINITY PREDICTED BY RF-SCORE:    0.00 PKD
ROOT
HETATM    1  O   UNL     1      -7.808  16.427  69.254  1.00  0.00    -0.238 OA 
HETATM    2  C   UNL     1      -7.148  15.246  69.255  1.00  0.00    -0.177 C  
HETATM    3  O   UNL     1      -6.230  15.013  70.024  1.00  0.00    -0.139 OA 
HETATM    4  C   UNL     1      -7.683  14.290  68.212  1.00  0.00    -0.136 C  
ENDROOT
BRANCH   4   5
HETATM    5  C   UNL     1      -6.926  12.964  68.225  1.00  0.00    -0.099 C  
BRANCH   5   6
HETATM    6  C   UNL     1      -7.850  11.788  68.542  1.00  0.00    -0.144 C  
BRANCH   6   7
HETATM    7  C   UNL     1      -9.224  11.992  67.902  1.00  0.00    -0.190 C  
BRANCH   7   8
HETATM    8  C   UNL     1     -10.196  10.878  68.291  1.00  0.00    -0.191 C  
BRANCH   8   9
HETATM    9  C   UNL     1     -10.881  10.294  67.055  1.00  0.00    -0.248 C  
BRANCH   9  10
HETATM   10  C   UNL     1     -10.499  11.060  65.790  1.00  0.00    -0.290 C  
BRANCH  10  11
HETATM   11  C   UNL     1      -9.902  10.121  64.739  1.00  0.00    -0.382 C  
BRANCH  11  12
HETATM   12  C   UNL     1      -8.424  10.338  64.591  1.00  0.00    -0.179 C  
HETATM   13  C   UNL     1      -7.506   9.815  65.414  1.00  0.00    -0.121 C  
ENDBRANCH  11  12
ENDBRANCH  10  11
ENDBRANCH   9  10
ENDBRANCH   8   9
ENDBRANCH   7   8
ENDBRANCH   6   7
ENDBRANCH   5   6
ENDBRANCH   4   5
TORSDOF 8
ENDMDL
MODEL      299
REMARK 921   NORMALIZED FREE ENERGY PREDICTED BY IDOCK:   -2.03 KCAL/MOL
REMARK 922        TOTAL FREE ENERGY PREDICTED BY IDOCK:   -3.46 KCAL/MOL
REMARK 923 INTER-LIGAND FREE ENERGY PREDICTED BY IDOCK:   -2.97 KCAL/MOL
REMARK 924 INTRA-LIGAND FREE ENERGY PREDICTED BY IDOCK:   -0.48 KCAL/MOL
REMARK 927      BINDING AFFINITY PREDICTED BY RF-SCORE:    0.00 PKD
ROOT
HETATM    1  O   UNL     1      -7.405   4.062  69.299  1.00  0.00    -0.053 OA 
HETATM    2  C   UNL     1      -7.796   4.697  68.170  1.00  0.00    -0.081 C  
HETATM    3  O   UNL     1      -7.009   5.283  67.446  1.00  0.00    -0.062 OA 
HETATM    4  C   UNL     1      -9.286   4.583  67.937  1.00  0.00    -0.178 C  
ENDROOT
BRANCH   4   5
HETATM    5  C   UNL     1      -9.712   5.306  66.661  1.00  0.00    -0.177 C  
BRANCH   5   6
HETATM    6  C   UNL     1     -10.853   6.289  66.920  1.00  0.00    -0.428 C  
BRANCH   6   7
HETATM    7  C   UNL     1     -10.651   7.013  68.252  1.00  0.00    -0.238 C  
BRANCH   7   8
HETATM    8  C   UNL     1     -10.053   8.405  68.049  1.00  0.00    -0.245 C  
BRANCH   8   9
HETATM    9  C   UNL     1     -10.398   8.952  66.664  1.00  0.00    -0.294 C  
BRANCH   9  10
HETATM   10  C   UNL     1      -9.694  10.282  66.397  1.00  0.00    -0.252 C  
BRANCH  10  11
HETATM   11  C   UNL     1     -10.684  11.338  65.902  1.00  0.00    -0.291 C  
BRANCH  11  12
HETATM   12  C   UNL     1     -11.053  11.107  64.465  1.00  0.00    -0.166 C  
HETATM   13  C   UNL     1     -10.896  12.020  63.498  1.00  0.00    -0.509 C  
ENDBRANCH  11  12
ENDBRANCH  10  11
ENDBRANCH   9  10
ENDBRANCH   8   9
ENDBRANCH   7   8
ENDBRANCH   6   7
ENDBRANCH   5   6
ENDBRANCH   4   5
TORSDOF 8
ENDMDL
MODEL      300
REMARK 921   NORMALIZED FREE ENERGY PREDICTED BY IDOCK:   -2.02 KCAL/MOL
REMARK 922        TOTAL FREE ENERGY PREDICTED BY IDOCK:   -3.45 KCAL/MOL
REMARK 923 INTER-LIGAND FREE ENERGY PREDICTED BY IDOCK:   -3.05 KCAL/MOL
REMARK 924 INTRA-LIGAND FREE ENERGY PREDICTED BY IDOCK:   -0.40 KCAL/MOL
REMARK 927      BINDING AFFINITY PREDICTED BY RF-SCORE:    0.00 PKD
ROOT
HETATM    1  O   UNL     1      -9.702  16.089  68.893  1.00  0.00    -0.210 OA 
HETATM    2  C   UNL     1     -10.800  15.318  68.712  1.00  0.00    -0.254 C  
HETATM    3  O   UNL     1     -11.928  15.729  68.929  1.00  0.00    -0.382 OA 
HETATM    4  C   UNL     1     -10.451  13.930  68.224  1.00  0.00    -0.252 C  
ENDROOT
BRANCH   4   5
HETATM    5  C   UNL     1     -11.700  13.073  68.027  1.00  0.00    -0.397 C  
BRANCH   5   6
HETATM    6  C   UNL     1     -11.558  12.133  66.830  1.00  0.00    -0.408 C  
BRANCH   6   7
HETATM    7  C   UNL     1     -10.396  11.161  67.040  1.00  0.00    -0.263 C  
BRANCH   7   8
HETATM    8  C   UNL     1     -10.890   9.782  67.476  1.00  0.00    -0.286 C  
BRANCH   8   9
HETATM    9  C   UNL     1      -9.871   9.100  68.391  1.00  0.00    -0.181 C  
BRANCH   9  10
HETATM   10  C   UNL     1      -8.557   8.828  67.659  1.00  0.00    -0.128 C  
BRANCH  10  11
HETATM   11  C   UNL     1      -7.518   8.224  68.605  1.00  0.00    -0.097 C  
BRANCH  11  12
HETATM   12  C   UNL     1      -7.243   6.787  68.266  1.00  0.00    -0.088 C  
HETATM   13  C   UNL     1      -8.164   5.945  67.778  1.00  0.00    -0.105 C  
ENDBRANCH  11  12
ENDBRANCH  10  11
ENDBRANCH   9  10
ENDBRANCH   8   9
ENDBRANCH   7   8
ENDBRANCH   6   7
ENDBRANCH   5   6
ENDBRANCH   4   5
TORSDOF 8
ENDMDL
MODEL      301
REMARK 921   NORMALIZED FREE ENERGY PREDICTED BY IDOCK:   -2.02 KCAL/MOL
REMARK 922        TOTAL FREE ENERGY PREDICTED BY IDOCK:   -3.45 KCAL/MOL
REMARK 923 INTER-LIGAND FREE ENERGY PREDICTED BY IDOCK:   -2.60 KCAL/MOL
REMARK 924 INTRA-LIGAND FREE ENERGY PREDICTED BY IDOCK:   -0.85 KCAL/MOL
REMARK 927      BINDING AFFINITY PREDICTED BY RF-SCORE:    0.00 PKD
ROOT
HETATM    1  O   UNL     1     -10.256   7.443  67.022  1.00  0.00    -0.231 OA 
HETATM    2  C   UNL     1     -10.481   7.640  68.343  1.00  0.00    -0.169 C  
HETATM    3  O   UNL     1     -10.234   8.700  68.894  1.00  0.00    -0.198 OA 
HETATM    4  C   UNL     1     -11.057   6.414  69.014  1.00  0.00    -0.424 C  
ENDROOT
BRANCH   4   5
HETATM    5  C   UNL     1     -11.303   6.652  70.502  1.00  0.00    -0.413 C  
BRANCH   5   6
HETATM    6  C   UNL     1     -10.776   5.497  71.355  1.00  0.00    -0.290 C  
BRANCH   6   7
HETATM    7  C   UNL     1      -9.283   5.279  71.107  1.00  0.00    -0.179 C  
BRANCH   7   8
HETATM    8  C   UNL     1      -8.942   3.794  71.005  1.00  0.00    -0.158 C  
BRANCH   8   9
HETATM    9  C   UNL     1      -7.573   3.590  70.355  1.00  0.00    -0.040 C  
BRANCH   9  10
HETATM   10  C   UNL     1      -7.700   3.321  68.856  1.00  0.00    -0.051 C  
BRANCH  10  11
HETATM   11  C   UNL     1      -8.991   2.560  68.543  1.00  0.00    -0.179 C  
BRANCH  11  12
HETATM   12  C   UNL     1      -9.417   2.773  67.119  1.00  0.00    -0.057 C  
HETATM   13  C   UNL     1      -9.481   3.974  66.530  1.00  0.00    -0.208 C  
ENDBRANCH  11  12
ENDBRANCH  10  11
ENDBRANCH   9  10
ENDBRANCH   8   9
ENDBRANCH   7   8
ENDBRANCH   6   7
ENDBRANCH   5   6
ENDBRANCH   4   5
TORSDOF 8
ENDMDL
MODEL      302
REMARK 921   NORMALIZED FREE ENERGY PREDICTED BY IDOCK:   -2.02 KCAL/MOL
REMARK 922        TOTAL FREE ENERGY PREDICTED BY IDOCK:   -3.45 KCAL/MOL
REMARK 923 INTER-LIGAND FREE ENERGY PREDICTED BY IDOCK:   -2.98 KCAL/MOL
REMARK 924 INTRA-LIGAND FREE ENERGY PREDICTED BY IDOCK:   -0.47 KCAL/MOL
REMARK 927      BINDING AFFINITY PREDICTED BY RF-SCORE:    0.00 PKD
ROOT
HETATM    1  O   UNL     1     -13.142   9.704  72.295  1.00  0.00    -0.414 OA 
HETATM    2  C   UNL     1     -12.115   8.858  72.047  1.00  0.00    -0.371 C  
HETATM    3  O   UNL     1     -11.658   8.120  72.903  1.00  0.00    -0.386 OA 
HETATM    4  C   UNL     1     -11.631   8.951  70.617  1.00  0.00    -0.251 C  
ENDROOT
BRANCH   4   5
HETATM    5  C   UNL     1     -10.471   7.992  70.354  1.00  0.00    -0.218 C  
BRANCH   5   6
HETATM    6  C   UNL     1      -9.185   8.741  70.007  1.00  0.00    -0.173 C  
BRANCH   6   7
HETATM    7  C   UNL     1      -8.535   8.148  68.756  1.00  0.00    -0.126 C  
BRANCH   7   8
HETATM    8  C   UNL     1      -7.541   9.122  68.125  1.00  0.00    -0.084 C  
BRANCH   8   9
HETATM    9  C   UNL     1      -7.043   8.598  66.777  1.00  0.00    -0.078 C  
BRANCH   9  10
HETATM   10  C   UNL     1      -7.448   9.527  65.633  1.00  0.00    -0.094 C  
BRANCH  10  11
HETATM   11  C   UNL     1      -8.337  10.665  66.139  1.00  0.00    -0.158 C  
BRANCH  11  12
HETATM   12  C   UNL     1      -9.713  10.587  65.543  1.00  0.00    -0.298 C  
HETATM   13  C   UNL     1     -10.650  11.531  65.701  1.00  0.00    -0.326 C  
ENDBRANCH  11  12
ENDBRANCH  10  11
ENDBRANCH   9  10
ENDBRANCH   8   9
ENDBRANCH   7   8
ENDBRANCH   6   7
ENDBRANCH   5   6
ENDBRANCH   4   5
TORSDOF 8
ENDMDL
MODEL      303
REMARK 921   NORMALIZED FREE ENERGY PREDICTED BY IDOCK:   -2.00 KCAL/MOL
REMARK 922        TOTAL FREE ENERGY PREDICTED BY IDOCK:   -3.41 KCAL/MOL
REMARK 923 INTER-LIGAND FREE ENERGY PREDICTED BY IDOCK:   -2.88 KCAL/MOL
REMARK 924 INTRA-LIGAND FREE ENERGY PREDICTED BY IDOCK:   -0.53 KCAL/MOL
REMARK 927      BINDING AFFINITY PREDICTED BY RF-SCORE:    0.00 PKD
ROOT
HETATM    1  O   UNL     1      -9.988  10.047  65.285  1.00  0.00    -0.315 OA 
HETATM    2  C   UNL     1      -8.877  10.245  66.032  1.00  0.00    -0.149 C  
HETATM    3  O   UNL     1      -8.015  11.049  65.718  1.00  0.00    -0.121 OA 
HETATM    4  C   UNL     1      -8.851   9.365  67.262  1.00  0.00    -0.136 C  
ENDROOT
BRANCH   4   5
HETATM    5  C   UNL     1      -7.590   9.599  68.093  1.00  0.00    -0.082 C  
BRANCH   5   6
HETATM    6  C   UNL     1      -7.925  10.002  69.529  1.00  0.00    -0.161 C  
BRANCH   6   7
HETATM    7  C   UNL     1      -7.336   9.002  70.524  1.00  0.00    -0.086 C  
BRANCH   7   8
HETATM    8  C   UNL     1      -8.263   8.785  71.718  1.00  0.00    -0.144 C  
BRANCH   8   9
HETATM    9  C   UNL     1      -9.722   9.030  71.330  1.00  0.00    -0.369 C  
BRANCH   9  10
HETATM   10  C   UNL     1     -10.549   7.748  71.426  1.00  0.00    -0.242 C  
BRANCH  10  11
HETATM   11  C   UNL     1     -11.481   7.786  72.639  1.00  0.00    -0.430 C  
BRANCH  11  12
HETATM   12  C   UNL     1     -12.832   8.326  72.271  1.00  0.00    -0.313 C  
HETATM   13  C   UNL     1     -13.635   7.769  71.354  1.00  0.00    -0.334 C  
ENDBRANCH  11  12
ENDBRANCH  10  11
ENDBRANCH   9  10
ENDBRANCH   8   9
ENDBRANCH   7   8
ENDBRANCH   6   7
ENDBRANCH   5   6
ENDBRANCH   4   5
TORSDOF 8
ENDMDL
MODEL      304
REMARK 921   NORMALIZED FREE ENERGY PREDICTED BY IDOCK:   -1.99 KCAL/MOL
REMARK 922        TOTAL FREE ENERGY PREDICTED BY IDOCK:   -3.40 KCAL/MOL
REMARK 923 INTER-LIGAND FREE ENERGY PREDICTED BY IDOCK:   -3.29 KCAL/MOL
REMARK 924 INTRA-LIGAND FREE ENERGY PREDICTED BY IDOCK:   -0.12 KCAL/MOL
REMARK 927      BINDING AFFINITY PREDICTED BY RF-SCORE:    0.00 PKD
ROOT
HETATM    1  O   UNL     1      -8.414  14.323  67.787  1.00  0.00    -0.154 OA 
HETATM    2  C   UNL     1      -9.015  13.177  67.388  1.00  0.00    -0.201 C  
HETATM    3  O   UNL     1      -8.500  12.418  66.584  1.00  0.00    -0.143 OA 
HETATM    4  C   UNL     1     -10.360  12.976  68.048  1.00  0.00    -0.237 C  
ENDROOT
BRANCH   4   5
HETATM    5  C   UNL     1     -11.025  11.681  67.585  1.00  0.00    -0.294 C  
BRANCH   5   6
HETATM    6  C   UNL     1     -11.898  11.070  68.680  1.00  0.00    -0.318 C  
BRANCH   6   7
HETATM    7  C   UNL     1     -11.126  10.001  69.455  1.00  0.00    -0.265 C  
BRANCH   7   8
HETATM    8  C   UNL     1     -11.295  10.170  70.964  1.00  0.00    -0.385 C  
BRANCH   8   9
HETATM    9  C   UNL     1     -11.768   8.867  71.611  1.00  0.00    -0.411 C  
BRANCH   9  10
HETATM   10  C   UNL     1     -10.601   7.913  71.864  1.00  0.00    -0.285 C  
BRANCH  10  11
HETATM   11  C   UNL     1      -9.261   8.607  71.614  1.00  0.00    -0.326 C  
BRANCH  11  12
HETATM   12  C   UNL     1      -8.139   7.895  72.313  1.00  0.00    -0.161 C  
HETATM   13  C   UNL     1      -6.880   8.348  72.359  1.00  0.00    -0.106 C  
ENDBRANCH  11  12
ENDBRANCH  10  11
ENDBRANCH   9  10
ENDBRANCH   8   9
ENDBRANCH   7   8
ENDBRANCH   6   7
ENDBRANCH   5   6
ENDBRANCH   4   5
TORSDOF 8
ENDMDL
MODEL      305
REMARK 921   NORMALIZED FREE ENERGY PREDICTED BY IDOCK:   -1.98 KCAL/MOL
REMARK 922        TOTAL FREE ENERGY PREDICTED BY IDOCK:   -3.38 KCAL/MOL
REMARK 923 INTER-LIGAND FREE ENERGY PREDICTED BY IDOCK:   -2.93 KCAL/MOL
REMARK 924 INTRA-LIGAND FREE ENERGY PREDICTED BY IDOCK:   -0.45 KCAL/MOL
REMARK 927      BINDING AFFINITY PREDICTED BY RF-SCORE:    0.00 PKD
ROOT
HETATM    1  O   UNL     1      -8.364   5.479  69.031  1.00  0.00    -0.100 OA 
HETATM    2  C   UNL     1      -8.214   6.111  67.843  1.00  0.00    -0.117 C  
HETATM    3  O   UNL     1      -7.335   5.812  67.053  1.00  0.00    -0.077 OA 
HETATM    4  C   UNL     1      -9.247   7.197  67.639  1.00  0.00    -0.127 C  
ENDROOT
BRANCH   4   5
HETATM    5  C   UNL     1      -9.063   7.900  66.295  1.00  0.00    -0.224 C  
BRANCH   5   6
HETATM    6  C   UNL     1     -10.079   9.026  66.102  1.00  0.00    -0.242 C  
BRANCH   6   7
HETATM    7  C   UNL     1     -10.468   9.640  67.448  1.00  0.00    -0.319 C  
BRANCH   7   8
HETATM    8  C   UNL     1      -9.386  10.585  67.968  1.00  0.00    -0.150 C  
BRANCH   8   9
HETATM    9  C   UNL     1      -9.163  11.748  67.001  1.00  0.00    -0.187 C  
BRANCH   9  10
HETATM   10  C   UNL     1     -10.388  12.660  66.932  1.00  0.00    -0.244 C  
BRANCH  10  11
HETATM   11  C   UNL     1     -11.007  12.642  65.534  1.00  0.00    -0.313 C  
BRANCH  11  12
HETATM   12  C   UNL     1     -10.500  13.781  64.698  1.00  0.00    -0.433 C  
HETATM   13  C   UNL     1     -10.188  14.987  65.190  1.00  0.00    -0.399 C  
ENDBRANCH  11  12
ENDBRANCH  10  11
ENDBRANCH   9  10
ENDBRANCH   8   9
ENDBRANCH   7   8
ENDBRANCH   6   7
ENDBRANCH   5   6
ENDBRANCH   4   5
TORSDOF 8
ENDMDL
MODEL      306
REMARK 921   NORMALIZED FREE ENERGY PREDICTED BY IDOCK:   -1.98 KCAL/MOL
REMARK 922        TOTAL FREE ENERGY PREDICTED BY IDOCK:   -3.38 KCAL/MOL
REMARK 923 INTER-LIGAND FREE ENERGY PREDICTED BY IDOCK:   -2.87 KCAL/MOL
REMARK 924 INTRA-LIGAND FREE ENERGY PREDICTED BY IDOCK:   -0.51 KCAL/MOL
REMARK 927      BINDING AFFINITY PREDICTED BY RF-SCORE:    0.00 PKD
ROOT
HETATM    1  O   UNL     1      -6.089   8.555  68.483  1.00  0.00    -0.044 OA 
HETATM    2  C   UNL     1      -6.633   9.284  67.481  1.00  0.00    -0.064 C  
HETATM    3  O   UNL     1      -6.587   8.927  66.316  1.00  0.00    -0.064 OA 
HETATM    4  C   UNL     1      -7.280  10.555  67.985  1.00  0.00    -0.087 C  
ENDROOT
BRANCH   4   5
HETATM    5  C   UNL     1      -7.887  11.367  66.843  1.00  0.00    -0.158 C  
BRANCH   5   6
HETATM    6  C   UNL     1      -8.707  12.548  67.361  1.00  0.00    -0.189 C  
BRANCH   6   7
HETATM    7  C   UNL     1      -9.536  13.168  66.235  1.00  0.00    -0.241 C  
BRANCH   7   8
HETATM    8  C   UNL     1     -10.932  12.551  66.161  1.00  0.00    -0.318 C  
BRANCH   8   9
HETATM    9  C   UNL     1     -11.517  12.350  67.559  1.00  0.00    -0.410 C  
BRANCH   9  10
HETATM   10  C   UNL     1     -12.263  13.595  68.037  1.00  0.00    -0.175 C  
BRANCH  10  11
HETATM   11  C   UNL     1     -11.601  14.186  69.284  1.00  0.00    -0.350 C  
BRANCH  11  12
HETATM   12  C   UNL     1     -12.625  14.604  70.298  1.00  0.00    -0.370 C  
HETATM   13  C   UNL     1     -12.338  14.898  71.573  1.00  0.00    -0.401 C  
ENDBRANCH  11  12
ENDBRANCH  10  11
ENDBRANCH   9  10
ENDBRANCH   8   9
ENDBRANCH   7   8
ENDBRANCH   6   7
ENDBRANCH   5   6
ENDBRANCH   4   5
TORSDOF 8
ENDMDL
MODEL      307
REMARK 921   NORMALIZED FREE ENERGY PREDICTED BY IDOCK:   -1.97 KCAL/MOL
REMARK 922        TOTAL FREE ENERGY PREDICTED BY IDOCK:   -3.37 KCAL/MOL
REMARK 923 INTER-LIGAND FREE ENERGY PREDICTED BY IDOCK:   -3.00 KCAL/MOL
REMARK 924 INTRA-LIGAND FREE ENERGY PREDICTED BY IDOCK:   -0.37 KCAL/MOL
REMARK 927      BINDING AFFINITY PREDICTED BY RF-SCORE:    0.00 PKD
ROOT
HETATM    1  O   UNL     1      -6.240  10.580  68.901  1.00  0.00    -0.043 OA 
HETATM    2  C   UNL     1      -6.327   9.314  69.372  1.00  0.00    -0.044 C  
HETATM    3  O   UNL     1      -5.363   8.718  69.822  1.00  0.00    -0.029 OA 
HETATM    4  C   UNL     1      -7.731   8.761  69.268  1.00  0.00    -0.095 C  
ENDROOT
BRANCH   4   5
HETATM    5  C   UNL     1      -7.812   7.332  69.802  1.00  0.00    -0.117 C  
BRANCH   5   6
HETATM    6  C   UNL     1      -7.791   7.296  71.330  1.00  0.00    -0.096 C  
BRANCH   6   7
HETATM    7  C   UNL     1      -8.984   6.506  71.869  1.00  0.00    -0.137 C  
BRANCH   7   8
HETATM    8  C   UNL     1     -10.309   7.188  71.530  1.00  0.00    -0.218 C  
BRANCH   8   9
HETATM    9  C   UNL     1     -10.833   7.987  72.724  1.00  0.00    -0.438 C  
BRANCH   9  10
HETATM   10  C   UNL     1     -12.231   8.544  72.453  1.00  0.00    -0.432 C  
BRANCH  10  11
HETATM   11  C   UNL     1     -12.274   9.290  71.118  1.00  0.00    -0.373 C  
BRANCH  11  12
HETATM   12  C   UNL     1     -12.733  10.708  71.300  1.00  0.00    -0.537 C  
HETATM   13  C   UNL     1     -12.197  11.755  70.661  1.00  0.00    -0.443 C  
ENDBRANCH  11  12
ENDBRANCH  10  11
ENDBRANCH   9  10
ENDBRANCH   8   9
ENDBRANCH   7   8
ENDBRANCH   6   7
ENDBRANCH   5   6
ENDBRANCH   4   5
TORSDOF 8
ENDMDL
MODEL      308
REMARK 921   NORMALIZED FREE ENERGY PREDICTED BY IDOCK:   -1.96 KCAL/MOL
REMARK 922        TOTAL FREE ENERGY PREDICTED BY IDOCK:   -3.36 KCAL/MOL
REMARK 923 INTER-LIGAND FREE ENERGY PREDICTED BY IDOCK:   -2.75 KCAL/MOL
REMARK 924 INTRA-LIGAND FREE ENERGY PREDICTED BY IDOCK:   -0.61 KCAL/MOL
REMARK 927      BINDING AFFINITY PREDICTED BY RF-SCORE:    0.00 PKD
ROOT
HETATM    1  O   UNL     1      -8.883  13.711  67.317  1.00  0.00    -0.203 OA 
HETATM    2  C   UNL     1      -8.630  12.573  68.004  1.00  0.00    -0.185 C  
HETATM    3  O   UNL     1      -7.571  12.379  68.577  1.00  0.00    -0.123 OA 
HETATM    4  C   UNL     1      -9.796  11.611  67.966  1.00  0.00    -0.193 C  
ENDROOT
BRANCH   4   5
HETATM    5  C   UNL     1      -9.494  10.332  68.744  1.00  0.00    -0.176 C  
BRANCH   5   6
HETATM    6  C   UNL     1      -8.822   9.279  67.864  1.00  0.00    -0.124 C  
BRANCH   6   7
HETATM    7  C   UNL     1      -9.867   8.397  67.180  1.00  0.00    -0.279 C  
BRANCH   7   8
HETATM    8  C   UNL     1     -10.694   7.614  68.198  1.00  0.00    -0.127 C  
BRANCH   8   9
HETATM    9  C   UNL     1     -10.812   6.144  67.793  1.00  0.00    -0.413 C  
BRANCH   9  10
HETATM   10  C   UNL     1      -9.653   5.317  68.347  1.00  0.00    -0.176 C  
BRANCH  10  11
HETATM   11  C   UNL     1      -9.251   5.802  69.741  1.00  0.00    -0.161 C  
BRANCH  11  12
HETATM   12  C   UNL     1     -10.176   5.263  70.793  1.00  0.00    -0.317 C  
HETATM   13  C   UNL     1     -10.637   5.984  71.823  1.00  0.00    -0.277 C  
ENDBRANCH  11  12
ENDBRANCH  10  11
ENDBRANCH   9  10
ENDBRANCH   8   9
ENDBRANCH   7   8
ENDBRANCH   6   7
ENDBRANCH   5   6
ENDBRANCH   4   5
TORSDOF 8
ENDMDL
MODEL      309
REMARK 921   NORMALIZED FREE ENERGY PREDICTED BY IDOCK:   -1.95 KCAL/MOL
REMARK 922        TOTAL FREE ENERGY PREDICTED BY IDOCK:   -3.34 KCAL/MOL
REMARK 923 INTER-LIGAND FREE ENERGY PREDICTED BY IDOCK:   -3.04 KCAL/MOL
REMARK 924 INTRA-LIGAND FREE ENERGY PREDICTED BY IDOCK:   -0.30 KCAL/MOL
REMARK 927      BINDING AFFINITY PREDICTED BY RF-SCORE:    0.00 PKD
ROOT
HETATM    1  O   UNL     1      -6.180   4.048  71.300  1.00  0.00    -0.014 OA 
HETATM    2  C   UNL     1      -7.040   4.205  70.267  1.00  0.00    -0.041 C  
HETATM    3  O   UNL     1      -6.961   3.542  69.246  1.00  0.00    -0.044 OA 
HETATM    4  C   UNL     1      -8.073   5.275  70.541  1.00  0.00    -0.104 C  
ENDROOT
BRANCH   4   5
HETATM    5  C   UNL     1      -9.035   5.442  69.366  1.00  0.00    -0.124 C  
BRANCH   5   6
HETATM    6  C   UNL     1     -10.475   5.643  69.837  1.00  0.00    -0.378 C  
BRANCH   6   7
HETATM    7  C   UNL     1     -11.117   6.833  69.123  1.00  0.00    -0.270 C  
BRANCH   7   8
HETATM    8  C   UNL     1     -10.064   7.811  68.603  1.00  0.00    -0.211 C  
BRANCH   8   9
HETATM    9  C   UNL     1     -10.166   7.969  67.085  1.00  0.00    -0.362 C  
BRANCH   9  10
HETATM   10  C   UNL     1     -10.336   9.435  66.687  1.00  0.00    -0.284 C  
BRANCH  10  11
HETATM   11  C   UNL     1      -9.613   9.734  65.373  1.00  0.00    -0.359 C  
BRANCH  11  12
HETATM   12  C   UNL     1     -10.230  10.905  64.665  1.00  0.00    -0.411 C  
HETATM   13  C   UNL     1     -10.135  11.116  63.346  1.00  0.00    -0.439 C  
ENDBRANCH  11  12
ENDBRANCH  10  11
ENDBRANCH   9  10
ENDBRANCH   8   9
ENDBRANCH   7   8
ENDBRANCH   6   7
ENDBRANCH   5   6
ENDBRANCH   4   5
TORSDOF 8
ENDMDL
MODEL      310
REMARK 921   NORMALIZED FREE ENERGY PREDICTED BY IDOCK:   -1.93 KCAL/MOL
REMARK 922        TOTAL FREE ENERGY PREDICTED BY IDOCK:   -3.32 KCAL/MOL
REMARK 923 INTER-LIGAND FREE ENERGY PREDICTED BY IDOCK:   -2.80 KCAL/MOL
REMARK 924 INTRA-LIGAND FREE ENERGY PREDICTED BY IDOCK:   -0.51 KCAL/MOL
REMARK 927      BINDING AFFINITY PREDICTED BY RF-SCORE:    0.00 PKD
ROOT
HETATM    1  O   UNL     1      -5.979   3.881  65.455  1.00  0.00    -0.022 OA 
HETATM    2  C   UNL     1      -7.201   4.423  65.241  1.00  0.00    -0.068 C  
HETATM    3  O   UNL     1      -7.525   4.893  64.163  1.00  0.00    -0.061 OA 
HETATM    4  C   UNL     1      -8.075   4.370  66.474  1.00  0.00    -0.102 C  
ENDROOT
BRANCH   4   5
HETATM    5  C   UNL     1      -9.448   4.987  66.216  1.00  0.00    -0.162 C  
BRANCH   5   6
HETATM    6  C   UNL     1      -9.500   6.452  66.650  1.00  0.00    -0.191 C  
BRANCH   6   7
HETATM    7  C   UNL     1     -10.899   6.819  67.147  1.00  0.00    -0.462 C  
BRANCH   7   8
HETATM    8  C   UNL     1     -11.121   6.366  68.589  1.00  0.00    -0.393 C  
BRANCH   8   9
HETATM    9  C   UNL     1     -10.664   7.441  69.576  1.00  0.00    -0.233 C  
BRANCH   9  10
HETATM   10  C   UNL     1      -9.936   6.828  70.772  1.00  0.00    -0.201 C  
BRANCH  10  11
HETATM   11  C   UNL     1     -10.678   5.596  71.293  1.00  0.00    -0.312 C  
BRANCH  11  12
HETATM   12  C   UNL     1     -10.599   5.506  72.790  1.00  0.00    -0.266 C  
HETATM   13  C   UNL     1     -10.438   6.564  73.595  1.00  0.00    -0.330 C  
ENDBRANCH  11  12
ENDBRANCH  10  11
ENDBRANCH   9  10
ENDBRANCH   8   9
ENDBRANCH   7   8
ENDBRANCH   6   7
ENDBRANCH   5   6
ENDBRANCH   4   5
TORSDOF 8
ENDMDL
MODEL      311
REMARK 921   NORMALIZED FREE ENERGY PREDICTED BY IDOCK:   -1.92 KCAL/MOL
REMARK 922        TOTAL FREE ENERGY PREDICTED BY IDOCK:   -3.30 KCAL/MOL
REMARK 923 INTER-LIGAND FREE ENERGY PREDICTED BY IDOCK:   -2.52 KCAL/MOL
REMARK 924 INTRA-LIGAND FREE ENERGY PREDICTED BY IDOCK:   -0.79 KCAL/MOL
REMARK 927      BINDING AFFINITY PREDICTED BY RF-SCORE:    0.00 PKD
ROOT
HETATM    1  O   UNL     1     -11.301  11.325  63.868  1.00  0.00    -0.317 OA 
HETATM    2  C   UNL     1     -10.080  10.764  63.702  1.00  0.00    -0.312 C  
HETATM    3  O   UNL     1      -9.450  10.871  62.663  1.00  0.00    -0.299 OA 
HETATM    4  C   UNL     1      -9.623  10.016  64.934  1.00  0.00    -0.375 C  
ENDROOT
BRANCH   4   5
HETATM    5  C   UNL     1      -8.245   9.388  64.730  1.00  0.00    -0.145 C  
BRANCH   5   6
HETATM    6  C   UNL     1      -7.148  10.192  65.426  1.00  0.00    -0.143 C  
BRANCH   6   7
HETATM    7  C   UNL     1      -6.020   9.272  65.898  1.00  0.00    -0.051 C  
BRANCH   7   8
HETATM    8  C   UNL     1      -5.790   9.393  67.403  1.00  0.00    -0.045 C  
BRANCH   8   9
HETATM    9  C   UNL     1      -6.694  10.465  68.011  1.00  0.00    -0.065 C  
BRANCH   9  10
HETATM   10  C   UNL     1      -7.622   9.877  69.074  1.00  0.00    -0.086 C  
BRANCH  10  11
HETATM   11  C   UNL     1      -9.088  10.015  68.659  1.00  0.00    -0.139 C  
BRANCH  11  12
HETATM   12  C   UNL     1     -10.003   9.396  69.676  1.00  0.00    -0.209 C  
HETATM   13  C   UNL     1      -9.605   8.983  70.886  1.00  0.00    -0.328 C  
ENDBRANCH  11  12
ENDBRANCH  10  11
ENDBRANCH   9  10
ENDBRANCH   8   9
ENDBRANCH   7   8
ENDBRANCH   6   7
ENDBRANCH   5   6
ENDBRANCH   4   5
TORSDOF 8
ENDMDL
MODEL      312
REMARK 921   NORMALIZED FREE ENERGY PREDICTED BY IDOCK:   -1.90 KCAL/MOL
REMARK 922        TOTAL FREE ENERGY PREDICTED BY IDOCK:   -3.27 KCAL/MOL
REMARK 923 INTER-LIGAND FREE ENERGY PREDICTED BY IDOCK:   -2.91 KCAL/MOL
REMARK 924 INTRA-LIGAND FREE ENERGY PREDICTED BY IDOCK:   -0.36 KCAL/MOL
REMARK 927      BINDING AFFINITY PREDICTED BY RF-SCORE:    0.00 PKD
ROOT
HETATM    1  O   UNL     1      -8.604   7.400  70.643  1.00  0.00    -0.138 OA 
HETATM    2  C   UNL     1      -9.323   8.534  70.472  1.00  0.00    -0.170 C  
HETATM    3  O   UNL     1      -9.871   9.104  71.401  1.00  0.00    -0.298 OA 
HETATM    4  C   UNL     1      -9.353   8.980  69.027  1.00  0.00    -0.140 C  
ENDROOT
BRANCH   4   5
HETATM    5  C   UNL     1     -10.169  10.259  68.852  1.00  0.00    -0.220 C  
BRANCH   5   6
HETATM    6  C   UNL     1      -9.303  11.422  68.369  1.00  0.00    -0.194 C  
BRANCH   6   7
HETATM    7  C   UNL     1     -10.106  12.723  68.348  1.00  0.00    -0.226 C  
BRANCH   7   8
HETATM    8  C   UNL     1      -9.475  13.758  67.417  1.00  0.00    -0.224 C  
BRANCH   8   9
HETATM    9  C   UNL     1     -10.417  14.942  67.197  1.00  0.00    -0.271 C  
BRANCH   9  10
HETATM   10  C   UNL     1      -9.998  16.152  68.032  1.00  0.00    -0.238 C  
BRANCH  10  11
HETATM   11  C   UNL     1      -8.527  16.499  67.794  1.00  0.00    -0.180 C  
BRANCH  11  12
HETATM   12  C   UNL     1      -8.350  17.283  66.526  1.00  0.00    -0.312 C  
HETATM   13  C   UNL     1      -8.347  18.621  66.468  1.00  0.00    -0.304 C  
ENDBRANCH  11  12
ENDBRANCH  10  11
ENDBRANCH   9  10
ENDBRANCH   8   9
ENDBRANCH   7   8
ENDBRANCH   6   7
ENDBRANCH   5   6
ENDBRANCH   4   5
TORSDOF 8
ENDMDL
MODEL      313
REMARK 921   NORMALIZED FREE ENERGY PREDICTED BY IDOCK:   -1.89 KCAL/MOL
REMARK 922        TOTAL FREE ENERGY PREDICTED BY IDOCK:   -3.26 KCAL/MOL
REMARK 923 INTER-LIGAND FREE ENERGY PREDICTED BY IDOCK:   -2.95 KCAL/MOL
REMARK 924 INTRA-LIGAND FREE ENERGY PREDICTED BY IDOCK:   -0.31 KCAL/MOL
REMARK 927      BINDING AFFINITY PREDICTED BY RF-SCORE:    0.00 PKD
ROOT
HETATM    1  O   UNL     1      -7.765   6.808  74.167  1.00  0.00    -0.102 OA 
HETATM    2  C   UNL     1      -8.693   6.751  73.183  1.00  0.00    -0.122 C  
HETATM    3  O   UNL     1      -8.497   6.156  72.136  1.00  0.00    -0.117 OA 
HETATM    4  C   UNL     1      -9.957   7.497  73.545  1.00  0.00    -0.371 C  
ENDROOT
BRANCH   4   5
HETATM    5  C   UNL     1     -10.992   7.425  72.424  1.00  0.00    -0.319 C  
BRANCH   5   6
HETATM    6  C   UNL     1     -12.085   8.480  72.593  1.00  0.00    -0.305 C  
BRANCH   6   7
HETATM    7  C   UNL     1     -12.040   9.494  71.449  1.00  0.00    -0.459 C  
BRANCH   7   8
HETATM    8  C   UNL     1     -10.691   9.472  70.732  1.00  0.00    -0.391 C  
BRANCH   8   9
HETATM    9  C   UNL     1     -10.846   8.987  69.290  1.00  0.00    -0.131 C  
BRANCH   9  10
HETATM   10  C   UNL     1      -9.506   8.985  68.554  1.00  0.00    -0.148 C  
BRANCH  10  11
HETATM   11  C   UNL     1      -9.401   7.787  67.609  1.00  0.00    -0.160 C  
BRANCH  11  12
HETATM   12  C   UNL     1      -8.432   8.055  66.494  1.00  0.00    -0.137 C  
HETATM   13  C   UNL     1      -8.550   9.071  65.630  1.00  0.00    -0.187 C  
ENDBRANCH  11  12
ENDBRANCH  10  11
ENDBRANCH   9  10
ENDBRANCH   8   9
ENDBRANCH   7   8
ENDBRANCH   6   7
ENDBRANCH   5   6
ENDBRANCH   4   5
TORSDOF 8
ENDMDL
MODEL      314
REMARK 921   NORMALIZED FREE ENERGY PREDICTED BY IDOCK:   -1.84 KCAL/MOL
REMARK 922        TOTAL FREE ENERGY PREDICTED BY IDOCK:   -3.18 KCAL/MOL
REMARK 923 INTER-LIGAND FREE ENERGY PREDICTED BY IDOCK:   -2.52 KCAL/MOL
REMARK 924 INTRA-LIGAND FREE ENERGY PREDICTED BY IDOCK:   -0.66 KCAL/MOL
REMARK 927      BINDING AFFINITY PREDICTED BY RF-SCORE:    0.00 PKD
ROOT
HETATM    1  O   UNL     1     -11.270   5.988  69.442  1.00  0.00    -0.395 OA 
HETATM    2  C   UNL     1     -10.778   6.394  68.248  1.00  0.00    -0.285 C  
HETATM    3  O   UNL     1     -11.141   5.902  67.193  1.00  0.00    -0.256 OA 
HETATM    4  C   UNL     1      -9.755   7.498  68.396  1.00  0.00    -0.161 C  
ENDROOT
BRANCH   4   5
HETATM    5  C   UNL     1      -9.209   7.943  67.041  1.00  0.00    -0.181 C  
BRANCH   5   6
HETATM    6  C   UNL     1      -7.708   7.677  66.921  1.00  0.00    -0.103 C  
BRANCH   6   7
HETATM    7  C   UNL     1      -7.015   8.819  66.176  1.00  0.00    -0.081 C  
BRANCH   7   8
HETATM    8  C   UNL     1      -7.997   9.930  65.810  1.00  0.00    -0.120 C  
BRANCH   8   9
HETATM    9  C   UNL     1      -7.600  11.251  66.471  1.00  0.00    -0.111 C  
BRANCH   9  10
HETATM   10  C   UNL     1      -8.275  11.420  67.831  1.00  0.00    -0.132 C  
BRANCH  10  11
HETATM   11  C   UNL     1      -8.542  12.897  68.131  1.00  0.00    -0.188 C  
BRANCH  11  12
HETATM   12  C   UNL     1      -9.913  13.306  67.675  1.00  0.00    -0.229 C  
HETATM   13  C   UNL     1     -10.147  14.060  66.594  1.00  0.00    -0.276 C  
ENDBRANCH  11  12
ENDBRANCH  10  11
ENDBRANCH   9  10
ENDBRANCH   8   9
ENDBRANCH   7   8
ENDBRANCH   6   7
ENDBRANCH   5   6
ENDBRANCH   4   5
TORSDOF 8
ENDMDL
MODEL      315
REMARK 921   NORMALIZED FREE ENERGY PREDICTED BY IDOCK:   -1.83 KCAL/MOL
REMARK 922        TOTAL FREE ENERGY PREDICTED BY IDOCK:   -3.16 KCAL/MOL
REMARK 923 INTER-LIGAND FREE ENERGY PREDICTED BY IDOCK:   -2.59 KCAL/MOL
REMARK 924 INTRA-LIGAND FREE ENERGY PREDICTED BY IDOCK:   -0.58 KCAL/MOL
REMARK 927      BINDING AFFINITY PREDICTED BY RF-SCORE:    0.00 PKD
ROOT
HETATM    1  O   UNL     1      -7.354  16.422  69.550  1.00  0.00    -0.209 OA 
HETATM    2  C   UNL     1      -6.680  15.342  69.091  1.00  0.00    -0.138 C  
HETATM    3  O   UNL     1      -5.620  14.982  69.574  1.00  0.00    -0.096 OA 
HETATM    4  C   UNL     1      -7.394  14.669  67.940  1.00  0.00    -0.164 C  
ENDROOT
BRANCH   4   5
HETATM    5  C   UNL     1      -6.620  13.454  67.432  1.00  0.00    -0.038 C  
BRANCH   5   6
HETATM    6  C   UNL     1      -7.461  12.180  67.497  1.00  0.00    -0.148 C  
BRANCH   6   7
HETATM    7  C   UNL     1      -8.841  12.410  66.880  1.00  0.00    -0.205 C  
BRANCH   7   8
HETATM    8  C   UNL     1      -9.591  11.095  66.672  1.00  0.00    -0.215 C  
BRANCH   8   9
HETATM    9  C   UNL     1     -10.984  11.155  67.299  1.00  0.00    -0.354 C  
BRANCH   9  10
HETATM   10  C   UNL     1     -11.224   9.976  68.241  1.00  0.00    -0.195 C  
BRANCH  10  11
HETATM   11  C   UNL     1     -10.002   9.056  68.291  1.00  0.00    -0.198 C  
BRANCH  11  12
HETATM   12  C   UNL     1     -10.394   7.618  68.112  1.00  0.00    -0.250 C  
HETATM   13  C   UNL     1     -10.754   7.083  66.938  1.00  0.00    -0.376 C  
ENDBRANCH  11  12
ENDBRANCH  10  11
ENDBRANCH   9  10
ENDBRANCH   8   9
ENDBRANCH   7   8
ENDBRANCH   6   7
ENDBRANCH   5   6
ENDBRANCH   4   5
TORSDOF 8
ENDMDL
MODEL      316
REMARK 921   NORMALIZED FREE ENERGY PREDICTED BY IDOCK:   -1.83 KCAL/MOL
REMARK 922        TOTAL FREE ENERGY PREDICTED BY IDOCK:   -3.16 KCAL/MOL
REMARK 923 INTER-LIGAND FREE ENERGY PREDICTED BY IDOCK:   -2.67 KCAL/MOL
REMARK 924 INTRA-LIGAND FREE ENERGY PREDICTED BY IDOCK:   -0.50 KCAL/MOL
REMARK 927      BINDING AFFINITY PREDICTED BY RF-SCORE:    0.00 PKD
ROOT
HETATM    1  O   UNL     1     -11.034   6.289  69.638  1.00  0.00    -0.298 OA 
HETATM    2  C   UNL     1     -10.677   7.084  68.603  1.00  0.00    -0.189 C  
HETATM    3  O   UNL     1     -11.153   6.956  67.488  1.00  0.00    -0.270 OA 
HETATM    4  C   UNL     1      -9.644   8.114  69.003  1.00  0.00    -0.156 C  
ENDROOT
BRANCH   4   5
HETATM    5  C   UNL     1      -9.250   9.002  67.825  1.00  0.00    -0.152 C  
BRANCH   5   6
HETATM    6  C   UNL     1      -7.840   8.688  67.326  1.00  0.00    -0.097 C  
BRANCH   6   7
HETATM    7  C   UNL     1      -7.118   9.967  66.901  1.00  0.00    -0.090 C  
BRANCH   7   8
HETATM    8  C   UNL     1      -6.807   9.966  65.405  1.00  0.00    -0.112 C  
BRANCH   8   9
HETATM    9  C   UNL     1      -7.732  10.924  64.653  1.00  0.00     0.378 C  
BRANCH   9  10
HETATM   10  C   UNL     1      -8.977  10.206  64.134  1.00  0.00    -0.267 C  
BRANCH  10  11
HETATM   11  C   UNL     1      -9.685  11.039  63.064  1.00  0.00    -0.381 C  
BRANCH  11  12
HETATM   12  C   UNL     1     -10.419  12.198  63.673  1.00  0.00    -0.495 C  
HETATM   13  C   UNL     1     -11.745  12.226  63.863  1.00  0.00    -0.536 C  
ENDBRANCH  11  12
ENDBRANCH  10  11
ENDBRANCH   9  10
ENDBRANCH   8   9
ENDBRANCH   7   8
ENDBRANCH   6   7
ENDBRANCH   5   6
ENDBRANCH   4   5
TORSDOF 8
ENDMDL
MODEL      317
REMARK 921   NORMALIZED FREE ENERGY PREDICTED BY IDOCK:   -1.82 KCAL/MOL
REMARK 922        TOTAL FREE ENERGY PREDICTED BY IDOCK:   -3.15 KCAL/MOL
REMARK 923 INTER-LIGAND FREE ENERGY PREDICTED BY IDOCK:   -2.68 KCAL/MOL
REMARK 924 INTRA-LIGAND FREE ENERGY PREDICTED BY IDOCK:   -0.48 KCAL/MOL
REMARK 927      BINDING AFFINITY PREDICTED BY RF-SCORE:    0.00 PKD
ROOT
HETATM    1  O   UNL     1      -6.232   8.747  68.466  1.00  0.00    -0.051 OA 
HETATM    2  C   UNL     1      -6.709   9.640  67.568  1.00  0.00    -0.070 C  
HETATM    3  O   UNL     1      -6.726   9.414  66.370  1.00  0.00    -0.073 OA 
HETATM    4  C   UNL     1      -7.198  10.910  68.228  1.00  0.00    -0.084 C  
ENDROOT
BRANCH   4   5
HETATM    5  C   UNL     1      -7.731  11.908  67.202  1.00  0.00    -0.163 C  
BRANCH   5   6
HETATM    6  C   UNL     1      -8.322  13.148  67.872  1.00  0.00    -0.170 C  
BRANCH   6   7
HETATM    7  C   UNL     1      -8.972  14.065  66.835  1.00  0.00    -0.243 C  
BRANCH   7   8
HETATM    8  C   UNL     1     -10.381  14.480  67.255  1.00  0.00    -0.260 C  
BRANCH   8   9
HETATM    9  C   UNL     1     -10.438  14.784  68.753  1.00  0.00    -0.250 C  
BRANCH   9  10
HETATM   10  C   UNL     1     -10.799  16.246  69.013  1.00  0.00    -0.315 C  
BRANCH  10  11
HETATM   11  C   UNL     1     -11.004  17.002  67.698  1.00  0.00    -0.164 C  
BRANCH  11  12
HETATM   12  C   UNL     1     -10.242  18.295  67.690  1.00  0.00    -0.397 C  
HETATM   13  C   UNL     1      -9.955  18.986  66.579  1.00  0.00    -0.437 C  
ENDBRANCH  11  12
ENDBRANCH  10  11
ENDBRANCH   9  10
ENDBRANCH   8   9
ENDBRANCH   7   8
ENDBRANCH   6   7
ENDBRANCH   5   6
ENDBRANCH   4   5
TORSDOF 8
ENDMDL
MODEL      318
REMARK 921   NORMALIZED FREE ENERGY PREDICTED BY IDOCK:   -1.80 KCAL/MOL
REMARK 922        TOTAL FREE ENERGY PREDICTED BY IDOCK:   -3.12 KCAL/MOL
REMARK 923 INTER-LIGAND FREE ENERGY PREDICTED BY IDOCK:   -2.35 KCAL/MOL
REMARK 924 INTRA-LIGAND FREE ENERGY PREDICTED BY IDOCK:   -0.77 KCAL/MOL
REMARK 927      BINDING AFFINITY PREDICTED BY RF-SCORE:    0.00 PKD
ROOT
HETATM    1  O   UNL     1      -8.694   7.962  66.931  1.00  0.00    -0.125 OA 
HETATM    2  C   UNL     1      -9.795   8.451  67.549  1.00  0.00    -0.181 C  
HETATM    3  O   UNL     1     -10.777   8.824  66.930  1.00  0.00    -0.240 OA 
HETATM    4  C   UNL     1      -9.646   8.470  69.054  1.00  0.00    -0.167 C  
ENDROOT
BRANCH   4   5
HETATM    5  C   UNL     1     -10.895   9.025  69.735  1.00  0.00    -0.215 C  
BRANCH   5   6
HETATM    6  C   UNL     1     -11.369   8.121  70.872  1.00  0.00    -0.286 C  
BRANCH   6   7
HETATM    7  C   UNL     1     -11.186   6.647  70.504  1.00  0.00    -0.388 C  
BRANCH   7   8
HETATM    8  C   UNL     1     -10.948   5.785  71.743  1.00  0.00    -0.317 C  
BRANCH   8   9
HETATM    9  C   UNL     1      -9.488   5.863  72.191  1.00  0.00    -0.161 C  
BRANCH   9  10
HETATM   10  C   UNL     1      -8.531   5.615  71.024  1.00  0.00    -0.122 C  
BRANCH  10  11
HETATM   11  C   UNL     1      -7.128   6.134  71.346  1.00  0.00    -0.078 C  
BRANCH  11  12
HETATM   12  C   UNL     1      -6.523   5.389  72.500  1.00  0.00    -0.056 C  
HETATM   13  C   UNL     1      -6.265   4.075  72.488  1.00  0.00    -0.016 C  
ENDBRANCH  11  12
ENDBRANCH  10  11
ENDBRANCH   9  10
ENDBRANCH   8   9
ENDBRANCH   7   8
ENDBRANCH   6   7
ENDBRANCH   5   6
ENDBRANCH   4   5
TORSDOF 8
ENDMDL
MODEL      319
REMARK 921   NORMALIZED FREE ENERGY PREDICTED BY IDOCK:   -1.72 KCAL/MOL
REMARK 922        TOTAL FREE ENERGY PREDICTED BY IDOCK:   -3.01 KCAL/MOL
REMARK 923 INTER-LIGAND FREE ENERGY PREDICTED BY IDOCK:   -2.40 KCAL/MOL
REMARK 924 INTRA-LIGAND FREE ENERGY PREDICTED BY IDOCK:   -0.61 KCAL/MOL
REMARK 927      BINDING AFFINITY PREDICTED BY RF-SCORE:    0.00 PKD
ROOT
HETATM    1  O   UNL     1      -7.393  16.705  69.215  1.00  0.00    -0.240 OA 
HETATM    2  C   UNL     1      -6.461  15.734  69.361  1.00  0.00    -0.165 C  
HETATM    3  O   UNL     1      -5.670  15.724  70.289  1.00  0.00    -0.161 OA 
HETATM    4  C   UNL     1      -6.533  14.702  68.258  1.00  0.00    -0.121 C  
ENDROOT
BRANCH   4   5
HETATM    5  C   UNL     1      -5.474  13.616  68.436  1.00  0.00    -0.097 C  
BRANCH   5   6
HETATM    6  C   UNL     1      -6.069  12.338  69.027  1.00  0.00    -0.076 C  
BRANCH   6   7
HETATM    7  C   UNL     1      -7.480  12.097  68.487  1.00  0.00    -0.117 C  
BRANCH   7   8
HETATM    8  C   UNL     1      -8.127  10.872  69.132  1.00  0.00    -0.104 C  
BRANCH   8   9
HETATM    9  C   UNL     1      -8.990  10.114  68.123  1.00  0.00    -0.122 C  
BRANCH   9  10
HETATM   10  C   UNL     1     -10.448  10.568  68.183  1.00  0.00    -0.217 C  
BRANCH  10  11
HETATM   11  C   UNL     1     -11.029  10.733  66.777  1.00  0.00    -0.214 C  
BRANCH  11  12
HETATM   12  C   UNL     1     -11.571  12.118  66.571  1.00  0.00    -0.425 C  
HETATM   13  C   UNL     1     -11.335  13.144  67.399  1.00  0.00    -0.344 C  
ENDBRANCH  11  12
ENDBRANCH  10  11
ENDBRANCH   9  10
ENDBRANCH   8   9
ENDBRANCH   7   8
ENDBRANCH   6   7
ENDBRANCH   5   6
ENDBRANCH   4   5
TORSDOF 8
ENDMDL
MODEL      320
REMARK 921   NORMALIZED FREE ENERGY PREDICTED BY IDOCK:   -1.72 KCAL/MOL
REMARK 922        TOTAL FREE ENERGY PREDICTED BY IDOCK:   -3.00 KCAL/MOL
REMARK 923 INTER-LIGAND FREE ENERGY PREDICTED BY IDOCK:   -2.34 KCAL/MOL
REMARK 924 INTRA-LIGAND FREE ENERGY PREDICTED BY IDOCK:   -0.66 KCAL/MOL
REMARK 927      BINDING AFFINITY PREDICTED BY RF-SCORE:    0.00 PKD
ROOT
HETATM    1  O   UNL     1      -5.329   8.923  70.703  1.00  0.00    -0.027 OA 
HETATM    2  C   UNL     1      -6.119   8.049  70.036  1.00  0.00    -0.029 C  
HETATM    3  O   UNL     1      -6.794   7.211  70.611  1.00  0.00    -0.052 OA 
HETATM    4  C   UNL     1      -6.051   8.245  68.538  1.00  0.00    -0.045 C  
ENDROOT
BRANCH   4   5
HETATM    5  C   UNL     1      -6.945   7.251  67.800  1.00  0.00    -0.076 C  
BRANCH   5   6
HETATM    6  C   UNL     1      -8.298   7.865  67.441  1.00  0.00    -0.123 C  
BRANCH   6   7
HETATM    7  C   UNL     1      -8.116   9.249  66.817  1.00  0.00    -0.112 C  
BRANCH   7   8
HETATM    8  C   UNL     1      -8.813   9.350  65.461  1.00  0.00    -0.220 C  
BRANCH   8   9
HETATM    9  C   UNL     1     -10.141  10.096  65.582  1.00  0.00    -0.324 C  
BRANCH   9  10
HETATM   10  C   UNL     1      -9.924  11.600  65.748  1.00  0.00    -0.270 C  
BRANCH  10  11
HETATM   11  C   UNL     1     -10.886  12.182  66.786  1.00  0.00    -0.289 C  
BRANCH  11  12
HETATM   12  C   UNL     1     -11.254  11.159  67.821  1.00  0.00    -0.359 C  
HETATM   13  C   UNL     1     -11.810  11.457  69.002  1.00  0.00    -0.415 C  
ENDBRANCH  11  12
ENDBRANCH  10  11
ENDBRANCH   9  10
ENDBRANCH   8   9
ENDBRANCH   7   8
ENDBRANCH   6   7
ENDBRANCH   5   6
ENDBRANCH   4   5
TORSDOF 8
ENDMDL
MODEL      321
REMARK 921   NORMALIZED FREE ENERGY PREDICTED BY IDOCK:   -1.69 KCAL/MOL
REMARK 922        TOTAL FREE ENERGY PREDICTED BY IDOCK:   -2.96 KCAL/MOL
REMARK 923 INTER-LIGAND FREE ENERGY PREDICTED BY IDOCK:   -2.86 KCAL/MOL
REMARK 924 INTRA-LIGAND FREE ENERGY PREDICTED BY IDOCK:   -0.10 KCAL/MOL
REMARK 927      BINDING AFFINITY PREDICTED BY RF-SCORE:    0.00 PKD
ROOT
HETATM    1  O   UNL     1     -10.848   5.953  67.399  1.00  0.00    -0.276 OA 
HETATM    2  C   UNL     1     -10.559   6.832  68.387  1.00  0.00    -0.227 C  
HETATM    3  O   UNL     1     -10.619   6.529  69.567  1.00  0.00    -0.206 OA 
HETATM    4  C   UNL     1     -10.165   8.189  67.848  1.00  0.00    -0.274 C  
ENDROOT
BRANCH   4   5
HETATM    5  C   UNL     1      -9.843   9.169  68.974  1.00  0.00    -0.176 C  
BRANCH   5   6
HETATM    6  C   UNL     1     -11.049   9.401  69.885  1.00  0.00    -0.223 C  
BRANCH   6   7
HETATM    7  C   UNL     1     -12.039  10.369  69.235  1.00  0.00    -0.022 C  
BRANCH   7   8
HETATM    8  C   UNL     1     -11.321  11.520  68.534  1.00  0.00    -0.337 C  
BRANCH   8   9
HETATM    9  C   UNL     1     -11.287  12.766  69.420  1.00  0.00    -0.267 C  
BRANCH   9  10
HETATM   10  C   UNL     1     -11.291  14.046  68.585  1.00  0.00    -0.307 C  
BRANCH  10  11
HETATM   11  C   UNL     1     -10.030  14.143  67.724  1.00  0.00    -0.235 C  
BRANCH  11  12
HETATM   12  C   UNL     1      -8.878  14.705  68.506  1.00  0.00    -0.182 C  
HETATM   13  C   UNL     1      -7.612  14.291  68.374  1.00  0.00    -0.124 C  
ENDBRANCH  11  12
ENDBRANCH  10  11
ENDBRANCH   9  10
ENDBRANCH   8   9
ENDBRANCH   7   8
ENDBRANCH   6   7
ENDBRANCH   5   6
ENDBRANCH   4   5
TORSDOF 8
ENDMDL
MODEL      322
REMARK 921   NORMALIZED FREE ENERGY PREDICTED BY IDOCK:   -1.67 KCAL/MOL
REMARK 922        TOTAL FREE ENERGY PREDICTED BY IDOCK:   -2.94 KCAL/MOL
REMARK 923 INTER-LIGAND FREE ENERGY PREDICTED BY IDOCK:   -1.78 KCAL/MOL
REMARK 924 INTRA-LIGAND FREE ENERGY PREDICTED BY IDOCK:   -1.16 KCAL/MOL
REMARK 927      BINDING AFFINITY PREDICTED BY RF-SCORE:    0.00 PKD
ROOT
HETATM    1  O   UNL     1     -10.807   7.744  67.527  1.00  0.00    -0.216 OA 
HETATM    2  C   UNL     1      -9.724   7.679  68.336  1.00  0.00    -0.158 C  
HETATM    3  O   UNL     1      -8.907   8.581  68.405  1.00  0.00    -0.138 OA 
HETATM    4  C   UNL     1      -9.668   6.382  69.113  1.00  0.00    -0.148 C  
ENDROOT
BRANCH   4   5
HETATM    5  C   UNL     1      -8.440   6.324  70.019  1.00  0.00    -0.134 C  
BRANCH   5   6
HETATM    6  C   UNL     1      -8.475   5.107  70.943  1.00  0.00    -0.121 C  
BRANCH   6   7
HETATM    7  C   UNL     1      -7.892   3.878  70.243  1.00  0.00    -0.047 C  
BRANCH   7   8
HETATM    8  C   UNL     1      -8.926   2.760  70.116  1.00  0.00    -0.169 C  
BRANCH   8   9
HETATM    9  C   UNL     1      -9.260   2.489  68.649  1.00  0.00    -0.239 C  
BRANCH   9  10
HETATM   10  C   UNL     1      -8.115   2.907  67.728  1.00  0.00    -0.079 C  
BRANCH  10  11
HETATM   11  C   UNL     1      -8.625   3.779  66.579  1.00  0.00    -0.113 C  
BRANCH  11  12
HETATM   12  C   UNL     1      -7.762   4.992  66.390  1.00  0.00    -0.092 C  
HETATM   13  C   UNL     1      -8.081   6.020  65.592  1.00  0.00    -0.126 C  
ENDBRANCH  11  12
ENDBRANCH  10  11
ENDBRANCH   9  10
ENDBRANCH   8   9
ENDBRANCH   7   8
ENDBRANCH   6   7
ENDBRANCH   5   6
ENDBRANCH   4   5
TORSDOF 8
ENDMDL
MODEL      323
REMARK 921   NORMALIZED FREE ENERGY PREDICTED BY IDOCK:   -1.66 KCAL/MOL
REMARK 922        TOTAL FREE ENERGY PREDICTED BY IDOCK:   -2.91 KCAL/MOL
REMARK 923 INTER-LIGAND FREE ENERGY PREDICTED BY IDOCK:   -2.18 KCAL/MOL
REMARK 924 INTRA-LIGAND FREE ENERGY PREDICTED BY IDOCK:   -0.73 KCAL/MOL
REMARK 927      BINDING AFFINITY PREDICTED BY RF-SCORE:    0.00 PKD
ROOT
HETATM    1  O   UNL     1     -11.452   6.111  69.048  1.00  0.00    -0.340 OA 
HETATM    2  C   UNL     1     -10.751   6.766  68.093  1.00  0.00    -0.236 C  
HETATM    3  O   UNL     1     -10.943   6.582  66.903  1.00  0.00    -0.373 OA 
HETATM    4  C   UNL     1      -9.736   7.720  68.681  1.00  0.00    -0.159 C  
ENDROOT
BRANCH   4   5
HETATM    5  C   UNL     1      -8.953   8.449  67.591  1.00  0.00    -0.141 C  
BRANCH   5   6
HETATM    6  C   UNL     1      -7.446   8.252  67.749  1.00  0.00    -0.094 C  
BRANCH   6   7
HETATM    7  C   UNL     1      -7.093   6.764  67.765  1.00  0.00    -0.085 C  
BRANCH   7   8
HETATM    8  C   UNL     1      -6.354   6.376  69.045  1.00  0.00    -0.038 C  
BRANCH   8   9
HETATM    9  C   UNL     1      -7.143   5.334  69.838  1.00  0.00    -0.062 C  
BRANCH   9  10
HETATM   10  C   UNL     1      -7.840   5.961  71.045  1.00  0.00    -0.110 C  
BRANCH  10  11
HETATM   11  C   UNL     1      -8.525   4.892  71.900  1.00  0.00    -0.123 C  
BRANCH  11  12
HETATM   12  C   UNL     1      -9.287   3.920  71.048  1.00  0.00    -0.222 C  
HETATM   13  C   UNL     1      -9.838   2.791  71.513  1.00  0.00    -0.195 C  
ENDBRANCH  11  12
ENDBRANCH  10  11
ENDBRANCH   9  10
ENDBRANCH   8   9
ENDBRANCH   7   8
ENDBRANCH   6   7
ENDBRANCH   5   6
ENDBRANCH   4   5
TORSDOF 8
ENDMDL
MODEL      324
REMARK 921   NORMALIZED FREE ENERGY PREDICTED BY IDOCK:   -1.65 KCAL/MOL
REMARK 922        TOTAL FREE ENERGY PREDICTED BY IDOCK:   -2.91 KCAL/MOL
REMARK 923 INTER-LIGAND FREE ENERGY PREDICTED BY IDOCK:   -2.49 KCAL/MOL
REMARK 924 INTRA-LIGAND FREE ENERGY PREDICTED BY IDOCK:   -0.42 KCAL/MOL
REMARK 927      BINDING AFFINITY PREDICTED BY RF-SCORE:    0.00 PKD
ROOT
HETATM    1  O   UNL     1      -8.782   7.220  73.899  1.00  0.00    -0.157 OA 
HETATM    2  C   UNL     1      -9.243   6.456  72.882  1.00  0.00    -0.136 C  
HETATM    3  O   UNL     1      -8.838   5.323  72.683  1.00  0.00    -0.123 OA 
HETATM    4  C   UNL     1     -10.289   7.172  72.057  1.00  0.00    -0.214 C  
ENDROOT
BRANCH   4   5
HETATM    5  C   UNL     1     -10.798   6.297  70.913  1.00  0.00    -0.329 C  
BRANCH   5   6
HETATM    6  C   UNL     1     -10.759   7.036  69.575  1.00  0.00    -0.263 C  
BRANCH   6   7
HETATM    7  C   UNL     1      -9.797   6.349  68.605  1.00  0.00    -0.152 C  
BRANCH   7   8
HETATM    8  C   UNL     1     -10.109   6.710  67.154  1.00  0.00    -0.230 C  
BRANCH   8   9
HETATM    9  C   UNL     1     -10.889   5.588  66.467  1.00  0.00    -0.237 C  
BRANCH   9  10
HETATM   10  C   UNL     1      -9.953   4.612  65.755  1.00  0.00    -0.246 C  
BRANCH  10  11
HETATM   11  C   UNL     1      -8.740   5.340  65.173  1.00  0.00    -0.146 C  
BRANCH  11  12
HETATM   12  C   UNL     1      -8.363   4.784  63.831  1.00  0.00    -0.125 C  
HETATM   13  C   UNL     1      -9.245   4.292  62.951  1.00  0.00    -0.131 C  
ENDBRANCH  11  12
ENDBRANCH  10  11
ENDBRANCH   9  10
ENDBRANCH   8   9
ENDBRANCH   7   8
ENDBRANCH   6   7
ENDBRANCH   5   6
ENDBRANCH   4   5
TORSDOF 8
ENDMDL
MODEL      325
REMARK 921   NORMALIZED FREE ENERGY PREDICTED BY IDOCK:   -1.63 KCAL/MOL
REMARK 922        TOTAL FREE ENERGY PREDICTED BY IDOCK:   -2.87 KCAL/MOL
REMARK 923 INTER-LIGAND FREE ENERGY PREDICTED BY IDOCK:   -2.03 KCAL/MOL
REMARK 924 INTRA-LIGAND FREE ENERGY PREDICTED BY IDOCK:   -0.84 KCAL/MOL
REMARK 927      BINDING AFFINITY PREDICTED BY RF-SCORE:    0.00 PKD
ROOT
HETATM    1  O   UNL     1     -11.274   6.225  68.669  1.00  0.00    -0.356 OA 
HETATM    2  C   UNL     1     -10.629   7.255  68.073  1.00  0.00    -0.189 C  
HETATM    3  O   UNL     1     -10.971   7.698  66.990  1.00  0.00    -0.277 OA 
HETATM    4  C   UNL     1      -9.470   7.761  68.903  1.00  0.00    -0.150 C  
ENDROOT
BRANCH   4   5
HETATM    5  C   UNL     1      -8.752   8.921  68.217  1.00  0.00    -0.134 C  
BRANCH   5   6
HETATM    6  C   UNL     1      -7.367   8.513  67.717  1.00  0.00    -0.093 C  
BRANCH   6   7
HETATM    7  C   UNL     1      -7.241   8.756  66.212  1.00  0.00    -0.086 C  
BRANCH   7   8
HETATM    8  C   UNL     1      -6.941   7.461  65.458  1.00  0.00    -0.060 C  
BRANCH   8   9
HETATM    9  C   UNL     1      -8.232   6.713  65.121  1.00  0.00    -0.118 C  
BRANCH   9  10
HETATM   10  C   UNL     1      -8.324   5.389  65.878  1.00  0.00    -0.123 C  
BRANCH  10  11
HETATM   11  C   UNL     1      -9.524   4.568  65.403  1.00  0.00    -0.175 C  
BRANCH  11  12
HETATM   12  C   UNL     1      -9.284   3.097  65.583  1.00  0.00    -0.141 C  
HETATM   13  C   UNL     1      -8.686   2.564  66.656  1.00  0.00    -0.130 C  
ENDBRANCH  11  12
ENDBRANCH  10  11
ENDBRANCH   9  10
ENDBRANCH   8   9
ENDBRANCH   7   8
ENDBRANCH   6   7
ENDBRANCH   5   6
ENDBRANCH   4   5
TORSDOF 8
ENDMDL
MODEL      326
REMARK 921   NORMALIZED FREE ENERGY PREDICTED BY IDOCK:   -1.61 KCAL/MOL
REMARK 922        TOTAL FREE ENERGY PREDICTED BY IDOCK:   -2.84 KCAL/MOL
REMARK 923 INTER-LIGAND FREE ENERGY PREDICTED BY IDOCK:   -2.02 KCAL/MOL
REMARK 924 INTRA-LIGAND FREE ENERGY PREDICTED BY IDOCK:   -0.82 KCAL/MOL
REMARK 927      BINDING AFFINITY PREDICTED BY RF-SCORE:    0.00 PKD
ROOT
HETATM    1  O   UNL     1     -10.409   6.386  67.345  1.00  0.00    -0.152 OA 
HETATM    2  C   UNL     1      -9.249   6.218  68.020  1.00  0.00    -0.116 C  
HETATM    3  O   UNL     1      -8.358   7.051  68.003  1.00  0.00    -0.118 OA 
HETATM    4  C   UNL     1      -9.208   4.905  68.770  1.00  0.00    -0.162 C  
ENDROOT
BRANCH   4   5
HETATM    5  C   UNL     1      -7.892   4.730  69.525  1.00  0.00    -0.066 C  
BRANCH   5   6
HETATM    6  C   UNL     1      -7.818   3.375  70.227  1.00  0.00    -0.048 C  
BRANCH   6   7
HETATM    7  C   UNL     1      -8.750   3.342  71.440  1.00  0.00    -0.117 C  
BRANCH   7   8
HETATM    8  C   UNL     1      -8.248   4.252  72.559  1.00  0.00    -0.100 C  
BRANCH   8   9
HETATM    9  C   UNL     1      -9.382   5.114  73.114  1.00  0.00    -0.138 C  
BRANCH   9  10
HETATM   10  C   UNL     1     -10.747   4.613  72.641  1.00  0.00    -0.249 C  
BRANCH  10  11
HETATM   11  C   UNL     1     -11.419   5.638  71.725  1.00  0.00    -0.118 C  
BRANCH  11  12
HETATM   12  C   UNL     1     -11.547   6.972  72.401  1.00  0.00    -0.284 C  
HETATM   13  C   UNL     1     -11.125   8.125  71.865  1.00  0.00    -0.346 C  
ENDBRANCH  11  12
ENDBRANCH  10  11
ENDBRANCH   9  10
ENDBRANCH   8   9
ENDBRANCH   7   8
ENDBRANCH   6   7
ENDBRANCH   5   6
ENDBRANCH   4   5
TORSDOF 8
ENDMDL
MODEL      327
REMARK 921   NORMALIZED FREE ENERGY PREDICTED BY IDOCK:   -1.60 KCAL/MOL
REMARK 922        TOTAL FREE ENERGY PREDICTED BY IDOCK:   -2.83 KCAL/MOL
REMARK 923 INTER-LIGAND FREE ENERGY PREDICTED BY IDOCK:   -2.13 KCAL/MOL
REMARK 924 INTRA-LIGAND FREE ENERGY PREDICTED BY IDOCK:   -0.71 KCAL/MOL
REMARK 927      BINDING AFFINITY PREDICTED BY RF-SCORE:    0.00 PKD
ROOT
HETATM    1  O   UNL     1     -11.171   5.948  69.404  1.00  0.00    -0.375 OA 
HETATM    2  C   UNL     1     -10.467   6.603  68.452  1.00  0.00    -0.211 C  
HETATM    3  O   UNL     1     -10.636   6.400  67.261  1.00  0.00    -0.228 OA 
HETATM    4  C   UNL     1      -9.478   7.583  69.044  1.00  0.00    -0.145 C  
ENDROOT
BRANCH   4   5
HETATM    5  C   UNL     1      -8.691   8.312  67.956  1.00  0.00    -0.135 C  
BRANCH   5   6
HETATM    6  C   UNL     1      -7.183   8.159  68.151  1.00  0.00    -0.094 C  
BRANCH   6   7
HETATM    7  C   UNL     1      -6.874   7.006  69.107  1.00  0.00    -0.061 C  
BRANCH   7   8
HETATM    8  C   UNL     1      -6.082   7.482  70.324  1.00  0.00    -0.027 C  
BRANCH   8   9
HETATM    9  C   UNL     1      -6.879   7.271  71.612  1.00  0.00    -0.055 C  
BRANCH   9  10
HETATM   10  C   UNL     1      -7.469   8.584  72.126  1.00  0.00    -0.111 C  
BRANCH  10  11
HETATM   11  C   UNL     1      -8.185   8.377  73.462  1.00  0.00    -0.176 C  
BRANCH  11  12
HETATM   12  C   UNL     1      -9.069   7.164  73.424  1.00  0.00    -0.193 C  
HETATM   13  C   UNL     1      -9.684   6.654  74.499  1.00  0.00    -0.315 C  
ENDBRANCH  11  12
ENDBRANCH  10  11
ENDBRANCH   9  10
ENDBRANCH   8   9
ENDBRANCH   7   8
ENDBRANCH   6   7
ENDBRANCH   5   6
ENDBRANCH   4   5
TORSDOF 8
ENDMDL
MODEL      328
REMARK 921   NORMALIZED FREE ENERGY PREDICTED BY IDOCK:   -1.47 KCAL/MOL
REMARK 922        TOTAL FREE ENERGY PREDICTED BY IDOCK:   -2.64 KCAL/MOL
REMARK 923 INTER-LIGAND FREE ENERGY PREDICTED BY IDOCK:   -2.17 KCAL/MOL
REMARK 924 INTRA-LIGAND FREE ENERGY PREDICTED BY IDOCK:   -0.47 KCAL/MOL
REMARK 927      BINDING AFFINITY PREDICTED BY RF-SCORE:    0.00 PKD
ROOT
HETATM    1  O   UNL     1      -7.320  16.381  69.426  1.00  0.00    -0.233 OA 
HETATM    2  C   UNL     1      -6.367  15.423  69.350  1.00  0.00    -0.134 C  
HETATM    3  O   UNL     1      -5.310  15.507  69.954  1.00  0.00    -0.101 OA 
HETATM    4  C   UNL     1      -6.775  14.279  68.449  1.00  0.00    -0.104 C  
ENDROOT
BRANCH   4   5
HETATM    5  C   UNL     1      -5.687  13.209  68.374  1.00  0.00    -0.081 C  
BRANCH   5   6
HETATM    6  C   UNL     1      -6.092  11.937  69.119  1.00  0.00    -0.078 C  
BRANCH   6   7
HETATM    7  C   UNL     1      -7.528  11.541  68.772  1.00  0.00    -0.119 C  
BRANCH   7   8
HETATM    8  C   UNL     1      -7.871  10.151  69.305  1.00  0.00    -0.134 C  
BRANCH   8   9
HETATM    9  C   UNL     1      -8.887   9.453  68.401  1.00  0.00    -0.128 C  
BRANCH   9  10
HETATM   10  C   UNL     1     -10.237   9.288  69.099  1.00  0.00    -0.214 C  
BRANCH  10  11
HETATM   11  C   UNL     1     -10.143   9.681  70.575  1.00  0.00    -0.338 C  
BRANCH  11  12
HETATM   12  C   UNL     1     -10.196   8.473  71.464  1.00  0.00    -0.320 C  
HETATM   13  C   UNL     1     -10.013   7.219  71.033  1.00  0.00    -0.188 C  
ENDBRANCH  11  12
ENDBRANCH  10  11
ENDBRANCH   9  10
ENDBRANCH   8   9
ENDBRANCH   7   8
ENDBRANCH   6   7
ENDBRANCH   5   6
ENDBRANCH   4   5
TORSDOF 8
ENDMDL
MODEL      329
REMARK 921   NORMALIZED FREE ENERGY PREDICTED BY IDOCK:   -1.45 KCAL/MOL
REMARK 922        TOTAL FREE ENERGY PREDICTED BY IDOCK:   -2.61 KCAL/MOL
REMARK 923 INTER-LIGAND FREE ENERGY PREDICTED BY IDOCK:   -1.97 KCAL/MOL
REMARK 924 INTRA-LIGAND FREE ENERGY PREDICTED BY IDOCK:   -0.64 KCAL/MOL
REMARK 927      BINDING AFFINITY PREDICTED BY RF-SCORE:    0.00 PKD
ROOT
HETATM    1  O   UNL     1      -7.967  14.442  67.944  1.00  0.00    -0.123 OA 
HETATM    2  C   UNL     1      -7.331  13.247  67.932  1.00  0.00    -0.134 C  
HETATM    3  O   UNL     1      -6.177  13.127  67.555  1.00  0.00    -0.162 OA 
HETATM    4  C   UNL     1      -8.214  12.124  68.429  1.00  0.00    -0.145 C  
ENDROOT
BRANCH   4   5
HETATM    5  C   UNL     1      -7.483  10.783  68.407  1.00  0.00    -0.095 C  
BRANCH   5   6
HETATM    6  C   UNL     1      -8.295   9.684  69.092  1.00  0.00    -0.130 C  
BRANCH   6   7
HETATM    7  C   UNL     1      -7.902   9.559  70.564  1.00  0.00    -0.182 C  
BRANCH   7   8
HETATM    8  C   UNL     1      -8.074   8.128  71.072  1.00  0.00    -0.103 C  
BRANCH   8   9
HETATM    9  C   UNL     1      -9.461   7.927  71.682  1.00  0.00    -0.194 C  
BRANCH   9  10
HETATM   10  C   UNL     1     -10.245   6.842  70.944  1.00  0.00    -0.215 C  
BRANCH  10  11
HETATM   11  C   UNL     1      -9.300   5.842  70.275  1.00  0.00    -0.185 C  
BRANCH  11  12
HETATM   12  C   UNL     1      -9.759   5.502  68.887  1.00  0.00    -0.193 C  
HETATM   13  C   UNL     1      -9.108   5.864  67.774  1.00  0.00    -0.109 C  
ENDBRANCH  11  12
ENDBRANCH  10  11
ENDBRANCH   9  10
ENDBRANCH   8   9
ENDBRANCH   7   8
ENDBRANCH   6   7
ENDBRANCH   5   6
ENDBRANCH   4   5
TORSDOF 8
ENDMDL
MODEL      330
REMARK 921   NORMALIZED FREE ENERGY PREDICTED BY IDOCK:   -1.33 KCAL/MOL
REMARK 922        TOTAL FREE ENERGY PREDICTED BY IDOCK:   -2.43 KCAL/MOL
REMARK 923 INTER-LIGAND FREE ENERGY PREDICTED BY IDOCK:   -2.14 KCAL/MOL
REMARK 924 INTRA-LIGAND FREE ENERGY PREDICTED BY IDOCK:   -0.29 KCAL/MOL
REMARK 927      BINDING AFFINITY PREDICTED BY RF-SCORE:    0.00 PKD
ROOT
HETATM    1  O   UNL     1      -7.276   7.570  70.561  1.00  0.00    -0.062 OA 
HETATM    2  C   UNL     1      -7.819   8.628  69.915  1.00  0.00    -0.093 C  
HETATM    3  O   UNL     1      -8.834   9.179  70.307  1.00  0.00    -0.172 OA 
HETATM    4  C   UNL     1      -7.026   9.017  68.688  1.00  0.00    -0.063 C  
ENDROOT
BRANCH   4   5
HETATM    5  C   UNL     1      -7.653  10.210  67.969  1.00  0.00    -0.088 C  
BRANCH   5   6
HETATM    6  C   UNL     1      -7.060  11.535  68.448  1.00  0.00    -0.081 C  
BRANCH   6   7
HETATM    7  C   UNL     1      -8.091  12.660  68.341  1.00  0.00    -0.137 C  
BRANCH   7   8
HETATM    8  C   UNL     1      -7.459  14.027  68.601  1.00  0.00    -0.125 C  
BRANCH   8   9
HETATM    9  C   UNL     1      -8.388  15.154  68.147  1.00  0.00    -0.147 C  
BRANCH   9  10
HETATM   10  C   UNL     1      -9.237  15.678  69.305  1.00  0.00    -0.269 C  
BRANCH  10  11
HETATM   11  C   UNL     1      -9.464  17.186  69.179  1.00  0.00    -0.085 C  
BRANCH  11  12
HETATM   12  C   UNL     1     -10.600  17.491  68.246  1.00  0.00    -0.354 C  
HETATM   13  C   UNL     1     -10.584  18.484  67.348  1.00  0.00    -0.463 C  
ENDBRANCH  11  12
ENDBRANCH  10  11
ENDBRANCH   9  10
ENDBRANCH   8   9
ENDBRANCH   7   8
ENDBRANCH   6   7
ENDBRANCH   5   6
ENDBRANCH   4   5
TORSDOF 8
ENDMDL
