MODEL        1
REMARK 921   NORMALIZED FREE ENERGY PREDICTED BY IDOCK:   -6.03 KCAL/MOL
REMARK 922        TOTAL FREE ENERGY PREDICTED BY IDOCK:  -13.91 KCAL/MOL
REMARK 923 INTER-LIGAND FREE ENERGY PREDICTED BY IDOCK:  -10.96 KCAL/MOL
REMARK 924 INTRA-LIGAND FREE ENERGY PREDICTED BY IDOCK:   -2.96 KCAL/MOL
REMARK 927      BINDING AFFINITY PREDICTED BY RF-SCORE:    0.00 PKD
ROOT
HETATM    1  C   UNL     1     -12.031  15.731  72.406  1.00  0.00    -0.600 C  
HETATM    2  C   UNL     1     -13.524  15.491  72.546  1.00  0.00    -0.622 C  
ENDROOT
BRANCH   2   3
HETATM    3  C   UNL     1     -13.901  14.039  72.247  1.00  0.00    -0.655 C  
BRANCH   3   4
HETATM    4  C   UNL     1     -12.849  13.396  71.344  1.00  0.00    -0.420 C  
BRANCH   4   5
HETATM    5  C   UNL     1     -12.818  11.871  71.455  1.00  0.00    -0.421 C  
BRANCH   5   6
HETATM    6  C   UNL     1     -12.282  11.266  70.152  1.00  0.00    -0.410 C  
BRANCH   6   7
HETATM    7  C   UNL     1     -11.262  10.164  70.401  1.00  0.00    -0.402 C  
BRANCH   7   8
HETATM    8  C   UNL     1     -10.648   9.629  69.105  1.00  0.00    -0.220 C  
HETATM    9  O   UNL     1      -9.911   8.647  69.073  1.00  0.00    -0.182 OA 
BRANCH   8  10
HETATM   10  C   UNL     1     -11.047  10.390  67.857  1.00  0.00    -0.363 C  
BRANCH  10  11
HETATM   11  C   UNL     1      -9.924  11.020  67.021  1.00  0.00    -0.223 C  
BRANCH  11  12
HETATM   12  C   UNL     1     -10.465  12.201  66.171  1.00  0.00    -0.281 C  
HETATM   13  C   UNL     1     -10.568  11.826  64.684  1.00  0.00    -0.308 C  
HETATM   14  O   UNL     1      -9.320  11.897  64.013  1.00  0.00    -0.477 OA 
HETATM   15  C   UNL     1     -11.505  12.858  64.112  1.00  0.00    -0.449 C  
HETATM   16  H   UNL     1      -9.384  11.665  63.094  1.00  0.00     0.000 HD 
HETATM   17  C   UNL     1     -12.580  13.005  65.169  1.00  0.00    -0.469 C  
HETATM   18  O   UNL     1     -13.134  14.302  65.051  1.00  0.00    -0.682 OA 
HETATM   19  C   UNL     1     -11.903  12.693  66.537  1.00  0.00    -0.463 C  
HETATM   20  H   UNL     1     -13.808  14.395  65.714  1.00  0.00     0.000 HD 
BRANCH  19  21
HETATM   21  C   UNL     1     -11.889  13.858  67.547  1.00  0.00    -0.431 C  
BRANCH  21  22
HETATM   22  C   UNL     1     -10.625  13.959  68.363  1.00  0.00    -0.262 C  
HETATM   23  C   UNL     1     -10.043  15.054  68.873  1.00  0.00    -0.234 C  
BRANCH  23  24
HETATM   24  C   UNL     1     -10.494  16.474  68.705  1.00  0.00    -0.309 C  
BRANCH  24  25
HETATM   25  C   UNL     1      -9.815  17.169  67.523  1.00  0.00    -0.266 C  
BRANCH  25  26
HETATM   26  C   UNL     1     -10.771  17.470  66.367  1.00  0.00    -0.083 C  
HETATM   27  C   UNL     1     -10.573  16.505  65.219  1.00  0.00    -0.253 C  
HETATM   28  O   UNL     1      -9.765  15.596  65.188  1.00  0.00    -0.302 OA 
HETATM   29  O   UNL     1     -11.422  16.754  64.193  1.00  0.00    -1.171 OA 
ENDBRANCH  25  26
ENDBRANCH  24  25
ENDBRANCH  23  24
ENDBRANCH  21  22
ENDBRANCH  19  21
ENDBRANCH  11  12
ENDBRANCH  10  11
ENDBRANCH   8  10
ENDBRANCH   7   8
ENDBRANCH   6   7
ENDBRANCH   5   6
ENDBRANCH   4   5
ENDBRANCH   3   4
ENDBRANCH   2   3
TORSDOF 14
ENDMDL
MODEL        2
REMARK 921   NORMALIZED FREE ENERGY PREDICTED BY IDOCK:   -5.74 KCAL/MOL
REMARK 922        TOTAL FREE ENERGY PREDICTED BY IDOCK:  -13.39 KCAL/MOL
REMARK 923 INTER-LIGAND FREE ENERGY PREDICTED BY IDOCK:  -11.30 KCAL/MOL
REMARK 924 INTRA-LIGAND FREE ENERGY PREDICTED BY IDOCK:   -2.09 KCAL/MOL
REMARK 927      BINDING AFFINITY PREDICTED BY RF-SCORE:    0.00 PKD
ROOT
HETATM    1  C   UNL     1     -13.284  10.698  71.763  1.00  0.00    -0.526 C  
HETATM    2  C   UNL     1     -13.346   9.329  72.415  1.00  0.00    -0.521 C  
ENDROOT
BRANCH   2   3
HETATM    3  C   UNL     1     -12.522   8.292  71.649  1.00  0.00    -0.351 C  
BRANCH   3   4
HETATM    4  C   UNL     1     -11.056   8.364  72.076  1.00  0.00    -0.397 C  
BRANCH   4   5
HETATM    5  C   UNL     1     -10.101   8.566  70.898  1.00  0.00    -0.246 C  
BRANCH   5   6
HETATM    6  C   UNL     1     -10.903   8.777  69.609  1.00  0.00    -0.175 C  
BRANCH   6   7
HETATM    7  C   UNL     1     -10.046   9.321  68.475  1.00  0.00    -0.211 C  
BRANCH   7   8
HETATM    8  C   UNL     1     -10.326   8.624  67.141  1.00  0.00    -0.299 C  
HETATM    9  O   UNL     1     -10.826   7.505  67.066  1.00  0.00    -0.348 OA 
BRANCH   8  10
HETATM   10  C   UNL     1      -9.964   9.440  65.916  1.00  0.00    -0.327 C  
BRANCH  10  11
HETATM   11  C   UNL     1      -9.251  10.782  66.142  1.00  0.00    -0.202 C  
BRANCH  11  12
HETATM   12  C   UNL     1     -10.017  11.937  65.444  1.00  0.00    -0.281 C  
HETATM   13  C   UNL     1     -10.222  11.654  63.947  1.00  0.00    -0.365 C  
HETATM   14  O   UNL     1      -9.067  11.932  63.173  1.00  0.00    -0.644 OA 
HETATM   15  C   UNL     1     -11.333  12.590  63.547  1.00  0.00    -0.556 C  
HETATM   16  H   UNL     1      -9.193  11.758  62.247  1.00  0.00     0.000 HD 
HETATM   17  C   UNL     1     -12.306  12.523  64.706  1.00  0.00    -0.474 C  
HETATM   18  O   UNL     1     -13.024  13.741  64.744  1.00  0.00    -0.684 OA 
HETATM   19  C   UNL     1     -11.461  12.210  65.977  1.00  0.00    -0.427 C  
HETATM   20  H   UNL     1     -13.635  13.700  65.471  1.00  0.00     0.000 HD 
BRANCH  19  21
HETATM   21  C   UNL     1     -11.490  13.295  67.072  1.00  0.00    -0.378 C  
BRANCH  21  22
HETATM   22  C   UNL     1     -11.611  12.758  68.477  1.00  0.00    -0.358 C  
HETATM   23  C   UNL     1     -11.699  13.439  69.628  1.00  0.00    -0.375 C  
BRANCH  23  24
HETATM   24  C   UNL     1     -11.645  14.927  69.800  1.00  0.00    -0.339 C  
BRANCH  24  25
HETATM   25  C   UNL     1     -12.736  15.448  70.739  1.00  0.00    -0.516 C  
BRANCH  25  26
HETATM   26  C   UNL     1     -12.202  15.887  72.104  1.00  0.00    -0.578 C  
HETATM   27  C   UNL     1     -12.645  14.942  73.200  1.00  0.00    -0.452 C  
HETATM   28  O   UNL     1     -13.338  13.954  73.048  1.00  0.00    -0.623 OA 
HETATM   29  O   UNL     1     -12.169  15.313  74.413  1.00  0.00    -0.642 OA 
ENDBRANCH  25  26
ENDBRANCH  24  25
ENDBRANCH  23  24
ENDBRANCH  21  22
ENDBRANCH  19  21
ENDBRANCH  11  12
ENDBRANCH  10  11
ENDBRANCH   8  10
ENDBRANCH   7   8
ENDBRANCH   6   7
ENDBRANCH   5   6
ENDBRANCH   4   5
ENDBRANCH   3   4
ENDBRANCH   2   3
TORSDOF 14
ENDMDL
MODEL        3
REMARK 921   NORMALIZED FREE ENERGY PREDICTED BY IDOCK:   -5.72 KCAL/MOL
REMARK 922        TOTAL FREE ENERGY PREDICTED BY IDOCK:  -13.36 KCAL/MOL
REMARK 923 INTER-LIGAND FREE ENERGY PREDICTED BY IDOCK:  -11.15 KCAL/MOL
REMARK 924 INTRA-LIGAND FREE ENERGY PREDICTED BY IDOCK:   -2.20 KCAL/MOL
REMARK 927      BINDING AFFINITY PREDICTED BY RF-SCORE:    0.00 PKD
ROOT
HETATM    1  C   UNL     1     -12.858  15.793  73.680  1.00  0.00    -0.716 C  
HETATM    2  C   UNL     1     -13.837  15.586  72.538  1.00  0.00    -0.669 C  
ENDROOT
BRANCH   2   3
HETATM    3  C   UNL     1     -14.080  14.102  72.254  1.00  0.00    -0.630 C  
BRANCH   3   4
HETATM    4  C   UNL     1     -12.940  13.533  71.411  1.00  0.00    -0.421 C  
BRANCH   4   5
HETATM    5  C   UNL     1     -12.575  14.423  70.221  1.00  0.00    -0.380 C  
BRANCH   5   6
HETATM    6  C   UNL     1     -11.952  13.573  69.108  1.00  0.00    -0.378 C  
BRANCH   6   7
HETATM    7  C   UNL     1     -11.455  12.227  69.617  1.00  0.00    -0.285 C  
BRANCH   7   8
HETATM    8  C   UNL     1     -10.637  11.469  68.569  1.00  0.00    -0.210 C  
HETATM    9  O   UNL     1      -9.722  10.704  68.863  1.00  0.00    -0.186 OA 
BRANCH   8  10
HETATM   10  C   UNL     1     -11.066  11.714  67.136  1.00  0.00    -0.354 C  
BRANCH  10  11
HETATM   11  C   UNL     1      -9.961  11.857  66.078  1.00  0.00    -0.258 C  
BRANCH  11  12
HETATM   12  C   UNL     1     -10.415  12.798  64.931  1.00  0.00    -0.342 C  
HETATM   13  C   UNL     1     -11.513  12.151  64.071  1.00  0.00    -0.411 C  
HETATM   14  O   UNL     1     -10.998  11.226  63.128  1.00  0.00    -0.785 OA 
HETATM   15  C   UNL     1     -12.140  13.313  63.345  1.00  0.00    -0.508 C  
HETATM   16  H   UNL     1     -11.677  10.826  62.597  1.00  0.00     0.000 HD 
HETATM   17  C   UNL     1     -12.221  14.402  64.395  1.00  0.00    -0.458 C  
HETATM   18  O   UNL     1     -12.206  15.651  63.730  1.00  0.00    -1.014 OA 
HETATM   19  C   UNL     1     -11.039  14.158  65.380  1.00  0.00    -0.321 C  
HETATM   20  H   UNL     1     -12.257  16.335  64.387  1.00  0.00     0.000 HD 
BRANCH  19  21
HETATM   21  C   UNL     1      -9.997  15.291  65.452  1.00  0.00    -0.364 C  
BRANCH  21  22
HETATM   22  C   UNL     1      -9.246  15.364  66.758  1.00  0.00    -0.273 C  
HETATM   23  C   UNL     1      -9.555  16.054  67.865  1.00  0.00    -0.219 C  
BRANCH  23  24
HETATM   24  C   UNL     1     -10.721  16.977  68.053  1.00  0.00    -0.365 C  
BRANCH  24  25
HETATM   25  C   UNL     1     -10.312  18.452  68.024  1.00  0.00    -0.410 C  
BRANCH  25  26
HETATM   26  C   UNL     1      -8.796  18.659  67.961  1.00  0.00    -0.329 C  
HETATM   27  C   UNL     1      -8.393  19.415  66.714  1.00  0.00    -0.296 C  
HETATM   28  O   UNL     1      -9.151  19.818  65.852  1.00  0.00    -0.364 OA 
HETATM   29  O   UNL     1      -7.054  19.614  66.652  1.00  0.00    -0.207 OA 
ENDBRANCH  25  26
ENDBRANCH  24  25
ENDBRANCH  23  24
ENDBRANCH  21  22
ENDBRANCH  19  21
ENDBRANCH  11  12
ENDBRANCH  10  11
ENDBRANCH   8  10
ENDBRANCH   7   8
ENDBRANCH   6   7
ENDBRANCH   5   6
ENDBRANCH   4   5
ENDBRANCH   3   4
ENDBRANCH   2   3
TORSDOF 14
ENDMDL
MODEL        4
REMARK 921   NORMALIZED FREE ENERGY PREDICTED BY IDOCK:   -5.69 KCAL/MOL
REMARK 922        TOTAL FREE ENERGY PREDICTED BY IDOCK:  -13.30 KCAL/MOL
REMARK 923 INTER-LIGAND FREE ENERGY PREDICTED BY IDOCK:  -10.60 KCAL/MOL
REMARK 924 INTRA-LIGAND FREE ENERGY PREDICTED BY IDOCK:   -2.70 KCAL/MOL
REMARK 927      BINDING AFFINITY PREDICTED BY RF-SCORE:    0.00 PKD
ROOT
HETATM    1  C   UNL     1     -12.593  15.605  74.430  1.00  0.00    -0.683 C  
HETATM    2  C   UNL     1     -12.817  14.715  73.222  1.00  0.00    -0.580 C  
ENDROOT
BRANCH   2   3
HETATM    3  C   UNL     1     -13.628  15.420  72.133  1.00  0.00    -0.600 C  
BRANCH   3   4
HETATM    4  C   UNL     1     -12.818  15.499  70.839  1.00  0.00    -0.535 C  
BRANCH   4   5
HETATM    5  C   UNL     1     -11.317  15.668  71.085  1.00  0.00    -0.446 C  
BRANCH   5   6
HETATM    6  C   UNL     1     -10.564  15.616  69.750  1.00  0.00    -0.308 C  
BRANCH   6   7
HETATM    7  C   UNL     1     -11.501  15.686  68.553  1.00  0.00    -0.380 C  
BRANCH   7   8
HETATM    8  C   UNL     1     -10.759  15.962  67.243  1.00  0.00    -0.306 C  
HETATM    9  O   UNL     1      -9.996  16.913  67.097  1.00  0.00    -0.261 OA 
BRANCH   8  10
HETATM   10  C   UNL     1     -11.018  14.948  66.147  1.00  0.00    -0.334 C  
BRANCH  10  11
HETATM   11  C   UNL     1     -12.271  14.069  66.275  1.00  0.00    -0.493 C  
BRANCH  11  12
HETATM   12  C   UNL     1     -11.921  12.574  66.046  1.00  0.00    -0.456 C  
HETATM   13  C   UNL     1     -11.237  12.356  64.687  1.00  0.00    -0.312 C  
HETATM   14  O   UNL     1     -12.157  12.321  63.609  1.00  0.00    -0.469 OA 
HETATM   15  C   UNL     1     -10.572  11.011  64.825  1.00  0.00    -0.350 C  
HETATM   16  H   UNL     1     -11.735  12.186  62.769  1.00  0.00     0.000 HD 
HETATM   17  C   UNL     1      -9.999  11.026  66.227  1.00  0.00    -0.224 C  
HETATM   18  O   UNL     1      -9.906   9.687  66.674  1.00  0.00    -0.195 OA 
HETATM   19  C   UNL     1     -10.925  11.949  67.075  1.00  0.00    -0.326 C  
HETATM   20  H   UNL     1      -9.547   9.696  67.554  1.00  0.00     0.000 HD 
BRANCH  19  21
HETATM   21  C   UNL     1     -11.645  11.258  68.250  1.00  0.00    -0.370 C  
BRANCH  21  22
HETATM   22  C   UNL     1     -11.805  12.122  69.476  1.00  0.00    -0.386 C  
HETATM   23  C   UNL     1     -12.263  11.780  70.688  1.00  0.00    -0.443 C  
BRANCH  23  24
HETATM   24  C   UNL     1     -12.787  10.439  71.106  1.00  0.00    -0.511 C  
BRANCH  24  25
HETATM   25  C   UNL     1     -11.679   9.505  71.600  1.00  0.00    -0.460 C  
BRANCH  25  26
HETATM   26  C   UNL     1     -11.934   8.033  71.266  1.00  0.00    -0.321 C  
HETATM   27  C   UNL     1     -11.091   7.578  70.095  1.00  0.00    -0.231 C  
HETATM   28  O   UNL     1     -10.304   8.270  69.477  1.00  0.00    -0.210 OA 
HETATM   29  O   UNL     1     -11.299   6.273  69.796  1.00  0.00    -0.405 OA 
ENDBRANCH  25  26
ENDBRANCH  24  25
ENDBRANCH  23  24
ENDBRANCH  21  22
ENDBRANCH  19  21
ENDBRANCH  11  12
ENDBRANCH  10  11
ENDBRANCH   8  10
ENDBRANCH   7   8
ENDBRANCH   6   7
ENDBRANCH   5   6
ENDBRANCH   4   5
ENDBRANCH   3   4
ENDBRANCH   2   3
TORSDOF 14
ENDMDL
MODEL        5
REMARK 921   NORMALIZED FREE ENERGY PREDICTED BY IDOCK:   -5.68 KCAL/MOL
REMARK 922        TOTAL FREE ENERGY PREDICTED BY IDOCK:  -13.28 KCAL/MOL
REMARK 923 INTER-LIGAND FREE ENERGY PREDICTED BY IDOCK:  -11.12 KCAL/MOL
REMARK 924 INTRA-LIGAND FREE ENERGY PREDICTED BY IDOCK:   -2.16 KCAL/MOL
REMARK 927      BINDING AFFINITY PREDICTED BY RF-SCORE:    0.00 PKD
ROOT
HETATM    1  C   UNL     1     -11.465   6.536  70.075  1.00  0.00    -0.476 C  
HETATM    2  C   UNL     1     -11.713   6.392  71.566  1.00  0.00    -0.369 C  
ENDROOT
BRANCH   2   3
HETATM    3  C   UNL     1     -11.938   7.747  72.242  1.00  0.00    -0.356 C  
BRANCH   3   4
HETATM    4  C   UNL     1     -13.331   8.278  71.908  1.00  0.00    -0.364 C  
BRANCH   4   5
HETATM    5  C   UNL     1     -13.351   9.788  71.664  1.00  0.00    -0.487 C  
BRANCH   5   6
HETATM    6  C   UNL     1     -11.921  10.298  71.447  1.00  0.00    -0.419 C  
BRANCH   6   7
HETATM    7  C   UNL     1     -11.672  10.732  70.010  1.00  0.00    -0.417 C  
BRANCH   7   8
HETATM    8  C   UNL     1     -10.223  10.505  69.571  1.00  0.00    -0.200 C  
HETATM    9  O   UNL     1      -9.399   9.923  70.271  1.00  0.00    -0.225 OA 
BRANCH   8  10
HETATM   10  C   UNL     1      -9.894  11.028  68.188  1.00  0.00    -0.185 C  
BRANCH  10  11
HETATM   11  C   UNL     1     -10.989  10.935  67.114  1.00  0.00    -0.334 C  
BRANCH  11  12
HETATM   12  C   UNL     1     -10.829  12.066  66.064  1.00  0.00    -0.329 C  
HETATM   13  C   UNL     1     -10.336  11.517  64.715  1.00  0.00    -0.289 C  
HETATM   14  O   UNL     1      -8.938  11.282  64.697  1.00  0.00    -0.375 OA 
HETATM   15  C   UNL     1     -10.675  12.607  63.732  1.00  0.00    -0.454 C  
HETATM   16  H   UNL     1      -8.633  10.942  63.863  1.00  0.00     0.000 HD 
HETATM   17  C   UNL     1     -12.049  13.077  64.163  1.00  0.00    -0.427 C  
HETATM   18  O   UNL     1     -12.200  14.422  63.749  1.00  0.00    -0.929 OA 
HETATM   19  C   UNL     1     -12.136  12.841  65.701  1.00  0.00    -0.514 C  
HETATM   20  H   UNL     1     -13.062  14.717  64.019  1.00  0.00     0.000 HD 
BRANCH  19  21
HETATM   21  C   UNL     1     -12.325  14.112  66.553  1.00  0.00    -0.405 C  
BRANCH  21  22
HETATM   22  C   UNL     1     -11.122  14.491  67.380  1.00  0.00    -0.320 C  
HETATM   23  C   UNL     1     -10.988  14.486  68.714  1.00  0.00    -0.262 C  
BRANCH  23  24
HETATM   24  C   UNL     1     -12.042  14.144  69.723  1.00  0.00    -0.409 C  
BRANCH  24  25
HETATM   25  C   UNL     1     -12.304  15.286  70.708  1.00  0.00    -0.433 C  
BRANCH  25  26
HETATM   26  C   UNL     1     -11.773  15.006  72.115  1.00  0.00    -0.437 C  
HETATM   27  C   UNL     1     -12.747  15.473  73.176  1.00  0.00    -0.478 C  
HETATM   28  O   UNL     1     -13.820  16.006  72.969  1.00  0.00    -0.592 OA 
HETATM   29  O   UNL     1     -12.293  15.220  74.428  1.00  0.00    -0.633 OA 
ENDBRANCH  25  26
ENDBRANCH  24  25
ENDBRANCH  23  24
ENDBRANCH  21  22
ENDBRANCH  19  21
ENDBRANCH  11  12
ENDBRANCH  10  11
ENDBRANCH   8  10
ENDBRANCH   7   8
ENDBRANCH   6   7
ENDBRANCH   5   6
ENDBRANCH   4   5
ENDBRANCH   3   4
ENDBRANCH   2   3
TORSDOF 14
ENDMDL
MODEL        6
REMARK 921   NORMALIZED FREE ENERGY PREDICTED BY IDOCK:   -5.61 KCAL/MOL
REMARK 922        TOTAL FREE ENERGY PREDICTED BY IDOCK:  -13.16 KCAL/MOL
REMARK 923 INTER-LIGAND FREE ENERGY PREDICTED BY IDOCK:  -10.29 KCAL/MOL
REMARK 924 INTRA-LIGAND FREE ENERGY PREDICTED BY IDOCK:   -2.87 KCAL/MOL
REMARK 927      BINDING AFFINITY PREDICTED BY RF-SCORE:    0.00 PKD
ROOT
HETATM    1  C   UNL     1     -14.059   8.731  71.918  1.00  0.00    -0.488 C  
HETATM    2  C   UNL     1     -13.139   9.938  71.957  1.00  0.00    -0.545 C  
ENDROOT
BRANCH   2   3
HETATM    3  C   UNL     1     -11.958   9.789  70.995  1.00  0.00    -0.440 C  
BRANCH   3   4
HETATM    4  C   UNL     1     -11.531   8.324  70.908  1.00  0.00    -0.296 C  
BRANCH   4   5
HETATM    5  C   UNL     1     -10.036   8.153  70.632  1.00  0.00    -0.209 C  
BRANCH   5   6
HETATM    6  C   UNL     1      -9.354   9.526  70.600  1.00  0.00    -0.263 C  
BRANCH   6   7
HETATM    7  C   UNL     1      -8.365   9.654  69.450  1.00  0.00    -0.145 C  
BRANCH   7   8
HETATM    8  C   UNL     1      -9.057   9.881  68.104  1.00  0.00    -0.121 C  
HETATM    9  O   UNL     1      -8.958   9.097  67.164  1.00  0.00    -0.122 OA 
BRANCH   8  10
HETATM   10  C   UNL     1      -9.900  11.138  68.033  1.00  0.00    -0.185 C  
BRANCH  10  11
HETATM   11  C   UNL     1     -11.150  11.105  67.141  1.00  0.00    -0.352 C  
BRANCH  11  12
HETATM   12  C   UNL     1     -10.977  12.039  65.914  1.00  0.00    -0.342 C  
HETATM   13  C   UNL     1     -10.362  11.293  64.718  1.00  0.00    -0.307 C  
HETATM   14  O   UNL     1      -8.956  11.149  64.826  1.00  0.00    -0.339 OA 
HETATM   15  C   UNL     1     -10.689  12.166  63.536  1.00  0.00    -0.509 C  
HETATM   16  H   UNL     1      -8.576  10.688  64.088  1.00  0.00     0.000 HD 
HETATM   17  C   UNL     1     -12.113  12.616  63.792  1.00  0.00    -0.522 C  
HETATM   18  O   UNL     1     -12.305  13.853  63.132  1.00  0.00    -1.122 OA 
HETATM   19  C   UNL     1     -12.295  12.651  65.339  1.00  0.00    -0.499 C  
HETATM   20  H   UNL     1     -13.198  14.135  63.293  1.00  0.00     0.000 HD 
BRANCH  19  21
HETATM   21  C   UNL     1     -12.610  14.038  65.934  1.00  0.00    -0.484 C  
BRANCH  21  22
HETATM   22  C   UNL     1     -11.393  14.845  66.312  1.00  0.00    -0.306 C  
HETATM   23  C   UNL     1     -11.068  15.361  67.506  1.00  0.00    -0.315 C  
BRANCH  23  24
HETATM   24  C   UNL     1     -11.880  15.300  68.764  1.00  0.00    -0.332 C  
BRANCH  24  25
HETATM   25  C   UNL     1     -11.518  14.098  69.639  1.00  0.00    -0.329 C  
BRANCH  25  26
HETATM   26  C   UNL     1     -12.627  13.705  70.617  1.00  0.00    -0.366 C  
HETATM   27  C   UNL     1     -12.448  14.384  71.958  1.00  0.00    -0.287 C  
HETATM   28  O   UNL     1     -11.548  15.148  72.252  1.00  0.00    -0.414 OA 
HETATM   29  O   UNL     1     -13.431  14.053  72.830  1.00  0.00    -0.647 OA 
ENDBRANCH  25  26
ENDBRANCH  24  25
ENDBRANCH  23  24
ENDBRANCH  21  22
ENDBRANCH  19  21
ENDBRANCH  11  12
ENDBRANCH  10  11
ENDBRANCH   8  10
ENDBRANCH   7   8
ENDBRANCH   6   7
ENDBRANCH   5   6
ENDBRANCH   4   5
ENDBRANCH   3   4
ENDBRANCH   2   3
TORSDOF 14
ENDMDL
MODEL        7
REMARK 921   NORMALIZED FREE ENERGY PREDICTED BY IDOCK:   -5.58 KCAL/MOL
REMARK 922        TOTAL FREE ENERGY PREDICTED BY IDOCK:  -13.11 KCAL/MOL
REMARK 923 INTER-LIGAND FREE ENERGY PREDICTED BY IDOCK:  -10.95 KCAL/MOL
REMARK 924 INTRA-LIGAND FREE ENERGY PREDICTED BY IDOCK:   -2.17 KCAL/MOL
REMARK 927      BINDING AFFINITY PREDICTED BY RF-SCORE:    0.00 PKD
ROOT
HETATM    1  C   UNL     1     -10.380  19.767  66.030  1.00  0.00    -0.612 C  
HETATM    2  C   UNL     1     -10.040  19.913  67.502  1.00  0.00    -0.566 C  
ENDROOT
BRANCH   2   3
HETATM    3  C   UNL     1      -8.774  19.139  67.877  1.00  0.00    -0.342 C  
BRANCH   3   4
HETATM    4  C   UNL     1      -8.357  18.223  66.728  1.00  0.00    -0.269 C  
BRANCH   4   5
HETATM    5  C   UNL     1      -8.329  16.745  67.122  1.00  0.00    -0.207 C  
BRANCH   5   6
HETATM    6  C   UNL     1      -9.053  15.910  66.059  1.00  0.00    -0.363 C  
BRANCH   6   7
HETATM    7  C   UNL     1     -10.560  15.888  66.266  1.00  0.00    -0.301 C  
BRANCH   7   8
HETATM    8  C   UNL     1     -11.335  15.985  64.950  1.00  0.00    -0.229 C  
HETATM    9  O   UNL     1     -11.223  16.935  64.179  1.00  0.00    -1.176 OA 
BRANCH   8  10
HETATM   10  C   UNL     1     -12.230  14.798  64.657  1.00  0.00    -0.405 C  
BRANCH  10  11
HETATM   11  C   UNL     1     -12.389  13.740  65.759  1.00  0.00    -0.523 C  
BRANCH  11  12
HETATM   12  C   UNL     1     -11.676  12.420  65.362  1.00  0.00    -0.452 C  
HETATM   13  C   UNL     1     -11.655  12.226  63.837  1.00  0.00    -0.444 C  
HETATM   14  O   UNL     1     -12.883  11.732  63.330  1.00  0.00    -0.778 OA 
HETATM   15  C   UNL     1     -10.571  11.203  63.615  1.00  0.00    -0.414 C  
HETATM   16  H   UNL     1     -12.870  11.613  62.387  1.00  0.00     0.000 HD 
HETATM   17  C   UNL     1      -9.472  11.616  64.573  1.00  0.00    -0.036 C  
HETATM   18  O   UNL     1      -8.719  10.463  64.896  1.00  0.00    -0.171 OA 
HETATM   19  C   UNL     1     -10.174  12.313  65.778  1.00  0.00    -0.281 C  
HETATM   20  H   UNL     1      -8.030  10.722  65.497  1.00  0.00     0.000 HD 
BRANCH  19  21
HETATM   21  C   UNL     1      -9.986  11.617  67.141  1.00  0.00    -0.219 C  
BRANCH  21  22
HETATM   22  C   UNL     1     -11.203  10.874  67.633  1.00  0.00    -0.379 C  
HETATM   23  C   UNL     1     -11.754  10.885  68.855  1.00  0.00    -0.376 C  
BRANCH  23  24
HETATM   24  C   UNL     1     -11.250  11.616  70.063  1.00  0.00    -0.053 C  
BRANCH  24  25
HETATM   25  C   UNL     1     -12.383  12.175  70.926  1.00  0.00    -0.370 C  
BRANCH  25  26
HETATM   26  C   UNL     1     -12.639  13.667  70.698  1.00  0.00    -0.366 C  
HETATM   27  C   UNL     1     -13.436  14.271  71.834  1.00  0.00    -0.401 C  
HETATM   28  O   UNL     1     -13.838  13.674  72.815  1.00  0.00    -0.727 OA 
HETATM   29  O   UNL     1     -13.659  15.594  71.650  1.00  0.00    -0.485 OA 
ENDBRANCH  25  26
ENDBRANCH  24  25
ENDBRANCH  23  24
ENDBRANCH  21  22
ENDBRANCH  19  21
ENDBRANCH  11  12
ENDBRANCH  10  11
ENDBRANCH   8  10
ENDBRANCH   7   8
ENDBRANCH   6   7
ENDBRANCH   5   6
ENDBRANCH   4   5
ENDBRANCH   3   4
ENDBRANCH   2   3
TORSDOF 14
ENDMDL
MODEL        8
REMARK 921   NORMALIZED FREE ENERGY PREDICTED BY IDOCK:   -5.49 KCAL/MOL
REMARK 922        TOTAL FREE ENERGY PREDICTED BY IDOCK:  -12.95 KCAL/MOL
REMARK 923 INTER-LIGAND FREE ENERGY PREDICTED BY IDOCK:  -10.74 KCAL/MOL
REMARK 924 INTRA-LIGAND FREE ENERGY PREDICTED BY IDOCK:   -2.20 KCAL/MOL
REMARK 927      BINDING AFFINITY PREDICTED BY RF-SCORE:    0.00 PKD
ROOT
HETATM    1  C   UNL     1      -6.779  20.791  67.374  1.00  0.00    -0.400 C  
HETATM    2  C   UNL     1      -8.245  20.396  67.357  1.00  0.00    -0.376 C  
ENDROOT
BRANCH   2   3
HETATM    3  C   UNL     1      -8.609  19.497  68.540  1.00  0.00    -0.379 C  
BRANCH   3   4
HETATM    4  C   UNL     1      -9.711  18.518  68.139  1.00  0.00    -0.367 C  
BRANCH   4   5
HETATM    5  C   UNL     1     -10.731  19.129  67.176  1.00  0.00    -0.567 C  
BRANCH   5   6
HETATM    6  C   UNL     1     -10.684  18.392  65.832  1.00  0.00    -0.209 C  
BRANCH   6   7
HETATM    7  C   UNL     1     -10.369  16.912  65.994  1.00  0.00    -0.335 C  
BRANCH   7   8
HETATM    8  C   UNL     1     -11.066  16.045  64.942  1.00  0.00    -0.370 C  
HETATM    9  O   UNL     1     -11.772  16.515  64.054  1.00  0.00    -1.111 OA 
BRANCH   8  10
HETATM   10  C   UNL     1     -10.791  14.560  65.067  1.00  0.00    -0.425 C  
BRANCH  10  11
HETATM   11  C   UNL     1     -11.983  13.603  64.915  1.00  0.00    -0.410 C  
BRANCH  11  12
HETATM   12  C   UNL     1     -11.555  12.140  65.210  1.00  0.00    -0.376 C  
HETATM   13  C   UNL     1     -10.694  11.564  64.073  1.00  0.00    -0.384 C  
HETATM   14  O   UNL     1     -11.467  11.131  62.966  1.00  0.00    -0.812 OA 
HETATM   15  C   UNL     1     -10.007  10.380  64.701  1.00  0.00    -0.408 C  
HETATM   16  H   UNL     1     -10.935  10.775  62.264  1.00  0.00     0.000 HD 
HETATM   17  C   UNL     1      -9.620  10.868  66.082  1.00  0.00    -0.202 C  
HETATM   18  O   UNL     1      -9.540   9.743  66.936  1.00  0.00    -0.166 OA 
HETATM   19  C   UNL     1     -10.678  11.937  66.487  1.00  0.00    -0.293 C  
HETATM   20  H   UNL     1      -9.297  10.048  67.802  1.00  0.00     0.000 HD 
BRANCH  19  21
HETATM   21  C   UNL     1     -11.520  11.592  67.732  1.00  0.00    -0.373 C  
BRANCH  21  22
HETATM   22  C   UNL     1     -11.077  12.287  68.995  1.00  0.00    -0.289 C  
HETATM   23  C   UNL     1     -11.296  13.553  69.376  1.00  0.00    -0.293 C  
BRANCH  23  24
HETATM   24  C   UNL     1     -12.005  14.617  68.594  1.00  0.00    -0.305 C  
BRANCH  24  25
HETATM   25  C   UNL     1     -12.134  15.929  69.373  1.00  0.00    -0.183 C  
BRANCH  25  26
HETATM   26  C   UNL     1     -11.452  15.891  70.742  1.00  0.00    -0.437 C  
HETATM   27  C   UNL     1     -12.466  15.888  71.865  1.00  0.00    -0.459 C  
HETATM   28  O   UNL     1     -13.674  15.915  71.730  1.00  0.00    -0.375 OA 
HETATM   29  O   UNL     1     -11.874  15.843  73.083  1.00  0.00    -0.440 OA 
ENDBRANCH  25  26
ENDBRANCH  24  25
ENDBRANCH  23  24
ENDBRANCH  21  22
ENDBRANCH  19  21
ENDBRANCH  11  12
ENDBRANCH  10  11
ENDBRANCH   8  10
ENDBRANCH   7   8
ENDBRANCH   6   7
ENDBRANCH   5   6
ENDBRANCH   4   5
ENDBRANCH   3   4
ENDBRANCH   2   3
TORSDOF 14
ENDMDL
MODEL        9
REMARK 921   NORMALIZED FREE ENERGY PREDICTED BY IDOCK:   -5.44 KCAL/MOL
REMARK 922        TOTAL FREE ENERGY PREDICTED BY IDOCK:  -12.85 KCAL/MOL
REMARK 923 INTER-LIGAND FREE ENERGY PREDICTED BY IDOCK:  -10.43 KCAL/MOL
REMARK 924 INTRA-LIGAND FREE ENERGY PREDICTED BY IDOCK:   -2.42 KCAL/MOL
REMARK 927      BINDING AFFINITY PREDICTED BY RF-SCORE:    0.00 PKD
ROOT
HETATM    1  C   UNL     1     -14.187  14.666  71.582  1.00  0.00    -0.591 C  
HETATM    2  C   UNL     1     -13.646  13.463  72.333  1.00  0.00    -0.708 C  
ENDROOT
BRANCH   2   3
HETATM    3  C   UNL     1     -12.783  12.570  71.439  1.00  0.00    -0.345 C  
BRANCH   3   4
HETATM    4  C   UNL     1     -13.087  11.098  71.714  1.00  0.00    -0.536 C  
BRANCH   4   5
HETATM    5  C   UNL     1     -12.066  10.150  71.082  1.00  0.00    -0.485 C  
BRANCH   5   6
HETATM    6  C   UNL     1     -11.415  10.822  69.867  1.00  0.00    -0.398 C  
BRANCH   6   7
HETATM    7  C   UNL     1     -10.142  10.113  69.425  1.00  0.00    -0.250 C  
BRANCH   7   8
HETATM    8  C   UNL     1     -10.360   9.228  68.196  1.00  0.00    -0.215 C  
HETATM    9  O   UNL     1     -10.248   8.005  68.228  1.00  0.00    -0.194 OA 
BRANCH   8  10
HETATM   10  C   UNL     1     -10.755   9.978  66.941  1.00  0.00    -0.211 C  
BRANCH  10  11
HETATM   11  C   UNL     1      -9.725  10.946  66.338  1.00  0.00    -0.240 C  
BRANCH  11  12
HETATM   12  C   UNL     1     -10.430  12.165  65.686  1.00  0.00    -0.290 C  
HETATM   13  C   UNL     1     -10.680  11.936  64.186  1.00  0.00    -0.351 C  
HETATM   14  O   UNL     1      -9.524  12.163  63.397  1.00  0.00    -0.654 OA 
HETATM   15  C   UNL     1     -11.737  12.950  63.834  1.00  0.00    -0.526 C  
HETATM   16  H   UNL     1      -9.679  12.022  62.470  1.00  0.00     0.000 HD 
HETATM   17  C   UNL     1     -12.690  12.913  65.011  1.00  0.00    -0.404 C  
HETATM   18  O   UNL     1     -13.330  14.172  65.094  1.00  0.00    -0.684 OA 
HETATM   19  C   UNL     1     -11.843  12.513  66.255  1.00  0.00    -0.453 C  
HETATM   20  H   UNL     1     -13.928  14.148  65.832  1.00  0.00     0.000 HD 
BRANCH  19  21
HETATM   21  C   UNL     1     -11.783  13.567  67.379  1.00  0.00    -0.419 C  
BRANCH  21  22
HETATM   22  C   UNL     1     -10.433  13.698  68.039  1.00  0.00    -0.251 C  
HETATM   23  C   UNL     1     -10.086  14.449  69.093  1.00  0.00    -0.108 C  
BRANCH  23  24
HETATM   24  C   UNL     1     -10.965  15.397  69.851  1.00  0.00    -0.305 C  
BRANCH  24  25
HETATM   25  C   UNL     1     -10.652  16.863  69.540  1.00  0.00    -0.239 C  
BRANCH  25  26
HETATM   26  C   UNL     1     -10.784  17.208  68.055  1.00  0.00    -0.372 C  
HETATM   27  C   UNL     1     -10.387  18.643  67.784  1.00  0.00    -0.410 C  
HETATM   28  O   UNL     1     -10.010  19.444  68.617  1.00  0.00    -0.400 OA 
HETATM   29  O   UNL     1     -10.489  18.959  66.470  1.00  0.00    -0.393 OA 
ENDBRANCH  25  26
ENDBRANCH  24  25
ENDBRANCH  23  24
ENDBRANCH  21  22
ENDBRANCH  19  21
ENDBRANCH  11  12
ENDBRANCH  10  11
ENDBRANCH   8  10
ENDBRANCH   7   8
ENDBRANCH   6   7
ENDBRANCH   5   6
ENDBRANCH   4   5
ENDBRANCH   3   4
ENDBRANCH   2   3
TORSDOF 14
ENDMDL
MODEL       10
REMARK 921   NORMALIZED FREE ENERGY PREDICTED BY IDOCK:   -5.42 KCAL/MOL
REMARK 922        TOTAL FREE ENERGY PREDICTED BY IDOCK:  -12.81 KCAL/MOL
REMARK 923 INTER-LIGAND FREE ENERGY PREDICTED BY IDOCK:  -11.16 KCAL/MOL
REMARK 924 INTRA-LIGAND FREE ENERGY PREDICTED BY IDOCK:   -1.66 KCAL/MOL
REMARK 927      BINDING AFFINITY PREDICTED BY RF-SCORE:    0.00 PKD
ROOT
HETATM    1  C   UNL     1     -10.528  19.529  66.229  1.00  0.00    -0.609 C  
HETATM    2  C   UNL     1      -9.849  19.988  67.507  1.00  0.00    -0.551 C  
ENDROOT
BRANCH   2   3
HETATM    3  C   UNL     1      -9.299  18.813  68.317  1.00  0.00    -0.374 C  
BRANCH   3   4
HETATM    4  C   UNL     1      -8.418  17.930  67.434  1.00  0.00    -0.236 C  
BRANCH   4   5
HETATM    5  C   UNL     1      -8.738  16.440  67.570  1.00  0.00    -0.188 C  
BRANCH   5   6
HETATM    6  C   UNL     1      -9.232  15.890  66.227  1.00  0.00    -0.372 C  
BRANCH   6   7
HETATM    7  C   UNL     1     -10.742  15.697  66.199  1.00  0.00    -0.305 C  
BRANCH   7   8
HETATM    8  C   UNL     1     -11.324  15.827  64.790  1.00  0.00    -0.314 C  
HETATM    9  O   UNL     1     -11.242  16.858  64.127  1.00  0.00    -1.176 OA 
BRANCH   8  10
HETATM   10  C   UNL     1     -11.986  14.569  64.264  1.00  0.00    -0.419 C  
BRANCH  10  11
HETATM   11  C   UNL     1     -12.736  13.686  65.272  1.00  0.00    -0.478 C  
BRANCH  11  12
HETATM   12  C   UNL     1     -12.117  12.264  65.326  1.00  0.00    -0.361 C  
HETATM   13  C   UNL     1     -11.317  11.948  64.052  1.00  0.00    -0.397 C  
HETATM   14  O   UNL     1     -12.144  11.562  62.967  1.00  0.00    -0.939 OA 
HETATM   15  C   UNL     1     -10.439  10.791  64.451  1.00  0.00    -0.344 C  
HETATM   16  H   UNL     1     -11.650  11.366  62.180  1.00  0.00     0.000 HD 
HETATM   17  C   UNL     1      -9.970  11.148  65.847  1.00  0.00    -0.239 C  
HETATM   18  O   UNL     1      -9.676   9.944  66.529  1.00  0.00    -0.182 OA 
HETATM   19  C   UNL     1     -11.096  12.015  66.484  1.00  0.00    -0.362 C  
HETATM   20  H   UNL     1      -9.382  10.167  67.405  1.00  0.00     0.000 HD 
BRANCH  19  21
HETATM   21  C   UNL     1     -11.762  11.415  67.738  1.00  0.00    -0.279 C  
BRANCH  21  22
HETATM   22  C   UNL     1     -11.676  12.286  68.966  1.00  0.00    -0.376 C  
HETATM   23  C   UNL     1     -11.994  11.983  70.233  1.00  0.00    -0.398 C  
BRANCH  23  24
HETATM   24  C   UNL     1     -12.574  10.693  70.730  1.00  0.00    -0.479 C  
BRANCH  24  25
HETATM   25  C   UNL     1     -11.504   9.736  71.263  1.00  0.00    -0.457 C  
BRANCH  25  26
HETATM   26  C   UNL     1     -12.075   8.609  72.126  1.00  0.00    -0.451 C  
HETATM   27  C   UNL     1     -12.060   7.287  71.390  1.00  0.00    -0.335 C  
HETATM   28  O   UNL     1     -11.655   7.111  70.257  1.00  0.00    -0.277 OA 
HETATM   29  O   UNL     1     -12.553   6.278  72.149  1.00  0.00    -0.257 OA 
ENDBRANCH  25  26
ENDBRANCH  24  25
ENDBRANCH  23  24
ENDBRANCH  21  22
ENDBRANCH  19  21
ENDBRANCH  11  12
ENDBRANCH  10  11
ENDBRANCH   8  10
ENDBRANCH   7   8
ENDBRANCH   6   7
ENDBRANCH   5   6
ENDBRANCH   4   5
ENDBRANCH   3   4
ENDBRANCH   2   3
TORSDOF 14
ENDMDL
MODEL       11
REMARK 921   NORMALIZED FREE ENERGY PREDICTED BY IDOCK:   -5.41 KCAL/MOL
REMARK 922        TOTAL FREE ENERGY PREDICTED BY IDOCK:  -12.79 KCAL/MOL
REMARK 923 INTER-LIGAND FREE ENERGY PREDICTED BY IDOCK:  -10.23 KCAL/MOL
REMARK 924 INTRA-LIGAND FREE ENERGY PREDICTED BY IDOCK:   -2.56 KCAL/MOL
REMARK 927      BINDING AFFINITY PREDICTED BY RF-SCORE:    0.00 PKD
ROOT
HETATM    1  C   UNL     1     -11.269  12.010  63.473  1.00  0.00    -0.526 C  
HETATM    2  C   UNL     1     -12.041  13.063  64.247  1.00  0.00    -0.480 C  
ENDROOT
BRANCH   2   3
HETATM    3  C   UNL     1     -11.112  14.086  64.905  1.00  0.00    -0.378 C  
BRANCH   3   4
HETATM    4  C   UNL     1     -10.670  13.589  66.281  1.00  0.00    -0.288 C  
BRANCH   4   5
HETATM    5  C   UNL     1     -11.831  13.064  67.127  1.00  0.00    -0.431 C  
BRANCH   5   6
HETATM    6  C   UNL     1     -11.455  11.709  67.739  1.00  0.00    -0.373 C  
BRANCH   6   7
HETATM    7  C   UNL     1     -10.429  10.959  66.901  1.00  0.00    -0.299 C  
BRANCH   7   8
HETATM    8  C   UNL     1      -9.442  10.162  67.758  1.00  0.00    -0.144 C  
HETATM    9  O   UNL     1      -8.801   9.209  67.323  1.00  0.00    -0.123 OA 
BRANCH   8  10
HETATM   10  C   UNL     1      -9.295  10.663  69.180  1.00  0.00    -0.174 C  
BRANCH  10  11
HETATM   11  C   UNL     1      -9.526   9.655  70.315  1.00  0.00    -0.300 C  
BRANCH  11  12
HETATM   12  C   UNL     1     -10.862   8.891  70.111  1.00  0.00    -0.251 C  
HETATM   13  C   UNL     1     -10.644   7.369  70.090  1.00  0.00    -0.230 C  
HETATM   14  O   UNL     1     -10.168   6.901  68.839  1.00  0.00    -0.165 OA 
HETATM   15  C   UNL     1     -12.014   6.801  70.351  1.00  0.00    -0.343 C  
HETATM   16  H   UNL     1     -10.034   5.961  68.825  1.00  0.00     0.000 HD 
HETATM   17  C   UNL     1     -12.587   7.701  71.428  1.00  0.00    -0.333 C  
HETATM   18  O   UNL     1     -13.997   7.667  71.319  1.00  0.00    -0.572 OA 
HETATM   19  C   UNL     1     -11.937   9.103  71.225  1.00  0.00    -0.394 C  
HETATM   20  H   UNL     1     -14.357   8.232  71.994  1.00  0.00     0.000 HD 
BRANCH  19  21
HETATM   21  C   UNL     1     -12.920  10.242  70.888  1.00  0.00    -0.456 C  
BRANCH  21  22
HETATM   22  C   UNL     1     -13.247  11.146  72.050  1.00  0.00    -0.428 C  
HETATM   23  C   UNL     1     -13.161  12.482  72.123  1.00  0.00    -0.428 C  
BRANCH  23  24
HETATM   24  C   UNL     1     -12.659  13.410  71.058  1.00  0.00    -0.425 C  
BRANCH  24  25
HETATM   25  C   UNL     1     -13.339  14.780  71.105  1.00  0.00    -0.460 C  
BRANCH  25  26
HETATM   26  C   UNL     1     -13.723  15.217  72.520  1.00  0.00    -0.627 C  
HETATM   27  C   UNL     1     -12.685  16.144  73.113  1.00  0.00    -0.478 C  
HETATM   28  O   UNL     1     -11.665  16.512  72.562  1.00  0.00    -0.506 OA 
HETATM   29  O   UNL     1     -13.019  16.548  74.363  1.00  0.00    -0.622 OA 
ENDBRANCH  25  26
ENDBRANCH  24  25
ENDBRANCH  23  24
ENDBRANCH  21  22
ENDBRANCH  19  21
ENDBRANCH  11  12
ENDBRANCH  10  11
ENDBRANCH   8  10
ENDBRANCH   7   8
ENDBRANCH   6   7
ENDBRANCH   5   6
ENDBRANCH   4   5
ENDBRANCH   3   4
ENDBRANCH   2   3
TORSDOF 14
ENDMDL
MODEL       12
REMARK 921   NORMALIZED FREE ENERGY PREDICTED BY IDOCK:   -5.33 KCAL/MOL
REMARK 922        TOTAL FREE ENERGY PREDICTED BY IDOCK:  -12.65 KCAL/MOL
REMARK 923 INTER-LIGAND FREE ENERGY PREDICTED BY IDOCK:  -11.15 KCAL/MOL
REMARK 924 INTRA-LIGAND FREE ENERGY PREDICTED BY IDOCK:   -1.49 KCAL/MOL
REMARK 927      BINDING AFFINITY PREDICTED BY RF-SCORE:    0.00 PKD
ROOT
HETATM    1  C   UNL     1     -12.651  15.577  72.750  1.00  0.00    -0.518 C  
HETATM    2  C   UNL     1     -13.625  14.486  72.340  1.00  0.00    -0.566 C  
ENDROOT
BRANCH   2   3
HETATM    3  C   UNL     1     -12.970  13.447  71.428  1.00  0.00    -0.412 C  
BRANCH   3   4
HETATM    4  C   UNL     1     -13.263  12.037  71.940  1.00  0.00    -0.469 C  
BRANCH   4   5
HETATM    5  C   UNL     1     -12.612  10.945  71.088  1.00  0.00    -0.532 C  
BRANCH   5   6
HETATM    6  C   UNL     1     -11.795  11.585  69.960  1.00  0.00    -0.435 C  
BRANCH   6   7
HETATM    7  C   UNL     1     -10.692  10.668  69.450  1.00  0.00    -0.281 C  
BRANCH   7   8
HETATM    8  C   UNL     1     -10.853  10.324  67.968  1.00  0.00    -0.275 C  
HETATM    9  O   UNL     1     -10.862   9.169  67.549  1.00  0.00    -0.242 OA 
BRANCH   8  10
HETATM   10  C   UNL     1     -11.031  11.523  67.059  1.00  0.00    -0.347 C  
BRANCH  10  11
HETATM   11  C   UNL     1      -9.903  11.832  66.062  1.00  0.00    -0.258 C  
BRANCH  11  12
HETATM   12  C   UNL     1     -10.404  12.777  64.938  1.00  0.00    -0.330 C  
HETATM   13  C   UNL     1     -11.576  12.155  64.160  1.00  0.00    -0.390 C  
HETATM   14  O   UNL     1     -11.152  11.207  63.195  1.00  0.00    -0.811 OA 
HETATM   15  C   UNL     1     -12.215  13.329  63.465  1.00  0.00    -0.513 C  
HETATM   16  H   UNL     1     -11.876  10.823  62.714  1.00  0.00     0.000 HD 
HETATM   17  C   UNL     1     -12.195  14.430  64.506  1.00  0.00    -0.463 C  
HETATM   18  O   UNL     1     -12.187  15.671  63.828  1.00  0.00    -1.014 OA 
HETATM   19  C   UNL     1     -10.957  14.159  65.413  1.00  0.00    -0.328 C  
HETATM   20  H   UNL     1     -12.174  16.362  64.480  1.00  0.00     0.000 HD 
BRANCH  19  21
HETATM   21  C   UNL     1      -9.879  15.261  65.403  1.00  0.00    -0.318 C  
BRANCH  21  22
HETATM   22  C   UNL     1      -9.261  15.538  66.751  1.00  0.00    -0.272 C  
HETATM   23  C   UNL     1      -8.268  16.385  67.058  1.00  0.00    -0.231 C  
BRANCH  23  24
HETATM   24  C   UNL     1      -7.484  17.236  66.106  1.00  0.00    -0.321 C  
BRANCH  24  25
HETATM   25  C   UNL     1      -7.874  18.714  66.183  1.00  0.00    -0.246 C  
BRANCH  25  26
HETATM   26  C   UNL     1      -8.938  19.005  67.244  1.00  0.00    -0.308 C  
HETATM   27  C   UNL     1     -10.313  19.140  66.626  1.00  0.00    -0.430 C  
HETATM   28  O   UNL     1     -10.571  19.038  65.442  1.00  0.00    -0.517 OA 
HETATM   29  O   UNL     1     -11.266  19.387  67.556  1.00  0.00    -0.325 OA 
ENDBRANCH  25  26
ENDBRANCH  24  25
ENDBRANCH  23  24
ENDBRANCH  21  22
ENDBRANCH  19  21
ENDBRANCH  11  12
ENDBRANCH  10  11
ENDBRANCH   8  10
ENDBRANCH   7   8
ENDBRANCH   6   7
ENDBRANCH   5   6
ENDBRANCH   4   5
ENDBRANCH   3   4
ENDBRANCH   2   3
TORSDOF 14
ENDMDL
MODEL       13
REMARK 921   NORMALIZED FREE ENERGY PREDICTED BY IDOCK:   -5.29 KCAL/MOL
REMARK 922        TOTAL FREE ENERGY PREDICTED BY IDOCK:  -12.57 KCAL/MOL
REMARK 923 INTER-LIGAND FREE ENERGY PREDICTED BY IDOCK:  -10.87 KCAL/MOL
REMARK 924 INTRA-LIGAND FREE ENERGY PREDICTED BY IDOCK:   -1.70 KCAL/MOL
REMARK 927      BINDING AFFINITY PREDICTED BY RF-SCORE:    0.00 PKD
ROOT
HETATM    1  C   UNL     1     -12.887   8.405  72.031  1.00  0.00    -0.389 C  
HETATM    2  C   UNL     1     -13.644   9.682  72.350  1.00  0.00    -0.397 C  
ENDROOT
BRANCH   2   3
HETATM    3  C   UNL     1     -13.032  10.900  71.655  1.00  0.00    -0.569 C  
BRANCH   3   4
HETATM    4  C   UNL     1     -12.544  10.518  70.258  1.00  0.00    -0.306 C  
BRANCH   4   5
HETATM    5  C   UNL     1     -11.019  10.443  70.157  1.00  0.00    -0.365 C  
BRANCH   5   6
HETATM    6  C   UNL     1     -10.611   9.173  69.402  1.00  0.00    -0.232 C  
BRANCH   6   7
HETATM    7  C   UNL     1      -9.370   9.382  68.546  1.00  0.00    -0.139 C  
BRANCH   7   8
HETATM    8  C   UNL     1      -9.708   9.680  67.084  1.00  0.00    -0.174 C  
HETATM    9  O   UNL     1      -9.898   8.797  66.251  1.00  0.00    -0.268 OA 
BRANCH   8  10
HETATM   10  C   UNL     1      -9.822  11.154  66.751  1.00  0.00    -0.230 C  
BRANCH  10  11
HETATM   11  C   UNL     1     -11.215  11.698  66.403  1.00  0.00    -0.349 C  
BRANCH  11  12
HETATM   12  C   UNL     1     -11.126  12.765  65.280  1.00  0.00    -0.320 C  
HETATM   13  C   UNL     1     -12.027  12.405  64.087  1.00  0.00    -0.435 C  
HETATM   14  O   UNL     1     -11.443  11.436  63.233  1.00  0.00    -0.812 OA 
HETATM   15  C   UNL     1     -12.181  13.705  63.342  1.00  0.00    -0.236 C  
HETATM   16  H   UNL     1     -11.999  11.214  62.495  1.00  0.00     0.000 HD 
HETATM   17  C   UNL     1     -12.358  14.738  64.436  1.00  0.00    -0.368 C  
HETATM   18  O   UNL     1     -11.912  15.984  63.935  1.00  0.00    -1.267 OA 
HETATM   19  C   UNL     1     -11.585  14.205  65.679  1.00  0.00    -0.339 C  
HETATM   20  H   UNL     1     -12.023  16.633  64.621  1.00  0.00     0.000 HD 
BRANCH  19  21
HETATM   21  C   UNL     1     -10.414  15.087  66.155  1.00  0.00    -0.313 C  
BRANCH  21  22
HETATM   22  C   UNL     1     -10.723  15.929  67.368  1.00  0.00    -0.313 C  
HETATM   23  C   UNL     1     -11.289  15.556  68.525  1.00  0.00    -0.356 C  
BRANCH  23  24
HETATM   24  C   UNL     1     -11.809  14.194  68.874  1.00  0.00    -0.382 C  
BRANCH  24  25
HETATM   25  C   UNL     1     -12.211  14.080  70.346  1.00  0.00    -0.433 C  
BRANCH  25  26
HETATM   26  C   UNL     1     -13.105  15.228  70.821  1.00  0.00    -0.468 C  
HETATM   27  C   UNL     1     -13.475  15.073  72.280  1.00  0.00    -0.419 C  
HETATM   28  O   UNL     1     -13.125  14.164  73.008  1.00  0.00    -0.522 OA 
HETATM   29  O   UNL     1     -14.257  16.090  72.716  1.00  0.00    -0.472 OA 
ENDBRANCH  25  26
ENDBRANCH  24  25
ENDBRANCH  23  24
ENDBRANCH  21  22
ENDBRANCH  19  21
ENDBRANCH  11  12
ENDBRANCH  10  11
ENDBRANCH   8  10
ENDBRANCH   7   8
ENDBRANCH   6   7
ENDBRANCH   5   6
ENDBRANCH   4   5
ENDBRANCH   3   4
ENDBRANCH   2   3
TORSDOF 14
ENDMDL
MODEL       14
REMARK 921   NORMALIZED FREE ENERGY PREDICTED BY IDOCK:   -5.25 KCAL/MOL
REMARK 922        TOTAL FREE ENERGY PREDICTED BY IDOCK:  -12.50 KCAL/MOL
REMARK 923 INTER-LIGAND FREE ENERGY PREDICTED BY IDOCK:  -10.82 KCAL/MOL
REMARK 924 INTRA-LIGAND FREE ENERGY PREDICTED BY IDOCK:   -1.68 KCAL/MOL
REMARK 927      BINDING AFFINITY PREDICTED BY RF-SCORE:    0.00 PKD
ROOT
HETATM    1  C   UNL     1     -11.389   6.203  70.901  1.00  0.00    -0.355 C  
HETATM    2  C   UNL     1     -10.505   6.998  71.846  1.00  0.00    -0.223 C  
ENDROOT
BRANCH   2   3
HETATM    3  C   UNL     1     -11.201   8.264  72.351  1.00  0.00    -0.451 C  
BRANCH   3   4
HETATM    4  C   UNL     1     -12.584   8.396  71.714  1.00  0.00    -0.378 C  
BRANCH   4   5
HETATM    5  C   UNL     1     -12.973   9.847  71.427  1.00  0.00    -0.504 C  
BRANCH   5   6
HETATM    6  C   UNL     1     -11.755  10.619  70.906  1.00  0.00    -0.387 C  
BRANCH   6   7
HETATM    7  C   UNL     1     -12.085  11.469  69.687  1.00  0.00    -0.363 C  
BRANCH   7   8
HETATM    8  C   UNL     1     -11.490  10.901  68.397  1.00  0.00    -0.304 C  
HETATM    9  O   UNL     1     -10.992   9.780  68.330  1.00  0.00    -0.229 OA 
BRANCH   8  10
HETATM   10  C   UNL     1     -11.592  11.822  67.198  1.00  0.00    -0.342 C  
BRANCH  10  11
HETATM   11  C   UNL     1     -10.693  11.516  65.990  1.00  0.00    -0.332 C  
BRANCH  11  12
HETATM   12  C   UNL     1     -10.857  12.601  64.892  1.00  0.00    -0.329 C  
HETATM   13  C   UNL     1     -12.020  12.270  63.941  1.00  0.00    -0.491 C  
HETATM   14  O   UNL     1     -11.668  11.309  62.960  1.00  0.00    -0.863 OA 
HETATM   15  C   UNL     1     -12.328  13.583  63.271  1.00  0.00    -0.150 C  
HETATM   16  H   UNL     1     -12.386  11.104  62.372  1.00  0.00     0.000 HD 
HETATM   17  C   UNL     1     -12.227  14.600  64.390  1.00  0.00    -0.452 C  
HETATM   18  O   UNL     1     -11.894  15.849  63.815  1.00  0.00    -1.221 OA 
HETATM   19  C   UNL     1     -11.189  14.038  65.407  1.00  0.00    -0.319 C  
HETATM   20  H   UNL     1     -11.831  16.487  64.516  1.00  0.00     0.000 HD 
BRANCH  19  21
HETATM   21  C   UNL     1      -9.926  14.900  65.605  1.00  0.00    -0.389 C  
BRANCH  21  22
HETATM   22  C   UNL     1      -9.118  14.549  66.828  1.00  0.00    -0.283 C  
HETATM   23  C   UNL     1      -9.404  14.783  68.117  1.00  0.00    -0.197 C  
BRANCH  23  24
HETATM   24  C   UNL     1     -10.597  15.512  68.656  1.00  0.00    -0.243 C  
BRANCH  24  25
HETATM   25  C   UNL     1     -10.357  17.018  68.782  1.00  0.00    -0.336 C  
BRANCH  25  26
HETATM   26  C   UNL     1     -10.598  17.782  67.478  1.00  0.00    -0.365 C  
HETATM   27  C   UNL     1     -10.367  19.266  67.656  1.00  0.00    -0.429 C  
HETATM   28  O   UNL     1     -10.035  19.814  68.690  1.00  0.00    -0.427 OA 
HETATM   29  O   UNL     1     -10.567  19.953  66.505  1.00  0.00    -0.460 OA 
ENDBRANCH  25  26
ENDBRANCH  24  25
ENDBRANCH  23  24
ENDBRANCH  21  22
ENDBRANCH  19  21
ENDBRANCH  11  12
ENDBRANCH  10  11
ENDBRANCH   8  10
ENDBRANCH   7   8
ENDBRANCH   6   7
ENDBRANCH   5   6
ENDBRANCH   4   5
ENDBRANCH   3   4
ENDBRANCH   2   3
TORSDOF 14
ENDMDL
MODEL       15
REMARK 921   NORMALIZED FREE ENERGY PREDICTED BY IDOCK:   -5.23 KCAL/MOL
REMARK 922        TOTAL FREE ENERGY PREDICTED BY IDOCK:  -12.47 KCAL/MOL
REMARK 923 INTER-LIGAND FREE ENERGY PREDICTED BY IDOCK:   -9.68 KCAL/MOL
REMARK 924 INTRA-LIGAND FREE ENERGY PREDICTED BY IDOCK:   -2.79 KCAL/MOL
REMARK 927      BINDING AFFINITY PREDICTED BY RF-SCORE:    0.00 PKD
ROOT
HETATM    1  C   UNL     1      -8.752  19.132  68.480  1.00  0.00    -0.401 C  
HETATM    2  C   UNL     1     -10.201  18.689  68.382  1.00  0.00    -0.415 C  
ENDROOT
BRANCH   2   3
HETATM    3  C   UNL     1     -10.624  18.430  66.934  1.00  0.00    -0.381 C  
BRANCH   3   4
HETATM    4  C   UNL     1     -10.199  17.026  66.504  1.00  0.00    -0.321 C  
BRANCH   4   5
HETATM    5  C   UNL     1     -10.767  16.622  65.142  1.00  0.00    -0.205 C  
BRANCH   5   6
HETATM    6  C   UNL     1     -10.774  15.094  65.016  1.00  0.00    -0.451 C  
BRANCH   6   7
HETATM    7  C   UNL     1     -12.111  14.560  64.520  1.00  0.00    -0.501 C  
BRANCH   7   8
HETATM    8  C   UNL     1     -12.003  13.140  63.958  1.00  0.00    -0.460 C  
HETATM    9  O   UNL     1     -12.961  12.539  63.480  1.00  0.00    -0.719 OA 
BRANCH   8  10
HETATM   10  C   UNL     1     -10.610  12.546  64.009  1.00  0.00    -0.451 C  
BRANCH  10  11
HETATM   11  C   UNL     1     -10.491  11.034  64.251  1.00  0.00    -0.427 C  
BRANCH  11  12
HETATM   12  C   UNL     1      -9.751  10.745  65.583  1.00  0.00    -0.287 C  
HETATM   13  C   UNL     1      -8.241  10.560  65.361  1.00  0.00    -0.152 C  
HETATM   14  O   UNL     1      -7.912   9.266  64.881  1.00  0.00    -0.111 OA 
HETATM   15  C   UNL     1      -7.644  10.755  66.730  1.00  0.00    -0.129 C  
HETATM   16  H   UNL     1      -6.979   9.152  64.743  1.00  0.00     0.000 HD 
HETATM   17  C   UNL     1      -8.420  11.920  67.308  1.00  0.00    -0.172 C  
HETATM   18  O   UNL     1      -8.394  11.806  68.718  1.00  0.00    -0.297 OA 
HETATM   19  C   UNL     1      -9.837  11.873  66.662  1.00  0.00    -0.219 C  
HETATM   20  H   UNL     1      -8.881  12.536  69.080  1.00  0.00     0.000 HD 
BRANCH  19  21
HETATM   21  C   UNL     1     -11.004  11.658  67.647  1.00  0.00    -0.294 C  
BRANCH  21  22
HETATM   22  C   UNL     1     -12.000  12.790  67.688  1.00  0.00    -0.331 C  
HETATM   23  C   UNL     1     -11.873  13.998  68.255  1.00  0.00    -0.406 C  
BRANCH  23  24
HETATM   24  C   UNL     1     -10.703  14.502  69.045  1.00  0.00    -0.258 C  
BRANCH  24  25
HETATM   25  C   UNL     1     -11.106  15.551  70.085  1.00  0.00    -0.337 C  
BRANCH  25  26
HETATM   26  C   UNL     1     -12.539  15.379  70.594  1.00  0.00    -0.491 C  
HETATM   27  C   UNL     1     -12.662  15.789  72.046  1.00  0.00    -0.449 C  
HETATM   28  O   UNL     1     -11.757  16.203  72.745  1.00  0.00    -0.466 OA 
HETATM   29  O   UNL     1     -13.929  15.652  72.506  1.00  0.00    -0.552 OA 
ENDBRANCH  25  26
ENDBRANCH  24  25
ENDBRANCH  23  24
ENDBRANCH  21  22
ENDBRANCH  19  21
ENDBRANCH  11  12
ENDBRANCH  10  11
ENDBRANCH   8  10
ENDBRANCH   7   8
ENDBRANCH   6   7
ENDBRANCH   5   6
ENDBRANCH   4   5
ENDBRANCH   3   4
ENDBRANCH   2   3
TORSDOF 14
ENDMDL
MODEL       16
REMARK 921   NORMALIZED FREE ENERGY PREDICTED BY IDOCK:   -5.23 KCAL/MOL
REMARK 922        TOTAL FREE ENERGY PREDICTED BY IDOCK:  -12.46 KCAL/MOL
REMARK 923 INTER-LIGAND FREE ENERGY PREDICTED BY IDOCK:  -10.48 KCAL/MOL
REMARK 924 INTRA-LIGAND FREE ENERGY PREDICTED BY IDOCK:   -1.98 KCAL/MOL
REMARK 927      BINDING AFFINITY PREDICTED BY RF-SCORE:    0.00 PKD
ROOT
HETATM    1  C   UNL     1     -12.486  15.362  74.246  1.00  0.00    -0.761 C  
HETATM    2  C   UNL     1     -12.725  16.057  72.918  1.00  0.00    -0.563 C  
ENDROOT
BRANCH   2   3
HETATM    3  C   UNL     1     -13.894  15.438  72.149  1.00  0.00    -0.636 C  
BRANCH   3   4
HETATM    4  C   UNL     1     -13.697  13.928  72.017  1.00  0.00    -0.577 C  
BRANCH   4   5
HETATM    5  C   UNL     1     -12.552  13.556  71.073  1.00  0.00    -0.438 C  
BRANCH   5   6
HETATM    6  C   UNL     1     -12.357  12.035  71.066  1.00  0.00    -0.340 C  
BRANCH   6   7
HETATM    7  C   UNL     1     -13.311  11.325  72.017  1.00  0.00    -0.386 C  
BRANCH   7   8
HETATM    8  C   UNL     1     -13.248   9.802  71.881  1.00  0.00    -0.449 C  
HETATM    9  O   UNL     1     -14.068   9.052  72.406  1.00  0.00    -0.469 OA 
BRANCH   8  10
HETATM   10  C   UNL     1     -12.111   9.292  71.019  1.00  0.00    -0.349 C  
BRANCH  10  11
HETATM   11  C   UNL     1     -10.925   8.624  71.732  1.00  0.00    -0.396 C  
BRANCH  11  12
HETATM   12  C   UNL     1     -10.259   7.563  70.816  1.00  0.00    -0.194 C  
HETATM   13  C   UNL     1     -10.938   6.191  70.955  1.00  0.00    -0.293 C  
HETATM   14  O   UNL     1     -10.514   5.483  72.108  1.00  0.00    -0.206 OA 
HETATM   15  C   UNL     1     -10.507   5.444  69.720  1.00  0.00    -0.378 C  
HETATM   16  H   UNL     1     -10.934   4.635  72.194  1.00  0.00     0.000 HD 
HETATM   17  C   UNL     1     -10.589   6.478  68.616  1.00  0.00    -0.245 C  
HETATM   18  O   UNL     1      -9.676   6.108  67.602  1.00  0.00    -0.114 OA 
HETATM   19  C   UNL     1     -10.319   7.860  69.283  1.00  0.00    -0.222 C  
HETATM   20  H   UNL     1      -9.727   6.756  66.910  1.00  0.00     0.000 HD 
BRANCH  19  21
HETATM   21  C   UNL     1      -9.067   8.603  68.776  1.00  0.00    -0.142 C  
BRANCH  21  22
HETATM   22  C   UNL     1      -9.121  10.101  68.943  1.00  0.00    -0.165 C  
HETATM   23  C   UNL     1     -10.004  10.970  68.430  1.00  0.00    -0.194 C  
BRANCH  23  24
HETATM   24  C   UNL     1     -11.141  10.656  67.506  1.00  0.00    -0.367 C  
BRANCH  24  25
HETATM   25  C   UNL     1     -11.098  11.484  66.220  1.00  0.00    -0.321 C  
BRANCH  25  26
HETATM   26  C   UNL     1     -11.791  12.842  66.351  1.00  0.00    -0.478 C  
HETATM   27  C   UNL     1     -12.723  13.102  65.187  1.00  0.00    -0.405 C  
HETATM   28  O   UNL     1     -12.916  12.349  64.251  1.00  0.00    -0.737 OA 
HETATM   29  O   UNL     1     -13.352  14.297  65.296  1.00  0.00    -0.660 OA 
ENDBRANCH  25  26
ENDBRANCH  24  25
ENDBRANCH  23  24
ENDBRANCH  21  22
ENDBRANCH  19  21
ENDBRANCH  11  12
ENDBRANCH  10  11
ENDBRANCH   8  10
ENDBRANCH   7   8
ENDBRANCH   6   7
ENDBRANCH   5   6
ENDBRANCH   4   5
ENDBRANCH   3   4
ENDBRANCH   2   3
TORSDOF 14
ENDMDL
MODEL       17
REMARK 921   NORMALIZED FREE ENERGY PREDICTED BY IDOCK:   -5.22 KCAL/MOL
REMARK 922        TOTAL FREE ENERGY PREDICTED BY IDOCK:  -12.44 KCAL/MOL
REMARK 923 INTER-LIGAND FREE ENERGY PREDICTED BY IDOCK:  -10.72 KCAL/MOL
REMARK 924 INTRA-LIGAND FREE ENERGY PREDICTED BY IDOCK:   -1.73 KCAL/MOL
REMARK 927      BINDING AFFINITY PREDICTED BY RF-SCORE:    0.00 PKD
ROOT
HETATM    1  C   UNL     1     -11.203   6.917  70.023  1.00  0.00    -0.347 C  
HETATM    2  C   UNL     1     -11.861   6.640  71.363  1.00  0.00    -0.388 C  
ENDROOT
BRANCH   2   3
HETATM    3  C   UNL     1     -11.879   7.880  72.260  1.00  0.00    -0.404 C  
BRANCH   3   4
HETATM    4  C   UNL     1     -13.091   8.750  71.931  1.00  0.00    -0.420 C  
BRANCH   4   5
HETATM    5  C   UNL     1     -12.766  10.245  71.914  1.00  0.00    -0.478 C  
BRANCH   5   6
HETATM    6  C   UNL     1     -11.692  10.530  70.858  1.00  0.00    -0.431 C  
BRANCH   6   7
HETATM    7  C   UNL     1     -12.280  11.079  69.566  1.00  0.00    -0.352 C  
BRANCH   7   8
HETATM    8  C   UNL     1     -11.669  12.425  69.168  1.00  0.00    -0.322 C  
HETATM    9  O   UNL     1     -12.085  13.498  69.597  1.00  0.00    -0.316 OA 
BRANCH   8  10
HETATM   10  C   UNL     1     -10.488  12.326  68.223  1.00  0.00    -0.236 C  
BRANCH  10  11
HETATM   11  C   UNL     1     -10.610  11.362  67.033  1.00  0.00    -0.286 C  
BRANCH  11  12
HETATM   12  C   UNL     1     -10.649  12.143  65.693  1.00  0.00    -0.297 C  
HETATM   13  C   UNL     1     -10.250  11.250  64.507  1.00  0.00    -0.314 C  
HETATM   14  O   UNL     1      -8.846  11.090  64.390  1.00  0.00    -0.342 OA 
HETATM   15  C   UNL     1     -10.775  11.986  63.303  1.00  0.00    -0.400 C  
HETATM   16  H   UNL     1      -8.599  10.538  63.657  1.00  0.00     0.000 HD 
HETATM   17  C   UNL     1     -12.133  12.492  63.743  1.00  0.00    -0.529 C  
HETATM   18  O   UNL     1     -12.435  13.647  62.985  1.00  0.00    -1.020 OA 
HETATM   19  C   UNL     1     -12.046  12.711  65.283  1.00  0.00    -0.519 C  
HETATM   20  H   UNL     1     -13.287  13.965  63.261  1.00  0.00     0.000 HD 
BRANCH  19  21
HETATM   21  C   UNL     1     -12.254  14.164  65.755  1.00  0.00    -0.458 C  
BRANCH  21  22
HETATM   22  C   UNL     1     -11.203  15.132  65.270  1.00  0.00    -0.359 C  
HETATM   23  C   UNL     1     -10.316  15.834  65.989  1.00  0.00    -0.356 C  
BRANCH  23  24
HETATM   24  C   UNL     1     -10.189  15.863  67.482  1.00  0.00    -0.269 C  
BRANCH  24  25
HETATM   25  C   UNL     1     -10.880  17.078  68.106  1.00  0.00    -0.338 C  
BRANCH  25  26
HETATM   26  C   UNL     1     -10.761  18.345  67.257  1.00  0.00    -0.389 C  
HETATM   27  C   UNL     1      -9.812  19.344  67.884  1.00  0.00    -0.361 C  
HETATM   28  O   UNL     1      -9.209  19.190  68.928  1.00  0.00    -0.361 OA 
HETATM   29  O   UNL     1      -9.689  20.467  67.135  1.00  0.00    -0.423 OA 
ENDBRANCH  25  26
ENDBRANCH  24  25
ENDBRANCH  23  24
ENDBRANCH  21  22
ENDBRANCH  19  21
ENDBRANCH  11  12
ENDBRANCH  10  11
ENDBRANCH   8  10
ENDBRANCH   7   8
ENDBRANCH   6   7
ENDBRANCH   5   6
ENDBRANCH   4   5
ENDBRANCH   3   4
ENDBRANCH   2   3
TORSDOF 14
ENDMDL
MODEL       18
REMARK 921   NORMALIZED FREE ENERGY PREDICTED BY IDOCK:   -5.21 KCAL/MOL
REMARK 922        TOTAL FREE ENERGY PREDICTED BY IDOCK:  -12.44 KCAL/MOL
REMARK 923 INTER-LIGAND FREE ENERGY PREDICTED BY IDOCK:   -9.66 KCAL/MOL
REMARK 924 INTRA-LIGAND FREE ENERGY PREDICTED BY IDOCK:   -2.77 KCAL/MOL
REMARK 927      BINDING AFFINITY PREDICTED BY RF-SCORE:    0.00 PKD
ROOT
HETATM    1  C   UNL     1     -13.672  15.601  72.864  1.00  0.00    -0.628 C  
HETATM    2  C   UNL     1     -12.246  15.236  72.494  1.00  0.00    -0.485 C  
ENDROOT
BRANCH   2   3
HETATM    3  C   UNL     1     -11.753  16.014  71.272  1.00  0.00    -0.516 C  
BRANCH   3   4
HETATM    4  C   UNL     1     -12.284  15.373  69.990  1.00  0.00    -0.392 C  
BRANCH   4   5
HETATM    5  C   UNL     1     -12.225  13.845  70.018  1.00  0.00    -0.408 C  
BRANCH   5   6
HETATM    6  C   UNL     1     -11.908  13.313  68.615  1.00  0.00    -0.380 C  
BRANCH   6   7
HETATM    7  C   UNL     1     -10.656  12.448  68.592  1.00  0.00    -0.243 C  
BRANCH   7   8
HETATM    8  C   UNL     1     -10.914  11.057  68.007  1.00  0.00    -0.258 C  
HETATM    9  O   UNL     1     -11.250  10.096  68.694  1.00  0.00    -0.230 OA 
BRANCH   8  10
HETATM   10  C   UNL     1     -10.752  10.968  66.503  1.00  0.00    -0.298 C  
BRANCH  10  11
HETATM   11  C   UNL     1      -9.684  11.857  65.849  1.00  0.00    -0.258 C  
BRANCH  11  12
HETATM   12  C   UNL     1     -10.314  12.767  64.761  1.00  0.00    -0.345 C  
HETATM   13  C   UNL     1     -11.461  12.055  64.026  1.00  0.00    -0.404 C  
HETATM   14  O   UNL     1     -10.999  11.158  63.029  1.00  0.00    -0.820 OA 
HETATM   15  C   UNL     1     -12.229  13.176  63.376  1.00  0.00    -0.521 C  
HETATM   16  H   UNL     1     -11.708  10.718  62.574  1.00  0.00     0.000 HD 
HETATM   17  C   UNL     1     -12.258  14.263  64.432  1.00  0.00    -0.447 C  
HETATM   18  O   UNL     1     -12.387  15.508  63.772  1.00  0.00    -0.976 OA 
HETATM   19  C   UNL     1     -10.963  14.090  65.281  1.00  0.00    -0.335 C  
HETATM   20  H   UNL     1     -12.405  16.190  64.434  1.00  0.00     0.000 HD 
BRANCH  19  21
HETATM   21  C   UNL     1      -9.986  15.282  65.241  1.00  0.00    -0.322 C  
BRANCH  21  22
HETATM   22  C   UNL     1     -10.334  16.404  66.186  1.00  0.00    -0.354 C  
HETATM   23  C   UNL     1      -9.940  16.584  67.455  1.00  0.00    -0.255 C  
BRANCH  23  24
HETATM   24  C   UNL     1      -9.081  15.664  68.269  1.00  0.00    -0.187 C  
BRANCH  24  25
HETATM   25  C   UNL     1      -7.623  15.659  67.806  1.00  0.00    -0.158 C  
BRANCH  25  26
HETATM   26  C   UNL     1      -7.091  14.259  67.494  1.00  0.00    -0.189 C  
HETATM   27  C   UNL     1      -6.311  13.692  68.659  1.00  0.00    -0.091 C  
HETATM   28  O   UNL     1      -6.113  14.252  69.721  1.00  0.00    -0.113 OA 
HETATM   29  O   UNL     1      -5.843  12.447  68.400  1.00  0.00    -0.053 OA 
ENDBRANCH  25  26
ENDBRANCH  24  25
ENDBRANCH  23  24
ENDBRANCH  21  22
ENDBRANCH  19  21
ENDBRANCH  11  12
ENDBRANCH  10  11
ENDBRANCH   8  10
ENDBRANCH   7   8
ENDBRANCH   6   7
ENDBRANCH   5   6
ENDBRANCH   4   5
ENDBRANCH   3   4
ENDBRANCH   2   3
TORSDOF 14
ENDMDL
MODEL       19
REMARK 921   NORMALIZED FREE ENERGY PREDICTED BY IDOCK:   -5.21 KCAL/MOL
REMARK 922        TOTAL FREE ENERGY PREDICTED BY IDOCK:  -12.42 KCAL/MOL
REMARK 923 INTER-LIGAND FREE ENERGY PREDICTED BY IDOCK:  -10.16 KCAL/MOL
REMARK 924 INTRA-LIGAND FREE ENERGY PREDICTED BY IDOCK:   -2.26 KCAL/MOL
REMARK 927      BINDING AFFINITY PREDICTED BY RF-SCORE:    0.00 PKD
ROOT
HETATM    1  C   UNL     1     -10.521   5.680  67.178  1.00  0.00    -0.334 C  
HETATM    2  C   UNL     1     -10.835   7.164  67.121  1.00  0.00    -0.403 C  
ENDROOT
BRANCH   2   3
HETATM    3  C   UNL     1      -9.593   8.000  66.806  1.00  0.00    -0.281 C  
BRANCH   3   4
HETATM    4  C   UNL     1      -9.995   9.437  66.475  1.00  0.00    -0.339 C  
BRANCH   4   5
HETATM    5  C   UNL     1      -9.620   9.849  65.051  1.00  0.00    -0.364 C  
BRANCH   5   6
HETATM    6  C   UNL     1      -9.879  11.348  64.858  1.00  0.00    -0.301 C  
BRANCH   6   7
HETATM    7  C   UNL     1     -10.950  11.621  63.811  1.00  0.00    -0.495 C  
BRANCH   7   8
HETATM    8  C   UNL     1     -12.227  12.207  64.417  1.00  0.00    -0.346 C  
HETATM    9  O   UNL     1     -13.274  12.320  63.784  1.00  0.00    -0.771 OA 
BRANCH   8  10
HETATM   10  C   UNL     1     -12.106  12.611  65.873  1.00  0.00    -0.459 C  
BRANCH  10  11
HETATM   11  C   UNL     1     -12.392  14.078  66.229  1.00  0.00    -0.482 C  
BRANCH  11  12
HETATM   12  C   UNL     1     -11.080  14.824  66.587  1.00  0.00    -0.333 C  
HETATM   13  C   UNL     1     -10.596  15.705  65.424  1.00  0.00    -0.415 C  
HETATM   14  O   UNL     1      -9.919  14.966  64.421  1.00  0.00    -0.350 OA 
HETATM   15  C   UNL     1      -9.637  16.670  66.071  1.00  0.00    -0.298 C  
HETATM   16  H   UNL     1      -9.620  15.511  63.702  1.00  0.00     0.000 HD 
HETATM   17  C   UNL     1     -10.312  17.041  67.376  1.00  0.00    -0.319 C  
HETATM   18  O   UNL     1      -9.306  17.417  68.297  1.00  0.00    -0.261 OA 
HETATM   19  C   UNL     1     -11.173  15.811  67.795  1.00  0.00    -0.286 C  
HETATM   20  H   UNL     1      -9.729  17.649  69.115  1.00  0.00     0.000 HD 
BRANCH  19  21
HETATM   21  C   UNL     1     -10.772  15.151  69.129  1.00  0.00    -0.253 C  
BRANCH  21  22
HETATM   22  C   UNL     1     -11.925  14.560  69.902  1.00  0.00    -0.382 C  
HETATM   23  C   UNL     1     -12.245  13.270  70.073  1.00  0.00    -0.345 C  
BRANCH  23  24
HETATM   24  C   UNL     1     -11.548  12.084  69.479  1.00  0.00    -0.389 C  
BRANCH  24  25
HETATM   25  C   UNL     1     -12.196  10.758  69.884  1.00  0.00    -0.384 C  
BRANCH  25  26
HETATM   26  C   UNL     1     -11.278   9.867  70.724  1.00  0.00    -0.427 C  
HETATM   27  C   UNL     1     -12.037   9.197  71.850  1.00  0.00    -0.378 C  
HETATM   28  O   UNL     1     -13.223   9.331  72.084  1.00  0.00    -0.397 OA 
HETATM   29  O   UNL     1     -11.238   8.396  72.594  1.00  0.00    -0.369 OA 
ENDBRANCH  25  26
ENDBRANCH  24  25
ENDBRANCH  23  24
ENDBRANCH  21  22
ENDBRANCH  19  21
ENDBRANCH  11  12
ENDBRANCH  10  11
ENDBRANCH   8  10
ENDBRANCH   7   8
ENDBRANCH   6   7
ENDBRANCH   5   6
ENDBRANCH   4   5
ENDBRANCH   3   4
ENDBRANCH   2   3
TORSDOF 14
ENDMDL
MODEL       20
REMARK 921   NORMALIZED FREE ENERGY PREDICTED BY IDOCK:   -5.20 KCAL/MOL
REMARK 922        TOTAL FREE ENERGY PREDICTED BY IDOCK:  -12.42 KCAL/MOL
REMARK 923 INTER-LIGAND FREE ENERGY PREDICTED BY IDOCK:  -10.72 KCAL/MOL
REMARK 924 INTRA-LIGAND FREE ENERGY PREDICTED BY IDOCK:   -1.70 KCAL/MOL
REMARK 927      BINDING AFFINITY PREDICTED BY RF-SCORE:    0.00 PKD
ROOT
HETATM    1  C   UNL     1     -11.296  15.834  64.512  1.00  0.00    -0.324 C  
HETATM    2  C   UNL     1     -12.382  14.773  64.488  1.00  0.00    -0.384 C  
ENDROOT
BRANCH   2   3
HETATM    3  C   UNL     1     -11.885  13.459  63.880  1.00  0.00    -0.492 C  
BRANCH   3   4
HETATM    4  C   UNL     1     -12.263  12.285  64.781  1.00  0.00    -0.438 C  
BRANCH   4   5
HETATM    5  C   UNL     1     -11.810  12.474  66.230  1.00  0.00    -0.453 C  
BRANCH   5   6
HETATM    6  C   UNL     1     -10.292  12.285  66.328  1.00  0.00    -0.257 C  
BRANCH   6   7
HETATM    7  C   UNL     1      -9.910  11.119  67.229  1.00  0.00    -0.198 C  
BRANCH   7   8
HETATM    8  C   UNL     1     -10.106   9.763  66.547  1.00  0.00    -0.239 C  
HETATM    9  O   UNL     1      -9.910   9.586  65.347  1.00  0.00    -0.302 OA 
BRANCH   8  10
HETATM   10  C   UNL     1     -10.532   8.645  67.478  1.00  0.00    -0.335 C  
BRANCH  10  11
HETATM   11  C   UNL     1     -10.068   8.724  68.940  1.00  0.00    -0.210 C  
BRANCH  11  12
HETATM   12  C   UNL     1     -11.211   8.309  69.904  1.00  0.00    -0.031 C  
HETATM   13  C   UNL     1     -10.964   6.916  70.505  1.00  0.00    -0.273 C  
HETATM   14  O   UNL     1     -11.312   5.866  69.618  1.00  0.00    -0.370 OA 
HETATM   15  C   UNL     1     -11.866   6.874  71.711  1.00  0.00    -0.354 C  
HETATM   16  H   UNL     1     -11.159   5.005  69.989  1.00  0.00     0.000 HD 
HETATM   17  C   UNL     1     -11.726   8.252  72.324  1.00  0.00    -0.388 C  
HETATM   18  O   UNL     1     -12.913   8.533  73.041  1.00  0.00    -0.719 OA 
HETATM   19  C   UNL     1     -11.410   9.228  71.152  1.00  0.00    -0.412 C  
HETATM   20  H   UNL     1     -12.826   9.398  73.426  1.00  0.00     0.000 HD 
BRANCH  19  21
HETATM   21  C   UNL     1     -12.461  10.331  70.911  1.00  0.00    -0.466 C  
BRANCH  21  22
HETATM   22  C   UNL     1     -11.914  11.582  70.269  1.00  0.00    -0.455 C  
HETATM   23  C   UNL     1     -12.231  12.860  70.522  1.00  0.00    -0.395 C  
BRANCH  23  24
HETATM   24  C   UNL     1     -13.266  13.356  71.486  1.00  0.00    -0.395 C  
BRANCH  24  25
HETATM   25  C   UNL     1     -13.576  14.843  71.300  1.00  0.00    -0.504 C  
BRANCH  25  26
HETATM   26  C   UNL     1     -13.834  15.578  72.617  1.00  0.00    -0.654 C  
HETATM   27  C   UNL     1     -12.551  15.802  73.386  1.00  0.00    -0.545 C  
HETATM   28  O   UNL     1     -11.441  15.453  73.031  1.00  0.00    -0.394 OA 
HETATM   29  O   UNL     1     -12.764  16.462  74.550  1.00  0.00    -0.732 OA 
ENDBRANCH  25  26
ENDBRANCH  24  25
ENDBRANCH  23  24
ENDBRANCH  21  22
ENDBRANCH  19  21
ENDBRANCH  11  12
ENDBRANCH  10  11
ENDBRANCH   8  10
ENDBRANCH   7   8
ENDBRANCH   6   7
ENDBRANCH   5   6
ENDBRANCH   4   5
ENDBRANCH   3   4
ENDBRANCH   2   3
TORSDOF 14
ENDMDL
MODEL       21
REMARK 921   NORMALIZED FREE ENERGY PREDICTED BY IDOCK:   -5.20 KCAL/MOL
REMARK 922        TOTAL FREE ENERGY PREDICTED BY IDOCK:  -12.41 KCAL/MOL
REMARK 923 INTER-LIGAND FREE ENERGY PREDICTED BY IDOCK:  -10.25 KCAL/MOL
REMARK 924 INTRA-LIGAND FREE ENERGY PREDICTED BY IDOCK:   -2.16 KCAL/MOL
REMARK 927      BINDING AFFINITY PREDICTED BY RF-SCORE:    0.00 PKD
ROOT
HETATM    1  C   UNL     1     -12.279  15.549  70.295  1.00  0.00    -0.432 C  
HETATM    2  C   UNL     1     -13.120  15.545  71.559  1.00  0.00    -0.573 C  
ENDROOT
BRANCH   2   3
HETATM    3  C   UNL     1     -14.039  14.324  71.632  1.00  0.00    -0.471 C  
BRANCH   3   4
HETATM    4  C   UNL     1     -13.481  13.303  72.623  1.00  0.00    -0.490 C  
BRANCH   4   5
HETATM    5  C   UNL     1     -13.176  11.950  71.978  1.00  0.00    -0.461 C  
BRANCH   5   6
HETATM    6  C   UNL     1     -12.213  12.142  70.800  1.00  0.00    -0.367 C  
BRANCH   6   7
HETATM    7  C   UNL     1     -12.080  10.886  69.950  1.00  0.00    -0.428 C  
BRANCH   7   8
HETATM    8  C   UNL     1     -11.311  11.136  68.651  1.00  0.00    -0.277 C  
HETATM    9  O   UNL     1     -10.796  10.233  67.996  1.00  0.00    -0.236 OA 
BRANCH   8  10
HETATM   10  C   UNL     1     -11.262  12.588  68.217  1.00  0.00    -0.309 C  
BRANCH  10  11
HETATM   11  C   UNL     1      -9.882  13.193  67.918  1.00  0.00    -0.231 C  
BRANCH  11  12
HETATM   12  C   UNL     1      -9.861  13.851  66.513  1.00  0.00    -0.296 C  
HETATM   13  C   UNL     1     -10.529  12.954  65.460  1.00  0.00    -0.289 C  
HETATM   14  O   UNL     1      -9.677  11.917  65.002  1.00  0.00    -0.325 OA 
HETATM   15  C   UNL     1     -10.834  13.892  64.321  1.00  0.00    -0.185 C  
HETATM   16  H   UNL     1     -10.090  11.362  64.351  1.00  0.00     0.000 HD 
HETATM   17  C   UNL     1     -11.331  15.150  65.004  1.00  0.00    -0.380 C  
HETATM   18  O   UNL     1     -11.070  16.244  64.146  1.00  0.00    -1.187 OA 
HETATM   19  C   UNL     1     -10.626  15.209  66.392  1.00  0.00    -0.305 C  
HETATM   20  H   UNL     1     -11.381  17.033  64.574  1.00  0.00     0.000 HD 
BRANCH  19  21
HETATM   21  C   UNL     1      -9.706  16.426  66.613  1.00  0.00    -0.272 C  
BRANCH  21  22
HETATM   22  C   UNL     1      -9.809  17.044  67.985  1.00  0.00    -0.275 C  
HETATM   23  C   UNL     1     -10.049  18.321  68.313  1.00  0.00    -0.406 C  
BRANCH  23  24
HETATM   24  C   UNL     1     -10.226  19.473  67.371  1.00  0.00    -0.550 C  
BRANCH  24  25
HETATM   25  C   UNL     1      -8.948  20.301  67.210  1.00  0.00    -0.472 C  
BRANCH  25  26
HETATM   26  C   UNL     1      -8.240  20.068  65.873  1.00  0.00    -0.206 C  
HETATM   27  C   UNL     1      -6.923  19.349  66.063  1.00  0.00    -0.264 C  
HETATM   28  O   UNL     1      -6.458  18.990  67.128  1.00  0.00    -0.188 OA 
HETATM   29  O   UNL     1      -6.291  19.127  64.885  1.00  0.00    -0.372 OA 
ENDBRANCH  25  26
ENDBRANCH  24  25
ENDBRANCH  23  24
ENDBRANCH  21  22
ENDBRANCH  19  21
ENDBRANCH  11  12
ENDBRANCH  10  11
ENDBRANCH   8  10
ENDBRANCH   7   8
ENDBRANCH   6   7
ENDBRANCH   5   6
ENDBRANCH   4   5
ENDBRANCH   3   4
ENDBRANCH   2   3
TORSDOF 14
ENDMDL
MODEL       22
REMARK 921   NORMALIZED FREE ENERGY PREDICTED BY IDOCK:   -5.18 KCAL/MOL
REMARK 922        TOTAL FREE ENERGY PREDICTED BY IDOCK:  -12.38 KCAL/MOL
REMARK 923 INTER-LIGAND FREE ENERGY PREDICTED BY IDOCK:  -10.04 KCAL/MOL
REMARK 924 INTRA-LIGAND FREE ENERGY PREDICTED BY IDOCK:   -2.34 KCAL/MOL
REMARK 927      BINDING AFFINITY PREDICTED BY RF-SCORE:    0.00 PKD
ROOT
HETATM    1  C   UNL     1     -12.530  11.210  70.944  1.00  0.00    -0.509 C  
HETATM    2  C   UNL     1     -12.889   9.926  71.670  1.00  0.00    -0.537 C  
ENDROOT
BRANCH   2   3
HETATM    3  C   UNL     1     -11.721   8.937  71.695  1.00  0.00    -0.411 C  
BRANCH   3   4
HETATM    4  C   UNL     1     -12.237   7.508  71.536  1.00  0.00    -0.359 C  
BRANCH   4   5
HETATM    5  C   UNL     1     -11.469   6.709  70.481  1.00  0.00    -0.432 C  
BRANCH   5   6
HETATM    6  C   UNL     1     -10.722   7.668  69.546  1.00  0.00    -0.211 C  
BRANCH   6   7
HETATM    7  C   UNL     1     -10.773   7.218  68.093  1.00  0.00    -0.191 C  
BRANCH   7   8
HETATM    8  C   UNL     1     -10.312   8.309  67.124  1.00  0.00    -0.317 C  
HETATM    9  O   UNL     1      -9.631   8.072  66.130  1.00  0.00    -0.179 OA 
BRANCH   8  10
HETATM   10  C   UNL     1     -10.789   9.704  67.473  1.00  0.00    -0.265 C  
BRANCH  10  11
HETATM   11  C   UNL     1      -9.782  10.855  67.333  1.00  0.00    -0.190 C  
BRANCH  11  12
HETATM   12  C   UNL     1     -10.327  11.953  66.382  1.00  0.00    -0.252 C  
HETATM   13  C   UNL     1     -10.349  11.475  64.921  1.00  0.00    -0.289 C  
HETATM   14  O   UNL     1      -9.075  11.550  64.301  1.00  0.00    -0.409 OA 
HETATM   15  C   UNL     1     -11.297  12.427  64.240  1.00  0.00    -0.420 C  
HETATM   16  H   UNL     1      -9.088  11.255  63.398  1.00  0.00     0.000 HD 
HETATM   17  C   UNL     1     -12.424  12.601  65.237  1.00  0.00    -0.416 C  
HETATM   18  O   UNL     1     -13.019  13.864  65.006  1.00  0.00    -0.731 OA 
HETATM   19  C   UNL     1     -11.798  12.410  66.651  1.00  0.00    -0.394 C  
HETATM   20  H   UNL     1     -13.726  13.974  65.632  1.00  0.00     0.000 HD 
BRANCH  19  21
HETATM   21  C   UNL     1     -11.874  13.639  67.578  1.00  0.00    -0.416 C  
BRANCH  21  22
HETATM   22  C   UNL     1     -10.670  13.823  68.468  1.00  0.00    -0.274 C  
HETATM   23  C   UNL     1      -9.881  14.899  68.599  1.00  0.00    -0.225 C  
BRANCH  23  24
HETATM   24  C   UNL     1      -9.981  16.185  67.835  1.00  0.00    -0.239 C  
BRANCH  24  25
HETATM   25  C   UNL     1      -9.277  16.117  66.478  1.00  0.00    -0.303 C  
BRANCH  25  26
HETATM   26  C   UNL     1     -10.187  15.629  65.348  1.00  0.00    -0.401 C  
HETATM   27  C   UNL     1     -11.008  16.762  64.771  1.00  0.00    -0.025 C  
HETATM   28  O   UNL     1     -10.974  17.921  65.138  1.00  0.00    -0.642 OA 
HETATM   29  O   UNL     1     -11.810  16.345  63.762  1.00  0.00    -1.002 OA 
ENDBRANCH  25  26
ENDBRANCH  24  25
ENDBRANCH  23  24
ENDBRANCH  21  22
ENDBRANCH  19  21
ENDBRANCH  11  12
ENDBRANCH  10  11
ENDBRANCH   8  10
ENDBRANCH   7   8
ENDBRANCH   6   7
ENDBRANCH   5   6
ENDBRANCH   4   5
ENDBRANCH   3   4
ENDBRANCH   2   3
TORSDOF 14
ENDMDL
MODEL       23
REMARK 921   NORMALIZED FREE ENERGY PREDICTED BY IDOCK:   -5.18 KCAL/MOL
REMARK 922        TOTAL FREE ENERGY PREDICTED BY IDOCK:  -12.37 KCAL/MOL
REMARK 923 INTER-LIGAND FREE ENERGY PREDICTED BY IDOCK:  -10.26 KCAL/MOL
REMARK 924 INTRA-LIGAND FREE ENERGY PREDICTED BY IDOCK:   -2.11 KCAL/MOL
REMARK 927      BINDING AFFINITY PREDICTED BY RF-SCORE:    0.00 PKD
ROOT
HETATM    1  C   UNL     1     -13.194  12.181  71.758  1.00  0.00    -0.423 C  
HETATM    2  C   UNL     1     -12.454  11.147  70.928  1.00  0.00    -0.509 C  
ENDROOT
BRANCH   2   3
HETATM    3  C   UNL     1     -13.032   9.743  71.114  1.00  0.00    -0.431 C  
BRANCH   3   4
HETATM    4  C   UNL     1     -11.908   8.707  71.128  1.00  0.00    -0.331 C  
BRANCH   4   5
HETATM    5  C   UNL     1     -10.534   9.322  71.400  1.00  0.00    -0.408 C  
BRANCH   5   6
HETATM    6  C   UNL     1      -9.501   8.734  70.430  1.00  0.00    -0.206 C  
BRANCH   6   7
HETATM    7  C   UNL     1      -8.715   9.812  69.698  1.00  0.00    -0.211 C  
BRANCH   7   8
HETATM    8  C   UNL     1      -9.179   9.997  68.251  1.00  0.00    -0.129 C  
HETATM    9  O   UNL     1      -8.855   9.234  67.345  1.00  0.00    -0.118 OA 
BRANCH   8  10
HETATM   10  C   UNL     1     -10.099  11.180  68.031  1.00  0.00    -0.191 C  
BRANCH  10  11
HETATM   11  C   UNL     1     -11.237  11.016  67.011  1.00  0.00    -0.255 C  
BRANCH  11  12
HETATM   12  C   UNL     1     -11.049  11.986  65.815  1.00  0.00    -0.371 C  
HETATM   13  C   UNL     1     -10.350  11.295  64.633  1.00  0.00    -0.315 C  
HETATM   14  O   UNL     1      -8.944  11.209  64.802  1.00  0.00    -0.339 OA 
HETATM   15  C   UNL     1     -10.661  12.182  63.456  1.00  0.00    -0.509 C  
HETATM   16  H   UNL     1      -8.512  10.782  64.071  1.00  0.00     0.000 HD 
HETATM   17  C   UNL     1     -12.113  12.564  63.656  1.00  0.00    -0.554 C  
HETATM   18  O   UNL     1     -12.330  13.807  63.016  1.00  0.00    -1.089 OA 
HETATM   19  C   UNL     1     -12.366  12.554  65.194  1.00  0.00    -0.496 C  
HETATM   20  H   UNL     1     -13.241  14.047  63.142  1.00  0.00     0.000 HD 
BRANCH  19  21
HETATM   21  C   UNL     1     -12.768  13.912  65.804  1.00  0.00    -0.503 C  
BRANCH  21  22
HETATM   22  C   UNL     1     -11.923  14.342  66.977  1.00  0.00    -0.463 C  
HETATM   23  C   UNL     1     -10.799  15.071  66.977  1.00  0.00    -0.311 C  
BRANCH  23  24
HETATM   24  C   UNL     1     -10.071  15.601  65.778  1.00  0.00    -0.394 C  
BRANCH  24  25
HETATM   25  C   UNL     1      -9.495  17.000  66.013  1.00  0.00    -0.195 C  
BRANCH  25  26
HETATM   26  C   UNL     1      -9.897  17.602  67.361  1.00  0.00    -0.305 C  
HETATM   27  C   UNL     1     -10.154  19.089  67.247  1.00  0.00    -0.364 C  
HETATM   28  O   UNL     1     -10.060  19.749  66.230  1.00  0.00    -0.420 OA 
HETATM   29  O   UNL     1     -10.522  19.633  68.432  1.00  0.00    -0.419 OA 
ENDBRANCH  25  26
ENDBRANCH  24  25
ENDBRANCH  23  24
ENDBRANCH  21  22
ENDBRANCH  19  21
ENDBRANCH  11  12
ENDBRANCH  10  11
ENDBRANCH   8  10
ENDBRANCH   7   8
ENDBRANCH   6   7
ENDBRANCH   5   6
ENDBRANCH   4   5
ENDBRANCH   3   4
ENDBRANCH   2   3
TORSDOF 14
ENDMDL
MODEL       24
REMARK 921   NORMALIZED FREE ENERGY PREDICTED BY IDOCK:   -5.16 KCAL/MOL
REMARK 922        TOTAL FREE ENERGY PREDICTED BY IDOCK:  -12.34 KCAL/MOL
REMARK 923 INTER-LIGAND FREE ENERGY PREDICTED BY IDOCK:  -10.00 KCAL/MOL
REMARK 924 INTRA-LIGAND FREE ENERGY PREDICTED BY IDOCK:   -2.34 KCAL/MOL
REMARK 927      BINDING AFFINITY PREDICTED BY RF-SCORE:    0.00 PKD
ROOT
HETATM    1  C   UNL     1      -9.491  10.615  64.147  1.00  0.00    -0.327 C  
HETATM    2  C   UNL     1     -10.709  11.076  64.927  1.00  0.00    -0.278 C  
ENDROOT
BRANCH   2   3
HETATM    3  C   UNL     1     -11.427  12.236  64.234  1.00  0.00    -0.429 C  
BRANCH   3   4
HETATM    4  C   UNL     1     -12.588  12.728  65.097  1.00  0.00    -0.513 C  
BRANCH   4   5
HETATM    5  C   UNL     1     -12.209  13.910  65.992  1.00  0.00    -0.495 C  
BRANCH   5   6
HETATM    6  C   UNL     1     -10.811  14.417  65.617  1.00  0.00    -0.320 C  
BRANCH   6   7
HETATM    7  C   UNL     1      -9.879  14.486  66.818  1.00  0.00    -0.271 C  
BRANCH   7   8
HETATM    8  C   UNL     1     -10.035  15.788  67.608  1.00  0.00    -0.239 C  
HETATM    9  O   UNL     1      -9.951  16.897  67.088  1.00  0.00    -0.261 OA 
BRANCH   8  10
HETATM   10  C   UNL     1     -10.332  15.598  69.082  1.00  0.00    -0.241 C  
BRANCH  10  11
HETATM   11  C   UNL     1     -11.804  15.647  69.521  1.00  0.00    -0.387 C  
BRANCH  11  12
HETATM   12  C   UNL     1     -12.006  14.883  70.857  1.00  0.00    -0.374 C  
HETATM   13  C   UNL     1     -12.702  15.761  71.909  1.00  0.00    -0.451 C  
HETATM   14  O   UNL     1     -11.813  16.665  72.544  1.00  0.00    -0.554 OA 
HETATM   15  C   UNL     1     -13.223  14.773  72.921  1.00  0.00    -0.597 C  
HETATM   16  H   UNL     1     -12.244  17.207  73.195  1.00  0.00     0.000 HD 
HETATM   17  C   UNL     1     -13.755  13.631  72.080  1.00  0.00    -0.555 C  
HETATM   18  O   UNL     1     -13.698  12.452  72.861  1.00  0.00    -0.558 OA 
HETATM   19  C   UNL     1     -12.904  13.607  70.775  1.00  0.00    -0.273 C  
HETATM   20  H   UNL     1     -14.032  11.735  72.334  1.00  0.00     0.000 HD 
BRANCH  19  21
HETATM   21  C   UNL     1     -12.084  12.321  70.546  1.00  0.00    -0.371 C  
BRANCH  21  22
HETATM   22  C   UNL     1     -11.810  12.008  69.097  1.00  0.00    -0.369 C  
HETATM   23  C   UNL     1     -10.968  11.101  68.581  1.00  0.00    -0.268 C  
BRANCH  23  24
HETATM   24  C   UNL     1     -10.042  10.199  69.339  1.00  0.00    -0.250 C  
BRANCH  24  25
HETATM   25  C   UNL     1     -10.523   8.746  69.357  1.00  0.00    -0.228 C  
BRANCH  25  26
HETATM   26  C   UNL     1     -11.162   8.335  70.686  1.00  0.00    -0.270 C  
HETATM   27  C   UNL     1     -11.701   6.923  70.626  1.00  0.00    -0.367 C  
HETATM   28  O   UNL     1     -11.651   6.184  69.661  1.00  0.00    -0.407 OA 
HETATM   29  O   UNL     1     -12.260   6.543  71.801  1.00  0.00    -0.344 OA 
ENDBRANCH  25  26
ENDBRANCH  24  25
ENDBRANCH  23  24
ENDBRANCH  21  22
ENDBRANCH  19  21
ENDBRANCH  11  12
ENDBRANCH  10  11
ENDBRANCH   8  10
ENDBRANCH   7   8
ENDBRANCH   6   7
ENDBRANCH   5   6
ENDBRANCH   4   5
ENDBRANCH   3   4
ENDBRANCH   2   3
TORSDOF 14
ENDMDL
MODEL       25
REMARK 921   NORMALIZED FREE ENERGY PREDICTED BY IDOCK:   -5.15 KCAL/MOL
REMARK 922        TOTAL FREE ENERGY PREDICTED BY IDOCK:  -12.33 KCAL/MOL
REMARK 923 INTER-LIGAND FREE ENERGY PREDICTED BY IDOCK:   -9.88 KCAL/MOL
REMARK 924 INTRA-LIGAND FREE ENERGY PREDICTED BY IDOCK:   -2.44 KCAL/MOL
REMARK 927      BINDING AFFINITY PREDICTED BY RF-SCORE:    0.00 PKD
ROOT
HETATM    1  C   UNL     1     -12.181  15.588  70.130  1.00  0.00    -0.404 C  
HETATM    2  C   UNL     1     -13.126  15.698  71.313  1.00  0.00    -0.542 C  
ENDROOT
BRANCH   2   3
HETATM    3  C   UNL     1     -14.042  14.478  71.430  1.00  0.00    -0.428 C  
BRANCH   3   4
HETATM    4  C   UNL     1     -13.466  13.480  72.434  1.00  0.00    -0.685 C  
BRANCH   4   5
HETATM    5  C   UNL     1     -13.277  12.082  71.843  1.00  0.00    -0.469 C  
BRANCH   5   6
HETATM    6  C   UNL     1     -12.302  12.143  70.662  1.00  0.00    -0.385 C  
BRANCH   6   7
HETATM    7  C   UNL     1     -12.360  10.893  69.797  1.00  0.00    -0.326 C  
BRANCH   7   8
HETATM    8  C   UNL     1     -11.654  11.077  68.451  1.00  0.00    -0.302 C  
HETATM    9  O   UNL     1     -11.219  10.135  67.793  1.00  0.00    -0.289 OA 
BRANCH   8  10
HETATM   10  C   UNL     1     -11.560  12.514  67.980  1.00  0.00    -0.395 C  
BRANCH  10  11
HETATM   11  C   UNL     1     -10.246  12.960  67.320  1.00  0.00    -0.234 C  
BRANCH  11  12
HETATM   12  C   UNL     1     -10.505  13.500  65.889  1.00  0.00    -0.292 C  
HETATM   13  C   UNL     1     -11.437  12.571  65.095  1.00  0.00    -0.328 C  
HETATM   14  O   UNL     1     -10.763  11.442  64.563  1.00  0.00    -0.312 OA 
HETATM   15  C   UNL     1     -11.938  13.434  63.967  1.00  0.00    -0.520 C  
HETATM   16  H   UNL     1     -11.340  10.868  64.073  1.00  0.00     0.000 HD 
HETATM   17  C   UNL     1     -12.204  14.776  64.619  1.00  0.00    -0.393 C  
HETATM   18  O   UNL     1     -12.083  15.776  63.626  1.00  0.00    -1.126 OA 
HETATM   19  C   UNL     1     -11.205  14.895  65.809  1.00  0.00    -0.334 C  
HETATM   20  H   UNL     1     -12.249  16.617  64.035  1.00  0.00     0.000 HD 
BRANCH  19  21
HETATM   21  C   UNL     1     -10.196  16.057  65.709  1.00  0.00    -0.401 C  
BRANCH  21  22
HETATM   22  C   UNL     1     -10.500  17.225  66.614  1.00  0.00    -0.257 C  
HETATM   23  C   UNL     1      -9.694  18.232  66.980  1.00  0.00    -0.305 C  
BRANCH  23  24
HETATM   24  C   UNL     1      -8.253  18.412  66.610  1.00  0.00    -0.283 C  
BRANCH  24  25
HETATM   25  C   UNL     1      -7.302  17.787  67.633  1.00  0.00    -0.207 C  
BRANCH  25  26
HETATM   26  C   UNL     1      -6.823  16.388  67.239  1.00  0.00    -0.222 C  
HETATM   27  C   UNL     1      -7.418  15.326  68.139  1.00  0.00    -0.112 C  
HETATM   28  O   UNL     1      -8.181  15.527  69.065  1.00  0.00    -0.188 OA 
HETATM   29  O   UNL     1      -7.011  14.081  67.794  1.00  0.00    -0.146 OA 
ENDBRANCH  25  26
ENDBRANCH  24  25
ENDBRANCH  23  24
ENDBRANCH  21  22
ENDBRANCH  19  21
ENDBRANCH  11  12
ENDBRANCH  10  11
ENDBRANCH   8  10
ENDBRANCH   7   8
ENDBRANCH   6   7
ENDBRANCH   5   6
ENDBRANCH   4   5
ENDBRANCH   3   4
ENDBRANCH   2   3
TORSDOF 14
ENDMDL
MODEL       26
REMARK 921   NORMALIZED FREE ENERGY PREDICTED BY IDOCK:   -5.13 KCAL/MOL
REMARK 922        TOTAL FREE ENERGY PREDICTED BY IDOCK:  -12.28 KCAL/MOL
REMARK 923 INTER-LIGAND FREE ENERGY PREDICTED BY IDOCK:  -10.44 KCAL/MOL
REMARK 924 INTRA-LIGAND FREE ENERGY PREDICTED BY IDOCK:   -1.84 KCAL/MOL
REMARK 927      BINDING AFFINITY PREDICTED BY RF-SCORE:    0.00 PKD
ROOT
HETATM    1  C   UNL     1     -13.786  13.960  72.359  1.00  0.00    -0.668 C  
HETATM    2  C   UNL     1     -13.103  14.929  73.306  1.00  0.00    -0.585 C  
ENDROOT
BRANCH   2   3
HETATM    3  C   UNL     1     -12.123  15.850  72.575  1.00  0.00    -0.611 C  
BRANCH   3   4
HETATM    4  C   UNL     1     -12.437  15.873  71.080  1.00  0.00    -0.417 C  
BRANCH   4   5
HETATM    5  C   UNL     1     -11.196  16.090  70.213  1.00  0.00    -0.397 C  
BRANCH   5   6
HETATM    6  C   UNL     1     -11.232  15.143  69.008  1.00  0.00    -0.282 C  
BRANCH   6   7
HETATM    7  C   UNL     1     -11.423  13.690  69.419  1.00  0.00    -0.343 C  
BRANCH   7   8
HETATM    8  C   UNL     1     -11.775  12.786  68.235  1.00  0.00    -0.344 C  
HETATM    9  O   UNL     1     -12.128  11.618  68.370  1.00  0.00    -0.522 OA 
BRANCH   8  10
HETATM   10  C   UNL     1     -11.681  13.458  66.880  1.00  0.00    -0.434 C  
BRANCH  10  11
HETATM   11  C   UNL     1     -10.376  13.283  66.089  1.00  0.00    -0.290 C  
BRANCH  11  12
HETATM   12  C   UNL     1     -10.440  12.019  65.191  1.00  0.00    -0.328 C  
HETATM   13  C   UNL     1     -10.288  12.375  63.704  1.00  0.00    -0.403 C  
HETATM   14  O   UNL     1     -11.491  12.861  63.131  1.00  0.00    -0.772 OA 
HETATM   15  C   UNL     1      -9.913  11.069  63.052  1.00  0.00    -0.333 C  
HETATM   16  H   UNL     1     -11.397  13.081  62.211  1.00  0.00     0.000 HD 
HETATM   17  C   UNL     1      -8.932  10.443  64.022  1.00  0.00    -0.228 C  
HETATM   18  O   UNL     1      -8.986   9.039  63.851  1.00  0.00    -0.429 OA 
HETATM   19  C   UNL     1      -9.322  10.955  65.441  1.00  0.00    -0.240 C  
HETATM   20  H   UNL     1      -8.371   8.646  64.459  1.00  0.00     0.000 HD 
BRANCH  19  21
HETATM   21  C   UNL     1      -9.758   9.864  66.439  1.00  0.00    -0.270 C  
BRANCH  21  22
HETATM   22  C   UNL     1      -8.833   9.696  67.619  1.00  0.00    -0.127 C  
HETATM   23  C   UNL     1      -9.133   9.326  68.872  1.00  0.00    -0.139 C  
BRANCH  23  24
HETATM   24  C   UNL     1     -10.497   9.036  69.422  1.00  0.00    -0.229 C  
BRANCH  24  25
HETATM   25  C   UNL     1     -10.701   9.621  70.822  1.00  0.00    -0.401 C  
BRANCH  25  26
HETATM   26  C   UNL     1     -11.692   8.824  71.673  1.00  0.00    -0.402 C  
HETATM   27  C   UNL     1     -12.996   9.572  71.851  1.00  0.00    -0.425 C  
HETATM   28  O   UNL     1     -13.252  10.668  71.391  1.00  0.00    -0.375 OA 
HETATM   29  O   UNL     1     -13.886   8.871  72.593  1.00  0.00    -0.445 OA 
ENDBRANCH  25  26
ENDBRANCH  24  25
ENDBRANCH  23  24
ENDBRANCH  21  22
ENDBRANCH  19  21
ENDBRANCH  11  12
ENDBRANCH  10  11
ENDBRANCH   8  10
ENDBRANCH   7   8
ENDBRANCH   6   7
ENDBRANCH   5   6
ENDBRANCH   4   5
ENDBRANCH   3   4
ENDBRANCH   2   3
TORSDOF 14
ENDMDL
MODEL       27
REMARK 921   NORMALIZED FREE ENERGY PREDICTED BY IDOCK:   -5.10 KCAL/MOL
REMARK 922        TOTAL FREE ENERGY PREDICTED BY IDOCK:  -12.23 KCAL/MOL
REMARK 923 INTER-LIGAND FREE ENERGY PREDICTED BY IDOCK:   -9.80 KCAL/MOL
REMARK 924 INTRA-LIGAND FREE ENERGY PREDICTED BY IDOCK:   -2.43 KCAL/MOL
REMARK 927      BINDING AFFINITY PREDICTED BY RF-SCORE:    0.00 PKD
ROOT
HETATM    1  C   UNL     1     -12.973  10.629  71.584  1.00  0.00    -0.582 C  
HETATM    2  C   UNL     1     -11.744   9.995  70.957  1.00  0.00    -0.479 C  
ENDROOT
BRANCH   2   3
HETATM    3  C   UNL     1     -11.286  10.749  69.706  1.00  0.00    -0.372 C  
BRANCH   3   4
HETATM    4  C   UNL     1     -10.774   9.764  68.655  1.00  0.00    -0.247 C  
BRANCH   4   5
HETATM    5  C   UNL     1     -10.599  10.401  67.275  1.00  0.00    -0.322 C  
BRANCH   5   6
HETATM    6  C   UNL     1     -11.604  11.545  67.100  1.00  0.00    -0.249 C  
BRANCH   6   7
HETATM    7  C   UNL     1     -11.611  12.098  65.682  1.00  0.00    -0.409 C  
BRANCH   7   8
HETATM    8  C   UNL     1     -12.278  13.473  65.592  1.00  0.00    -0.458 C  
HETATM    9  O   UNL     1     -13.009  13.798  64.660  1.00  0.00    -0.656 OA 
BRANCH   8  10
HETATM   10  C   UNL     1     -11.989  14.392  66.761  1.00  0.00    -0.423 C  
BRANCH  10  11
HETATM   11  C   UNL     1     -10.640  15.127  66.770  1.00  0.00    -0.298 C  
BRANCH  11  12
HETATM   12  C   UNL     1      -9.699  14.541  67.856  1.00  0.00    -0.218 C  
HETATM   13  C   UNL     1      -8.325  14.174  67.275  1.00  0.00    -0.196 C  
HETATM   14  O   UNL     1      -8.332  12.932  66.591  1.00  0.00    -0.415 OA 
HETATM   15  C   UNL     1      -7.431  14.077  68.483  1.00  0.00    -0.124 C  
HETATM   16  H   UNL     1      -7.483  12.705  66.231  1.00  0.00     0.000 HD 
HETATM   17  C   UNL     1      -7.856  15.245  69.350  1.00  0.00    -0.227 C  
HETATM   18  O   UNL     1      -7.557  14.921  70.695  1.00  0.00     0.050 OA 
HETATM   19  C   UNL     1      -9.363  15.498  69.045  1.00  0.00    -0.235 C  
HETATM   20  H   UNL     1      -7.824  15.653  71.239  1.00  0.00     0.000 HD 
BRANCH  19  21
HETATM   21  C   UNL     1     -10.318  15.312  70.241  1.00  0.00    -0.162 C  
BRANCH  21  22
HETATM   22  C   UNL     1     -11.659  15.981  70.077  1.00  0.00    -0.316 C  
HETATM   23  C   UNL     1     -12.876  15.503  70.373  1.00  0.00    -0.327 C  
BRANCH  23  24
HETATM   24  C   UNL     1     -13.202  14.139  70.901  1.00  0.00    -0.288 C  
BRANCH  24  25
HETATM   25  C   UNL     1     -13.982  14.191  72.217  1.00  0.00    -0.646 C  
BRANCH  25  26
HETATM   26  C   UNL     1     -13.897  15.548  72.919  1.00  0.00    -0.536 C  
HETATM   27  C   UNL     1     -12.712  15.612  73.858  1.00  0.00    -0.600 C  
HETATM   28  O   UNL     1     -11.913  14.716  74.053  1.00  0.00    -0.373 OA 
HETATM   29  O   UNL     1     -12.619  16.813  74.477  1.00  0.00    -0.693 OA 
ENDBRANCH  25  26
ENDBRANCH  24  25
ENDBRANCH  23  24
ENDBRANCH  21  22
ENDBRANCH  19  21
ENDBRANCH  11  12
ENDBRANCH  10  11
ENDBRANCH   8  10
ENDBRANCH   7   8
ENDBRANCH   6   7
ENDBRANCH   5   6
ENDBRANCH   4   5
ENDBRANCH   3   4
ENDBRANCH   2   3
TORSDOF 14
ENDMDL
MODEL       28
REMARK 921   NORMALIZED FREE ENERGY PREDICTED BY IDOCK:   -5.09 KCAL/MOL
REMARK 922        TOTAL FREE ENERGY PREDICTED BY IDOCK:  -12.22 KCAL/MOL
REMARK 923 INTER-LIGAND FREE ENERGY PREDICTED BY IDOCK:  -10.40 KCAL/MOL
REMARK 924 INTRA-LIGAND FREE ENERGY PREDICTED BY IDOCK:   -1.82 KCAL/MOL
REMARK 927      BINDING AFFINITY PREDICTED BY RF-SCORE:    0.00 PKD
ROOT
HETATM    1  C   UNL     1      -7.435  19.772  67.532  1.00  0.00    -0.306 C  
HETATM    2  C   UNL     1      -8.584  19.704  66.542  1.00  0.00    -0.387 C  
ENDROOT
BRANCH   2   3
HETATM    3  C   UNL     1      -9.921  20.065  67.192  1.00  0.00    -0.580 C  
BRANCH   3   4
HETATM    4  C   UNL     1     -10.234  19.095  68.330  1.00  0.00    -0.473 C  
BRANCH   4   5
HETATM    5  C   UNL     1     -10.460  17.661  67.847  1.00  0.00    -0.392 C  
BRANCH   5   6
HETATM    6  C   UNL     1     -10.653  16.732  69.052  1.00  0.00    -0.343 C  
BRANCH   6   7
HETATM    7  C   UNL     1     -11.895  15.862  68.920  1.00  0.00    -0.314 C  
BRANCH   7   8
HETATM    8  C   UNL     1     -11.653  14.420  69.371  1.00  0.00    -0.304 C  
HETATM    9  O   UNL     1     -11.417  14.118  70.538  1.00  0.00    -0.191 OA 
BRANCH   8  10
HETATM   10  C   UNL     1     -11.758  13.388  68.266  1.00  0.00    -0.391 C  
BRANCH  10  11
HETATM   11  C   UNL     1     -10.715  13.446  67.139  1.00  0.00    -0.268 C  
BRANCH  11  12
HETATM   12  C   UNL     1     -11.226  12.703  65.876  1.00  0.00    -0.350 C  
HETATM   13  C   UNL     1     -11.874  13.673  64.875  1.00  0.00    -0.375 C  
HETATM   14  O   UNL     1     -13.203  14.018  65.227  1.00  0.00    -0.782 OA 
HETATM   15  C   UNL     1     -11.881  12.907  63.578  1.00  0.00    -0.605 C  
HETATM   16  H   UNL     1     -13.603  14.618  64.608  1.00  0.00     0.000 HD 
HETATM   17  C   UNL     1     -10.533  12.215  63.551  1.00  0.00    -0.454 C  
HETATM   18  O   UNL     1     -10.655  11.051  62.756  1.00  0.00    -0.772 OA 
HETATM   19  C   UNL     1     -10.132  11.968  65.036  1.00  0.00    -0.293 C  
HETATM   20  H   UNL     1      -9.810  10.617  62.740  1.00  0.00     0.000 HD 
BRANCH  19  21
HETATM   21  C   UNL     1      -9.975  10.488  65.439  1.00  0.00    -0.353 C  
BRANCH  21  22
HETATM   22  C   UNL     1      -9.046  10.255  66.604  1.00  0.00    -0.163 C  
HETATM   23  C   UNL     1      -9.354  10.049  67.893  1.00  0.00    -0.151 C  
BRANCH  23  24
HETATM   24  C   UNL     1     -10.724  10.053  68.502  1.00  0.00    -0.264 C  
BRANCH  24  25
HETATM   25  C   UNL     1     -10.705  10.436  69.984  1.00  0.00    -0.321 C  
BRANCH  25  26
HETATM   26  C   UNL     1     -12.032  10.161  70.696  1.00  0.00    -0.423 C  
HETATM   27  C   UNL     1     -11.848   9.212  71.860  1.00  0.00    -0.369 C  
HETATM   28  O   UNL     1     -10.795   8.712  72.208  1.00  0.00    -0.354 OA 
HETATM   29  O   UNL     1     -13.014   8.969  72.507  1.00  0.00    -0.418 OA 
ENDBRANCH  25  26
ENDBRANCH  24  25
ENDBRANCH  23  24
ENDBRANCH  21  22
ENDBRANCH  19  21
ENDBRANCH  11  12
ENDBRANCH  10  11
ENDBRANCH   8  10
ENDBRANCH   7   8
ENDBRANCH   6   7
ENDBRANCH   5   6
ENDBRANCH   4   5
ENDBRANCH   3   4
ENDBRANCH   2   3
TORSDOF 14
ENDMDL
MODEL       29
REMARK 921   NORMALIZED FREE ENERGY PREDICTED BY IDOCK:   -5.09 KCAL/MOL
REMARK 922        TOTAL FREE ENERGY PREDICTED BY IDOCK:  -12.21 KCAL/MOL
REMARK 923 INTER-LIGAND FREE ENERGY PREDICTED BY IDOCK:  -10.02 KCAL/MOL
REMARK 924 INTRA-LIGAND FREE ENERGY PREDICTED BY IDOCK:   -2.19 KCAL/MOL
REMARK 927      BINDING AFFINITY PREDICTED BY RF-SCORE:    0.00 PKD
ROOT
HETATM    1  C   UNL     1     -10.428  19.610  65.818  1.00  0.00    -0.540 C  
HETATM    2  C   UNL     1     -10.632  19.622  67.322  1.00  0.00    -0.598 C  
ENDROOT
BRANCH   2   3
HETATM    3  C   UNL     1     -10.091  18.352  67.983  1.00  0.00    -0.392 C  
BRANCH   3   4
HETATM    4  C   UNL     1      -9.390  17.476  66.946  1.00  0.00    -0.275 C  
BRANCH   4   5
HETATM    5  C   UNL     1      -8.596  16.328  67.573  1.00  0.00    -0.189 C  
BRANCH   5   6
HETATM    6  C   UNL     1      -9.187  15.975  68.943  1.00  0.00    -0.233 C  
BRANCH   6   7
HETATM    7  C   UNL     1      -9.970  14.669  68.917  1.00  0.00    -0.228 C  
BRANCH   7   8
HETATM    8  C   UNL     1     -11.475  14.890  68.753  1.00  0.00    -0.307 C  
HETATM    9  O   UNL     1     -12.114  15.674  69.450  1.00  0.00    -0.356 OA 
BRANCH   8  10
HETATM   10  C   UNL     1     -12.112  14.086  67.638  1.00  0.00    -0.344 C  
BRANCH  10  11
HETATM   11  C   UNL     1     -11.564  14.285  66.216  1.00  0.00    -0.379 C  
BRANCH  11  12
HETATM   12  C   UNL     1     -11.591  12.952  65.423  1.00  0.00    -0.386 C  
HETATM   13  C   UNL     1     -11.359  13.184  63.921  1.00  0.00    -0.374 C  
HETATM   14  O   UNL     1     -12.528  13.624  63.248  1.00  0.00    -0.992 OA 
HETATM   15  C   UNL     1     -10.960  11.828  63.400  1.00  0.00    -0.458 C  
HETATM   16  H   UNL     1     -12.385  13.768  62.320  1.00  0.00     0.000 HD 
HETATM   17  C   UNL     1     -10.034  11.281  64.467  1.00  0.00    -0.284 C  
HETATM   18  O   UNL     1     -10.088   9.869  64.409  1.00  0.00    -0.427 OA 
HETATM   19  C   UNL     1     -10.494  11.910  65.817  1.00  0.00    -0.295 C  
HETATM   20  H   UNL     1      -9.508   9.525  65.079  1.00  0.00     0.000 HD 
BRANCH  19  21
HETATM   21  C   UNL     1     -10.988  10.906  66.877  1.00  0.00    -0.286 C  
BRANCH  21  22
HETATM   22  C   UNL     1     -10.289  11.013  68.209  1.00  0.00    -0.197 C  
HETATM   23  C   UNL     1     -10.819  10.972  69.440  1.00  0.00    -0.278 C  
BRANCH  23  24
HETATM   24  C   UNL     1     -12.272  10.857  69.789  1.00  0.00    -0.381 C  
BRANCH  24  25
HETATM   25  C   UNL     1     -12.508  10.783  71.300  1.00  0.00    -0.504 C  
BRANCH  25  26
HETATM   26  C   UNL     1     -12.931   9.392  71.779  1.00  0.00    -0.484 C  
HETATM   27  C   UNL     1     -11.734   8.559  72.184  1.00  0.00    -0.378 C  
HETATM   28  O   UNL     1     -10.573   8.919  72.143  1.00  0.00    -0.340 OA 
HETATM   29  O   UNL     1     -12.096   7.329  72.621  1.00  0.00    -0.110 OA 
ENDBRANCH  25  26
ENDBRANCH  24  25
ENDBRANCH  23  24
ENDBRANCH  21  22
ENDBRANCH  19  21
ENDBRANCH  11  12
ENDBRANCH  10  11
ENDBRANCH   8  10
ENDBRANCH   7   8
ENDBRANCH   6   7
ENDBRANCH   5   6
ENDBRANCH   4   5
ENDBRANCH   3   4
ENDBRANCH   2   3
TORSDOF 14
ENDMDL
MODEL       30
REMARK 921   NORMALIZED FREE ENERGY PREDICTED BY IDOCK:   -5.07 KCAL/MOL
REMARK 922        TOTAL FREE ENERGY PREDICTED BY IDOCK:  -12.18 KCAL/MOL
REMARK 923 INTER-LIGAND FREE ENERGY PREDICTED BY IDOCK:  -10.03 KCAL/MOL
REMARK 924 INTRA-LIGAND FREE ENERGY PREDICTED BY IDOCK:   -2.15 KCAL/MOL
REMARK 927      BINDING AFFINITY PREDICTED BY RF-SCORE:    0.00 PKD
ROOT
HETATM    1  C   UNL     1     -10.533   7.777  66.803  1.00  0.00    -0.318 C  
HETATM    2  C   UNL     1      -9.054   8.113  66.872  1.00  0.00    -0.185 C  
ENDROOT
BRANCH   2   3
HETATM    3  C   UNL     1      -8.464   8.387  65.487  1.00  0.00    -0.184 C  
BRANCH   3   4
HETATM    4  C   UNL     1      -8.336   9.892  65.257  1.00  0.00    -0.153 C  
BRANCH   4   5
HETATM    5  C   UNL     1      -9.128  10.381  64.043  1.00  0.00    -0.271 C  
BRANCH   5   6
HETATM    6  C   UNL     1     -10.387  11.123  64.509  1.00  0.00    -0.400 C  
BRANCH   6   7
HETATM    7  C   UNL     1     -11.265  11.560  63.345  1.00  0.00    -0.342 C  
BRANCH   7   8
HETATM    8  C   UNL     1     -12.152  12.757  63.698  1.00  0.00    -0.543 C  
HETATM    9  O   UNL     1     -12.470  13.614  62.878  1.00  0.00    -0.610 OA 
BRANCH   8  10
HETATM   10  C   UNL     1     -12.634  12.782  65.134  1.00  0.00    -0.513 C  
BRANCH  10  11
HETATM   11  C   UNL     1     -12.554  14.119  65.886  1.00  0.00    -0.447 C  
BRANCH  11  12
HETATM   12  C   UNL     1     -11.097  14.653  65.909  1.00  0.00    -0.338 C  
HETATM   13  C   UNL     1     -11.019  16.101  65.397  1.00  0.00    -0.227 C  
HETATM   14  O   UNL     1     -11.043  16.184  63.982  1.00  0.00    -1.137 OA 
HETATM   15  C   UNL     1      -9.691  16.597  65.907  1.00  0.00    -0.269 C  
HETATM   16  H   UNL     1     -10.995  17.079  63.666  1.00  0.00     0.000 HD 
HETATM   17  C   UNL     1      -9.607  16.041  67.315  1.00  0.00    -0.225 C  
HETATM   18  O   UNL     1      -8.239  15.911  67.651  1.00  0.00    -0.143 OA 
HETATM   19  C   UNL     1     -10.422  14.713  67.317  1.00  0.00    -0.266 C  
HETATM   20  H   UNL     1      -8.185  15.562  68.533  1.00  0.00     0.000 HD 
BRANCH  19  21
HETATM   21  C   UNL     1      -9.611  13.442  67.637  1.00  0.00    -0.219 C  
BRANCH  21  22
HETATM   22  C   UNL     1     -10.424  12.316  68.224  1.00  0.00    -0.236 C  
HETATM   23  C   UNL     1     -11.439  12.383  69.098  1.00  0.00    -0.358 C  
BRANCH  23  24
HETATM   24  C   UNL     1     -11.983  13.616  69.752  1.00  0.00    -0.404 C  
BRANCH  24  25
HETATM   25  C   UNL     1     -12.457  13.361  71.184  1.00  0.00    -0.414 C  
BRANCH  25  26
HETATM   26  C   UNL     1     -13.483  14.384  71.675  1.00  0.00    -0.451 C  
HETATM   27  C   UNL     1     -12.946  15.193  72.835  1.00  0.00    -0.462 C  
HETATM   28  O   UNL     1     -11.846  15.069  73.337  1.00  0.00    -0.352 OA 
HETATM   29  O   UNL     1     -13.842  16.111  73.272  1.00  0.00    -0.559 OA 
ENDBRANCH  25  26
ENDBRANCH  24  25
ENDBRANCH  23  24
ENDBRANCH  21  22
ENDBRANCH  19  21
ENDBRANCH  11  12
ENDBRANCH  10  11
ENDBRANCH   8  10
ENDBRANCH   7   8
ENDBRANCH   6   7
ENDBRANCH   5   6
ENDBRANCH   4   5
ENDBRANCH   3   4
ENDBRANCH   2   3
TORSDOF 14
ENDMDL
MODEL       31
REMARK 921   NORMALIZED FREE ENERGY PREDICTED BY IDOCK:   -5.07 KCAL/MOL
REMARK 922        TOTAL FREE ENERGY PREDICTED BY IDOCK:  -12.17 KCAL/MOL
REMARK 923 INTER-LIGAND FREE ENERGY PREDICTED BY IDOCK:   -9.98 KCAL/MOL
REMARK 924 INTRA-LIGAND FREE ENERGY PREDICTED BY IDOCK:   -2.19 KCAL/MOL
REMARK 927      BINDING AFFINITY PREDICTED BY RF-SCORE:    0.00 PKD
ROOT
HETATM    1  C   UNL     1     -14.143   7.575  71.543  1.00  0.00    -0.550 C  
HETATM    2  C   UNL     1     -12.639   7.403  71.660  1.00  0.00    -0.391 C  
ENDROOT
BRANCH   2   3
HETATM    3  C   UNL     1     -11.924   7.704  70.341  1.00  0.00     0.059 C  
BRANCH   3   4
HETATM    4  C   UNL     1     -11.078   8.970  70.477  1.00  0.00    -0.297 C  
BRANCH   4   5
HETATM    5  C   UNL     1     -11.601   9.924  71.552  1.00  0.00    -0.375 C  
BRANCH   5   6
HETATM    6  C   UNL     1     -12.333  11.099  70.892  1.00  0.00    -0.500 C  
BRANCH   6   7
HETATM    7  C   UNL     1     -13.396  11.702  71.799  1.00  0.00    -0.340 C  
BRANCH   7   8
HETATM    8  C   UNL     1     -13.276  13.224  71.912  1.00  0.00    -0.431 C  
HETATM    9  O   UNL     1     -13.501  13.834  72.954  1.00  0.00    -0.652 OA 
BRANCH   8  10
HETATM   10  C   UNL     1     -12.827  13.916  70.641  1.00  0.00    -0.291 C  
BRANCH  10  11
HETATM   11  C   UNL     1     -11.422  14.538  70.629  1.00  0.00    -0.216 C  
BRANCH  11  12
HETATM   12  C   UNL     1     -10.988  14.891  69.182  1.00  0.00    -0.266 C  
HETATM   13  C   UNL     1     -10.018  16.083  69.159  1.00  0.00    -0.246 C  
HETATM   14  O   UNL     1     -10.680  17.332  69.281  1.00  0.00    -0.353 OA 
HETATM   15  C   UNL     1      -9.361  15.993  67.807  1.00  0.00    -0.211 C  
HETATM   16  H   UNL     1     -10.081  18.068  69.267  1.00  0.00     0.000 HD 
HETATM   17  C   UNL     1      -9.107  14.511  67.619  1.00  0.00    -0.195 C  
HETATM   18  O   UNL     1      -9.076  14.247  66.229  1.00  0.00    -0.464 OA 
HETATM   19  C   UNL     1     -10.222  13.767  68.413  1.00  0.00    -0.248 C  
HETATM   20  H   UNL     1      -8.918  13.318  66.111  1.00  0.00     0.000 HD 
BRANCH  19  21
HETATM   21  C   UNL     1     -11.161  12.888  67.563  1.00  0.00    -0.329 C  
BRANCH  21  22
HETATM   22  C   UNL     1     -10.813  11.420  67.567  1.00  0.00    -0.291 C  
HETATM   23  C   UNL     1     -10.151  10.714  66.638  1.00  0.00    -0.270 C  
BRANCH  23  24
HETATM   24  C   UNL     1      -9.636  11.218  65.324  1.00  0.00    -0.265 C  
BRANCH  24  25
HETATM   25  C   UNL     1     -10.730  11.301  64.258  1.00  0.00    -0.416 C  
BRANCH  25  26
HETATM   26  C   UNL     1     -10.964  12.723  63.740  1.00  0.00    -0.445 C  
HETATM   27  C   UNL     1     -12.309  13.257  64.183  1.00  0.00    -0.341 C  
HETATM   28  O   UNL     1     -13.122  12.659  64.861  1.00  0.00    -0.850 OA 
HETATM   29  O   UNL     1     -12.524  14.520  63.740  1.00  0.00    -0.809 OA 
ENDBRANCH  25  26
ENDBRANCH  24  25
ENDBRANCH  23  24
ENDBRANCH  21  22
ENDBRANCH  19  21
ENDBRANCH  11  12
ENDBRANCH  10  11
ENDBRANCH   8  10
ENDBRANCH   7   8
ENDBRANCH   6   7
ENDBRANCH   5   6
ENDBRANCH   4   5
ENDBRANCH   3   4
ENDBRANCH   2   3
TORSDOF 14
ENDMDL
MODEL       32
REMARK 921   NORMALIZED FREE ENERGY PREDICTED BY IDOCK:   -5.07 KCAL/MOL
REMARK 922        TOTAL FREE ENERGY PREDICTED BY IDOCK:  -12.17 KCAL/MOL
REMARK 923 INTER-LIGAND FREE ENERGY PREDICTED BY IDOCK:   -9.26 KCAL/MOL
REMARK 924 INTRA-LIGAND FREE ENERGY PREDICTED BY IDOCK:   -2.91 KCAL/MOL
REMARK 927      BINDING AFFINITY PREDICTED BY RF-SCORE:    0.00 PKD
ROOT
HETATM    1  C   UNL     1      -9.594  11.618  62.970  1.00  0.00    -0.311 C  
HETATM    2  C   UNL     1     -10.989  11.269  63.457  1.00  0.00    -0.329 C  
ENDROOT
BRANCH   2   3
HETATM    3  C   UNL     1     -11.943  12.462  63.365  1.00  0.00    -0.595 C  
BRANCH   3   4
HETATM    4  C   UNL     1     -12.849  12.509  64.594  1.00  0.00    -0.325 C  
BRANCH   4   5
HETATM    5  C   UNL     1     -12.744  13.827  65.364  1.00  0.00    -0.513 C  
BRANCH   5   6
HETATM    6  C   UNL     1     -11.920  14.836  64.555  1.00  0.00    -0.451 C  
BRANCH   6   7
HETATM    7  C   UNL     1     -10.542  15.073  65.157  1.00  0.00    -0.440 C  
BRANCH   7   8
HETATM    8  C   UNL     1     -10.438  16.423  65.870  1.00  0.00    -0.337 C  
HETATM    9  O   UNL     1     -10.572  17.496  65.287  1.00  0.00    -0.664 OA 
BRANCH   8  10
HETATM   10  C   UNL     1     -10.186  16.331  67.361  1.00  0.00    -0.275 C  
BRANCH  10  11
HETATM   11  C   UNL     1     -11.411  16.319  68.288  1.00  0.00    -0.207 C  
BRANCH  11  12
HETATM   12  C   UNL     1     -11.257  15.239  69.392  1.00  0.00    -0.291 C  
HETATM   13  C   UNL     1     -12.295  15.423  70.510  1.00  0.00    -0.408 C  
HETATM   14  O   UNL     1     -11.934  16.437  71.433  1.00  0.00    -0.638 OA 
HETATM   15  C   UNL     1     -12.316  14.090  71.212  1.00  0.00    -0.436 C  
HETATM   16  H   UNL     1     -12.575  16.551  72.124  1.00  0.00     0.000 HD 
HETATM   17  C   UNL     1     -12.248  13.079  70.085  1.00  0.00    -0.272 C  
HETATM   18  O   UNL     1     -11.664  11.896  70.594  1.00  0.00    -0.478 OA 
HETATM   19  C   UNL     1     -11.463  13.762  68.924  1.00  0.00    -0.344 C  
HETATM   20  H   UNL     1     -11.621  11.262  69.888  1.00  0.00     0.000 HD 
BRANCH  19  21
HETATM   21  C   UNL     1     -10.139  13.077  68.532  1.00  0.00    -0.195 C  
BRANCH  21  22
HETATM   22  C   UNL     1     -10.178  12.363  67.204  1.00  0.00    -0.226 C  
HETATM   23  C   UNL     1     -10.540  11.099  66.942  1.00  0.00    -0.304 C  
BRANCH  23  24
HETATM   24  C   UNL     1     -10.951  10.057  67.938  1.00  0.00    -0.311 C  
BRANCH  24  25
HETATM   25  C   UNL     1      -9.860   9.011  68.179  1.00  0.00    -0.191 C  
BRANCH  25  26
HETATM   26  C   UNL     1      -9.209   9.121  69.560  1.00  0.00    -0.160 C  
HETATM   27  C   UNL     1      -7.925   9.919  69.504  1.00  0.00    -0.148 C  
HETATM   28  O   UNL     1      -7.444  10.420  68.505  1.00  0.00    -0.083 OA 
HETATM   29  O   UNL     1      -7.345  10.033  70.723  1.00  0.00    -0.323 OA 
ENDBRANCH  25  26
ENDBRANCH  24  25
ENDBRANCH  23  24
ENDBRANCH  21  22
ENDBRANCH  19  21
ENDBRANCH  11  12
ENDBRANCH  10  11
ENDBRANCH   8  10
ENDBRANCH   7   8
ENDBRANCH   6   7
ENDBRANCH   5   6
ENDBRANCH   4   5
ENDBRANCH   3   4
ENDBRANCH   2   3
TORSDOF 14
ENDMDL
MODEL       33
REMARK 921   NORMALIZED FREE ENERGY PREDICTED BY IDOCK:   -5.05 KCAL/MOL
REMARK 922        TOTAL FREE ENERGY PREDICTED BY IDOCK:  -12.15 KCAL/MOL
REMARK 923 INTER-LIGAND FREE ENERGY PREDICTED BY IDOCK:   -9.61 KCAL/MOL
REMARK 924 INTRA-LIGAND FREE ENERGY PREDICTED BY IDOCK:   -2.54 KCAL/MOL
REMARK 927      BINDING AFFINITY PREDICTED BY RF-SCORE:    0.00 PKD
ROOT
HETATM    1  C   UNL     1     -10.447  19.647  65.862  1.00  0.00    -0.591 C  
HETATM    2  C   UNL     1     -10.696  19.587  67.358  1.00  0.00    -0.589 C  
ENDROOT
BRANCH   2   3
HETATM    3  C   UNL     1      -9.389  19.545  68.154  1.00  0.00    -0.422 C  
BRANCH   3   4
HETATM    4  C   UNL     1      -8.235  20.069  67.301  1.00  0.00    -0.368 C  
BRANCH   4   5
HETATM    5  C   UNL     1      -6.981  19.197  67.392  1.00  0.00    -0.223 C  
BRANCH   5   6
HETATM    6  C   UNL     1      -6.927  18.239  66.196  1.00  0.00    -0.301 C  
BRANCH   6   7
HETATM    7  C   UNL     1      -6.458  16.846  66.590  1.00  0.00    -0.235 C  
BRANCH   7   8
HETATM    8  C   UNL     1      -7.616  15.929  66.991  1.00  0.00    -0.229 C  
HETATM    9  O   UNL     1      -7.587  15.217  67.991  1.00  0.00    -0.107 OA 
BRANCH   8  10
HETATM   10  C   UNL     1      -8.818  15.992  66.070  1.00  0.00    -0.314 C  
BRANCH  10  11
HETATM   11  C   UNL     1     -10.186  16.276  66.707  1.00  0.00    -0.280 C  
BRANCH  11  12
HETATM   12  C   UNL     1     -11.305  15.471  65.993  1.00  0.00    -0.018 C  
HETATM   13  C   UNL     1     -11.104  15.456  64.469  1.00  0.00    -0.256 C  
HETATM   14  O   UNL     1     -11.547  16.651  63.846  1.00  0.00    -1.582 OA 
HETATM   15  C   UNL     1     -11.951  14.302  64.001  1.00  0.00    -0.328 C  
HETATM   16  H   UNL     1     -11.424  16.642  62.904  1.00  0.00     0.000 HD 
HETATM   17  C   UNL     1     -11.711  13.224  65.038  1.00  0.00    -0.333 C  
HETATM   18  O   UNL     1     -12.847  12.381  65.063  1.00  0.00    -0.673 OA 
HETATM   19  C   UNL     1     -11.397  13.959  66.376  1.00  0.00    -0.335 C  
HETATM   20  H   UNL     1     -12.696  11.705  65.714  1.00  0.00     0.000 HD 
BRANCH  19  21
HETATM   21  C   UNL     1     -12.398  13.700  67.520  1.00  0.00    -0.103 C  
BRANCH  21  22
HETATM   22  C   UNL     1     -11.855  13.986  68.898  1.00  0.00    -0.390 C  
HETATM   23  C   UNL     1     -11.670  13.136  69.918  1.00  0.00    -0.327 C  
BRANCH  23  24
HETATM   24  C   UNL     1     -12.014  11.678  69.948  1.00  0.00    -0.414 C  
BRANCH  24  25
HETATM   25  C   UNL     1     -10.828  10.788  69.569  1.00  0.00    -0.288 C  
BRANCH  25  26
HETATM   26  C   UNL     1     -11.033  10.035  68.252  1.00  0.00    -0.278 C  
HETATM   27  C   UNL     1     -10.099  10.543  67.174  1.00  0.00    -0.209 C  
HETATM   28  O   UNL     1      -9.282  11.433  67.306  1.00  0.00    -0.162 OA 
HETATM   29  O   UNL     1     -10.263   9.877  66.006  1.00  0.00    -0.254 OA 
ENDBRANCH  25  26
ENDBRANCH  24  25
ENDBRANCH  23  24
ENDBRANCH  21  22
ENDBRANCH  19  21
ENDBRANCH  11  12
ENDBRANCH  10  11
ENDBRANCH   8  10
ENDBRANCH   7   8
ENDBRANCH   6   7
ENDBRANCH   5   6
ENDBRANCH   4   5
ENDBRANCH   3   4
ENDBRANCH   2   3
TORSDOF 14
ENDMDL
MODEL       34
REMARK 921   NORMALIZED FREE ENERGY PREDICTED BY IDOCK:   -5.05 KCAL/MOL
REMARK 922        TOTAL FREE ENERGY PREDICTED BY IDOCK:  -12.14 KCAL/MOL
REMARK 923 INTER-LIGAND FREE ENERGY PREDICTED BY IDOCK:   -9.88 KCAL/MOL
REMARK 924 INTRA-LIGAND FREE ENERGY PREDICTED BY IDOCK:   -2.26 KCAL/MOL
REMARK 927      BINDING AFFINITY PREDICTED BY RF-SCORE:    0.00 PKD
ROOT
HETATM    1  C   UNL     1     -11.714  15.946  69.947  1.00  0.00    -0.327 C  
HETATM    2  C   UNL     1     -11.446  15.951  71.441  1.00  0.00    -0.484 C  
ENDROOT
BRANCH   2   3
HETATM    3  C   UNL     1     -12.737  16.077  72.254  1.00  0.00    -0.477 C  
BRANCH   3   4
HETATM    4  C   UNL     1     -13.049  14.756  72.956  1.00  0.00    -0.614 C  
BRANCH   4   5
HETATM    5  C   UNL     1     -14.033  13.883  72.176  1.00  0.00    -0.639 C  
BRANCH   5   6
HETATM    6  C   UNL     1     -13.716  12.402  72.414  1.00  0.00    -0.192 C  
BRANCH   6   7
HETATM    7  C   UNL     1     -12.710  11.857  71.410  1.00  0.00    -0.395 C  
BRANCH   7   8
HETATM    8  C   UNL     1     -12.667  10.327  71.395  1.00  0.00    -0.442 C  
HETATM    9  O   UNL     1     -13.233   9.636  72.238  1.00  0.00    -0.433 OA 
BRANCH   8  10
HETATM   10  C   UNL     1     -11.894   9.730  70.236  1.00  0.00    -0.208 C  
BRANCH  10  11
HETATM   11  C   UNL     1     -10.382   9.533  70.418  1.00  0.00    -0.334 C  
BRANCH  11  12
HETATM   12  C   UNL     1      -9.743   8.947  69.131  1.00  0.00    -0.168 C  
HETATM   13  C   UNL     1      -9.951   7.427  69.040  1.00  0.00    -0.176 C  
HETATM   14  O   UNL     1      -9.036   6.699  69.842  1.00  0.00    -0.143 OA 
HETATM   15  C   UNL     1      -9.707   7.111  67.587  1.00  0.00    -0.172 C  
HETATM   16  H   UNL     1      -9.164   5.759  69.786  1.00  0.00     0.000 HD 
HETATM   17  C   UNL     1     -10.383   8.246  66.845  1.00  0.00    -0.320 C  
HETATM   18  O   UNL     1      -9.735   8.399  65.597  1.00  0.00    -0.437 OA 
HETATM   19  C   UNL     1     -10.321   9.488  67.784  1.00  0.00    -0.291 C  
HETATM   20  H   UNL     1     -10.159   9.110  65.131  1.00  0.00     0.000 HD 
BRANCH  19  21
HETATM   21  C   UNL     1      -9.521  10.688  67.237  1.00  0.00    -0.178 C  
BRANCH  21  22
HETATM   22  C   UNL     1      -9.452  11.868  68.174  1.00  0.00    -0.195 C  
HETATM   23  C   UNL     1     -10.416  12.744  68.491  1.00  0.00    -0.252 C  
BRANCH  23  24
HETATM   24  C   UNL     1     -11.808  12.789  67.936  1.00  0.00    -0.392 C  
BRANCH  24  25
HETATM   25  C   UNL     1     -11.961  13.823  66.818  1.00  0.00    -0.465 C  
BRANCH  25  26
HETATM   26  C   UNL     1     -12.364  13.208  65.476  1.00  0.00    -0.529 C  
HETATM   27  C   UNL     1     -12.181  14.191  64.340  1.00  0.00    -0.439 C  
HETATM   28  O   UNL     1     -11.771  15.331  64.448  1.00  0.00    -0.393 OA 
HETATM   29  O   UNL     1     -12.523  13.655  63.144  1.00  0.00    -0.786 OA 
ENDBRANCH  25  26
ENDBRANCH  24  25
ENDBRANCH  23  24
ENDBRANCH  21  22
ENDBRANCH  19  21
ENDBRANCH  11  12
ENDBRANCH  10  11
ENDBRANCH   8  10
ENDBRANCH   7   8
ENDBRANCH   6   7
ENDBRANCH   5   6
ENDBRANCH   4   5
ENDBRANCH   3   4
ENDBRANCH   2   3
TORSDOF 14
ENDMDL
MODEL       35
REMARK 921   NORMALIZED FREE ENERGY PREDICTED BY IDOCK:   -5.03 KCAL/MOL
REMARK 922        TOTAL FREE ENERGY PREDICTED BY IDOCK:  -12.10 KCAL/MOL
REMARK 923 INTER-LIGAND FREE ENERGY PREDICTED BY IDOCK:  -10.23 KCAL/MOL
REMARK 924 INTRA-LIGAND FREE ENERGY PREDICTED BY IDOCK:   -1.88 KCAL/MOL
REMARK 927      BINDING AFFINITY PREDICTED BY RF-SCORE:    0.00 PKD
ROOT
HETATM    1  C   UNL     1     -12.174  15.098  74.097  1.00  0.00    -0.686 C  
HETATM    2  C   UNL     1     -12.762  15.937  72.978  1.00  0.00    -0.611 C  
ENDROOT
BRANCH   2   3
HETATM    3  C   UNL     1     -14.098  15.378  72.483  1.00  0.00    -0.593 C  
BRANCH   3   4
HETATM    4  C   UNL     1     -13.906  14.655  71.151  1.00  0.00    -0.340 C  
BRANCH   4   5
HETATM    5  C   UNL     1     -12.728  15.200  70.340  1.00  0.00    -0.378 C  
BRANCH   5   6
HETATM    6  C   UNL     1     -11.854  14.040  69.850  1.00  0.00    -0.393 C  
BRANCH   6   7
HETATM    7  C   UNL     1     -12.193  12.726  70.541  1.00  0.00    -0.389 C  
BRANCH   7   8
HETATM    8  C   UNL     1     -11.590  11.515  69.827  1.00  0.00    -0.326 C  
HETATM    9  O   UNL     1     -11.704  10.367  70.250  1.00  0.00    -0.273 OA 
BRANCH   8  10
HETATM   10  C   UNL     1     -10.865  11.840  68.536  1.00  0.00    -0.261 C  
BRANCH  10  11
HETATM   11  C   UNL     1     -11.365  11.163  67.251  1.00  0.00    -0.302 C  
BRANCH  11  12
HETATM   12  C   UNL     1     -11.100  12.062  66.015  1.00  0.00    -0.364 C  
HETATM   13  C   UNL     1     -10.238  11.340  64.966  1.00  0.00    -0.284 C  
HETATM   14  O   UNL     1      -8.857  11.352  65.289  1.00  0.00    -0.377 OA 
HETATM   15  C   UNL     1     -10.466  12.128  63.702  1.00  0.00    -0.495 C  
HETATM   16  H   UNL     1      -8.325  10.906  64.641  1.00  0.00     0.000 HD 
HETATM   17  C   UNL     1     -11.950  12.432  63.720  1.00  0.00    -0.514 C  
HETATM   18  O   UNL     1     -12.162  13.614  62.973  1.00  0.00    -0.995 OA 
HETATM   19  C   UNL     1     -12.369  12.507  65.219  1.00  0.00    -0.469 C  
HETATM   20  H   UNL     1     -13.092  13.805  62.984  1.00  0.00     0.000 HD 
BRANCH  19  21
HETATM   21  C   UNL     1     -12.909  13.874  65.684  1.00  0.00    -0.467 C  
BRANCH  21  22
HETATM   22  C   UNL     1     -12.118  14.507  66.802  1.00  0.00    -0.313 C  
HETATM   23  C   UNL     1     -11.162  15.443  66.725  1.00  0.00    -0.197 C  
BRANCH  23  24
HETATM   24  C   UNL     1     -10.603  16.058  65.477  1.00  0.00    -0.415 C  
BRANCH  24  25
HETATM   25  C   UNL     1      -9.392  16.952  65.755  1.00  0.00     0.005 C  
BRANCH  25  26
HETATM   26  C   UNL     1      -9.088  17.113  67.247  1.00  0.00    -0.227 C  
HETATM   27  C   UNL     1      -7.839  16.355  67.641  1.00  0.00    -0.143 C  
HETATM   28  O   UNL     1      -7.146  15.692  66.893  1.00  0.00    -0.199 OA 
HETATM   29  O   UNL     1      -7.553  16.499  68.957  1.00  0.00    -0.222 OA 
ENDBRANCH  25  26
ENDBRANCH  24  25
ENDBRANCH  23  24
ENDBRANCH  21  22
ENDBRANCH  19  21
ENDBRANCH  11  12
ENDBRANCH  10  11
ENDBRANCH   8  10
ENDBRANCH   7   8
ENDBRANCH   6   7
ENDBRANCH   5   6
ENDBRANCH   4   5
ENDBRANCH   3   4
ENDBRANCH   2   3
TORSDOF 14
ENDMDL
MODEL       36
REMARK 921   NORMALIZED FREE ENERGY PREDICTED BY IDOCK:   -5.02 KCAL/MOL
REMARK 922        TOTAL FREE ENERGY PREDICTED BY IDOCK:  -12.09 KCAL/MOL
REMARK 923 INTER-LIGAND FREE ENERGY PREDICTED BY IDOCK:   -9.76 KCAL/MOL
REMARK 924 INTRA-LIGAND FREE ENERGY PREDICTED BY IDOCK:   -2.33 KCAL/MOL
REMARK 927      BINDING AFFINITY PREDICTED BY RF-SCORE:    0.00 PKD
ROOT
HETATM    1  C   UNL     1     -11.804  12.419  63.561  1.00  0.00    -0.605 C  
HETATM    2  C   UNL     1     -12.422  12.363  64.946  1.00  0.00    -0.439 C  
ENDROOT
BRANCH   2   3
HETATM    3  C   UNL     1     -12.371  13.721  65.651  1.00  0.00    -0.517 C  
BRANCH   3   4
HETATM    4  C   UNL     1     -12.046  14.825  64.646  1.00  0.00    -0.437 C  
BRANCH   4   5
HETATM    5  C   UNL     1     -10.839  15.670  65.057  1.00  0.00    -0.468 C  
BRANCH   5   6
HETATM    6  C   UNL     1     -10.137  15.024  66.257  1.00  0.00    -0.298 C  
BRANCH   6   7
HETATM    7  C   UNL     1      -9.307  16.023  67.050  1.00  0.00    -0.233 C  
BRANCH   7   8
HETATM    8  C   UNL     1     -10.170  16.966  67.891  1.00  0.00    -0.308 C  
HETATM    9  O   UNL     1     -10.579  18.046  67.472  1.00  0.00    -0.395 OA 
BRANCH   8  10
HETATM   10  C   UNL     1     -10.506  16.447  69.274  1.00  0.00    -0.303 C  
BRANCH  10  11
HETATM   11  C   UNL     1     -11.926  15.907  69.504  1.00  0.00    -0.274 C  
BRANCH  11  12
HETATM   12  C   UNL     1     -11.979  15.020  70.776  1.00  0.00    -0.371 C  
HETATM   13  C   UNL     1     -12.593  15.777  71.966  1.00  0.00    -0.455 C  
HETATM   14  O   UNL     1     -11.670  16.650  72.595  1.00  0.00    -0.486 OA 
HETATM   15  C   UNL     1     -12.989  14.686  72.926  1.00  0.00    -0.592 C  
HETATM   16  H   UNL     1     -12.049  17.117  73.330  1.00  0.00     0.000 HD 
HETATM   17  C   UNL     1     -13.571  13.606  72.038  1.00  0.00    -0.495 C  
HETATM   18  O   UNL     1     -13.410  12.365  72.697  1.00  0.00    -0.554 OA 
HETATM   19  C   UNL     1     -12.850  13.727  70.662  1.00  0.00    -0.262 C  
HETATM   20  H   UNL     1     -13.775  11.687  72.140  1.00  0.00     0.000 HD 
BRANCH  19  21
HETATM   21  C   UNL     1     -12.024  12.495  70.240  1.00  0.00    -0.364 C  
BRANCH  21  22
HETATM   22  C   UNL     1     -11.206  12.694  68.989  1.00  0.00    -0.322 C  
HETATM   23  C   UNL     1     -10.507  11.786  68.292  1.00  0.00    -0.224 C  
BRANCH  23  24
HETATM   24  C   UNL     1     -10.328  10.337  68.629  1.00  0.00    -0.203 C  
BRANCH  24  25
HETATM   25  C   UNL     1     -10.584   9.420  67.431  1.00  0.00    -0.326 C  
BRANCH  25  26
HETATM   26  C   UNL     1      -9.848   9.861  66.163  1.00  0.00    -0.324 C  
HETATM   27  C   UNL     1      -9.067   8.718  65.551  1.00  0.00    -0.163 C  
HETATM   28  O   UNL     1      -9.011   7.584  65.988  1.00  0.00    -0.167 OA 
HETATM   29  O   UNL     1      -8.420   9.092  64.422  1.00  0.00    -0.173 OA 
ENDBRANCH  25  26
ENDBRANCH  24  25
ENDBRANCH  23  24
ENDBRANCH  21  22
ENDBRANCH  19  21
ENDBRANCH  11  12
ENDBRANCH  10  11
ENDBRANCH   8  10
ENDBRANCH   7   8
ENDBRANCH   6   7
ENDBRANCH   5   6
ENDBRANCH   4   5
ENDBRANCH   3   4
ENDBRANCH   2   3
TORSDOF 14
ENDMDL
MODEL       37
REMARK 921   NORMALIZED FREE ENERGY PREDICTED BY IDOCK:   -5.02 KCAL/MOL
REMARK 922        TOTAL FREE ENERGY PREDICTED BY IDOCK:  -12.08 KCAL/MOL
REMARK 923 INTER-LIGAND FREE ENERGY PREDICTED BY IDOCK:  -10.34 KCAL/MOL
REMARK 924 INTRA-LIGAND FREE ENERGY PREDICTED BY IDOCK:   -1.74 KCAL/MOL
REMARK 927      BINDING AFFINITY PREDICTED BY RF-SCORE:    0.00 PKD
ROOT
HETATM    1  C   UNL     1     -11.225   4.495  73.552  1.00  0.00    -0.388 C  
HETATM    2  C   UNL     1     -10.786   5.617  72.629  1.00  0.00    -0.285 C  
ENDROOT
BRANCH   2   3
HETATM    3  C   UNL     1     -11.976   6.305  71.958  1.00  0.00    -0.353 C  
BRANCH   3   4
HETATM    4  C   UNL     1     -11.624   6.683  70.519  1.00  0.00    -0.448 C  
BRANCH   4   5
HETATM    5  C   UNL     1     -10.470   7.683  70.430  1.00  0.00    -0.221 C  
BRANCH   5   6
HETATM    6  C   UNL     1     -10.939   9.061  70.911  1.00  0.00    -0.332 C  
BRANCH   6   7
HETATM    7  C   UNL     1     -10.536  10.176  69.956  1.00  0.00    -0.338 C  
BRANCH   7   8
HETATM    8  C   UNL     1     -11.675  11.164  69.693  1.00  0.00    -0.339 C  
HETATM    9  O   UNL     1     -12.352  11.655  70.593  1.00  0.00    -0.359 OA 
BRANCH   8  10
HETATM   10  C   UNL     1     -11.882  11.513  68.233  1.00  0.00    -0.327 C  
BRANCH  10  11
HETATM   11  C   UNL     1     -10.760  11.147  67.250  1.00  0.00    -0.304 C  
BRANCH  11  12
HETATM   12  C   UNL     1     -10.799  12.067  66.001  1.00  0.00    -0.329 C  
HETATM   13  C   UNL     1     -10.655  11.260  64.701  1.00  0.00    -0.327 C  
HETATM   14  O   UNL     1      -9.311  10.909  64.418  1.00  0.00    -0.209 OA 
HETATM   15  C   UNL     1     -11.166  12.193  63.634  1.00  0.00    -0.540 C  
HETATM   16  H   UNL     1      -9.222  10.411  63.615  1.00  0.00     0.000 HD 
HETATM   17  C   UNL     1     -12.382  12.841  64.263  1.00  0.00    -0.416 C  
HETATM   18  O   UNL     1     -12.568  14.104  63.654  1.00  0.00    -0.952 OA 
HETATM   19  C   UNL     1     -12.121  12.876  65.799  1.00  0.00    -0.513 C  
HETATM   20  H   UNL     1     -13.330  14.512  64.048  1.00  0.00     0.000 HD 
BRANCH  19  21
HETATM   21  C   UNL     1     -12.054  14.283  66.425  1.00  0.00    -0.442 C  
BRANCH  21  22
HETATM   22  C   UNL     1     -10.654  14.800  66.645  1.00  0.00    -0.299 C  
HETATM   23  C   UNL     1     -10.006  14.997  67.802  1.00  0.00    -0.229 C  
BRANCH  23  24
HETATM   24  C   UNL     1     -10.551  14.795  69.184  1.00  0.00    -0.251 C  
BRANCH  24  25
HETATM   25  C   UNL     1     -11.649  15.802  69.534  1.00  0.00    -0.368 C  
BRANCH  25  26
HETATM   26  C   UNL     1     -12.772  15.203  70.383  1.00  0.00    -0.378 C  
HETATM   27  C   UNL     1     -12.738  15.733  71.800  1.00  0.00    -0.456 C  
HETATM   28  O   UNL     1     -11.933  16.531  72.239  1.00  0.00    -0.494 OA 
HETATM   29  O   UNL     1     -13.735  15.218  72.559  1.00  0.00    -0.449 OA 
ENDBRANCH  25  26
ENDBRANCH  24  25
ENDBRANCH  23  24
ENDBRANCH  21  22
ENDBRANCH  19  21
ENDBRANCH  11  12
ENDBRANCH  10  11
ENDBRANCH   8  10
ENDBRANCH   7   8
ENDBRANCH   6   7
ENDBRANCH   5   6
ENDBRANCH   4   5
ENDBRANCH   3   4
ENDBRANCH   2   3
TORSDOF 14
ENDMDL
MODEL       38
REMARK 921   NORMALIZED FREE ENERGY PREDICTED BY IDOCK:   -5.00 KCAL/MOL
REMARK 922        TOTAL FREE ENERGY PREDICTED BY IDOCK:  -12.05 KCAL/MOL
REMARK 923 INTER-LIGAND FREE ENERGY PREDICTED BY IDOCK:   -9.65 KCAL/MOL
REMARK 924 INTRA-LIGAND FREE ENERGY PREDICTED BY IDOCK:   -2.40 KCAL/MOL
REMARK 927      BINDING AFFINITY PREDICTED BY RF-SCORE:    0.00 PKD
ROOT
HETATM    1  C   UNL     1      -8.877   6.774  72.440  1.00  0.00    -0.136 C  
HETATM    2  C   UNL     1     -10.061   7.491  73.065  1.00  0.00    -0.342 C  
ENDROOT
BRANCH   2   3
HETATM    3  C   UNL     1     -11.380   7.121  72.382  1.00  0.00    -0.312 C  
BRANCH   3   4
HETATM    4  C   UNL     1     -11.136   6.072  71.298  1.00  0.00    -0.337 C  
BRANCH   4   5
HETATM    5  C   UNL     1     -11.646   6.506  69.923  1.00  0.00    -0.433 C  
BRANCH   5   6
HETATM    6  C   UNL     1     -10.458   6.776  68.990  1.00  0.00    -0.229 C  
BRANCH   6   7
HETATM    7  C   UNL     1     -10.366   8.238  68.577  1.00  0.00    -0.230 C  
BRANCH   7   8
HETATM    8  C   UNL     1      -9.382   9.030  69.440  1.00  0.00    -0.158 C  
HETATM    9  O   UNL     1      -8.190   8.746  69.523  1.00  0.00    -0.106 OA 
BRANCH   8  10
HETATM   10  C   UNL     1      -9.990  10.216  70.162  1.00  0.00    -0.154 C  
BRANCH  10  11
HETATM   11  C   UNL     1     -11.451  10.096  70.619  1.00  0.00    -0.432 C  
BRANCH  11  12
HETATM   12  C   UNL     1     -12.246  11.382  70.268  1.00  0.00    -0.433 C  
HETATM   13  C   UNL     1     -12.464  12.266  71.507  1.00  0.00    -0.027 C  
HETATM   14  O   UNL     1     -13.530  11.812  72.324  1.00  0.00    -0.611 OA 
HETATM   15  C   UNL     1     -12.808  13.616  70.935  1.00  0.00    -0.321 C  
HETATM   16  H   UNL     1     -13.665  12.359  73.089  1.00  0.00     0.000 HD 
HETATM   17  C   UNL     1     -11.859  13.774  69.764  1.00  0.00    -0.331 C  
HETATM   18  O   UNL     1     -12.460  14.649  68.829  1.00  0.00    -0.579 OA 
HETATM   19  C   UNL     1     -11.563  12.337  69.237  1.00  0.00    -0.383 C  
HETATM   20  H   UNL     1     -11.865  14.747  68.095  1.00  0.00     0.000 HD 
BRANCH  19  21
HETATM   21  C   UNL     1     -12.013  12.062  67.789  1.00  0.00    -0.177 C  
BRANCH  21  22
HETATM   22  C   UNL     1     -10.894  11.686  66.850  1.00  0.00    -0.322 C  
HETATM   23  C   UNL     1     -10.868  11.743  65.511  1.00  0.00    -0.348 C  
BRANCH  23  24
HETATM   24  C   UNL     1     -11.991  12.154  64.607  1.00  0.00    -0.398 C  
BRANCH  24  25
HETATM   25  C   UNL     1     -11.797  13.559  64.033  1.00  0.00    -0.476 C  
BRANCH  25  26
HETATM   26  C   UNL     1     -10.862  14.433  64.873  1.00  0.00    -0.430 C  
HETATM   27  C   UNL     1     -11.083  15.904  64.596  1.00  0.00    -0.354 C  
HETATM   28  O   UNL     1     -11.891  16.365  63.812  1.00  0.00    -1.002 OA 
HETATM   29  O   UNL     1     -10.269  16.689  65.341  1.00  0.00    -0.585 OA 
ENDBRANCH  25  26
ENDBRANCH  24  25
ENDBRANCH  23  24
ENDBRANCH  21  22
ENDBRANCH  19  21
ENDBRANCH  11  12
ENDBRANCH  10  11
ENDBRANCH   8  10
ENDBRANCH   7   8
ENDBRANCH   6   7
ENDBRANCH   5   6
ENDBRANCH   4   5
ENDBRANCH   3   4
ENDBRANCH   2   3
TORSDOF 14
ENDMDL
MODEL       39
REMARK 921   NORMALIZED FREE ENERGY PREDICTED BY IDOCK:   -5.00 KCAL/MOL
REMARK 922        TOTAL FREE ENERGY PREDICTED BY IDOCK:  -12.04 KCAL/MOL
REMARK 923 INTER-LIGAND FREE ENERGY PREDICTED BY IDOCK:   -9.83 KCAL/MOL
REMARK 924 INTRA-LIGAND FREE ENERGY PREDICTED BY IDOCK:   -2.22 KCAL/MOL
REMARK 927      BINDING AFFINITY PREDICTED BY RF-SCORE:    0.00 PKD
ROOT
HETATM    1  C   UNL     1     -12.925   8.884  72.288  1.00  0.00    -0.479 C  
HETATM    2  C   UNL     1     -13.046  10.315  71.796  1.00  0.00    -0.570 C  
ENDROOT
BRANCH   2   3
HETATM    3  C   UNL     1     -12.003  10.642  70.725  1.00  0.00    -0.477 C  
BRANCH   3   4
HETATM    4  C   UNL     1     -11.258   9.374  70.310  1.00  0.00    -0.286 C  
BRANCH   4   5
HETATM    5  C   UNL     1     -10.474   9.541  69.007  1.00  0.00    -0.229 C  
BRANCH   5   6
HETATM    6  C   UNL     1      -9.599  10.798  69.085  1.00  0.00    -0.169 C  
BRANCH   6   7
HETATM    7  C   UNL     1      -8.150  10.519  68.712  1.00  0.00    -0.131 C  
BRANCH   7   8
HETATM    8  C   UNL     1      -8.021   9.733  67.405  1.00  0.00    -0.102 C  
HETATM    9  O   UNL     1      -7.641   8.565  67.364  1.00  0.00    -0.095 OA 
BRANCH   8  10
HETATM   10  C   UNL     1      -8.431  10.501  66.165  1.00  0.00    -0.154 C  
BRANCH  10  11
HETATM   11  C   UNL     1      -9.849  10.269  65.621  1.00  0.00    -0.332 C  
BRANCH  11  12
HETATM   12  C   UNL     1     -10.444  11.585  65.054  1.00  0.00    -0.344 C  
HETATM   13  C   UNL     1     -11.073  11.368  63.668  1.00  0.00    -0.325 C  
HETATM   14  O   UNL     1     -10.110  11.339  62.628  1.00  0.00    -0.592 OA 
HETATM   15  C   UNL     1     -11.974  12.562  63.486  1.00  0.00    -0.629 C  
HETATM   16  H   UNL     1     -10.499  11.205  61.771  1.00  0.00     0.000 HD 
HETATM   17  C   UNL     1     -12.619  12.748  64.844  1.00  0.00    -0.470 C  
HETATM   18  O   UNL     1     -12.975  14.110  64.976  1.00  0.00    -0.721 OA 
HETATM   19  C   UNL     1     -11.596  12.222  65.896  1.00  0.00    -0.450 C  
HETATM   20  H   UNL     1     -13.379  14.227  65.827  1.00  0.00     0.000 HD 
BRANCH  19  21
HETATM   21  C   UNL     1     -11.082  13.275  66.898  1.00  0.00    -0.310 C  
BRANCH  21  22
HETATM   22  C   UNL     1     -11.873  13.351  68.181  1.00  0.00    -0.396 C  
HETATM   23  C   UNL     1     -11.683  14.157  69.235  1.00  0.00    -0.368 C  
BRANCH  23  24
HETATM   24  C   UNL     1     -10.584  15.161  69.413  1.00  0.00    -0.258 C  
BRANCH  24  25
HETATM   25  C   UNL     1     -10.908  16.508  68.763  1.00  0.00    -0.342 C  
BRANCH  25  26
HETATM   26  C   UNL     1     -10.137  16.755  67.465  1.00  0.00    -0.276 C  
HETATM   27  C   UNL     1     -10.320  18.175  66.975  1.00  0.00    -0.380 C  
HETATM   28  O   UNL     1     -10.990  19.032  67.519  1.00  0.00    -0.443 OA 
HETATM   29  O   UNL     1      -9.633  18.410  65.831  1.00  0.00    -0.499 OA 
ENDBRANCH  25  26
ENDBRANCH  24  25
ENDBRANCH  23  24
ENDBRANCH  21  22
ENDBRANCH  19  21
ENDBRANCH  11  12
ENDBRANCH  10  11
ENDBRANCH   8  10
ENDBRANCH   7   8
ENDBRANCH   6   7
ENDBRANCH   5   6
ENDBRANCH   4   5
ENDBRANCH   3   4
ENDBRANCH   2   3
TORSDOF 14
ENDMDL
MODEL       40
REMARK 921   NORMALIZED FREE ENERGY PREDICTED BY IDOCK:   -5.00 KCAL/MOL
REMARK 922        TOTAL FREE ENERGY PREDICTED BY IDOCK:  -12.04 KCAL/MOL
REMARK 923 INTER-LIGAND FREE ENERGY PREDICTED BY IDOCK:   -9.73 KCAL/MOL
REMARK 924 INTRA-LIGAND FREE ENERGY PREDICTED BY IDOCK:   -2.31 KCAL/MOL
REMARK 927      BINDING AFFINITY PREDICTED BY RF-SCORE:    0.00 PKD
ROOT
HETATM    1  C   UNL     1     -10.481  18.943  66.679  1.00  0.00    -0.496 C  
HETATM    2  C   UNL     1      -9.797  17.660  66.242  1.00  0.00    -0.297 C  
ENDROOT
BRANCH   2   3
HETATM    3  C   UNL     1     -10.201  16.471  67.116  1.00  0.00    -0.284 C  
BRANCH   3   4
HETATM    4  C   UNL     1     -10.641  15.298  66.240  1.00  0.00    -0.312 C  
BRANCH   4   5
HETATM    5  C   UNL     1     -11.781  14.487  66.857  1.00  0.00    -0.399 C  
BRANCH   5   6
HETATM    6  C   UNL     1     -12.738  14.016  65.756  1.00  0.00    -0.487 C  
BRANCH   6   7
HETATM    7  C   UNL     1     -12.086  14.018  64.381  1.00  0.00    -0.486 C  
BRANCH   7   8
HETATM    8  C   UNL     1     -11.998  12.617  63.771  1.00  0.00    -0.510 C  
HETATM    9  O   UNL     1     -12.979  12.016  63.339  1.00  0.00    -0.772 OA 
BRANCH   8  10
HETATM   10  C   UNL     1     -10.598  12.042  63.712  1.00  0.00    -0.478 C  
BRANCH  10  11
HETATM   11  C   UNL     1      -9.821  11.927  65.033  1.00  0.00    -0.234 C  
BRANCH  11  12
HETATM   12  C   UNL     1     -10.089  10.558  65.713  1.00  0.00    -0.329 C  
HETATM   13  C   UNL     1      -8.997   9.534  65.368  1.00  0.00    -0.201 C  
HETATM   14  O   UNL     1      -9.178   8.949  64.089  1.00  0.00    -0.361 OA 
HETATM   15  C   UNL     1      -9.142   8.474  66.430  1.00  0.00    -0.229 C  
HETATM   16  H   UNL     1      -8.503   8.316  63.876  1.00  0.00     0.000 HD 
HETATM   17  C   UNL     1      -9.393   9.259  67.701  1.00  0.00    -0.128 C  
HETATM   18  O   UNL     1     -10.121   8.432  68.588  1.00  0.00    -0.183 OA 
HETATM   19  C   UNL     1     -10.112  10.574  67.276  1.00  0.00    -0.242 C  
HETATM   20  H   UNL     1     -10.279   8.923  69.385  1.00  0.00     0.000 HD 
BRANCH  19  21
HETATM   21  C   UNL     1     -11.533  10.761  67.843  1.00  0.00    -0.306 C  
BRANCH  21  22
HETATM   22  C   UNL     1     -11.620  11.728  68.998  1.00  0.00    -0.372 C  
HETATM   23  C   UNL     1     -11.988  11.490  70.265  1.00  0.00    -0.455 C  
BRANCH  23  24
HETATM   24  C   UNL     1     -12.461  10.186  70.833  1.00  0.00    -0.455 C  
BRANCH  24  25
HETATM   25  C   UNL     1     -11.342   9.413  71.537  1.00  0.00    -0.464 C  
BRANCH  25  26
HETATM   26  C   UNL     1     -11.851   8.232  72.366  1.00  0.00    -0.461 C  
HETATM   27  C   UNL     1     -11.420   6.910  71.767  1.00  0.00    -0.275 C  
HETATM   28  O   UNL     1     -10.756   6.772  70.758  1.00  0.00    -0.221 OA 
HETATM   29  O   UNL     1     -11.855   5.856  72.498  1.00  0.00    -0.295 OA 
ENDBRANCH  25  26
ENDBRANCH  24  25
ENDBRANCH  23  24
ENDBRANCH  21  22
ENDBRANCH  19  21
ENDBRANCH  11  12
ENDBRANCH  10  11
ENDBRANCH   8  10
ENDBRANCH   7   8
ENDBRANCH   6   7
ENDBRANCH   5   6
ENDBRANCH   4   5
ENDBRANCH   3   4
ENDBRANCH   2   3
TORSDOF 14
ENDMDL
MODEL       41
REMARK 921   NORMALIZED FREE ENERGY PREDICTED BY IDOCK:   -4.99 KCAL/MOL
REMARK 922        TOTAL FREE ENERGY PREDICTED BY IDOCK:  -12.04 KCAL/MOL
REMARK 923 INTER-LIGAND FREE ENERGY PREDICTED BY IDOCK:  -10.11 KCAL/MOL
REMARK 924 INTRA-LIGAND FREE ENERGY PREDICTED BY IDOCK:   -1.93 KCAL/MOL
REMARK 927      BINDING AFFINITY PREDICTED BY RF-SCORE:    0.00 PKD
ROOT
HETATM    1  C   UNL     1      -9.716  20.492  67.378  1.00  0.00    -0.587 C  
HETATM    2  C   UNL     1      -9.306  19.031  67.344  1.00  0.00    -0.345 C  
ENDROOT
BRANCH   2   3
HETATM    3  C   UNL     1     -10.513  18.101  67.202  1.00  0.00    -0.392 C  
BRANCH   3   4
HETATM    4  C   UNL     1     -10.539  17.480  65.806  1.00  0.00    -0.176 C  
BRANCH   4   5
HETATM    5  C   UNL     1     -10.232  15.981  65.814  1.00  0.00    -0.401 C  
BRANCH   5   6
HETATM    6  C   UNL     1     -11.242  15.240  64.930  1.00  0.00    -0.422 C  
BRANCH   6   7
HETATM    7  C   UNL     1     -10.705  13.907  64.428  1.00  0.00    -0.286 C  
BRANCH   7   8
HETATM    8  C   UNL     1     -11.742  12.786  64.515  1.00  0.00    -0.366 C  
HETATM    9  O   UNL     1     -12.932  12.957  64.260  1.00  0.00    -0.686 OA 
BRANCH   8  10
HETATM   10  C   UNL     1     -11.180  11.436  64.912  1.00  0.00    -0.180 C  
BRANCH  10  11
HETATM   11  C   UNL     1     -10.167  11.400  66.066  1.00  0.00    -0.289 C  
BRANCH  11  12
HETATM   12  C   UNL     1     -10.726  10.589  67.265  1.00  0.00    -0.333 C  
HETATM   13  C   UNL     1     -10.001   9.242  67.422  1.00  0.00    -0.199 C  
HETATM   14  O   UNL     1     -10.472   8.257  66.517  1.00  0.00    -0.403 OA 
HETATM   15  C   UNL     1     -10.317   8.820  68.833  1.00  0.00    -0.229 C  
HETATM   16  H   UNL     1     -10.024   7.425  66.614  1.00  0.00     0.000 HD 
HETATM   17  C   UNL     1     -10.204  10.101  69.635  1.00  0.00    -0.242 C  
HETATM   18  O   UNL     1     -11.031   9.976  70.775  1.00  0.00    -0.313 OA 
HETATM   19  C   UNL     1     -10.575  11.264  68.667  1.00  0.00    -0.231 C  
HETATM   20  H   UNL     1     -10.961  10.779  71.278  1.00  0.00     0.000 HD 
BRANCH  19  21
HETATM   21  C   UNL     1     -11.820  12.081  69.065  1.00  0.00    -0.372 C  
BRANCH  21  22
HETATM   22  C   UNL     1     -12.028  13.335  68.254  1.00  0.00    -0.338 C  
HETATM   23  C   UNL     1     -11.695  14.597  68.561  1.00  0.00    -0.348 C  
BRANCH  23  24
HETATM   24  C   UNL     1     -11.070  15.077  69.836  1.00  0.00    -0.298 C  
BRANCH  24  25
HETATM   25  C   UNL     1     -12.072  15.787  70.749  1.00  0.00    -0.448 C  
BRANCH  25  26
HETATM   26  C   UNL     1     -11.683  15.740  72.228  1.00  0.00    -0.580 C  
HETATM   27  C   UNL     1     -12.905  15.696  73.120  1.00  0.00    -0.509 C  
HETATM   28  O   UNL     1     -14.060  15.699  72.741  1.00  0.00    -0.544 OA 
HETATM   29  O   UNL     1     -12.574  15.643  74.433  1.00  0.00    -0.592 OA 
ENDBRANCH  25  26
ENDBRANCH  24  25
ENDBRANCH  23  24
ENDBRANCH  21  22
ENDBRANCH  19  21
ENDBRANCH  11  12
ENDBRANCH  10  11
ENDBRANCH   8  10
ENDBRANCH   7   8
ENDBRANCH   6   7
ENDBRANCH   5   6
ENDBRANCH   4   5
ENDBRANCH   3   4
ENDBRANCH   2   3
TORSDOF 14
ENDMDL
MODEL       42
REMARK 921   NORMALIZED FREE ENERGY PREDICTED BY IDOCK:   -4.98 KCAL/MOL
REMARK 922        TOTAL FREE ENERGY PREDICTED BY IDOCK:  -12.01 KCAL/MOL
REMARK 923 INTER-LIGAND FREE ENERGY PREDICTED BY IDOCK:   -9.77 KCAL/MOL
REMARK 924 INTRA-LIGAND FREE ENERGY PREDICTED BY IDOCK:   -2.24 KCAL/MOL
REMARK 927      BINDING AFFINITY PREDICTED BY RF-SCORE:    0.00 PKD
ROOT
HETATM    1  C   UNL     1     -10.609   5.522  66.722  1.00  0.00    -0.360 C  
HETATM    2  C   UNL     1     -10.807   6.756  67.583  1.00  0.00    -0.361 C  
ENDROOT
BRANCH   2   3
HETATM    3  C   UNL     1     -11.154   6.396  69.029  1.00  0.00    -0.424 C  
BRANCH   3   4
HETATM    4  C   UNL     1     -11.379   7.666  69.849  1.00  0.00    -0.017 C  
BRANCH   4   5
HETATM    5  C   UNL     1     -10.141   8.094  70.639  1.00  0.00    -0.209 C  
BRANCH   5   6
HETATM    6  C   UNL     1      -9.930   9.606  70.494  1.00  0.00    -0.318 C  
BRANCH   6   7
HETATM    7  C   UNL     1      -8.659   9.943  69.727  1.00  0.00    -0.219 C  
BRANCH   7   8
HETATM    8  C   UNL     1      -8.906  10.935  68.588  1.00  0.00    -0.158 C  
HETATM    9  O   UNL     1      -7.996  11.503  67.990  1.00  0.00    -0.117 OA 
BRANCH   8  10
HETATM   10  C   UNL     1     -10.366  11.138  68.235  1.00  0.00    -0.198 C  
BRANCH  10  11
HETATM   11  C   UNL     1     -10.836  10.652  66.856  1.00  0.00    -0.267 C  
BRANCH  11  12
HETATM   12  C   UNL     1     -10.760  11.798  65.812  1.00  0.00    -0.328 C  
HETATM   13  C   UNL     1     -10.249  11.291  64.454  1.00  0.00    -0.320 C  
HETATM   14  O   UNL     1      -8.838  11.145  64.419  1.00  0.00    -0.369 OA 
HETATM   15  C   UNL     1     -10.667  12.364  63.483  1.00  0.00    -0.473 C  
HETATM   16  H   UNL     1      -8.522  10.832  63.579  1.00  0.00     0.000 HD 
HETATM   17  C   UNL     1     -12.064  12.743  63.932  1.00  0.00    -0.486 C  
HETATM   18  O   UNL     1     -12.304  14.077  63.530  1.00  0.00    -1.032 OA 
HETATM   19  C   UNL     1     -12.118  12.491  65.469  1.00  0.00    -0.481 C  
HETATM   20  H   UNL     1     -13.180  14.315  63.812  1.00  0.00     0.000 HD 
BRANCH  19  21
HETATM   21  C   UNL     1     -12.378  13.741  66.333  1.00  0.00    -0.460 C  
BRANCH  21  22
HETATM   22  C   UNL     1     -11.129  14.461  66.777  1.00  0.00    -0.323 C  
HETATM   23  C   UNL     1     -10.934  15.196  67.881  1.00  0.00    -0.302 C  
BRANCH  23  24
HETATM   24  C   UNL     1     -11.949  15.526  68.933  1.00  0.00    -0.306 C  
BRANCH  24  25
HETATM   25  C   UNL     1     -11.602  14.917  70.294  1.00  0.00    -0.332 C  
BRANCH  25  26
HETATM   26  C   UNL     1     -12.633  13.896  70.780  1.00  0.00    -0.424 C  
HETATM   27  C   UNL     1     -13.217  14.294  72.118  1.00  0.00    -0.402 C  
HETATM   28  O   UNL     1     -12.924  15.291  72.752  1.00  0.00    -0.362 OA 
HETATM   29  O   UNL     1     -14.140  13.404  72.556  1.00  0.00    -0.726 OA 
ENDBRANCH  25  26
ENDBRANCH  24  25
ENDBRANCH  23  24
ENDBRANCH  21  22
ENDBRANCH  19  21
ENDBRANCH  11  12
ENDBRANCH  10  11
ENDBRANCH   8  10
ENDBRANCH   7   8
ENDBRANCH   6   7
ENDBRANCH   5   6
ENDBRANCH   4   5
ENDBRANCH   3   4
ENDBRANCH   2   3
TORSDOF 14
ENDMDL
MODEL       43
REMARK 921   NORMALIZED FREE ENERGY PREDICTED BY IDOCK:   -4.98 KCAL/MOL
REMARK 922        TOTAL FREE ENERGY PREDICTED BY IDOCK:  -12.01 KCAL/MOL
REMARK 923 INTER-LIGAND FREE ENERGY PREDICTED BY IDOCK:   -9.83 KCAL/MOL
REMARK 924 INTRA-LIGAND FREE ENERGY PREDICTED BY IDOCK:   -2.18 KCAL/MOL
REMARK 927      BINDING AFFINITY PREDICTED BY RF-SCORE:    0.00 PKD
ROOT
HETATM    1  C   UNL     1     -10.364   6.273  74.275  1.00  0.00    -0.304 C  
HETATM    2  C   UNL     1     -10.682   7.266  73.171  1.00  0.00    -0.411 C  
ENDROOT
BRANCH   2   3
HETATM    3  C   UNL     1     -11.552   6.646  72.076  1.00  0.00    -0.341 C  
BRANCH   3   4
HETATM    4  C   UNL     1     -12.168   7.742  71.208  1.00  0.00    -0.325 C  
BRANCH   4   5
HETATM    5  C   UNL     1     -13.167   8.616  71.969  1.00  0.00    -0.422 C  
BRANCH   5   6
HETATM    6  C   UNL     1     -12.987  10.084  71.565  1.00  0.00    -0.535 C  
BRANCH   6   7
HETATM    7  C   UNL     1     -11.816  10.283  70.613  1.00  0.00    -0.439 C  
BRANCH   7   8
HETATM    8  C   UNL     1     -11.819  11.668  69.961  1.00  0.00    -0.355 C  
HETATM    9  O   UNL     1     -12.276  12.664  70.516  1.00  0.00    -0.365 OA 
BRANCH   8  10
HETATM   10  C   UNL     1     -11.183  11.719  68.587  1.00  0.00    -0.312 C  
BRANCH  10  11
HETATM   11  C   UNL     1     -11.234  10.442  67.733  1.00  0.00    -0.309 C  
BRANCH  11  12
HETATM   12  C   UNL     1      -9.868  10.186  67.043  1.00  0.00    -0.238 C  
HETATM   13  C   UNL     1      -9.190   8.918  67.587  1.00  0.00    -0.136 C  
HETATM   14  O   UNL     1      -8.538   9.135  68.828  1.00  0.00    -0.128 OA 
HETATM   15  C   UNL     1      -8.167   8.572  66.537  1.00  0.00    -0.108 C  
HETATM   16  H   UNL     1      -8.119   8.352  69.165  1.00  0.00     0.000 HD 
HETATM   17  C   UNL     1      -8.886   8.821  65.226  1.00  0.00    -0.162 C  
HETATM   18  O   UNL     1      -7.913   9.120  64.245  1.00  0.00    -0.124 OA 
HETATM   19  C   UNL     1      -9.925   9.950  65.499  1.00  0.00    -0.363 C  
HETATM   20  H   UNL     1      -8.363   9.277  63.423  1.00  0.00     0.000 HD 
BRANCH  19  21
HETATM   21  C   UNL     1      -9.714  11.248  64.695  1.00  0.00    -0.294 C  
BRANCH  21  22
HETATM   22  C   UNL     1     -10.812  11.555  63.708  1.00  0.00    -0.486 C  
HETATM   23  C   UNL     1     -11.987  12.163  63.924  1.00  0.00    -0.581 C  
BRANCH  23  24
HETATM   24  C   UNL     1     -12.521  12.648  65.238  1.00  0.00    -0.483 C  
BRANCH  24  25
HETATM   25  C   UNL     1     -12.453  14.171  65.373  1.00  0.00    -0.488 C  
BRANCH  25  26
HETATM   26  C   UNL     1     -11.114  14.672  65.921  1.00  0.00    -0.338 C  
HETATM   27  C   UNL     1     -10.705  15.976  65.272  1.00  0.00    -0.399 C  
HETATM   28  O   UNL     1     -11.335  16.573  64.421  1.00  0.00    -0.921 OA 
HETATM   29  O   UNL     1      -9.526  16.436  65.756  1.00  0.00    -0.464 OA 
ENDBRANCH  25  26
ENDBRANCH  24  25
ENDBRANCH  23  24
ENDBRANCH  21  22
ENDBRANCH  19  21
ENDBRANCH  11  12
ENDBRANCH  10  11
ENDBRANCH   8  10
ENDBRANCH   7   8
ENDBRANCH   6   7
ENDBRANCH   5   6
ENDBRANCH   4   5
ENDBRANCH   3   4
ENDBRANCH   2   3
TORSDOF 14
ENDMDL
MODEL       44
REMARK 921   NORMALIZED FREE ENERGY PREDICTED BY IDOCK:   -4.96 KCAL/MOL
REMARK 922        TOTAL FREE ENERGY PREDICTED BY IDOCK:  -11.98 KCAL/MOL
REMARK 923 INTER-LIGAND FREE ENERGY PREDICTED BY IDOCK:   -9.92 KCAL/MOL
REMARK 924 INTRA-LIGAND FREE ENERGY PREDICTED BY IDOCK:   -2.06 KCAL/MOL
REMARK 927      BINDING AFFINITY PREDICTED BY RF-SCORE:    0.00 PKD
ROOT
HETATM    1  C   UNL     1     -11.388   9.603  70.909  1.00  0.00    -0.431 C  
HETATM    2  C   UNL     1     -11.937   8.743  72.033  1.00  0.00    -0.446 C  
ENDROOT
BRANCH   2   3
HETATM    3  C   UNL     1     -12.247   7.319  71.566  1.00  0.00    -0.387 C  
BRANCH   3   4
HETATM    4  C   UNL     1     -10.996   6.677  70.967  1.00  0.00    -0.305 C  
BRANCH   4   5
HETATM    5  C   UNL     1     -11.211   6.166  69.542  1.00  0.00    -0.482 C  
BRANCH   5   6
HETATM    6  C   UNL     1     -10.163   6.780  68.606  1.00  0.00    -0.184 C  
BRANCH   6   7
HETATM    7  C   UNL     1     -10.777   7.314  67.320  1.00  0.00    -0.391 C  
BRANCH   7   8
HETATM    8  C   UNL     1      -9.854   8.293  66.590  1.00  0.00    -0.267 C  
HETATM    9  O   UNL     1      -8.835   7.936  66.004  1.00  0.00    -0.154 OA 
BRANCH   8  10
HETATM   10  C   UNL     1     -10.313   9.736  66.623  1.00  0.00    -0.276 C  
BRANCH  10  11
HETATM   11  C   UNL     1      -9.377  10.793  66.018  1.00  0.00    -0.215 C  
BRANCH  11  12
HETATM   12  C   UNL     1     -10.187  11.993  65.458  1.00  0.00    -0.290 C  
HETATM   13  C   UNL     1     -10.528  11.799  63.972  1.00  0.00    -0.368 C  
HETATM   14  O   UNL     1      -9.443  12.114  63.115  1.00  0.00    -0.647 OA 
HETATM   15  C   UNL     1     -11.658  12.765  63.728  1.00  0.00    -0.548 C  
HETATM   16  H   UNL     1      -9.653  11.995  62.196  1.00  0.00     0.000 HD 
HETATM   17  C   UNL     1     -12.525  12.637  64.964  1.00  0.00    -0.487 C  
HETATM   18  O   UNL     1     -13.222  13.856  65.135  1.00  0.00    -0.768 OA 
HETATM   19  C   UNL     1     -11.574  12.244  66.134  1.00  0.00    -0.450 C  
HETATM   20  H   UNL     1     -13.766  13.776  65.910  1.00  0.00     0.000 HD 
BRANCH  19  21
HETATM   21  C   UNL     1     -11.492  13.263  67.288  1.00  0.00    -0.378 C  
BRANCH  21  22
HETATM   22  C   UNL     1     -11.484  12.646  68.664  1.00  0.00    -0.347 C  
HETATM   23  C   UNL     1     -11.929  13.165  69.817  1.00  0.00    -0.382 C  
BRANCH  23  24
HETATM   24  C   UNL     1     -12.505  14.533  70.025  1.00  0.00    -0.348 C  
BRANCH  24  25
HETATM   25  C   UNL     1     -11.449  15.555  70.454  1.00  0.00    -0.364 C  
BRANCH  25  26
HETATM   26  C   UNL     1     -10.974  16.452  69.309  1.00  0.00    -0.322 C  
HETATM   27  C   UNL     1      -9.575  16.085  68.863  1.00  0.00    -0.236 C  
HETATM   28  O   UNL     1      -8.890  15.199  69.335  1.00  0.00    -0.220 OA 
HETATM   29  O   UNL     1      -9.147  16.866  67.841  1.00  0.00    -0.226 OA 
ENDBRANCH  25  26
ENDBRANCH  24  25
ENDBRANCH  23  24
ENDBRANCH  21  22
ENDBRANCH  19  21
ENDBRANCH  11  12
ENDBRANCH  10  11
ENDBRANCH   8  10
ENDBRANCH   7   8
ENDBRANCH   6   7
ENDBRANCH   5   6
ENDBRANCH   4   5
ENDBRANCH   3   4
ENDBRANCH   2   3
TORSDOF 14
ENDMDL
MODEL       45
REMARK 921   NORMALIZED FREE ENERGY PREDICTED BY IDOCK:   -4.96 KCAL/MOL
REMARK 922        TOTAL FREE ENERGY PREDICTED BY IDOCK:  -11.98 KCAL/MOL
REMARK 923 INTER-LIGAND FREE ENERGY PREDICTED BY IDOCK:   -9.33 KCAL/MOL
REMARK 924 INTRA-LIGAND FREE ENERGY PREDICTED BY IDOCK:   -2.65 KCAL/MOL
REMARK 927      BINDING AFFINITY PREDICTED BY RF-SCORE:    0.00 PKD
ROOT
HETATM    1  C   UNL     1     -12.132  14.400  64.521  1.00  0.00    -0.498 C  
HETATM    2  C   UNL     1     -12.492  13.716  65.828  1.00  0.00    -0.524 C  
ENDROOT
BRANCH   2   3
HETATM    3  C   UNL     1     -11.590  12.512  66.111  1.00  0.00    -0.448 C  
BRANCH   3   4
HETATM    4  C   UNL     1     -10.144  12.969  66.297  1.00  0.00    -0.283 C  
BRANCH   4   5
HETATM    5  C   UNL     1      -9.665  12.861  67.745  1.00  0.00    -0.214 C  
BRANCH   5   6
HETATM    6  C   UNL     1      -8.136  12.741  67.779  1.00  0.00    -0.168 C  
BRANCH   6   7
HETATM    7  C   UNL     1      -7.492  13.799  68.663  1.00  0.00    -0.116 C  
BRANCH   7   8
HETATM    8  C   UNL     1      -6.626  14.779  67.869  1.00  0.00    -0.161 C  
HETATM    9  O   UNL     1      -5.525  14.479  67.414  1.00  0.00    -0.337 OA 
BRANCH   8  10
HETATM   10  C   UNL     1      -7.250  16.144  67.660  1.00  0.00    -0.169 C  
BRANCH  10  11
HETATM   11  C   UNL     1      -7.551  16.986  68.910  1.00  0.00    -0.233 C  
BRANCH  11  12
HETATM   12  C   UNL     1      -8.268  18.307  68.525  1.00  0.00    -0.329 C  
HETATM   13  C   UNL     1      -7.261  19.421  68.196  1.00  0.00    -0.287 C  
HETATM   14  O   UNL     1      -6.723  20.034  69.356  1.00  0.00    -0.326 OA 
HETATM   15  C   UNL     1      -8.072  20.429  67.425  1.00  0.00    -0.367 C  
HETATM   16  H   UNL     1      -6.101  20.722  69.153  1.00  0.00     0.000 HD 
HETATM   17  C   UNL     1      -8.941  19.585  66.516  1.00  0.00    -0.361 C  
HETATM   18  O   UNL     1     -10.109  20.326  66.218  1.00  0.00    -0.490 OA 
HETATM   19  C   UNL     1      -9.180  18.236  67.258  1.00  0.00    -0.256 C  
HETATM   20  H   UNL     1     -10.655  19.797  65.648  1.00  0.00     0.000 HD 
BRANCH  19  21
HETATM   21  C   UNL     1     -10.650  17.926  67.605  1.00  0.00    -0.398 C  
BRANCH  21  22
HETATM   22  C   UNL     1     -10.967  16.455  67.708  1.00  0.00    -0.261 C  
HETATM   23  C   UNL     1     -11.236  15.731  68.804  1.00  0.00    -0.342 C  
BRANCH  23  24
HETATM   24  C   UNL     1     -11.234  16.213  70.223  1.00  0.00    -0.389 C  
BRANCH  24  25
HETATM   25  C   UNL     1     -12.264  15.486  71.091  1.00  0.00    -0.451 C  
BRANCH  25  26
HETATM   26  C   UNL     1     -12.357  13.988  70.794  1.00  0.00    -0.443 C  
HETATM   27  C   UNL     1     -13.107  13.254  71.884  1.00  0.00    -0.388 C  
HETATM   28  O   UNL     1     -13.584  13.760  72.882  1.00  0.00    -0.681 OA 
HETATM   29  O   UNL     1     -13.207  11.927  71.627  1.00  0.00    -0.412 OA 
ENDBRANCH  25  26
ENDBRANCH  24  25
ENDBRANCH  23  24
ENDBRANCH  21  22
ENDBRANCH  19  21
ENDBRANCH  11  12
ENDBRANCH  10  11
ENDBRANCH   8  10
ENDBRANCH   7   8
ENDBRANCH   6   7
ENDBRANCH   5   6
ENDBRANCH   4   5
ENDBRANCH   3   4
ENDBRANCH   2   3
TORSDOF 14
ENDMDL
MODEL       46
REMARK 921   NORMALIZED FREE ENERGY PREDICTED BY IDOCK:   -4.95 KCAL/MOL
REMARK 922        TOTAL FREE ENERGY PREDICTED BY IDOCK:  -11.95 KCAL/MOL
REMARK 923 INTER-LIGAND FREE ENERGY PREDICTED BY IDOCK:  -10.09 KCAL/MOL
REMARK 924 INTRA-LIGAND FREE ENERGY PREDICTED BY IDOCK:   -1.86 KCAL/MOL
REMARK 927      BINDING AFFINITY PREDICTED BY RF-SCORE:    0.00 PKD
ROOT
HETATM    1  C   UNL     1     -11.531   7.806  72.577  1.00  0.00    -0.428 C  
HETATM    2  C   UNL     1     -11.677   6.416  71.982  1.00  0.00    -0.376 C  
ENDROOT
BRANCH   2   3
HETATM    3  C   UNL     1     -11.470   6.418  70.465  1.00  0.00    -0.444 C  
BRANCH   3   4
HETATM    4  C   UNL     1     -10.389   5.410  70.079  1.00  0.00    -0.366 C  
BRANCH   4   5
HETATM    5  C   UNL     1     -10.294   5.185  68.569  1.00  0.00    -0.140 C  
BRANCH   5   6
HETATM    6  C   UNL     1     -11.030   6.309  67.830  1.00  0.00    -0.427 C  
BRANCH   6   7
HETATM    7  C   UNL     1     -10.078   7.229  67.079  1.00  0.00    -0.316 C  
BRANCH   7   8
HETATM    8  C   UNL     1     -10.120   8.668  67.600  1.00  0.00    -0.213 C  
HETATM    9  O   UNL     1      -9.717   8.985  68.716  1.00  0.00    -0.154 OA 
BRANCH   8  10
HETATM   10  C   UNL     1     -10.673   9.678  66.614  1.00  0.00    -0.102 C  
BRANCH  10  11
HETATM   11  C   UNL     1     -10.611  11.161  67.009  1.00  0.00    -0.295 C  
BRANCH  11  12
HETATM   12  C   UNL     1     -10.678  12.069  65.752  1.00  0.00    -0.319 C  
HETATM   13  C   UNL     1     -10.158  11.342  64.502  1.00  0.00    -0.287 C  
HETATM   14  O   UNL     1      -8.742  11.322  64.429  1.00  0.00    -0.376 OA 
HETATM   15  C   UNL     1     -10.709  12.148  63.355  1.00  0.00    -0.461 C  
HETATM   16  H   UNL     1      -8.420  10.873  63.656  1.00  0.00     0.000 HD 
HETATM   17  C   UNL     1     -12.123  12.483  63.785  1.00  0.00    -0.529 C  
HETATM   18  O   UNL     1     -12.506  13.678  63.133  1.00  0.00    -1.033 OA 
HETATM   19  C   UNL     1     -12.108  12.549  65.342  1.00  0.00    -0.494 C  
HETATM   20  H   UNL     1     -13.393  13.888  63.403  1.00  0.00     0.000 HD 
BRANCH  19  21
HETATM   21  C   UNL     1     -12.466  13.921  65.946  1.00  0.00    -0.519 C  
BRANCH  21  22
HETATM   22  C   UNL     1     -11.315  14.624  66.621  1.00  0.00    -0.358 C  
HETATM   23  C   UNL     1     -11.106  14.823  67.931  1.00  0.00    -0.301 C  
BRANCH  23  24
HETATM   24  C   UNL     1     -12.015  14.431  69.056  1.00  0.00    -0.342 C  
BRANCH  24  25
HETATM   25  C   UNL     1     -11.724  13.023  69.581  1.00  0.00    -0.364 C  
BRANCH  25  26
HETATM   26  C   UNL     1     -12.533  12.663  70.830  1.00  0.00    -0.357 C  
HETATM   27  C   UNL     1     -12.677  11.164  70.982  1.00  0.00    -0.378 C  
HETATM   28  O   UNL     1     -12.223  10.328  70.225  1.00  0.00    -0.267 OA 
HETATM   29  O   UNL     1     -13.382  10.832  72.090  1.00  0.00    -0.442 OA 
ENDBRANCH  25  26
ENDBRANCH  24  25
ENDBRANCH  23  24
ENDBRANCH  21  22
ENDBRANCH  19  21
ENDBRANCH  11  12
ENDBRANCH  10  11
ENDBRANCH   8  10
ENDBRANCH   7   8
ENDBRANCH   6   7
ENDBRANCH   5   6
ENDBRANCH   4   5
ENDBRANCH   3   4
ENDBRANCH   2   3
TORSDOF 14
ENDMDL
MODEL       47
REMARK 921   NORMALIZED FREE ENERGY PREDICTED BY IDOCK:   -4.94 KCAL/MOL
REMARK 922        TOTAL FREE ENERGY PREDICTED BY IDOCK:  -11.94 KCAL/MOL
REMARK 923 INTER-LIGAND FREE ENERGY PREDICTED BY IDOCK:   -8.99 KCAL/MOL
REMARK 924 INTRA-LIGAND FREE ENERGY PREDICTED BY IDOCK:   -2.96 KCAL/MOL
REMARK 927      BINDING AFFINITY PREDICTED BY RF-SCORE:    0.00 PKD
ROOT
HETATM    1  C   UNL     1     -13.638  13.256  72.390  1.00  0.00    -0.694 C  
HETATM    2  C   UNL     1     -14.182  14.660  72.200  1.00  0.00    -0.608 C  
ENDROOT
BRANCH   2   3
HETATM    3  C   UNL     1     -13.288  15.503  71.288  1.00  0.00    -0.588 C  
BRANCH   3   4
HETATM    4  C   UNL     1     -12.446  14.597  70.391  1.00  0.00    -0.410 C  
BRANCH   4   5
HETATM    5  C   UNL     1     -11.189  15.286  69.858  1.00  0.00    -0.305 C  
BRANCH   5   6
HETATM    6  C   UNL     1     -11.188  15.252  68.325  1.00  0.00    -0.318 C  
BRANCH   6   7
HETATM    7  C   UNL     1     -12.238  14.302  67.767  1.00  0.00    -0.199 C  
BRANCH   7   8
HETATM    8  C   UNL     1     -11.848  13.733  66.401  1.00  0.00    -0.404 C  
HETATM    9  O   UNL     1     -12.427  14.038  65.361  1.00  0.00    -0.451 OA 
BRANCH   8  10
HETATM   10  C   UNL     1     -10.667  12.783  66.428  1.00  0.00    -0.282 C  
BRANCH  10  11
HETATM   11  C   UNL     1     -10.931  11.312  66.076  1.00  0.00    -0.237 C  
BRANCH  11  12
HETATM   12  C   UNL     1     -10.648  10.394  67.295  1.00  0.00    -0.322 C  
HETATM   13  C   UNL     1      -9.669   9.264  66.935  1.00  0.00    -0.190 C  
HETATM   14  O   UNL     1     -10.298   8.190  66.254  1.00  0.00    -0.452 OA 
HETATM   15  C   UNL     1      -9.160   8.784  68.269  1.00  0.00    -0.141 C  
HETATM   16  H   UNL     1      -9.693   7.492  66.032  1.00  0.00     0.000 HD 
HETATM   17  C   UNL     1      -8.948  10.057  69.062  1.00  0.00    -0.163 C  
HETATM   18  O   UNL     1      -9.068   9.740  70.436  1.00  0.00    -0.314 OA 
HETATM   19  C   UNL     1      -9.983  11.091  68.525  1.00  0.00    -0.198 C  
HETATM   20  H   UNL     1      -8.936  10.538  70.934  1.00  0.00     0.000 HD 
BRANCH  19  21
HETATM   21  C   UNL     1     -11.019  11.583  69.556  1.00  0.00    -0.186 C  
BRANCH  21  22
HETATM   22  C   UNL     1     -12.341  10.860  69.503  1.00  0.00    -0.241 C  
HETATM   23  C   UNL     1     -12.970  10.192  70.480  1.00  0.00    -0.214 C  
BRANCH  23  24
HETATM   24  C   UNL     1     -12.472   9.956  71.873  1.00  0.00    -0.435 C  
BRANCH  24  25
HETATM   25  C   UNL     1     -12.538   8.481  72.278  1.00  0.00    -0.438 C  
BRANCH  25  26
HETATM   26  C   UNL     1     -12.713   7.534  71.089  1.00  0.00    -0.279 C  
HETATM   27  C   UNL     1     -11.390   6.940  70.657  1.00  0.00    -0.320 C  
HETATM   28  O   UNL     1     -10.310   7.168  71.167  1.00  0.00    -0.203 OA 
HETATM   29  O   UNL     1     -11.532   6.090  69.611  1.00  0.00    -0.394 OA 
ENDBRANCH  25  26
ENDBRANCH  24  25
ENDBRANCH  23  24
ENDBRANCH  21  22
ENDBRANCH  19  21
ENDBRANCH  11  12
ENDBRANCH  10  11
ENDBRANCH   8  10
ENDBRANCH   7   8
ENDBRANCH   6   7
ENDBRANCH   5   6
ENDBRANCH   4   5
ENDBRANCH   3   4
ENDBRANCH   2   3
TORSDOF 14
ENDMDL
MODEL       48
REMARK 921   NORMALIZED FREE ENERGY PREDICTED BY IDOCK:   -4.94 KCAL/MOL
REMARK 922        TOTAL FREE ENERGY PREDICTED BY IDOCK:  -11.94 KCAL/MOL
REMARK 923 INTER-LIGAND FREE ENERGY PREDICTED BY IDOCK:  -10.18 KCAL/MOL
REMARK 924 INTRA-LIGAND FREE ENERGY PREDICTED BY IDOCK:   -1.76 KCAL/MOL
REMARK 927      BINDING AFFINITY PREDICTED BY RF-SCORE:    0.00 PKD
ROOT
HETATM    1  C   UNL     1      -5.982  21.025  66.595  1.00  0.00    -0.324 C  
HETATM    2  C   UNL     1      -7.372  20.782  67.154  1.00  0.00    -0.385 C  
ENDROOT
BRANCH   2   3
HETATM    3  C   UNL     1      -8.154  19.764  66.321  1.00  0.00    -0.356 C  
BRANCH   3   4
HETATM    4  C   UNL     1      -9.649  20.077  66.374  1.00  0.00    -0.536 C  
BRANCH   4   5
HETATM    5  C   UNL     1     -10.525  18.856  66.087  1.00  0.00    -0.521 C  
BRANCH   5   6
HETATM    6  C   UNL     1      -9.677  17.580  66.159  1.00  0.00    -0.225 C  
BRANCH   6   7
HETATM    7  C   UNL     1     -10.257  16.553  67.120  1.00  0.00    -0.284 C  
BRANCH   7   8
HETATM    8  C   UNL     1      -9.750  16.737  68.552  1.00  0.00    -0.248 C  
HETATM    9  O   UNL     1      -8.569  16.948  68.819  1.00  0.00    -0.252 OA 
BRANCH   8  10
HETATM   10  C   UNL     1     -10.827  16.670  69.616  1.00  0.00    -0.282 C  
BRANCH  10  11
HETATM   11  C   UNL     1     -11.922  15.606  69.450  1.00  0.00    -0.349 C  
BRANCH  11  12
HETATM   12  C   UNL     1     -12.002  14.696  70.705  1.00  0.00    -0.380 C  
HETATM   13  C   UNL     1     -12.893  15.314  71.794  1.00  0.00    -0.380 C  
HETATM   14  O   UNL     1     -12.227  16.316  72.545  1.00  0.00    -0.493 OA 
HETATM   15  C   UNL     1     -13.229  14.152  72.693  1.00  0.00    -0.612 C  
HETATM   16  H   UNL     1     -12.778  16.698  73.219  1.00  0.00     0.000 HD 
HETATM   17  C   UNL     1     -13.491  13.009  71.735  1.00  0.00    -0.314 C  
HETATM   18  O   UNL     1     -13.216  11.799  72.413  1.00  0.00    -0.520 OA 
HETATM   19  C   UNL     1     -12.617  13.278  70.473  1.00  0.00    -0.259 C  
HETATM   20  H   UNL     1     -13.380  11.081  71.813  1.00  0.00     0.000 HD 
BRANCH  19  21
HETATM   21  C   UNL     1     -11.544  12.211  70.175  1.00  0.00    -0.202 C  
BRANCH  21  22
HETATM   22  C   UNL     1     -11.914  11.248  69.074  1.00  0.00    -0.393 C  
HETATM   23  C   UNL     1     -11.275  11.009  67.921  1.00  0.00    -0.375 C  
BRANCH  23  24
HETATM   24  C   UNL     1     -10.041  11.695  67.417  1.00  0.00    -0.218 C  
BRANCH  24  25
HETATM   25  C   UNL     1     -10.360  12.926  66.566  1.00  0.00    -0.272 C  
BRANCH  25  26
HETATM   26  C   UNL     1     -11.834  13.018  66.162  1.00  0.00    -0.466 C  
HETATM   27  C   UNL     1     -12.077  12.381  64.811  1.00  0.00    -0.416 C  
HETATM   28  O   UNL     1     -11.231  11.858  64.111  1.00  0.00    -0.332 OA 
HETATM   29  O   UNL     1     -13.380  12.446  64.447  1.00  0.00    -0.789 OA 
ENDBRANCH  25  26
ENDBRANCH  24  25
ENDBRANCH  23  24
ENDBRANCH  21  22
ENDBRANCH  19  21
ENDBRANCH  11  12
ENDBRANCH  10  11
ENDBRANCH   8  10
ENDBRANCH   7   8
ENDBRANCH   6   7
ENDBRANCH   5   6
ENDBRANCH   4   5
ENDBRANCH   3   4
ENDBRANCH   2   3
TORSDOF 14
ENDMDL
MODEL       49
REMARK 921   NORMALIZED FREE ENERGY PREDICTED BY IDOCK:   -4.93 KCAL/MOL
REMARK 922        TOTAL FREE ENERGY PREDICTED BY IDOCK:  -11.92 KCAL/MOL
REMARK 923 INTER-LIGAND FREE ENERGY PREDICTED BY IDOCK:   -9.02 KCAL/MOL
REMARK 924 INTRA-LIGAND FREE ENERGY PREDICTED BY IDOCK:   -2.90 KCAL/MOL
REMARK 927      BINDING AFFINITY PREDICTED BY RF-SCORE:    0.00 PKD
ROOT
HETATM    1  C   UNL     1     -11.671   6.619  70.157  1.00  0.00    -0.412 C  
HETATM    2  C   UNL     1     -12.403   6.852  71.466  1.00  0.00    -0.420 C  
ENDROOT
BRANCH   2   3
HETATM    3  C   UNL     1     -12.116   8.240  72.044  1.00  0.00    -0.402 C  
BRANCH   3   4
HETATM    4  C   UNL     1     -13.350   9.132  71.909  1.00  0.00    -0.490 C  
BRANCH   4   5
HETATM    5  C   UNL     1     -13.030  10.509  71.325  1.00  0.00    -0.532 C  
BRANCH   5   6
HETATM    6  C   UNL     1     -11.633  10.493  70.694  1.00  0.00    -0.445 C  
BRANCH   6   7
HETATM    7  C   UNL     1     -11.653  10.917  69.232  1.00  0.00    -0.388 C  
BRANCH   7   8
HETATM    8  C   UNL     1     -11.263  12.384  69.041  1.00  0.00    -0.266 C  
HETATM    9  O   UNL     1     -11.992  13.316  69.372  1.00  0.00    -0.306 OA 
BRANCH   8  10
HETATM   10  C   UNL     1      -9.890  12.598  68.437  1.00  0.00    -0.200 C  
BRANCH  10  11
HETATM   11  C   UNL     1      -9.811  13.348  67.099  1.00  0.00    -0.237 C  
BRANCH  11  12
HETATM   12  C   UNL     1     -10.871  12.810  66.101  1.00  0.00    -0.303 C  
HETATM   13  C   UNL     1     -11.729  13.946  65.522  1.00  0.00    -0.349 C  
HETATM   14  O   UNL     1     -12.754  14.365  66.408  1.00  0.00    -0.486 OA 
HETATM   15  C   UNL     1     -12.347  13.344  64.288  1.00  0.00    -0.396 C  
HETATM   16  H   UNL     1     -13.285  15.068  66.051  1.00  0.00     0.000 HD 
HETATM   17  C   UNL     1     -11.222  12.542  63.666  1.00  0.00    -0.483 C  
HETATM   18  O   UNL     1     -11.798  11.497  62.907  1.00  0.00    -0.859 OA 
HETATM   19  C   UNL     1     -10.303  12.085  64.839  1.00  0.00    -0.316 C  
HETATM   20  H   UNL     1     -11.093  10.994  62.517  1.00  0.00     0.000 HD 
BRANCH  19  21
HETATM   21  C   UNL     1     -10.194  10.559  65.033  1.00  0.00    -0.365 C  
BRANCH  21  22
HETATM   22  C   UNL     1      -8.799  10.068  65.329  1.00  0.00    -0.205 C  
HETATM   23  C   UNL     1      -8.353   9.414  66.411  1.00  0.00    -0.116 C  
BRANCH  23  24
HETATM   24  C   UNL     1      -9.142   9.053  67.633  1.00  0.00    -0.144 C  
BRANCH  24  25
HETATM   25  C   UNL     1      -8.266   8.477  68.748  1.00  0.00    -0.122 C  
BRANCH  25  26
HETATM   26  C   UNL     1      -8.541   9.102  70.117  1.00  0.00    -0.195 C  
HETATM   27  C   UNL     1      -8.508   8.062  71.216  1.00  0.00    -0.122 C  
HETATM   28  O   UNL     1      -8.296   6.874  71.062  1.00  0.00    -0.123 OA 
HETATM   29  O   UNL     1      -8.738   8.604  72.436  1.00  0.00    -0.336 OA 
ENDBRANCH  25  26
ENDBRANCH  24  25
ENDBRANCH  23  24
ENDBRANCH  21  22
ENDBRANCH  19  21
ENDBRANCH  11  12
ENDBRANCH  10  11
ENDBRANCH   8  10
ENDBRANCH   7   8
ENDBRANCH   6   7
ENDBRANCH   5   6
ENDBRANCH   4   5
ENDBRANCH   3   4
ENDBRANCH   2   3
TORSDOF 14
ENDMDL
MODEL       50
REMARK 921   NORMALIZED FREE ENERGY PREDICTED BY IDOCK:   -4.93 KCAL/MOL
REMARK 922        TOTAL FREE ENERGY PREDICTED BY IDOCK:  -11.91 KCAL/MOL
REMARK 923 INTER-LIGAND FREE ENERGY PREDICTED BY IDOCK:   -9.48 KCAL/MOL
REMARK 924 INTRA-LIGAND FREE ENERGY PREDICTED BY IDOCK:   -2.43 KCAL/MOL
REMARK 927      BINDING AFFINITY PREDICTED BY RF-SCORE:    0.00 PKD
ROOT
HETATM    1  C   UNL     1      -6.114  10.631  65.962  1.00  0.00    -0.131 C  
HETATM    2  C   UNL     1      -6.909   9.395  66.344  1.00  0.00    -0.083 C  
ENDROOT
BRANCH   2   3
HETATM    3  C   UNL     1      -8.351   9.462  65.836  1.00  0.00    -0.125 C  
BRANCH   3   4
HETATM    4  C   UNL     1      -8.436   8.900  64.417  1.00  0.00    -0.170 C  
BRANCH   4   5
HETATM    5  C   UNL     1      -9.159   9.836  63.446  1.00  0.00    -0.262 C  
BRANCH   5   6
HETATM    6  C   UNL     1     -10.001  10.849  64.232  1.00  0.00    -0.392 C  
BRANCH   6   7
HETATM    7  C   UNL     1     -10.732  11.825  63.321  1.00  0.00    -0.414 C  
BRANCH   7   8
HETATM    8  C   UNL     1     -11.933  12.480  64.006  1.00  0.00    -0.454 C  
HETATM    9  O   UNL     1     -13.095  12.230  63.695  1.00  0.00    -0.780 OA 
BRANCH   8  10
HETATM   10  C   UNL     1     -11.576  13.440  65.123  1.00  0.00    -0.329 C  
BRANCH  10  11
HETATM   11  C   UNL     1     -12.331  13.296  66.452  1.00  0.00    -0.347 C  
BRANCH  11  12
HETATM   12  C   UNL     1     -11.357  12.928  67.603  1.00  0.00    -0.349 C  
HETATM   13  C   UNL     1     -11.331  11.412  67.857  1.00  0.00    -0.303 C  
HETATM   14  O   UNL     1     -12.435  10.967  68.629  1.00  0.00    -0.772 OA 
HETATM   15  C   UNL     1     -10.057  11.193  68.629  1.00  0.00    -0.208 C  
HETATM   16  H   UNL     1     -12.419  10.030  68.786  1.00  0.00     0.000 HD 
HETATM   17  C   UNL     1      -9.051  12.096  67.944  1.00  0.00    -0.185 C  
HETATM   18  O   UNL     1      -8.057  12.439  68.890  1.00  0.00    -0.336 OA 
HETATM   19  C   UNL     1      -9.858  13.295  67.362  1.00  0.00    -0.227 C  
HETATM   20  H   UNL     1      -7.426  13.005  68.460  1.00  0.00     0.000 HD 
BRANCH  19  21
HETATM   21  C   UNL     1      -9.489  14.678  67.936  1.00  0.00    -0.210 C  
BRANCH  21  22
HETATM   22  C   UNL     1     -10.612  15.684  67.904  1.00  0.00    -0.278 C  
HETATM   23  C   UNL     1     -11.310  16.193  68.930  1.00  0.00    -0.350 C  
BRANCH  23  24
HETATM   24  C   UNL     1     -11.170  15.835  70.379  1.00  0.00    -0.383 C  
BRANCH  24  25
HETATM   25  C   UNL     1     -12.427  15.166  70.941  1.00  0.00    -0.425 C  
BRANCH  25  26
HETATM   26  C   UNL     1     -12.425  13.644  70.782  1.00  0.00    -0.432 C  
HETATM   27  C   UNL     1     -13.163  12.969  71.918  1.00  0.00    -0.430 C  
HETATM   28  O   UNL     1     -13.697  13.535  72.853  1.00  0.00    -0.650 OA 
HETATM   29  O   UNL     1     -13.178  11.621  71.784  1.00  0.00    -0.453 OA 
ENDBRANCH  25  26
ENDBRANCH  24  25
ENDBRANCH  23  24
ENDBRANCH  21  22
ENDBRANCH  19  21
ENDBRANCH  11  12
ENDBRANCH  10  11
ENDBRANCH   8  10
ENDBRANCH   7   8
ENDBRANCH   6   7
ENDBRANCH   5   6
ENDBRANCH   4   5
ENDBRANCH   3   4
ENDBRANCH   2   3
TORSDOF 14
ENDMDL
MODEL       51
REMARK 921   NORMALIZED FREE ENERGY PREDICTED BY IDOCK:   -4.92 KCAL/MOL
REMARK 922        TOTAL FREE ENERGY PREDICTED BY IDOCK:  -11.91 KCAL/MOL
REMARK 923 INTER-LIGAND FREE ENERGY PREDICTED BY IDOCK:   -8.64 KCAL/MOL
REMARK 924 INTRA-LIGAND FREE ENERGY PREDICTED BY IDOCK:   -3.27 KCAL/MOL
REMARK 927      BINDING AFFINITY PREDICTED BY RF-SCORE:    0.00 PKD
ROOT
HETATM    1  C   UNL     1     -10.153  19.118  68.512  1.00  0.00    -0.499 C  
HETATM    2  C   UNL     1     -10.921  19.551  67.276  1.00  0.00    -0.460 C  
ENDROOT
BRANCH   2   3
HETATM    3  C   UNL     1     -10.413  18.854  66.012  1.00  0.00    -0.507 C  
BRANCH   3   4
HETATM    4  C   UNL     1     -10.329  17.346  66.240  1.00  0.00    -0.330 C  
BRANCH   4   5
HETATM    5  C   UNL     1     -10.875  16.533  65.064  1.00  0.00    -0.245 C  
BRANCH   5   6
HETATM    6  C   UNL     1     -10.485  15.059  65.226  1.00  0.00    -0.428 C  
BRANCH   6   7
HETATM    7  C   UNL     1     -11.577  14.242  65.902  1.00  0.00    -0.358 C  
BRANCH   7   8
HETATM    8  C   UNL     1     -11.061  12.904  66.438  1.00  0.00    -0.285 C  
HETATM    9  O   UNL     1     -11.798  11.946  66.659  1.00  0.00    -0.591 OA 
BRANCH   8  10
HETATM   10  C   UNL     1      -9.561  12.845  66.648  1.00  0.00    -0.257 C  
BRANCH  10  11
HETATM   11  C   UNL     1      -9.054  12.387  68.023  1.00  0.00    -0.195 C  
BRANCH  11  12
HETATM   12  C   UNL     1      -8.217  13.503  68.702  1.00  0.00    -0.040 C  
HETATM   13  C   UNL     1      -6.786  13.556  68.141  1.00  0.00    -0.119 C  
HETATM   14  O   UNL     1      -5.942  12.563  68.700  1.00  0.00    -0.060 OA 
HETATM   15  C   UNL     1      -6.288  14.920  68.539  1.00  0.00    -0.093 C  
HETATM   16  H   UNL     1      -5.058  12.595  68.354  1.00  0.00     0.000 HD 
HETATM   17  C   UNL     1      -7.476  15.830  68.299  1.00  0.00    -0.116 C  
HETATM   18  O   UNL     1      -7.354  16.943  69.164  1.00  0.00    -0.239 OA 
HETATM   19  C   UNL     1      -8.751  14.959  68.510  1.00  0.00    -0.172 C  
HETATM   20  H   UNL     1      -8.099  17.514  69.014  1.00  0.00     0.000 HD 
BRANCH  19  21
HETATM   21  C   UNL     1      -9.672  15.407  69.662  1.00  0.00    -0.251 C  
BRANCH  21  22
HETATM   22  C   UNL     1     -11.123  15.552  69.278  1.00  0.00    -0.285 C  
HETATM   23  C   UNL     1     -12.136  14.700  69.495  1.00  0.00    -0.335 C  
BRANCH  23  24
HETATM   24  C   UNL     1     -12.052  13.350  70.140  1.00  0.00    -0.415 C  
BRANCH  24  25
HETATM   25  C   UNL     1     -12.729  13.312  71.512  1.00  0.00    -0.376 C  
BRANCH  25  26
HETATM   26  C   UNL     1     -13.446  14.616  71.870  1.00  0.00    -0.461 C  
HETATM   27  C   UNL     1     -12.956  15.170  73.190  1.00  0.00    -0.518 C  
HETATM   28  O   UNL     1     -12.106  14.667  73.900  1.00  0.00    -0.368 OA 
HETATM   29  O   UNL     1     -13.575  16.332  73.514  1.00  0.00    -0.642 OA 
ENDBRANCH  25  26
ENDBRANCH  24  25
ENDBRANCH  23  24
ENDBRANCH  21  22
ENDBRANCH  19  21
ENDBRANCH  11  12
ENDBRANCH  10  11
ENDBRANCH   8  10
ENDBRANCH   7   8
ENDBRANCH   6   7
ENDBRANCH   5   6
ENDBRANCH   4   5
ENDBRANCH   3   4
ENDBRANCH   2   3
TORSDOF 14
ENDMDL
MODEL       52
REMARK 921   NORMALIZED FREE ENERGY PREDICTED BY IDOCK:   -4.91 KCAL/MOL
REMARK 922        TOTAL FREE ENERGY PREDICTED BY IDOCK:  -11.88 KCAL/MOL
REMARK 923 INTER-LIGAND FREE ENERGY PREDICTED BY IDOCK:  -10.16 KCAL/MOL
REMARK 924 INTRA-LIGAND FREE ENERGY PREDICTED BY IDOCK:   -1.72 KCAL/MOL
REMARK 927      BINDING AFFINITY PREDICTED BY RF-SCORE:    0.00 PKD
ROOT
HETATM    1  C   UNL     1     -12.439  15.770  74.365  1.00  0.00    -0.790 C  
HETATM    2  C   UNL     1     -12.357  15.761  72.849  1.00  0.00    -0.570 C  
ENDROOT
BRANCH   2   3
HETATM    3  C   UNL     1     -13.642  15.232  72.209  1.00  0.00    -0.586 C  
BRANCH   3   4
HETATM    4  C   UNL     1     -13.535  13.725  71.978  1.00  0.00    -0.559 C  
BRANCH   4   5
HETATM    5  C   UNL     1     -12.347  13.340  71.094  1.00  0.00    -0.323 C  
BRANCH   5   6
HETATM    6  C   UNL     1     -12.345  11.825  70.859  1.00  0.00    -0.420 C  
BRANCH   6   7
HETATM    7  C   UNL     1     -13.384  11.105  71.707  1.00  0.00    -0.378 C  
BRANCH   7   8
HETATM    8  C   UNL     1     -13.203   9.585  71.693  1.00  0.00    -0.406 C  
HETATM    9  O   UNL     1     -14.134   8.805  71.515  1.00  0.00    -0.395 OA 
BRANCH   8  10
HETATM   10  C   UNL     1     -11.774   9.119  71.885  1.00  0.00    -0.436 C  
BRANCH  10  11
HETATM   11  C   UNL     1     -11.204   8.132  70.855  1.00  0.00    -0.286 C  
BRANCH  11  12
HETATM   12  C   UNL     1      -9.972   8.739  70.133  1.00  0.00    -0.201 C  
HETATM   13  C   UNL     1      -8.654   8.230  70.741  1.00  0.00    -0.138 C  
HETATM   14  O   UNL     1      -8.305   8.908  71.937  1.00  0.00    -0.349 OA 
HETATM   15  C   UNL     1      -7.626   8.522  69.680  1.00  0.00    -0.088 C  
HETATM   16  H   UNL     1      -7.491   8.594  72.313  1.00  0.00     0.000 HD 
HETATM   17  C   UNL     1      -8.321   8.156  68.384  1.00  0.00    -0.126 C  
HETATM   18  O   UNL     1      -7.738   8.921  67.346  1.00  0.00    -0.095 OA 
HETATM   19  C   UNL     1      -9.843   8.395  68.614  1.00  0.00    -0.180 C  
HETATM   20  H   UNL     1      -8.174   8.691  66.533  1.00  0.00     0.000 HD 
BRANCH  19  21
HETATM   21  C   UNL     1     -10.485   9.467  67.710  1.00  0.00    -0.310 C  
BRANCH  21  22
HETATM   22  C   UNL     1     -10.286  10.884  68.186  1.00  0.00    -0.202 C  
HETATM   23  C   UNL     1     -10.398  12.025  67.492  1.00  0.00    -0.217 C  
BRANCH  23  24
HETATM   24  C   UNL     1     -10.705  12.162  66.031  1.00  0.00    -0.308 C  
BRANCH  24  25
HETATM   25  C   UNL     1     -11.772  13.223  65.752  1.00  0.00    -0.395 C  
BRANCH  25  26
HETATM   26  C   UNL     1     -11.198  14.632  65.590  1.00  0.00    -0.342 C  
HETATM   27  C   UNL     1     -11.819  15.349  64.411  1.00  0.00    -0.256 C  
HETATM   28  O   UNL     1     -12.666  14.891  63.668  1.00  0.00    -0.689 OA 
HETATM   29  O   UNL     1     -11.327  16.602  64.262  1.00  0.00    -1.116 OA 
ENDBRANCH  25  26
ENDBRANCH  24  25
ENDBRANCH  23  24
ENDBRANCH  21  22
ENDBRANCH  19  21
ENDBRANCH  11  12
ENDBRANCH  10  11
ENDBRANCH   8  10
ENDBRANCH   7   8
ENDBRANCH   6   7
ENDBRANCH   5   6
ENDBRANCH   4   5
ENDBRANCH   3   4
ENDBRANCH   2   3
TORSDOF 14
ENDMDL
MODEL       53
REMARK 921   NORMALIZED FREE ENERGY PREDICTED BY IDOCK:   -4.91 KCAL/MOL
REMARK 922        TOTAL FREE ENERGY PREDICTED BY IDOCK:  -11.88 KCAL/MOL
REMARK 923 INTER-LIGAND FREE ENERGY PREDICTED BY IDOCK:   -9.87 KCAL/MOL
REMARK 924 INTRA-LIGAND FREE ENERGY PREDICTED BY IDOCK:   -2.01 KCAL/MOL
REMARK 927      BINDING AFFINITY PREDICTED BY RF-SCORE:    0.00 PKD
ROOT
HETATM    1  C   UNL     1     -10.277  20.082  66.061  1.00  0.00    -0.568 C  
HETATM    2  C   UNL     1     -10.467  19.678  67.512  1.00  0.00    -0.589 C  
ENDROOT
BRANCH   2   3
HETATM    3  C   UNL     1     -10.650  18.167  67.667  1.00  0.00    -0.424 C  
BRANCH   3   4
HETATM    4  C   UNL     1     -10.496  17.476  66.312  1.00  0.00    -0.283 C  
BRANCH   4   5
HETATM    5  C   UNL     1      -9.316  16.504  66.269  1.00  0.00    -0.334 C  
BRANCH   5   6
HETATM    6  C   UNL     1      -9.770  15.161  65.685  1.00  0.00    -0.351 C  
BRANCH   6   7
HETATM    7  C   UNL     1     -11.279  14.974  65.767  1.00  0.00    -0.318 C  
BRANCH   7   8
HETATM    8  C   UNL     1     -11.690  13.992  66.866  1.00  0.00    -0.410 C  
HETATM    9  O   UNL     1     -11.604  12.773  66.737  1.00  0.00    -0.330 OA 
BRANCH   8  10
HETATM   10  C   UNL     1     -12.183  14.644  68.142  1.00  0.00    -0.094 C  
BRANCH  10  11
HETATM   11  C   UNL     1     -11.167  14.844  69.276  1.00  0.00    -0.300 C  
BRANCH  11  12
HETATM   12  C   UNL     1     -11.812  14.543  70.655  1.00  0.00    -0.367 C  
HETATM   13  C   UNL     1     -12.484  15.791  71.249  1.00  0.00    -0.448 C  
HETATM   14  O   UNL     1     -11.558  16.675  71.859  1.00  0.00    -0.570 OA 
HETATM   15  C   UNL     1     -13.418  15.241  72.295  1.00  0.00    -0.552 C  
HETATM   16  H   UNL     1     -11.973  17.446  72.226  1.00  0.00     0.000 HD 
HETATM   17  C   UNL     1     -14.019  14.013  71.642  1.00  0.00    -0.310 C  
HETATM   18  O   UNL     1     -14.402  13.117  72.667  1.00  0.00    -0.660 OA 
HETATM   19  C   UNL     1     -12.949  13.470  70.648  1.00  0.00    -0.096 C  
HETATM   20  H   UNL     1     -14.779  12.346  72.258  1.00  0.00     0.000 HD 
BRANCH  19  21
HETATM   21  C   UNL     1     -12.424  12.053  70.955  1.00  0.00    -0.384 C  
BRANCH  21  22
HETATM   22  C   UNL     1     -12.255  11.176  69.739  1.00  0.00    -0.369 C  
HETATM   23  C   UNL     1     -11.490  10.084  69.594  1.00  0.00    -0.210 C  
BRANCH  23  24
HETATM   24  C   UNL     1     -10.561   9.494  70.612  1.00  0.00    -0.374 C  
BRANCH  24  25
HETATM   25  C   UNL     1     -11.278   9.118  71.911  1.00  0.00    -0.400 C  
BRANCH  25  26
HETATM   26  C   UNL     1     -11.869   7.706  71.889  1.00  0.00    -0.332 C  
HETATM   27  C   UNL     1     -13.376   7.740  71.752  1.00  0.00    -0.319 C  
HETATM   28  O   UNL     1     -14.058   8.743  71.670  1.00  0.00    -0.401 OA 
HETATM   29  O   UNL     1     -13.910   6.495  71.721  1.00  0.00    -0.076 OA 
ENDBRANCH  25  26
ENDBRANCH  24  25
ENDBRANCH  23  24
ENDBRANCH  21  22
ENDBRANCH  19  21
ENDBRANCH  11  12
ENDBRANCH  10  11
ENDBRANCH   8  10
ENDBRANCH   7   8
ENDBRANCH   6   7
ENDBRANCH   5   6
ENDBRANCH   4   5
ENDBRANCH   3   4
ENDBRANCH   2   3
TORSDOF 14
ENDMDL
MODEL       54
REMARK 921   NORMALIZED FREE ENERGY PREDICTED BY IDOCK:   -4.91 KCAL/MOL
REMARK 922        TOTAL FREE ENERGY PREDICTED BY IDOCK:  -11.88 KCAL/MOL
REMARK 923 INTER-LIGAND FREE ENERGY PREDICTED BY IDOCK:   -9.62 KCAL/MOL
REMARK 924 INTRA-LIGAND FREE ENERGY PREDICTED BY IDOCK:   -2.25 KCAL/MOL
REMARK 927      BINDING AFFINITY PREDICTED BY RF-SCORE:    0.00 PKD
ROOT
HETATM    1  C   UNL     1     -12.187  12.764  65.211  1.00  0.00    -0.535 C  
HETATM    2  C   UNL     1     -11.437  13.415  66.360  1.00  0.00    -0.359 C  
ENDROOT
BRANCH   2   3
HETATM    3  C   UNL     1     -11.697  12.704  67.690  1.00  0.00    -0.420 C  
BRANCH   3   4
HETATM    4  C   UNL     1     -11.230  13.577  68.854  1.00  0.00    -0.316 C  
BRANCH   4   5
HETATM    5  C   UNL     1     -11.994  14.898  68.954  1.00  0.00    -0.295 C  
BRANCH   5   6
HETATM    6  C   UNL     1     -12.659  15.011  70.331  1.00  0.00    -0.399 C  
BRANCH   6   7
HETATM    7  C   UNL     1     -12.248  13.883  71.267  1.00  0.00    -0.353 C  
BRANCH   7   8
HETATM    8  C   UNL     1     -13.437  13.280  72.017  1.00  0.00    -0.507 C  
HETATM    9  O   UNL     1     -14.354  13.961  72.470  1.00  0.00    -0.661 OA 
BRANCH   8  10
HETATM   10  C   UNL     1     -13.411  11.769  72.131  1.00  0.00    -0.334 C  
BRANCH  10  11
HETATM   11  C   UNL     1     -12.747  10.983  70.989  1.00  0.00    -0.485 C  
BRANCH  11  12
HETATM   12  C   UNL     1     -12.188   9.630  71.504  1.00  0.00    -0.483 C  
HETATM   13  C   UNL     1     -13.318   8.650  71.858  1.00  0.00    -0.382 C  
HETATM   14  O   UNL     1     -13.893   8.912  73.128  1.00  0.00    -1.084 OA 
HETATM   15  C   UNL     1     -12.640   7.305  71.882  1.00  0.00    -0.326 C  
HETATM   16  H   UNL     1     -14.591   8.307  73.347  1.00  0.00     0.000 HD 
HETATM   17  C   UNL     1     -11.705   7.344  70.690  1.00  0.00    -0.242 C  
HETATM   18  O   UNL     1     -10.632   6.459  70.950  1.00  0.00    -0.220 OA 
HETATM   19  C   UNL     1     -11.303   8.836  70.490  1.00  0.00    -0.255 C  
HETATM   20  H   UNL     1     -10.045   6.483  70.203  1.00  0.00     0.000 HD 
BRANCH  19  21
HETATM   21  C   UNL     1      -9.801   9.141  70.652  1.00  0.00    -0.308 C  
BRANCH  21  22
HETATM   22  C   UNL     1      -9.237  10.066  69.602  1.00  0.00    -0.236 C  
HETATM   23  C   UNL     1      -9.571  10.166  68.308  1.00  0.00    -0.150 C  
BRANCH  23  24
HETATM   24  C   UNL     1     -10.571   9.328  67.569  1.00  0.00    -0.329 C  
BRANCH  24  25
HETATM   25  C   UNL     1      -9.916   8.187  66.787  1.00  0.00    -0.349 C  
BRANCH  25  26
HETATM   26  C   UNL     1     -10.166   6.809  67.403  1.00  0.00    -0.254 C  
HETATM   27  C   UNL     1      -8.972   6.337  68.204  1.00  0.00    -0.115 C  
HETATM   28  O   UNL     1      -7.933   6.950  68.357  1.00  0.00    -0.118 OA 
HETATM   29  O   UNL     1      -9.185   5.122  68.764  1.00  0.00    -0.110 OA 
ENDBRANCH  25  26
ENDBRANCH  24  25
ENDBRANCH  23  24
ENDBRANCH  21  22
ENDBRANCH  19  21
ENDBRANCH  11  12
ENDBRANCH  10  11
ENDBRANCH   8  10
ENDBRANCH   7   8
ENDBRANCH   6   7
ENDBRANCH   5   6
ENDBRANCH   4   5
ENDBRANCH   3   4
ENDBRANCH   2   3
TORSDOF 14
ENDMDL
MODEL       55
REMARK 921   NORMALIZED FREE ENERGY PREDICTED BY IDOCK:   -4.89 KCAL/MOL
REMARK 922        TOTAL FREE ENERGY PREDICTED BY IDOCK:  -11.86 KCAL/MOL
REMARK 923 INTER-LIGAND FREE ENERGY PREDICTED BY IDOCK:   -9.25 KCAL/MOL
REMARK 924 INTRA-LIGAND FREE ENERGY PREDICTED BY IDOCK:   -2.60 KCAL/MOL
REMARK 927      BINDING AFFINITY PREDICTED BY RF-SCORE:    0.00 PKD
ROOT
HETATM    1  C   UNL     1     -11.690  13.197  63.947  1.00  0.00    -0.515 C  
HETATM    2  C   UNL     1     -11.256  11.948  64.694  1.00  0.00    -0.364 C  
ENDROOT
BRANCH   2   3
HETATM    3  C   UNL     1     -11.496  12.071  66.200  1.00  0.00    -0.401 C  
BRANCH   3   4
HETATM    4  C   UNL     1     -10.730  10.979  66.946  1.00  0.00    -0.325 C  
BRANCH   4   5
HETATM    5  C   UNL     1     -11.242  10.758  68.371  1.00  0.00    -0.345 C  
BRANCH   5   6
HETATM    6  C   UNL     1     -12.023  11.991  68.840  1.00  0.00    -0.303 C  
BRANCH   6   7
HETATM    7  C   UNL     1     -12.118  12.075  70.356  1.00  0.00    -0.407 C  
BRANCH   7   8
HETATM    8  C   UNL     1     -12.453  13.486  70.846  1.00  0.00    -0.369 C  
HETATM    9  O   UNL     1     -12.949  13.709  71.948  1.00  0.00    -0.344 OA 
BRANCH   8  10
HETATM   10  C   UNL     1     -12.094  14.592  69.875  1.00  0.00    -0.385 C  
BRANCH  10  11
HETATM   11  C   UNL     1     -10.859  15.447  70.197  1.00  0.00    -0.328 C  
BRANCH  11  12
HETATM   12  C   UNL     1     -10.022  15.712  68.917  1.00  0.00    -0.215 C  
HETATM   13  C   UNL     1      -9.425  14.412  68.355  1.00  0.00    -0.207 C  
HETATM   14  O   UNL     1      -8.260  13.998  69.049  1.00  0.00    -0.321 OA 
HETATM   15  C   UNL     1      -9.067  14.760  66.934  1.00  0.00    -0.268 C  
HETATM   16  H   UNL     1      -7.891  13.195  68.701  1.00  0.00     0.000 HD 
HETATM   17  C   UNL     1     -10.235  15.598  66.454  1.00  0.00    -0.290 C  
HETATM   18  O   UNL     1      -9.766  16.452  65.428  1.00  0.00    -0.486 OA 
HETATM   19  C   UNL     1     -10.808  16.320  67.711  1.00  0.00    -0.315 C  
HETATM   20  H   UNL     1     -10.498  16.978  65.127  1.00  0.00     0.000 HD 
BRANCH  19  21
HETATM   21  C   UNL     1     -10.738  17.859  67.676  1.00  0.00    -0.343 C  
BRANCH  21  22
HETATM   22  C   UNL     1      -9.869  18.467  68.749  1.00  0.00    -0.411 C  
HETATM   23  C   UNL     1      -9.059  19.533  68.667  1.00  0.00    -0.396 C  
BRANCH  23  24
HETATM   24  C   UNL     1      -8.780  20.359  67.448  1.00  0.00    -0.415 C  
BRANCH  24  25
HETATM   25  C   UNL     1      -7.292  20.399  67.095  1.00  0.00    -0.355 C  
BRANCH  25  26
HETATM   26  C   UNL     1      -6.550  19.108  67.451  1.00  0.00    -0.205 C  
HETATM   27  C   UNL     1      -6.707  18.063  66.369  1.00  0.00    -0.226 C  
HETATM   28  O   UNL     1      -7.336  18.199  65.337  1.00  0.00    -0.520 OA 
HETATM   29  O   UNL     1      -6.045  16.919  66.667  1.00  0.00    -0.194 OA 
ENDBRANCH  25  26
ENDBRANCH  24  25
ENDBRANCH  23  24
ENDBRANCH  21  22
ENDBRANCH  19  21
ENDBRANCH  11  12
ENDBRANCH  10  11
ENDBRANCH   8  10
ENDBRANCH   7   8
ENDBRANCH   6   7
ENDBRANCH   5   6
ENDBRANCH   4   5
ENDBRANCH   3   4
ENDBRANCH   2   3
TORSDOF 14
ENDMDL
MODEL       56
REMARK 921   NORMALIZED FREE ENERGY PREDICTED BY IDOCK:   -4.89 KCAL/MOL
REMARK 922        TOTAL FREE ENERGY PREDICTED BY IDOCK:  -11.84 KCAL/MOL
REMARK 923 INTER-LIGAND FREE ENERGY PREDICTED BY IDOCK:   -9.31 KCAL/MOL
REMARK 924 INTRA-LIGAND FREE ENERGY PREDICTED BY IDOCK:   -2.53 KCAL/MOL
REMARK 927      BINDING AFFINITY PREDICTED BY RF-SCORE:    0.00 PKD
ROOT
HETATM    1  C   UNL     1      -9.334   6.891  66.478  1.00  0.00    -0.197 C  
HETATM    2  C   UNL     1      -8.842   8.327  66.476  1.00  0.00    -0.175 C  
ENDROOT
BRANCH   2   3
HETATM    3  C   UNL     1      -9.650   9.207  65.519  1.00  0.00    -0.239 C  
BRANCH   3   4
HETATM    4  C   UNL     1      -8.871   9.430  64.223  1.00  0.00    -0.220 C  
BRANCH   4   5
HETATM    5  C   UNL     1      -9.442  10.565  63.371  1.00  0.00    -0.354 C  
BRANCH   5   6
HETATM    6  C   UNL     1     -10.553  11.286  64.143  1.00  0.00    -0.437 C  
BRANCH   6   7
HETATM    7  C   UNL     1     -10.953  12.602  63.490  1.00  0.00    -0.413 C  
BRANCH   7   8
HETATM    8  C   UNL     1     -12.034  13.343  64.279  1.00  0.00    -0.430 C  
HETATM    9  O   UNL     1     -12.597  14.349  63.854  1.00  0.00    -0.814 OA 
BRANCH   8  10
HETATM   10  C   UNL     1     -12.380  12.719  65.615  1.00  0.00    -0.444 C  
BRANCH  10  11
HETATM   11  C   UNL     1     -12.280  13.610  66.863  1.00  0.00    -0.398 C  
BRANCH  11  12
HETATM   12  C   UNL     1     -11.296  13.001  67.898  1.00  0.00    -0.327 C  
HETATM   13  C   UNL     1     -11.430  11.471  67.971  1.00  0.00    -0.311 C  
HETATM   14  O   UNL     1     -12.536  11.054  68.754  1.00  0.00    -0.712 OA 
HETATM   15  C   UNL     1     -10.151  11.025  68.629  1.00  0.00    -0.207 C  
HETATM   16  H   UNL     1     -12.618  10.109  68.800  1.00  0.00     0.000 HD 
HETATM   17  C   UNL     1      -9.085  11.893  67.991  1.00  0.00    -0.189 C  
HETATM   18  O   UNL     1      -8.012  12.008  68.905  1.00  0.00    -0.316 OA 
HETATM   19  C   UNL     1      -9.779  13.234  67.606  1.00  0.00    -0.219 C  
HETATM   20  H   UNL     1      -7.343  12.553  68.505  1.00  0.00     0.000 HD 
BRANCH  19  21
HETATM   21  C   UNL     1      -9.227  14.488  68.313  1.00  0.00    -0.201 C  
BRANCH  21  22
HETATM   22  C   UNL     1      -8.325  15.340  67.455  1.00  0.00    -0.191 C  
HETATM   23  C   UNL     1      -8.637  16.056  66.365  1.00  0.00    -0.369 C  
BRANCH  23  24
HETATM   24  C   UNL     1      -9.975  16.139  65.696  1.00  0.00    -0.330 C  
BRANCH  24  25
HETATM   25  C   UNL     1     -10.607  17.527  65.817  1.00  0.00    -0.176 C  
BRANCH  25  26
HETATM   26  C   UNL     1     -10.653  18.048  67.255  1.00  0.00    -0.358 C  
HETATM   27  C   UNL     1     -10.408  19.541  67.311  1.00  0.00    -0.447 C  
HETATM   28  O   UNL     1     -10.197  20.261  66.354  1.00  0.00    -0.427 OA 
HETATM   29  O   UNL     1     -10.458  20.017  68.578  1.00  0.00    -0.411 OA 
ENDBRANCH  25  26
ENDBRANCH  24  25
ENDBRANCH  23  24
ENDBRANCH  21  22
ENDBRANCH  19  21
ENDBRANCH  11  12
ENDBRANCH  10  11
ENDBRANCH   8  10
ENDBRANCH   7   8
ENDBRANCH   6   7
ENDBRANCH   5   6
ENDBRANCH   4   5
ENDBRANCH   3   4
ENDBRANCH   2   3
TORSDOF 14
ENDMDL
MODEL       57
REMARK 921   NORMALIZED FREE ENERGY PREDICTED BY IDOCK:   -4.88 KCAL/MOL
REMARK 922        TOTAL FREE ENERGY PREDICTED BY IDOCK:  -11.83 KCAL/MOL
REMARK 923 INTER-LIGAND FREE ENERGY PREDICTED BY IDOCK:  -10.11 KCAL/MOL
REMARK 924 INTRA-LIGAND FREE ENERGY PREDICTED BY IDOCK:   -1.72 KCAL/MOL
REMARK 927      BINDING AFFINITY PREDICTED BY RF-SCORE:    0.00 PKD
ROOT
HETATM    1  C   UNL     1     -10.480  19.291  66.195  1.00  0.00    -0.577 C  
HETATM    2  C   UNL     1     -10.525  18.364  67.397  1.00  0.00    -0.443 C  
ENDROOT
BRANCH   2   3
HETATM    3  C   UNL     1     -10.384  16.895  66.993  1.00  0.00    -0.307 C  
BRANCH   3   4
HETATM    4  C   UNL     1     -10.418  16.002  68.232  1.00  0.00    -0.269 C  
BRANCH   4   5
HETATM    5  C   UNL     1      -9.627  14.704  68.055  1.00  0.00    -0.212 C  
BRANCH   5   6
HETATM    6  C   UNL     1     -10.447  13.520  68.580  1.00  0.00    -0.250 C  
BRANCH   6   7
HETATM    7  C   UNL     1      -9.860  12.179  68.164  1.00  0.00    -0.207 C  
BRANCH   7   8
HETATM    8  C   UNL     1     -10.874  11.295  67.435  1.00  0.00    -0.262 C  
HETATM    9  O   UNL     1     -11.961  11.711  67.043  1.00  0.00    -0.593 OA 
BRANCH   8  10
HETATM   10  C   UNL     1     -10.417   9.868  67.207  1.00  0.00    -0.319 C  
BRANCH  10  11
HETATM   11  C   UNL     1      -9.723   9.149  68.374  1.00  0.00    -0.166 C  
BRANCH  11  12
HETATM   12  C   UNL     1     -10.755   8.378  69.239  1.00  0.00    -0.139 C  
HETATM   13  C   UNL     1     -10.765   6.878  68.901  1.00  0.00    -0.222 C  
HETATM   14  O   UNL     1     -11.507   6.586  67.728  1.00  0.00    -0.664 OA 
HETATM   15  C   UNL     1     -11.434   6.240  70.090  1.00  0.00    -0.452 C  
HETATM   16  H   UNL     1     -11.513   5.659  67.519  1.00  0.00     0.000 HD 
HETATM   17  C   UNL     1     -10.855   6.980  71.279  1.00  0.00    -0.235 C  
HETATM   18  O   UNL     1     -11.796   6.918  72.333  1.00  0.00    -0.404 OA 
HETATM   19  C   UNL     1     -10.507   8.415  70.781  1.00  0.00    -0.230 C  
HETATM   20  H   UNL     1     -11.433   7.381  73.078  1.00  0.00     0.000 HD 
BRANCH  19  21
HETATM   21  C   UNL     1     -11.275   9.557  71.475  1.00  0.00    -0.437 C  
BRANCH  21  22
HETATM   22  C   UNL     1     -12.074  10.429  70.539  1.00  0.00    -0.423 C  
HETATM   23  C   UNL     1     -12.868  11.468  70.835  1.00  0.00    -0.293 C  
BRANCH  23  24
HETATM   24  C   UNL     1     -13.197  11.988  72.201  1.00  0.00    -0.400 C  
BRANCH  24  25
HETATM   25  C   UNL     1     -13.895  13.350  72.158  1.00  0.00    -0.605 C  
BRANCH  25  26
HETATM   26  C   UNL     1     -13.094  14.463  72.836  1.00  0.00    -0.612 C  
HETATM   27  C   UNL     1     -12.722  15.553  71.855  1.00  0.00    -0.417 C  
HETATM   28  O   UNL     1     -13.007  15.570  70.672  1.00  0.00    -0.462 OA 
HETATM   29  O   UNL     1     -12.021  16.551  72.445  1.00  0.00    -0.513 OA 
ENDBRANCH  25  26
ENDBRANCH  24  25
ENDBRANCH  23  24
ENDBRANCH  21  22
ENDBRANCH  19  21
ENDBRANCH  11  12
ENDBRANCH  10  11
ENDBRANCH   8  10
ENDBRANCH   7   8
ENDBRANCH   6   7
ENDBRANCH   5   6
ENDBRANCH   4   5
ENDBRANCH   3   4
ENDBRANCH   2   3
TORSDOF 14
ENDMDL
MODEL       58
REMARK 921   NORMALIZED FREE ENERGY PREDICTED BY IDOCK:   -4.87 KCAL/MOL
REMARK 922        TOTAL FREE ENERGY PREDICTED BY IDOCK:  -11.81 KCAL/MOL
REMARK 923 INTER-LIGAND FREE ENERGY PREDICTED BY IDOCK:   -8.94 KCAL/MOL
REMARK 924 INTRA-LIGAND FREE ENERGY PREDICTED BY IDOCK:   -2.87 KCAL/MOL
REMARK 927      BINDING AFFINITY PREDICTED BY RF-SCORE:    0.00 PKD
ROOT
HETATM    1  C   UNL     1     -12.426   8.840  71.715  1.00  0.00    -0.407 C  
HETATM    2  C   UNL     1     -13.341  10.041  71.876  1.00  0.00    -0.516 C  
ENDROOT
BRANCH   2   3
HETATM    3  C   UNL     1     -12.749  11.301  71.241  1.00  0.00    -0.510 C  
BRANCH   3   4
HETATM    4  C   UNL     1     -13.249  12.545  71.974  1.00  0.00    -0.524 C  
BRANCH   4   5
HETATM    5  C   UNL     1     -12.869  13.848  71.268  1.00  0.00    -0.435 C  
BRANCH   5   6
HETATM    6  C   UNL     1     -12.071  13.535  69.996  1.00  0.00    -0.411 C  
BRANCH   6   7
HETATM    7  C   UNL     1     -11.910  14.754  69.099  1.00  0.00    -0.340 C  
BRANCH   7   8
HETATM    8  C   UNL     1     -10.533  14.814  68.433  1.00  0.00    -0.243 C  
HETATM    9  O   UNL     1      -9.488  14.911  69.071  1.00  0.00    -0.210 OA 
BRANCH   8  10
HETATM   10  C   UNL     1     -10.560  14.714  66.921  1.00  0.00    -0.281 C  
BRANCH  10  11
HETATM   11  C   UNL     1     -11.901  14.369  66.255  1.00  0.00    -0.391 C  
BRANCH  11  12
HETATM   12  C   UNL     1     -11.795  13.042  65.457  1.00  0.00    -0.438 C  
HETATM   13  C   UNL     1     -11.359  13.291  64.005  1.00  0.00    -0.363 C  
HETATM   14  O   UNL     1     -12.427  13.721  63.177  1.00  0.00    -1.089 OA 
HETATM   15  C   UNL     1     -10.869  11.946  63.535  1.00  0.00    -0.502 C  
HETATM   16  H   UNL     1     -12.158  13.874  62.279  1.00  0.00     0.000 HD 
HETATM   17  C   UNL     1     -10.095  11.402  64.719  1.00  0.00    -0.277 C  
HETATM   18  O   UNL     1     -10.119   9.990  64.644  1.00  0.00    -0.369 OA 
HETATM   19  C   UNL     1     -10.749  12.013  65.995  1.00  0.00    -0.317 C  
HETATM   20  H   UNL     1      -9.634   9.649  65.387  1.00  0.00     0.000 HD 
BRANCH  19  21
HETATM   21  C   UNL     1     -11.372  10.993  66.968  1.00  0.00    -0.164 C  
BRANCH  21  22
HETATM   22  C   UNL     1     -10.613  10.823  68.261  1.00  0.00    -0.233 C  
HETATM   23  C   UNL     1     -10.220   9.689  68.859  1.00  0.00    -0.214 C  
BRANCH  23  24
HETATM   24  C   UNL     1     -10.494   8.288  68.399  1.00  0.00    -0.206 C  
BRANCH  24  25
HETATM   25  C   UNL     1      -9.257   7.616  67.798  1.00  0.00    -0.141 C  
BRANCH  25  26
HETATM   26  C   UNL     1      -7.978   8.440  67.965  1.00  0.00    -0.119 C  
HETATM   27  C   UNL     1      -7.409   8.854  66.625  1.00  0.00    -0.085 C  
HETATM   28  O   UNL     1      -7.883   8.581  65.538  1.00  0.00    -0.095 OA 
HETATM   29  O   UNL     1      -6.283   9.594  66.759  1.00  0.00    -0.063 OA 
ENDBRANCH  25  26
ENDBRANCH  24  25
ENDBRANCH  23  24
ENDBRANCH  21  22
ENDBRANCH  19  21
ENDBRANCH  11  12
ENDBRANCH  10  11
ENDBRANCH   8  10
ENDBRANCH   7   8
ENDBRANCH   6   7
ENDBRANCH   5   6
ENDBRANCH   4   5
ENDBRANCH   3   4
ENDBRANCH   2   3
TORSDOF 14
ENDMDL
MODEL       59
REMARK 921   NORMALIZED FREE ENERGY PREDICTED BY IDOCK:   -4.86 KCAL/MOL
REMARK 922        TOTAL FREE ENERGY PREDICTED BY IDOCK:  -11.79 KCAL/MOL
REMARK 923 INTER-LIGAND FREE ENERGY PREDICTED BY IDOCK:   -8.96 KCAL/MOL
REMARK 924 INTRA-LIGAND FREE ENERGY PREDICTED BY IDOCK:   -2.84 KCAL/MOL
REMARK 927      BINDING AFFINITY PREDICTED BY RF-SCORE:    0.00 PKD
ROOT
HETATM    1  C   UNL     1     -12.597  10.739  71.006  1.00  0.00    -0.520 C  
HETATM    2  C   UNL     1     -11.385  10.511  70.121  1.00  0.00    -0.400 C  
ENDROOT
BRANCH   2   3
HETATM    3  C   UNL     1     -11.636  10.955  68.679  1.00  0.00    -0.373 C  
BRANCH   3   4
HETATM    4  C   UNL     1     -10.434  10.607  67.802  1.00  0.00    -0.258 C  
BRANCH   4   5
HETATM    5  C   UNL     1      -9.098  10.998  68.438  1.00  0.00    -0.161 C  
BRANCH   5   6
HETATM    6  C   UNL     1      -8.435  12.106  67.611  1.00  0.00    -0.163 C  
BRANCH   6   7
HETATM    7  C   UNL     1      -7.804  13.181  68.484  1.00  0.00    -0.105 C  
BRANCH   7   8
HETATM    8  C   UNL     1      -6.705  13.959  67.755  1.00  0.00    -0.176 C  
HETATM    9  O   UNL     1      -5.724  13.415  67.255  1.00  0.00    -0.353 OA 
BRANCH   8  10
HETATM   10  C   UNL     1      -6.940  15.453  67.671  1.00  0.00    -0.209 C  
BRANCH  10  11
HETATM   11  C   UNL     1      -8.031  15.948  66.709  1.00  0.00    -0.287 C  
BRANCH  11  12
HETATM   12  C   UNL     1      -8.577  17.330  67.158  1.00  0.00    -0.222 C  
HETATM   13  C   UNL     1      -7.968  18.473  66.330  1.00  0.00    -0.246 C  
HETATM   14  O   UNL     1      -6.666  18.830  66.763  1.00  0.00    -0.188 OA 
HETATM   15  C   UNL     1      -8.908  19.628  66.556  1.00  0.00    -0.410 C  
HETATM   16  H   UNL     1      -6.289  19.537  66.251  1.00  0.00     0.000 HD 
HETATM   17  C   UNL     1     -10.285  18.998  66.506  1.00  0.00    -0.421 C  
HETATM   18  O   UNL     1     -11.160  19.800  67.275  1.00  0.00    -0.363 OA 
HETATM   19  C   UNL     1     -10.119  17.530  67.001  1.00  0.00    -0.323 C  
HETATM   20  H   UNL     1     -12.023  19.405  67.244  1.00  0.00     0.000 HD 
BRANCH  19  21
HETATM   21  C   UNL     1     -10.893  17.176  68.286  1.00  0.00    -0.314 C  
BRANCH  21  22
HETATM   22  C   UNL     1     -10.595  15.804  68.835  1.00  0.00    -0.233 C  
HETATM   23  C   UNL     1     -11.075  14.618  68.433  1.00  0.00    -0.270 C  
BRANCH  23  24
HETATM   24  C   UNL     1     -12.085  14.377  67.351  1.00  0.00    -0.348 C  
BRANCH  24  25
HETATM   25  C   UNL     1     -11.435  14.123  65.989  1.00  0.00    -0.343 C  
BRANCH  25  26
HETATM   26  C   UNL     1     -11.890  12.816  65.335  1.00  0.00    -0.456 C  
HETATM   27  C   UNL     1     -12.525  13.066  63.984  1.00  0.00    -0.292 C  
HETATM   28  O   UNL     1     -12.671  14.154  63.459  1.00  0.00    -0.794 OA 
HETATM   29  O   UNL     1     -12.922  11.916  63.389  1.00  0.00    -0.730 OA 
ENDBRANCH  25  26
ENDBRANCH  24  25
ENDBRANCH  23  24
ENDBRANCH  21  22
ENDBRANCH  19  21
ENDBRANCH  11  12
ENDBRANCH  10  11
ENDBRANCH   8  10
ENDBRANCH   7   8
ENDBRANCH   6   7
ENDBRANCH   5   6
ENDBRANCH   4   5
ENDBRANCH   3   4
ENDBRANCH   2   3
TORSDOF 14
ENDMDL
MODEL       60
REMARK 921   NORMALIZED FREE ENERGY PREDICTED BY IDOCK:   -4.86 KCAL/MOL
REMARK 922        TOTAL FREE ENERGY PREDICTED BY IDOCK:  -11.79 KCAL/MOL
REMARK 923 INTER-LIGAND FREE ENERGY PREDICTED BY IDOCK:  -10.05 KCAL/MOL
REMARK 924 INTRA-LIGAND FREE ENERGY PREDICTED BY IDOCK:   -1.74 KCAL/MOL
REMARK 927      BINDING AFFINITY PREDICTED BY RF-SCORE:    0.00 PKD
ROOT
HETATM    1  C   UNL     1     -10.366   5.295  71.248  1.00  0.00    -0.292 C  
HETATM    2  C   UNL     1     -10.708   6.097  70.005  1.00  0.00    -0.370 C  
ENDROOT
BRANCH   2   3
HETATM    3  C   UNL     1     -10.168   5.439  68.733  1.00  0.00    -0.252 C  
BRANCH   3   4
HETATM    4  C   UNL     1     -10.811   6.070  67.499  1.00  0.00    -0.393 C  
BRANCH   4   5
HETATM    5  C   UNL     1      -9.912   7.104  66.820  1.00  0.00    -0.278 C  
BRANCH   5   6
HETATM    6  C   UNL     1     -10.524   8.502  66.970  1.00  0.00    -0.362 C  
BRANCH   6   7
HETATM    7  C   UNL     1      -9.673   9.417  67.839  1.00  0.00    -0.177 C  
BRANCH   7   8
HETATM    8  C   UNL     1     -10.354  10.759  68.120  1.00  0.00    -0.171 C  
HETATM    9  O   UNL     1     -10.507  11.204  69.254  1.00  0.00    -0.214 OA 
BRANCH   8  10
HETATM   10  C   UNL     1     -10.797  11.512  66.882  1.00  0.00    -0.331 C  
BRANCH  10  11
HETATM   11  C   UNL     1      -9.702  12.027  65.934  1.00  0.00    -0.256 C  
BRANCH  11  12
HETATM   12  C   UNL     1     -10.308  12.947  64.841  1.00  0.00    -0.329 C  
HETATM   13  C   UNL     1     -11.399  12.224  64.035  1.00  0.00    -0.399 C  
HETATM   14  O   UNL     1     -10.867  11.366  63.039  1.00  0.00    -0.737 OA 
HETATM   15  C   UNL     1     -12.168  13.340  63.379  1.00  0.00    -0.476 C  
HETATM   16  H   UNL     1     -11.541  10.919  62.541  1.00  0.00     0.000 HD 
HETATM   17  C   UNL     1     -12.276  14.398  64.458  1.00  0.00    -0.463 C  
HETATM   18  O   UNL     1     -12.411  15.656  63.825  1.00  0.00    -1.005 OA 
HETATM   19  C   UNL     1     -11.017  14.239  65.362  1.00  0.00    -0.335 C  
HETATM   20  H   UNL     1     -12.478  16.319  64.502  1.00  0.00     0.000 HD 
BRANCH  19  21
HETATM   21  C   UNL     1     -10.074  15.457  65.398  1.00  0.00    -0.394 C  
BRANCH  21  22
HETATM   22  C   UNL     1      -9.026  15.401  66.482  1.00  0.00    -0.344 C  
HETATM   23  C   UNL     1      -9.103  15.844  67.745  1.00  0.00    -0.196 C  
BRANCH  23  24
HETATM   24  C   UNL     1     -10.257  16.562  68.377  1.00  0.00    -0.266 C  
BRANCH  24  25
HETATM   25  C   UNL     1     -10.058  18.080  68.406  1.00  0.00    -0.392 C  
BRANCH  25  26
HETATM   26  C   UNL     1     -10.990  18.830  67.452  1.00  0.00    -0.281 C  
HETATM   27  C   UNL     1     -10.306  19.134  66.137  1.00  0.00    -0.484 C  
HETATM   28  O   UNL     1      -9.163  18.835  65.846  1.00  0.00    -0.457 OA 
HETATM   29  O   UNL     1     -11.124  19.789  65.278  1.00  0.00    -0.395 OA 
ENDBRANCH  25  26
ENDBRANCH  24  25
ENDBRANCH  23  24
ENDBRANCH  21  22
ENDBRANCH  19  21
ENDBRANCH  11  12
ENDBRANCH  10  11
ENDBRANCH   8  10
ENDBRANCH   7   8
ENDBRANCH   6   7
ENDBRANCH   5   6
ENDBRANCH   4   5
ENDBRANCH   3   4
ENDBRANCH   2   3
TORSDOF 14
ENDMDL
MODEL       61
REMARK 921   NORMALIZED FREE ENERGY PREDICTED BY IDOCK:   -4.85 KCAL/MOL
REMARK 922        TOTAL FREE ENERGY PREDICTED BY IDOCK:  -11.78 KCAL/MOL
REMARK 923 INTER-LIGAND FREE ENERGY PREDICTED BY IDOCK:   -8.95 KCAL/MOL
REMARK 924 INTRA-LIGAND FREE ENERGY PREDICTED BY IDOCK:   -2.84 KCAL/MOL
REMARK 927      BINDING AFFINITY PREDICTED BY RF-SCORE:    0.00 PKD
ROOT
HETATM    1  C   UNL     1     -13.546  12.860  72.024  1.00  0.00    -0.499 C  
HETATM    2  C   UNL     1     -13.286  14.257  72.559  1.00  0.00    -0.595 C  
ENDROOT
BRANCH   2   3
HETATM    3  C   UNL     1     -13.178  15.289  71.434  1.00  0.00    -0.555 C  
BRANCH   3   4
HETATM    4  C   UNL     1     -11.824  15.994  71.495  1.00  0.00    -0.554 C  
BRANCH   4   5
HETATM    5  C   UNL     1     -11.047  15.909  70.180  1.00  0.00    -0.369 C  
BRANCH   5   6
HETATM    6  C   UNL     1     -12.023  15.737  69.010  1.00  0.00    -0.294 C  
BRANCH   6   7
HETATM    7  C   UNL     1     -11.346  15.174  67.769  1.00  0.00    -0.335 C  
BRANCH   7   8
HETATM    8  C   UNL     1     -12.076  13.953  67.204  1.00  0.00    -0.387 C  
HETATM    9  O   UNL     1     -12.455  13.884  66.038  1.00  0.00    -0.463 OA 
BRANCH   8  10
HETATM   10  C   UNL     1     -12.268  12.821  68.193  1.00  0.00     0.031 C  
BRANCH  10  11
HETATM   11  C   UNL     1     -11.059  12.412  69.048  1.00  0.00    -0.288 C  
BRANCH  11  12
HETATM   12  C   UNL     1     -10.059  11.562  68.218  1.00  0.00    -0.205 C  
HETATM   13  C   UNL     1     -10.787  10.519  67.355  1.00  0.00    -0.291 C  
HETATM   14  O   UNL     1     -11.173   9.371  68.093  1.00  0.00    -0.507 OA 
HETATM   15  C   UNL     1      -9.768  10.129  66.317  1.00  0.00    -0.274 C  
HETATM   16  H   UNL     1     -11.623   8.725  67.560  1.00  0.00     0.000 HD 
HETATM   17  C   UNL     1      -9.112  11.440  65.935  1.00  0.00    -0.198 C  
HETATM   18  O   UNL     1      -7.806  11.156  65.471  1.00  0.00    -0.368 OA 
HETATM   19  C   UNL     1      -9.187  12.356  67.193  1.00  0.00    -0.199 C  
HETATM   20  H   UNL     1      -7.394  11.978  65.232  1.00  0.00     0.000 HD 
BRANCH  19  21
HETATM   21  C   UNL     1      -7.826  12.781  67.781  1.00  0.00    -0.156 C  
BRANCH  21  22
HETATM   22  C   UNL     1      -7.886  13.994  68.675  1.00  0.00    -0.130 C  
HETATM   23  C   UNL     1      -7.613  15.271  68.374  1.00  0.00    -0.116 C  
BRANCH  23  24
HETATM   24  C   UNL     1      -7.124  15.800  67.060  1.00  0.00    -0.169 C  
BRANCH  24  25
HETATM   25  C   UNL     1      -8.130  16.742  66.394  1.00  0.00    -0.355 C  
BRANCH  25  26
HETATM   26  C   UNL     1      -8.826  17.680  67.383  1.00  0.00    -0.235 C  
HETATM   27  C   UNL     1     -10.041  18.335  66.762  1.00  0.00    -0.364 C  
HETATM   28  O   UNL     1     -10.438  18.161  65.625  1.00  0.00    -0.626 OA 
HETATM   29  O   UNL     1     -10.673  19.161  67.630  1.00  0.00    -0.448 OA 
ENDBRANCH  25  26
ENDBRANCH  24  25
ENDBRANCH  23  24
ENDBRANCH  21  22
ENDBRANCH  19  21
ENDBRANCH  11  12
ENDBRANCH  10  11
ENDBRANCH   8  10
ENDBRANCH   7   8
ENDBRANCH   6   7
ENDBRANCH   5   6
ENDBRANCH   4   5
ENDBRANCH   3   4
ENDBRANCH   2   3
TORSDOF 14
ENDMDL
MODEL       62
REMARK 921   NORMALIZED FREE ENERGY PREDICTED BY IDOCK:   -4.85 KCAL/MOL
REMARK 922        TOTAL FREE ENERGY PREDICTED BY IDOCK:  -11.78 KCAL/MOL
REMARK 923 INTER-LIGAND FREE ENERGY PREDICTED BY IDOCK:   -9.90 KCAL/MOL
REMARK 924 INTRA-LIGAND FREE ENERGY PREDICTED BY IDOCK:   -1.88 KCAL/MOL
REMARK 927      BINDING AFFINITY PREDICTED BY RF-SCORE:    0.00 PKD
ROOT
HETATM    1  C   UNL     1     -10.758   6.310  67.550  1.00  0.00    -0.398 C  
HETATM    2  C   UNL     1     -10.802   6.168  69.061  1.00  0.00    -0.416 C  
ENDROOT
BRANCH   2   3
HETATM    3  C   UNL     1     -10.692   7.522  69.766  1.00  0.00    -0.249 C  
BRANCH   3   4
HETATM    4  C   UNL     1     -11.419   7.477  71.109  1.00  0.00    -0.295 C  
BRANCH   4   5
HETATM    5  C   UNL     1     -11.808   8.864  71.624  1.00  0.00    -0.415 C  
BRANCH   5   6
HETATM    6  C   UNL     1     -11.099   9.943  70.797  1.00  0.00    -0.417 C  
BRANCH   6   7
HETATM    7  C   UNL     1     -11.975  11.166  70.569  1.00  0.00    -0.475 C  
BRANCH   7   8
HETATM    8  C   UNL     1     -11.829  11.737  69.157  1.00  0.00    -0.326 C  
HETATM    9  O   UNL     1     -12.209  11.138  68.154  1.00  0.00    -0.612 OA 
BRANCH   8  10
HETATM   10  C   UNL     1     -11.206  13.117  69.096  1.00  0.00    -0.303 C  
BRANCH  10  11
HETATM   11  C   UNL     1     -10.318  13.442  67.885  1.00  0.00    -0.238 C  
BRANCH  11  12
HETATM   12  C   UNL     1     -10.956  14.560  67.018  1.00  0.00    -0.312 C  
HETATM   13  C   UNL     1     -10.243  15.907  67.219  1.00  0.00    -0.278 C  
HETATM   14  O   UNL     1     -10.653  16.572  68.403  1.00  0.00    -0.288 OA 
HETATM   15  C   UNL     1     -10.653  16.719  66.018  1.00  0.00    -0.232 C  
HETATM   16  H   UNL     1     -10.213  17.405  68.527  1.00  0.00     0.000 HD 
HETATM   17  C   UNL     1     -10.594  15.734  64.869  1.00  0.00    -0.284 C  
HETATM   18  O   UNL     1     -11.496  16.172  63.872  1.00  0.00    -1.351 OA 
HETATM   19  C   UNL     1     -10.899  14.330  65.473  1.00  0.00    -0.325 C  
HETATM   20  H   UNL     1     -11.459  15.554  63.151  1.00  0.00     0.000 HD 
BRANCH  19  21
HETATM   21  C   UNL     1     -12.168  13.642  64.931  1.00  0.00    -0.447 C  
BRANCH  21  22
HETATM   22  C   UNL     1     -11.926  12.719  63.763  1.00  0.00    -0.585 C  
HETATM   23  C   UNL     1     -10.959  11.803  63.606  1.00  0.00    -0.513 C  
BRANCH  23  24
HETATM   24  C   UNL     1      -9.836  11.509  64.553  1.00  0.00    -0.278 C  
BRANCH  24  25
HETATM   25  C   UNL     1     -10.118  10.294  65.439  1.00  0.00    -0.354 C  
BRANCH  25  26
HETATM   26  C   UNL     1      -9.139  10.155  66.607  1.00  0.00    -0.164 C  
HETATM   27  C   UNL     1      -8.294   8.906  66.475  1.00  0.00    -0.115 C  
HETATM   28  O   UNL     1      -8.363   8.096  65.571  1.00  0.00    -0.138 OA 
HETATM   29  O   UNL     1      -7.415   8.777  67.498  1.00  0.00    -0.088 OA 
ENDBRANCH  25  26
ENDBRANCH  24  25
ENDBRANCH  23  24
ENDBRANCH  21  22
ENDBRANCH  19  21
ENDBRANCH  11  12
ENDBRANCH  10  11
ENDBRANCH   8  10
ENDBRANCH   7   8
ENDBRANCH   6   7
ENDBRANCH   5   6
ENDBRANCH   4   5
ENDBRANCH   3   4
ENDBRANCH   2   3
TORSDOF 14
ENDMDL
MODEL       63
REMARK 921   NORMALIZED FREE ENERGY PREDICTED BY IDOCK:   -4.85 KCAL/MOL
REMARK 922        TOTAL FREE ENERGY PREDICTED BY IDOCK:  -11.77 KCAL/MOL
REMARK 923 INTER-LIGAND FREE ENERGY PREDICTED BY IDOCK:   -9.83 KCAL/MOL
REMARK 924 INTRA-LIGAND FREE ENERGY PREDICTED BY IDOCK:   -1.95 KCAL/MOL
REMARK 927      BINDING AFFINITY PREDICTED BY RF-SCORE:    0.00 PKD
ROOT
HETATM    1  C   UNL     1     -10.654  20.007  65.828  1.00  0.00    -0.428 C  
HETATM    2  C   UNL     1     -10.562  19.692  67.310  1.00  0.00    -0.598 C  
ENDROOT
BRANCH   2   3
HETATM    3  C   UNL     1     -10.620  18.187  67.581  1.00  0.00    -0.424 C  
BRANCH   3   4
HETATM    4  C   UNL     1     -10.389  17.409  66.285  1.00  0.00    -0.330 C  
BRANCH   4   5
HETATM    5  C   UNL     1     -10.181  15.912  66.517  1.00  0.00    -0.297 C  
BRANCH   5   6
HETATM    6  C   UNL     1     -11.010  15.110  65.507  1.00  0.00    -0.370 C  
BRANCH   6   7
HETATM    7  C   UNL     1     -12.176  14.383  66.162  1.00  0.00    -0.358 C  
BRANCH   7   8
HETATM    8  C   UNL     1     -12.295  12.928  65.701  1.00  0.00    -0.423 C  
HETATM    9  O   UNL     1     -13.042  12.576  64.793  1.00  0.00    -0.853 OA 
BRANCH   8  10
HETATM   10  C   UNL     1     -11.391  11.959  66.436  1.00  0.00    -0.400 C  
BRANCH  10  11
HETATM   11  C   UNL     1      -9.972  11.753  65.884  1.00  0.00    -0.266 C  
BRANCH  11  12
HETATM   12  C   UNL     1      -9.928  10.542  64.915  1.00  0.00    -0.401 C  
HETATM   13  C   UNL     1      -9.786  10.994  63.453  1.00  0.00    -0.363 C  
HETATM   14  O   UNL     1     -11.016  11.419  62.889  1.00  0.00    -0.770 OA 
HETATM   15  C   UNL     1      -9.303   9.761  62.735  1.00  0.00    -0.156 C  
HETATM   16  H   UNL     1     -10.929  11.698  61.985  1.00  0.00     0.000 HD 
HETATM   17  C   UNL     1      -8.288   9.157  63.683  1.00  0.00    -0.187 C  
HETATM   18  O   UNL     1      -8.230   7.766  63.432  1.00  0.00    -0.315 OA 
HETATM   19  C   UNL     1      -8.733   9.555  65.122  1.00  0.00    -0.200 C  
HETATM   20  H   UNL     1      -7.593   7.387  64.027  1.00  0.00     0.000 HD 
BRANCH  19  21
HETATM   21  C   UNL     1      -9.094   8.378  66.050  1.00  0.00    -0.235 C  
BRANCH  21  22
HETATM   22  C   UNL     1      -8.503   8.473  67.434  1.00  0.00    -0.127 C  
HETATM   23  C   UNL     1      -9.118   8.760  68.590  1.00  0.00    -0.141 C  
BRANCH  23  24
HETATM   24  C   UNL     1     -10.562   9.114  68.777  1.00  0.00    -0.208 C  
BRANCH  24  25
HETATM   25  C   UNL     1     -10.998   9.047  70.242  1.00  0.00    -0.274 C  
BRANCH  25  26
HETATM   26  C   UNL     1     -11.503  10.386  70.786  1.00  0.00    -0.422 C  
HETATM   27  C   UNL     1     -12.843  10.233  71.472  1.00  0.00    -0.452 C  
HETATM   28  O   UNL     1     -13.465   9.195  71.591  1.00  0.00    -0.362 OA 
HETATM   29  O   UNL     1     -13.297  11.410  71.968  1.00  0.00    -0.467 OA 
ENDBRANCH  25  26
ENDBRANCH  24  25
ENDBRANCH  23  24
ENDBRANCH  21  22
ENDBRANCH  19  21
ENDBRANCH  11  12
ENDBRANCH  10  11
ENDBRANCH   8  10
ENDBRANCH   7   8
ENDBRANCH   6   7
ENDBRANCH   5   6
ENDBRANCH   4   5
ENDBRANCH   3   4
ENDBRANCH   2   3
TORSDOF 14
ENDMDL
MODEL       64
REMARK 921   NORMALIZED FREE ENERGY PREDICTED BY IDOCK:   -4.84 KCAL/MOL
REMARK 922        TOTAL FREE ENERGY PREDICTED BY IDOCK:  -11.75 KCAL/MOL
REMARK 923 INTER-LIGAND FREE ENERGY PREDICTED BY IDOCK:   -8.68 KCAL/MOL
REMARK 924 INTRA-LIGAND FREE ENERGY PREDICTED BY IDOCK:   -3.06 KCAL/MOL
REMARK 927      BINDING AFFINITY PREDICTED BY RF-SCORE:    0.00 PKD
ROOT
HETATM    1  C   UNL     1     -10.744  11.384  63.583  1.00  0.00    -0.470 C  
HETATM    2  C   UNL     1     -11.947  12.240  63.936  1.00  0.00    -0.582 C  
ENDROOT
BRANCH   2   3
HETATM    3  C   UNL     1     -12.061  12.474  65.444  1.00  0.00    -0.494 C  
BRANCH   3   4
HETATM    4  C   UNL     1     -12.240  13.964  65.735  1.00  0.00    -0.488 C  
BRANCH   4   5
HETATM    5  C   UNL     1     -12.034  14.313  67.210  1.00  0.00    -0.439 C  
BRANCH   5   6
HETATM    6  C   UNL     1     -11.929  13.027  68.038  1.00  0.00    -0.335 C  
BRANCH   6   7
HETATM    7  C   UNL     1     -11.861  13.305  69.533  1.00  0.00    -0.388 C  
BRANCH   7   8
HETATM    8  C   UNL     1     -12.280  12.097  70.374  1.00  0.00    -0.294 C  
HETATM    9  O   UNL     1     -12.856  12.204  71.454  1.00  0.00    -0.376 OA 
BRANCH   8  10
HETATM   10  C   UNL     1     -11.955  10.753  69.753  1.00  0.00    -0.397 C  
BRANCH  10  11
HETATM   11  C   UNL     1     -10.688  10.033  70.241  1.00  0.00    -0.367 C  
BRANCH  11  12
HETATM   12  C   UNL     1     -10.033   9.228  69.088  1.00  0.00    -0.181 C  
HETATM   13  C   UNL     1     -10.565   7.787  69.033  1.00  0.00    -0.166 C  
HETATM   14  O   UNL     1      -9.953   6.940  69.991  1.00  0.00    -0.179 OA 
HETATM   15  C   UNL     1     -10.207   7.318  67.647  1.00  0.00    -0.257 C  
HETATM   16  H   UNL     1     -10.281   6.049  69.958  1.00  0.00     0.000 HD 
HETATM   17  C   UNL     1     -10.505   8.514  66.765  1.00  0.00    -0.238 C  
HETATM   18  O   UNL     1      -9.679   8.429  65.620  1.00  0.00    -0.437 OA 
HETATM   19  C   UNL     1     -10.290   9.780  67.648  1.00  0.00    -0.281 C  
HETATM   20  H   UNL     1      -9.865   9.178  65.067  1.00  0.00     0.000 HD 
BRANCH  19  21
HETATM   21  C   UNL     1      -9.174  10.733  67.174  1.00  0.00    -0.160 C  
BRANCH  21  22
HETATM   22  C   UNL     1      -8.571  11.578  68.267  1.00  0.00    -0.161 C  
HETATM   23  C   UNL     1      -8.270  12.885  68.247  1.00  0.00    -0.153 C  
BRANCH  23  24
HETATM   24  C   UNL     1      -8.418  13.823  67.088  1.00  0.00    -0.189 C  
BRANCH  24  25
HETATM   25  C   UNL     1      -8.530  15.285  67.527  1.00  0.00    -0.192 C  
BRANCH  25  26
HETATM   26  C   UNL     1      -8.637  16.263  66.355  1.00  0.00    -0.361 C  
HETATM   27  C   UNL     1      -9.814  17.200  66.523  1.00  0.00    -0.296 C  
HETATM   28  O   UNL     1     -10.593  17.200  67.457  1.00  0.00    -0.347 OA 
HETATM   29  O   UNL     1      -9.913  18.079  65.497  1.00  0.00    -0.458 OA 
ENDBRANCH  25  26
ENDBRANCH  24  25
ENDBRANCH  23  24
ENDBRANCH  21  22
ENDBRANCH  19  21
ENDBRANCH  11  12
ENDBRANCH  10  11
ENDBRANCH   8  10
ENDBRANCH   7   8
ENDBRANCH   6   7
ENDBRANCH   5   6
ENDBRANCH   4   5
ENDBRANCH   3   4
ENDBRANCH   2   3
TORSDOF 14
ENDMDL
MODEL       65
REMARK 921   NORMALIZED FREE ENERGY PREDICTED BY IDOCK:   -4.81 KCAL/MOL
REMARK 922        TOTAL FREE ENERGY PREDICTED BY IDOCK:  -11.71 KCAL/MOL
REMARK 923 INTER-LIGAND FREE ENERGY PREDICTED BY IDOCK:   -9.04 KCAL/MOL
REMARK 924 INTRA-LIGAND FREE ENERGY PREDICTED BY IDOCK:   -2.67 KCAL/MOL
REMARK 927      BINDING AFFINITY PREDICTED BY RF-SCORE:    0.00 PKD
ROOT
HETATM    1  C   UNL     1      -8.426  12.256  68.284  1.00  0.00    -0.173 C  
HETATM    2  C   UNL     1      -8.599  12.067  66.788  1.00  0.00    -0.177 C  
ENDROOT
BRANCH   2   3
HETATM    3  C   UNL     1      -8.806  10.597  66.416  1.00  0.00    -0.164 C  
BRANCH   3   4
HETATM    4  C   UNL     1     -10.007  10.453  65.482  1.00  0.00    -0.348 C  
BRANCH   4   5
HETATM    5  C   UNL     1      -9.613  10.415  64.005  1.00  0.00    -0.376 C  
BRANCH   5   6
HETATM    6  C   UNL     1     -10.236  11.607  63.270  1.00  0.00    -0.445 C  
BRANCH   6   7
HETATM    7  C   UNL     1     -11.675  11.863  63.696  1.00  0.00    -0.572 C  
BRANCH   7   8
HETATM    8  C   UNL     1     -11.926  13.325  64.069  1.00  0.00    -0.465 C  
HETATM    9  O   UNL     1     -12.633  14.073  63.398  1.00  0.00    -0.845 OA 
BRANCH   8  10
HETATM   10  C   UNL     1     -11.256  13.771  65.353  1.00  0.00    -0.306 C  
BRANCH  10  11
HETATM   11  C   UNL     1     -12.159  14.286  66.484  1.00  0.00    -0.454 C  
BRANCH  11  12
HETATM   12  C   UNL     1     -11.317  14.675  67.728  1.00  0.00    -0.338 C  
HETATM   13  C   UNL     1     -10.966  16.172  67.727  1.00  0.00    -0.293 C  
HETATM   14  O   UNL     1      -9.875  16.478  66.875  1.00  0.00    -0.242 OA 
HETATM   15  C   UNL     1     -10.584  16.458  69.156  1.00  0.00    -0.308 C  
HETATM   16  H   UNL     1      -9.657  17.403  66.874  1.00  0.00     0.000 HD 
HETATM   17  C   UNL     1     -11.600  15.684  69.971  1.00  0.00    -0.350 C  
HETATM   18  O   UNL     1     -11.014  15.378  71.222  1.00  0.00    -0.434 OA 
HETATM   19  C   UNL     1     -12.012  14.452  69.110  1.00  0.00    -0.357 C  
HETATM   20  H   UNL     1     -11.650  14.893  71.733  1.00  0.00     0.000 HD 
BRANCH  19  21
HETATM   21  C   UNL     1     -11.678  13.078  69.724  1.00  0.00    -0.346 C  
BRANCH  21  22
HETATM   22  C   UNL     1     -11.927  11.908  68.805  1.00  0.00    -0.307 C  
HETATM   23  C   UNL     1     -11.798  10.599  69.061  1.00  0.00    -0.256 C  
BRANCH  23  24
HETATM   24  C   UNL     1     -11.313   9.975  70.336  1.00  0.00    -0.392 C  
BRANCH  24  25
HETATM   25  C   UNL     1     -10.898   8.514  70.153  1.00  0.00    -0.238 C  
BRANCH  25  26
HETATM   26  C   UNL     1     -10.230   8.238  68.803  1.00  0.00    -0.226 C  
HETATM   27  C   UNL     1     -10.661   6.903  68.236  1.00  0.00    -0.215 C  
HETATM   28  O   UNL     1     -11.435   6.126  68.761  1.00  0.00    -0.259 OA 
HETATM   29  O   UNL     1     -10.085   6.652  67.036  1.00  0.00    -0.156 OA 
ENDBRANCH  25  26
ENDBRANCH  24  25
ENDBRANCH  23  24
ENDBRANCH  21  22
ENDBRANCH  19  21
ENDBRANCH  11  12
ENDBRANCH  10  11
ENDBRANCH   8  10
ENDBRANCH   7   8
ENDBRANCH   6   7
ENDBRANCH   5   6
ENDBRANCH   4   5
ENDBRANCH   3   4
ENDBRANCH   2   3
TORSDOF 14
ENDMDL
MODEL       66
REMARK 921   NORMALIZED FREE ENERGY PREDICTED BY IDOCK:   -4.81 KCAL/MOL
REMARK 922        TOTAL FREE ENERGY PREDICTED BY IDOCK:  -11.70 KCAL/MOL
REMARK 923 INTER-LIGAND FREE ENERGY PREDICTED BY IDOCK:  -10.16 KCAL/MOL
REMARK 924 INTRA-LIGAND FREE ENERGY PREDICTED BY IDOCK:   -1.54 KCAL/MOL
REMARK 927      BINDING AFFINITY PREDICTED BY RF-SCORE:    0.00 PKD
ROOT
HETATM    1  C   UNL     1     -10.634  19.709  65.965  1.00  0.00    -0.584 C  
HETATM    2  C   UNL     1     -10.112  20.059  67.347  1.00  0.00    -0.568 C  
ENDROOT
BRANCH   2   3
HETATM    3  C   UNL     1      -8.667  20.562  67.303  1.00  0.00    -0.387 C  
BRANCH   3   4
HETATM    4  C   UNL     1      -7.748  19.592  68.046  1.00  0.00    -0.332 C  
BRANCH   4   5
HETATM    5  C   UNL     1      -8.505  18.664  68.998  1.00  0.00    -0.108 C  
BRANCH   5   6
HETATM    6  C   UNL     1      -8.187  17.203  68.660  1.00  0.00    -0.255 C  
BRANCH   6   7
HETATM    7  C   UNL     1      -9.299  16.538  67.861  1.00  0.00    -0.216 C  
BRANCH   7   8
HETATM    8  C   UNL     1      -8.929  16.343  66.389  1.00  0.00    -0.305 C  
HETATM    9  O   UNL     1      -8.260  17.157  65.757  1.00  0.00    -0.515 OA 
BRANCH   8  10
HETATM   10  C   UNL     1      -9.427  15.048  65.780  1.00  0.00    -0.260 C  
BRANCH  10  11
HETATM   11  C   UNL     1     -10.934  14.762  65.856  1.00  0.00    -0.335 C  
BRANCH  11  12
HETATM   12  C   UNL     1     -11.244  13.313  65.393  1.00  0.00    -0.306 C  
HETATM   13  C   UNL     1     -11.290  13.208  63.860  1.00  0.00    -0.374 C  
HETATM   14  O   UNL     1     -12.520  13.661  63.316  1.00  0.00    -0.992 OA 
HETATM   15  C   UNL     1     -11.134  11.735  63.591  1.00  0.00    -0.518 C  
HETATM   16  H   UNL     1     -12.548  13.596  62.369  1.00  0.00     0.000 HD 
HETATM   17  C   UNL     1     -10.074  11.290  64.579  1.00  0.00    -0.295 C  
HETATM   18  O   UNL     1     -10.275   9.915  64.844  1.00  0.00    -0.327 OA 
HETATM   19  C   UNL     1     -10.198  12.232  65.814  1.00  0.00    -0.281 C  
HETATM   20  H   UNL     1      -9.611   9.636  65.464  1.00  0.00     0.000 HD 
BRANCH  19  21
HETATM   21  C   UNL     1     -10.569  11.535  67.139  1.00  0.00    -0.273 C  
BRANCH  21  22
HETATM   22  C   UNL     1     -11.059  12.469  68.217  1.00  0.00    -0.294 C  
HETATM   23  C   UNL     1     -11.649  12.168  69.383  1.00  0.00    -0.381 C  
BRANCH  23  24
HETATM   24  C   UNL     1     -12.015  10.801  69.878  1.00  0.00    -0.418 C  
BRANCH  24  25
HETATM   25  C   UNL     1     -10.834  10.074  70.524  1.00  0.00    -0.380 C  
BRANCH  25  26
HETATM   26  C   UNL     1     -11.248   9.130  71.655  1.00  0.00    -0.447 C  
HETATM   27  C   UNL     1     -10.043   8.588  72.392  1.00  0.00    -0.295 C  
HETATM   28  O   UNL     1      -8.881   8.849  72.140  1.00  0.00    -0.381 OA 
HETATM   29  O   UNL     1     -10.396   7.759  73.403  1.00  0.00    -0.332 OA 
ENDBRANCH  25  26
ENDBRANCH  24  25
ENDBRANCH  23  24
ENDBRANCH  21  22
ENDBRANCH  19  21
ENDBRANCH  11  12
ENDBRANCH  10  11
ENDBRANCH   8  10
ENDBRANCH   7   8
ENDBRANCH   6   7
ENDBRANCH   5   6
ENDBRANCH   4   5
ENDBRANCH   3   4
ENDBRANCH   2   3
TORSDOF 14
ENDMDL
MODEL       67
REMARK 921   NORMALIZED FREE ENERGY PREDICTED BY IDOCK:   -4.80 KCAL/MOL
REMARK 922        TOTAL FREE ENERGY PREDICTED BY IDOCK:  -11.69 KCAL/MOL
REMARK 923 INTER-LIGAND FREE ENERGY PREDICTED BY IDOCK:  -10.03 KCAL/MOL
REMARK 924 INTRA-LIGAND FREE ENERGY PREDICTED BY IDOCK:   -1.66 KCAL/MOL
REMARK 927      BINDING AFFINITY PREDICTED BY RF-SCORE:    0.00 PKD
ROOT
HETATM    1  C   UNL     1     -10.927   9.736  70.700  1.00  0.00    -0.398 C  
HETATM    2  C   UNL     1     -11.911   9.262  71.755  1.00  0.00    -0.455 C  
ENDROOT
BRANCH   2   3
HETATM    3  C   UNL     1     -13.177  10.121  71.784  1.00  0.00    -0.542 C  
BRANCH   3   4
HETATM    4  C   UNL     1     -12.865  11.537  71.303  1.00  0.00    -0.463 C  
BRANCH   4   5
HETATM    5  C   UNL     1     -13.304  12.615  72.295  1.00  0.00    -0.527 C  
BRANCH   5   6
HETATM    6  C   UNL     1     -13.388  13.971  71.584  1.00  0.00    -0.442 C  
BRANCH   6   7
HETATM    7  C   UNL     1     -12.027  14.461  71.107  1.00  0.00    -0.383 C  
BRANCH   7   8
HETATM    8  C   UNL     1     -11.985  14.695  69.595  1.00  0.00    -0.323 C  
HETATM    9  O   UNL     1     -12.242  13.815  68.777  1.00  0.00    -0.350 OA 
BRANCH   8  10
HETATM   10  C   UNL     1     -11.631  16.111  69.187  1.00  0.00    -0.285 C  
BRANCH  10  11
HETATM   11  C   UNL     1     -10.162  16.542  69.322  1.00  0.00    -0.290 C  
BRANCH  11  12
HETATM   12  C   UNL     1      -9.744  17.454  68.138  1.00  0.00    -0.291 C  
HETATM   13  C   UNL     1      -9.442  18.886  68.609  1.00  0.00    -0.378 C  
HETATM   14  O   UNL     1     -10.615  19.657  68.807  1.00  0.00    -0.499 OA 
HETATM   15  C   UNL     1      -8.636  19.478  67.482  1.00  0.00    -0.348 C  
HETATM   16  H   UNL     1     -10.429  20.542  69.098  1.00  0.00     0.000 HD 
HETATM   17  C   UNL     1      -7.704  18.358  67.068  1.00  0.00    -0.222 C  
HETATM   18  O   UNL     1      -7.362  18.555  65.710  1.00  0.00    -0.447 OA 
HETATM   19  C   UNL     1      -8.447  17.024  67.380  1.00  0.00    -0.208 C  
HETATM   20  H   UNL     1      -6.777  17.852  65.449  1.00  0.00     0.000 HD 
BRANCH  19  21
HETATM   21  C   UNL     1      -8.746  16.134  66.158  1.00  0.00    -0.358 C  
BRANCH  21  22
HETATM   22  C   UNL     1     -10.180  16.174  65.694  1.00  0.00    -0.390 C  
HETATM   23  C   UNL     1     -10.948  15.166  65.256  1.00  0.00    -0.405 C  
BRANCH  23  24
HETATM   24  C   UNL     1     -10.536  13.737  65.071  1.00  0.00    -0.418 C  
BRANCH  24  25
HETATM   25  C   UNL     1     -10.313  13.014  66.401  1.00  0.00    -0.287 C  
BRANCH  25  26
HETATM   26  C   UNL     1      -9.846  11.566  66.233  1.00  0.00    -0.245 C  
HETATM   27  C   UNL     1     -10.726  10.608  67.006  1.00  0.00    -0.259 C  
HETATM   28  O   UNL     1     -11.686  10.918  67.685  1.00  0.00    -0.566 OA 
HETATM   29  O   UNL     1     -10.329   9.321  66.856  1.00  0.00    -0.249 OA 
ENDBRANCH  25  26
ENDBRANCH  24  25
ENDBRANCH  23  24
ENDBRANCH  21  22
ENDBRANCH  19  21
ENDBRANCH  11  12
ENDBRANCH  10  11
ENDBRANCH   8  10
ENDBRANCH   7   8
ENDBRANCH   6   7
ENDBRANCH   5   6
ENDBRANCH   4   5
ENDBRANCH   3   4
ENDBRANCH   2   3
TORSDOF 14
ENDMDL
MODEL       68
REMARK 921   NORMALIZED FREE ENERGY PREDICTED BY IDOCK:   -4.80 KCAL/MOL
REMARK 922        TOTAL FREE ENERGY PREDICTED BY IDOCK:  -11.68 KCAL/MOL
REMARK 923 INTER-LIGAND FREE ENERGY PREDICTED BY IDOCK:   -9.20 KCAL/MOL
REMARK 924 INTRA-LIGAND FREE ENERGY PREDICTED BY IDOCK:   -2.48 KCAL/MOL
REMARK 927      BINDING AFFINITY PREDICTED BY RF-SCORE:    0.00 PKD
ROOT
HETATM    1  C   UNL     1      -9.910  10.019  65.107  1.00  0.00    -0.388 C  
HETATM    2  C   UNL     1      -9.140  11.000  64.242  1.00  0.00    -0.116 C  
ENDROOT
BRANCH   2   3
HETATM    3  C   UNL     1     -10.073  11.918  63.448  1.00  0.00    -0.464 C  
BRANCH   3   4
HETATM    4  C   UNL     1     -11.527  11.488  63.643  1.00  0.00    -0.374 C  
BRANCH   4   5
HETATM    5  C   UNL     1     -12.482  12.671  63.809  1.00  0.00    -0.514 C  
BRANCH   5   6
HETATM    6  C   UNL     1     -11.802  13.777  64.626  1.00  0.00    -0.427 C  
BRANCH   6   7
HETATM    7  C   UNL     1     -12.210  13.748  66.092  1.00  0.00    -0.499 C  
BRANCH   7   8
HETATM    8  C   UNL     1     -11.374  12.765  66.914  1.00  0.00    -0.321 C  
HETATM    9  O   UNL     1     -11.795  11.668  67.270  1.00  0.00    -0.609 OA 
BRANCH   8  10
HETATM   10  C   UNL     1      -9.971  13.242  67.230  1.00  0.00    -0.231 C  
BRANCH  10  11
HETATM   11  C   UNL     1      -9.521  14.579  66.622  1.00  0.00    -0.301 C  
BRANCH  11  12
HETATM   12  C   UNL     1      -9.393  15.669  67.720  1.00  0.00    -0.202 C  
HETATM   13  C   UNL     1      -8.179  16.578  67.472  1.00  0.00    -0.154 C  
HETATM   14  O   UNL     1      -6.959  15.990  67.894  1.00  0.00    -0.119 OA 
HETATM   15  C   UNL     1      -8.462  17.800  68.307  1.00  0.00    -0.277 C  
HETATM   16  H   UNL     1      -6.208  16.552  67.741  1.00  0.00     0.000 HD 
HETATM   17  C   UNL     1      -9.941  18.052  68.100  1.00  0.00    -0.353 C  
HETATM   18  O   UNL     1     -10.430  18.736  69.238  1.00  0.00    -0.422 OA 
HETATM   19  C   UNL     1     -10.594  16.664  67.827  1.00  0.00    -0.342 C  
HETATM   20  H   UNL     1     -11.358  18.894  69.109  1.00  0.00     0.000 HD 
BRANCH  19  21
HETATM   21  C   UNL     1     -11.643  16.213  68.862  1.00  0.00    -0.298 C  
BRANCH  21  22
HETATM   22  C   UNL     1     -11.062  15.578  70.101  1.00  0.00    -0.337 C  
HETATM   23  C   UNL     1     -11.415  14.431  70.699  1.00  0.00    -0.170 C  
BRANCH  23  24
HETATM   24  C   UNL     1     -12.531  13.514  70.297  1.00  0.00    -0.309 C  
BRANCH  24  25
HETATM   25  C   UNL     1     -12.194  12.040  70.538  1.00  0.00    -0.414 C  
BRANCH  25  26
HETATM   26  C   UNL     1     -13.185  11.337  71.468  1.00  0.00    -0.354 C  
HETATM   27  C   UNL     1     -12.700   9.955  71.849  1.00  0.00    -0.409 C  
HETATM   28  O   UNL     1     -11.661   9.441  71.480  1.00  0.00    -0.342 OA 
HETATM   29  O   UNL     1     -13.563   9.325  72.682  1.00  0.00    -0.455 OA 
ENDBRANCH  25  26
ENDBRANCH  24  25
ENDBRANCH  23  24
ENDBRANCH  21  22
ENDBRANCH  19  21
ENDBRANCH  11  12
ENDBRANCH  10  11
ENDBRANCH   8  10
ENDBRANCH   7   8
ENDBRANCH   6   7
ENDBRANCH   5   6
ENDBRANCH   4   5
ENDBRANCH   3   4
ENDBRANCH   2   3
TORSDOF 14
ENDMDL
MODEL       69
REMARK 921   NORMALIZED FREE ENERGY PREDICTED BY IDOCK:   -4.79 KCAL/MOL
REMARK 922        TOTAL FREE ENERGY PREDICTED BY IDOCK:  -11.66 KCAL/MOL
REMARK 923 INTER-LIGAND FREE ENERGY PREDICTED BY IDOCK:   -9.58 KCAL/MOL
REMARK 924 INTRA-LIGAND FREE ENERGY PREDICTED BY IDOCK:   -2.08 KCAL/MOL
REMARK 927      BINDING AFFINITY PREDICTED BY RF-SCORE:    0.00 PKD
ROOT
HETATM    1  C   UNL     1     -13.622  15.405  72.637  1.00  0.00    -0.641 C  
HETATM    2  C   UNL     1     -13.793  13.946  72.252  1.00  0.00    -0.669 C  
ENDROOT
BRANCH   2   3
HETATM    3  C   UNL     1     -12.724  13.486  71.259  1.00  0.00    -0.432 C  
BRANCH   3   4
HETATM    4  C   UNL     1     -12.004  14.695  70.663  1.00  0.00    -0.380 C  
BRANCH   4   5
HETATM    5  C   UNL     1     -11.764  14.565  69.157  1.00  0.00    -0.349 C  
BRANCH   5   6
HETATM    6  C   UNL     1     -11.921  13.100  68.732  1.00  0.00    -0.316 C  
BRANCH   6   7
HETATM    7  C   UNL     1     -11.297  12.822  67.372  1.00  0.00    -0.363 C  
BRANCH   7   8
HETATM    8  C   UNL     1      -9.798  13.128  67.339  1.00  0.00    -0.226 C  
HETATM    9  O   UNL     1      -9.308  13.979  66.602  1.00  0.00    -0.272 OA 
BRANCH   8  10
HETATM   10  C   UNL     1      -8.968  12.317  68.314  1.00  0.00    -0.182 C  
BRANCH  10  11
HETATM   11  C   UNL     1      -8.261  11.065  67.774  1.00  0.00    -0.117 C  
BRANCH  11  12
HETATM   12  C   UNL     1      -8.751   9.792  68.516  1.00  0.00    -0.120 C  
HETATM   13  C   UNL     1      -8.960  10.058  70.015  1.00  0.00    -0.081 C  
HETATM   14  O   UNL     1      -7.747  10.037  70.750  1.00  0.00    -0.402 OA 
HETATM   15  C   UNL     1      -9.841   8.924  70.468  1.00  0.00    -0.242 C  
HETATM   16  H   UNL     1      -7.875  10.201  71.677  1.00  0.00     0.000 HD 
HETATM   17  C   UNL     1     -10.846   8.767  69.345  1.00  0.00    -0.110 C  
HETATM   18  O   UNL     1     -11.301   7.428  69.350  1.00  0.00    -0.457 OA 
HETATM   19  C   UNL     1     -10.125   9.220  68.039  1.00  0.00    -0.234 C  
HETATM   20  H   UNL     1     -11.931   7.329  68.646  1.00  0.00     0.000 HD 
BRANCH  19  21
HETATM   21  C   UNL     1      -9.968   8.130  66.961  1.00  0.00    -0.329 C  
BRANCH  21  22
HETATM   22  C   UNL     1      -9.005   8.482  65.855  1.00  0.00    -0.235 C  
HETATM   23  C   UNL     1      -9.116   9.437  64.921  1.00  0.00    -0.258 C  
BRANCH  23  24
HETATM   24  C   UNL     1     -10.273  10.368  64.719  1.00  0.00    -0.319 C  
BRANCH  24  25
HETATM   25  C   UNL     1     -10.159  11.173  63.422  1.00  0.00    -0.439 C  
BRANCH  25  26
HETATM   26  C   UNL     1     -10.517  12.651  63.592  1.00  0.00    -0.348 C  
HETATM   27  C   UNL     1     -12.014  12.866  63.543  1.00  0.00    -0.556 C  
HETATM   28  O   UNL     1     -12.851  11.997  63.388  1.00  0.00    -0.760 OA 
HETATM   29  O   UNL     1     -12.346  14.170  63.704  1.00  0.00    -0.741 OA 
ENDBRANCH  25  26
ENDBRANCH  24  25
ENDBRANCH  23  24
ENDBRANCH  21  22
ENDBRANCH  19  21
ENDBRANCH  11  12
ENDBRANCH  10  11
ENDBRANCH   8  10
ENDBRANCH   7   8
ENDBRANCH   6   7
ENDBRANCH   5   6
ENDBRANCH   4   5
ENDBRANCH   3   4
ENDBRANCH   2   3
TORSDOF 14
ENDMDL
MODEL       70
REMARK 921   NORMALIZED FREE ENERGY PREDICTED BY IDOCK:   -4.78 KCAL/MOL
REMARK 922        TOTAL FREE ENERGY PREDICTED BY IDOCK:  -11.66 KCAL/MOL
REMARK 923 INTER-LIGAND FREE ENERGY PREDICTED BY IDOCK:   -9.77 KCAL/MOL
REMARK 924 INTRA-LIGAND FREE ENERGY PREDICTED BY IDOCK:   -1.89 KCAL/MOL
REMARK 927      BINDING AFFINITY PREDICTED BY RF-SCORE:    0.00 PKD
ROOT
HETATM    1  C   UNL     1     -12.547  12.578  63.760  1.00  0.00    -0.491 C  
HETATM    2  C   UNL     1     -11.225  12.313  64.458  1.00  0.00    -0.378 C  
ENDROOT
BRANCH   2   3
HETATM    3  C   UNL     1     -10.569  13.605  64.951  1.00  0.00    -0.421 C  
BRANCH   3   4
HETATM    4  C   UNL     1     -11.616  14.711  65.082  1.00  0.00    -0.371 C  
BRANCH   4   5
HETATM    5  C   UNL     1     -11.011  16.115  65.031  1.00  0.00    -0.357 C  
BRANCH   5   6
HETATM    6  C   UNL     1      -9.801  16.193  65.970  1.00  0.00    -0.375 C  
BRANCH   6   7
HETATM    7  C   UNL     1      -9.803  17.460  66.814  1.00  0.00    -0.297 C  
BRANCH   7   8
HETATM    8  C   UNL     1     -10.234  17.201  68.260  1.00  0.00    -0.334 C  
HETATM    9  O   UNL     1     -10.507  18.104  69.046  1.00  0.00    -0.249 OA 
BRANCH   8  10
HETATM   10  C   UNL     1     -10.325  15.736  68.637  1.00  0.00    -0.225 C  
BRANCH  10  11
HETATM   11  C   UNL     1     -11.723  15.160  68.911  1.00  0.00    -0.357 C  
BRANCH  11  12
HETATM   12  C   UNL     1     -11.886  14.799  70.412  1.00  0.00    -0.352 C  
HETATM   13  C   UNL     1     -12.511  15.957  71.205  1.00  0.00    -0.387 C  
HETATM   14  O   UNL     1     -11.571  16.966  71.536  1.00  0.00    -0.484 OA 
HETATM   15  C   UNL     1     -13.013  15.306  72.468  1.00  0.00    -0.488 C  
HETATM   16  H   UNL     1     -11.957  17.682  72.026  1.00  0.00     0.000 HD 
HETATM   17  C   UNL     1     -13.613  13.998  71.993  1.00  0.00    -0.463 C  
HETATM   18  O   UNL     1     -13.554  13.076  73.065  1.00  0.00    -0.607 OA 
HETATM   19  C   UNL     1     -12.822  13.585  70.716  1.00  0.00    -0.243 C  
HETATM   20  H   UNL     1     -13.930  12.256  72.768  1.00  0.00     0.000 HD 
BRANCH  19  21
HETATM   21  C   UNL     1     -12.048  12.255  70.821  1.00  0.00    -0.259 C  
BRANCH  21  22
HETATM   22  C   UNL     1     -12.784  11.062  70.265  1.00  0.00    -0.256 C  
HETATM   23  C   UNL     1     -13.024   9.879  70.848  1.00  0.00    -0.351 C  
BRANCH  23  24
HETATM   24  C   UNL     1     -12.564   9.435  72.204  1.00  0.00    -0.423 C  
BRANCH  24  25
HETATM   25  C   UNL     1     -11.732   8.151  72.149  1.00  0.00    -0.418 C  
BRANCH  25  26
HETATM   26  C   UNL     1     -10.266   8.362  72.538  1.00  0.00    -0.369 C  
HETATM   27  C   UNL     1      -9.825   7.368  73.590  1.00  0.00    -0.315 C  
HETATM   28  O   UNL     1     -10.522   6.502  74.084  1.00  0.00    -0.337 OA 
HETATM   29  O   UNL     1      -8.526   7.536  73.935  1.00  0.00    -0.164 OA 
ENDBRANCH  25  26
ENDBRANCH  24  25
ENDBRANCH  23  24
ENDBRANCH  21  22
ENDBRANCH  19  21
ENDBRANCH  11  12
ENDBRANCH  10  11
ENDBRANCH   8  10
ENDBRANCH   7   8
ENDBRANCH   6   7
ENDBRANCH   5   6
ENDBRANCH   4   5
ENDBRANCH   3   4
ENDBRANCH   2   3
TORSDOF 14
ENDMDL
MODEL       71
REMARK 921   NORMALIZED FREE ENERGY PREDICTED BY IDOCK:   -4.78 KCAL/MOL
REMARK 922        TOTAL FREE ENERGY PREDICTED BY IDOCK:  -11.64 KCAL/MOL
REMARK 923 INTER-LIGAND FREE ENERGY PREDICTED BY IDOCK:   -9.32 KCAL/MOL
REMARK 924 INTRA-LIGAND FREE ENERGY PREDICTED BY IDOCK:   -2.33 KCAL/MOL
REMARK 927      BINDING AFFINITY PREDICTED BY RF-SCORE:    0.00 PKD
ROOT
HETATM    1  C   UNL     1     -11.952   6.917  71.064  1.00  0.00    -0.422 C  
HETATM    2  C   UNL     1     -11.976   7.978  72.150  1.00  0.00    -0.399 C  
ENDROOT
BRANCH   2   3
HETATM    3  C   UNL     1     -11.411   9.312  71.658  1.00  0.00    -0.468 C  
BRANCH   3   4
HETATM    4  C   UNL     1     -12.549  10.284  71.350  1.00  0.00    -0.539 C  
BRANCH   4   5
HETATM    5  C   UNL     1     -12.188  11.302  70.266  1.00  0.00    -0.428 C  
BRANCH   5   6
HETATM    6  C   UNL     1     -10.983  10.800  69.463  1.00  0.00    -0.317 C  
BRANCH   6   7
HETATM    7  C   UNL     1     -11.396   9.952  68.268  1.00  0.00    -0.045 C  
BRANCH   7   8
HETATM    8  C   UNL     1     -10.304   9.873  67.199  1.00  0.00    -0.243 C  
HETATM    9  O   UNL     1     -10.171   8.907  66.452  1.00  0.00    -0.283 OA 
BRANCH   8  10
HETATM   10  C   UNL     1      -9.416  11.098  67.114  1.00  0.00    -0.187 C  
BRANCH  10  11
HETATM   11  C   UNL     1      -8.948  11.541  65.719  1.00  0.00    -0.120 C  
BRANCH  11  12
HETATM   12  C   UNL     1     -10.050  12.370  65.007  1.00  0.00    -0.269 C  
HETATM   13  C   UNL     1     -10.865  11.505  64.032  1.00  0.00    -0.387 C  
HETATM   14  O   UNL     1     -10.201  11.298  62.796  1.00  0.00    -0.596 OA 
HETATM   15  C   UNL     1     -12.121  12.304  63.799  1.00  0.00    -0.624 C  
HETATM   16  H   UNL     1     -10.705  10.764  62.193  1.00  0.00     0.000 HD 
HETATM   17  C   UNL     1     -12.473  12.843  65.171  1.00  0.00    -0.501 C  
HETATM   18  O   UNL     1     -13.214  14.035  64.993  1.00  0.00    -0.720 OA 
HETATM   19  C   UNL     1     -11.129  13.004  65.942  1.00  0.00    -0.303 C  
HETATM   20  H   UNL     1     -13.435  14.375  65.853  1.00  0.00     0.000 HD 
BRANCH  19  21
HETATM   21  C   UNL     1     -10.776  14.446  66.358  1.00  0.00    -0.306 C  
BRANCH  21  22
HETATM   22  C   UNL     1     -10.251  14.577  67.766  1.00  0.00    -0.226 C  
HETATM   23  C   UNL     1      -8.987  14.763  68.174  1.00  0.00    -0.179 C  
BRANCH  23  24
HETATM   24  C   UNL     1      -7.764  14.836  67.311  1.00  0.00    -0.214 C  
BRANCH  24  25
HETATM   25  C   UNL     1      -7.436  16.267  66.878  1.00  0.00    -0.271 C  
BRANCH  25  26
HETATM   26  C   UNL     1      -7.909  17.325  67.877  1.00  0.00    -0.197 C  
HETATM   27  C   UNL     1      -8.805  18.349  67.215  1.00  0.00    -0.259 C  
HETATM   28  O   UNL     1      -9.125  18.358  66.041  1.00  0.00    -0.501 OA 
HETATM   29  O   UNL     1      -9.240  19.286  68.091  1.00  0.00    -0.310 OA 
ENDBRANCH  25  26
ENDBRANCH  24  25
ENDBRANCH  23  24
ENDBRANCH  21  22
ENDBRANCH  19  21
ENDBRANCH  11  12
ENDBRANCH  10  11
ENDBRANCH   8  10
ENDBRANCH   7   8
ENDBRANCH   6   7
ENDBRANCH   5   6
ENDBRANCH   4   5
ENDBRANCH   3   4
ENDBRANCH   2   3
TORSDOF 14
ENDMDL
MODEL       72
REMARK 921   NORMALIZED FREE ENERGY PREDICTED BY IDOCK:   -4.77 KCAL/MOL
REMARK 922        TOTAL FREE ENERGY PREDICTED BY IDOCK:  -11.64 KCAL/MOL
REMARK 923 INTER-LIGAND FREE ENERGY PREDICTED BY IDOCK:   -8.89 KCAL/MOL
REMARK 924 INTRA-LIGAND FREE ENERGY PREDICTED BY IDOCK:   -2.75 KCAL/MOL
REMARK 927      BINDING AFFINITY PREDICTED BY RF-SCORE:    0.00 PKD
ROOT
HETATM    1  C   UNL     1      -9.832  11.321  64.475  1.00  0.00    -0.317 C  
HETATM    2  C   UNL     1     -10.834  11.639  63.380  1.00  0.00    -0.453 C  
ENDROOT
BRANCH   2   3
HETATM    3  C   UNL     1     -11.679  12.870  63.716  1.00  0.00    -0.557 C  
BRANCH   3   4
HETATM    4  C   UNL     1     -12.533  12.601  64.954  1.00  0.00    -0.564 C  
BRANCH   4   5
HETATM    5  C   UNL     1     -12.619  13.806  65.893  1.00  0.00    -0.494 C  
BRANCH   5   6
HETATM    6  C   UNL     1     -11.421  13.806  66.850  1.00  0.00    -0.368 C  
BRANCH   6   7
HETATM    7  C   UNL     1     -11.694  14.597  68.121  1.00  0.00    -0.360 C  
BRANCH   7   8
HETATM    8  C   UNL     1     -11.799  13.701  69.358  1.00  0.00    -0.339 C  
HETATM    9  O   UNL     1     -12.355  14.058  70.394  1.00  0.00    -0.321 OA 
BRANCH   8  10
HETATM   10  C   UNL     1     -11.187  12.325  69.193  1.00  0.00    -0.300 C  
BRANCH  10  11
HETATM   11  C   UNL     1     -12.125  11.113  69.304  1.00  0.00    -0.377 C  
BRANCH  11  12
HETATM   12  C   UNL     1     -11.990  10.437  70.695  1.00  0.00    -0.448 C  
HETATM   13  C   UNL     1     -13.282  10.574  71.517  1.00  0.00    -0.371 C  
HETATM   14  O   UNL     1     -13.409  11.846  72.131  1.00  0.00    -0.537 OA 
HETATM   15  C   UNL     1     -13.153   9.514  72.579  1.00  0.00    -0.324 C  
HETATM   16  H   UNL     1     -14.207  11.931  72.639  1.00  0.00     0.000 HD 
HETATM   17  C   UNL     1     -12.573   8.323  71.842  1.00  0.00    -0.344 C  
HETATM   18  O   UNL     1     -11.866   7.533  72.778  1.00  0.00    -0.550 OA 
HETATM   19  C   UNL     1     -11.717   8.899  70.674  1.00  0.00    -0.212 C  
HETATM   20  H   UNL     1     -11.502   6.787  72.317  1.00  0.00     0.000 HD 
BRANCH  19  21
HETATM   21  C   UNL     1     -10.213   8.565  70.734  1.00  0.00    -0.237 C  
BRANCH  21  22
HETATM   22  C   UNL     1      -9.611   8.169  69.409  1.00  0.00    -0.167 C  
HETATM   23  C   UNL     1      -8.737   8.845  68.650  1.00  0.00    -0.134 C  
BRANCH  23  24
HETATM   24  C   UNL     1      -8.178  10.209  68.921  1.00  0.00    -0.124 C  
BRANCH  24  25
HETATM   25  C   UNL     1      -7.872  10.984  67.637  1.00  0.00    -0.114 C  
BRANCH  25  26
HETATM   26  C   UNL     1      -7.608  12.472  67.875  1.00  0.00    -0.133 C  
HETATM   27  C   UNL     1      -6.244  12.881  67.362  1.00  0.00    -0.103 C  
HETATM   28  O   UNL     1      -5.438  12.144  66.827  1.00  0.00    -0.309 OA 
HETATM   29  O   UNL     1      -6.003  14.199  67.557  1.00  0.00    -0.337 OA 
ENDBRANCH  25  26
ENDBRANCH  24  25
ENDBRANCH  23  24
ENDBRANCH  21  22
ENDBRANCH  19  21
ENDBRANCH  11  12
ENDBRANCH  10  11
ENDBRANCH   8  10
ENDBRANCH   7   8
ENDBRANCH   6   7
ENDBRANCH   5   6
ENDBRANCH   4   5
ENDBRANCH   3   4
ENDBRANCH   2   3
TORSDOF 14
ENDMDL
MODEL       73
REMARK 921   NORMALIZED FREE ENERGY PREDICTED BY IDOCK:   -4.77 KCAL/MOL
REMARK 922        TOTAL FREE ENERGY PREDICTED BY IDOCK:  -11.62 KCAL/MOL
REMARK 923 INTER-LIGAND FREE ENERGY PREDICTED BY IDOCK:   -9.09 KCAL/MOL
REMARK 924 INTRA-LIGAND FREE ENERGY PREDICTED BY IDOCK:   -2.54 KCAL/MOL
REMARK 927      BINDING AFFINITY PREDICTED BY RF-SCORE:    0.00 PKD
ROOT
HETATM    1  C   UNL     1     -12.576  12.021  63.752  1.00  0.00    -0.567 C  
HETATM    2  C   UNL     1     -11.125  11.617  63.561  1.00  0.00    -0.476 C  
ENDROOT
BRANCH   2   3
HETATM    3  C   UNL     1     -10.196  12.342  64.537  1.00  0.00    -0.325 C  
BRANCH   3   4
HETATM    4  C   UNL     1     -10.617  13.804  64.678  1.00  0.00    -0.443 C  
BRANCH   4   5
HETATM    5  C   UNL     1     -10.013  14.484  65.908  1.00  0.00    -0.352 C  
BRANCH   5   6
HETATM    6  C   UNL     1     -11.131  14.920  66.862  1.00  0.00    -0.337 C  
BRANCH   6   7
HETATM    7  C   UNL     1     -12.009  13.755  67.297  1.00  0.00    -0.436 C  
BRANCH   7   8
HETATM    8  C   UNL     1     -11.779  13.360  68.757  1.00  0.00    -0.340 C  
HETATM    9  O   UNL     1     -12.223  14.009  69.701  1.00  0.00    -0.334 OA 
BRANCH   8  10
HETATM   10  C   UNL     1     -10.984  12.084  68.947  1.00  0.00    -0.277 C  
BRANCH  10  11
HETATM   11  C   UNL     1     -11.770  10.771  69.086  1.00  0.00    -0.368 C  
BRANCH  11  12
HETATM   12  C   UNL     1     -11.741  10.263  70.552  1.00  0.00    -0.418 C  
HETATM   13  C   UNL     1     -13.078  10.519  71.265  1.00  0.00    -0.383 C  
HETATM   14  O   UNL     1     -13.212  11.857  71.716  1.00  0.00    -0.454 OA 
HETATM   15  C   UNL     1     -13.043   9.590  72.450  1.00  0.00    -0.430 C  
HETATM   16  H   UNL     1     -14.039  12.015  72.157  1.00  0.00     0.000 HD 
HETATM   17  C   UNL     1     -12.448   8.311  71.898  1.00  0.00    -0.337 C  
HETATM   18  O   UNL     1     -11.821   7.625  72.965  1.00  0.00    -0.606 OA 
HETATM   19  C   UNL     1     -11.506   8.728  70.730  1.00  0.00    -0.309 C  
HETATM   20  H   UNL     1     -11.448   6.823  72.619  1.00  0.00     0.000 HD 
BRANCH  19  21
HETATM   21  C   UNL     1     -10.017   8.378  70.927  1.00  0.00    -0.230 C  
BRANCH  21  22
HETATM   22  C   UNL     1      -9.060   9.450  70.470  1.00  0.00    -0.308 C  
HETATM   23  C   UNL     1      -8.327   9.496  69.348  1.00  0.00    -0.140 C  
BRANCH  23  24
HETATM   24  C   UNL     1      -8.245   8.444  68.284  1.00  0.00    -0.124 C  
BRANCH  24  25
HETATM   25  C   UNL     1      -9.308   8.624  67.198  1.00  0.00    -0.190 C  
BRANCH  25  26
HETATM   26  C   UNL     1     -10.358   7.511  67.187  1.00  0.00    -0.384 C  
HETATM   27  C   UNL     1      -9.901   6.326  66.366  1.00  0.00    -0.075 C  
HETATM   28  O   UNL     1      -8.841   6.239  65.776  1.00  0.00    -0.157 OA 
HETATM   29  O   UNL     1     -10.818   5.329  66.358  1.00  0.00    -0.292 OA 
ENDBRANCH  25  26
ENDBRANCH  24  25
ENDBRANCH  23  24
ENDBRANCH  21  22
ENDBRANCH  19  21
ENDBRANCH  11  12
ENDBRANCH  10  11
ENDBRANCH   8  10
ENDBRANCH   7   8
ENDBRANCH   6   7
ENDBRANCH   5   6
ENDBRANCH   4   5
ENDBRANCH   3   4
ENDBRANCH   2   3
TORSDOF 14
ENDMDL
MODEL       74
REMARK 921   NORMALIZED FREE ENERGY PREDICTED BY IDOCK:   -4.75 KCAL/MOL
REMARK 922        TOTAL FREE ENERGY PREDICTED BY IDOCK:  -11.60 KCAL/MOL
REMARK 923 INTER-LIGAND FREE ENERGY PREDICTED BY IDOCK:   -9.62 KCAL/MOL
REMARK 924 INTRA-LIGAND FREE ENERGY PREDICTED BY IDOCK:   -1.97 KCAL/MOL
REMARK 927      BINDING AFFINITY PREDICTED BY RF-SCORE:    0.00 PKD
ROOT
HETATM    1  C   UNL     1      -6.754  20.443  64.725  1.00  0.00    -0.259 C  
HETATM    2  C   UNL     1      -6.820  20.054  66.191  1.00  0.00    -0.258 C  
ENDROOT
BRANCH   2   3
HETATM    3  C   UNL     1      -8.189  20.357  66.803  1.00  0.00    -0.276 C  
BRANCH   3   4
HETATM    4  C   UNL     1      -9.300  19.939  65.840  1.00  0.00    -0.258 C  
BRANCH   4   5
HETATM    5  C   UNL     1     -10.614  19.609  66.552  1.00  0.00    -0.591 C  
BRANCH   5   6
HETATM    6  C   UNL     1     -10.373  18.526  67.610  1.00  0.00    -0.442 C  
BRANCH   6   7
HETATM    7  C   UNL     1      -9.952  17.198  66.995  1.00  0.00    -0.287 C  
BRANCH   7   8
HETATM    8  C   UNL     1     -10.277  16.005  67.896  1.00  0.00    -0.258 C  
HETATM    9  O   UNL     1     -10.322  16.087  69.120  1.00  0.00    -0.216 OA 
BRANCH   8  10
HETATM   10  C   UNL     1     -10.571  14.717  67.154  1.00  0.00    -0.282 C  
BRANCH  10  11
HETATM   11  C   UNL     1     -11.841  13.946  67.545  1.00  0.00    -0.431 C  
BRANCH  11  12
HETATM   12  C   UNL     1     -11.535  12.909  68.659  1.00  0.00    -0.346 C  
HETATM   13  C   UNL     1     -12.271  13.252  69.965  1.00  0.00    -0.275 C  
HETATM   14  O   UNL     1     -11.620  14.267  70.711  1.00  0.00    -0.475 OA 
HETATM   15  C   UNL     1     -12.249  11.963  70.745  1.00  0.00    -0.401 C  
HETATM   16  H   UNL     1     -12.074  14.479  71.518  1.00  0.00     0.000 HD 
HETATM   17  C   UNL     1     -12.530  10.898  69.704  1.00  0.00    -0.129 C  
HETATM   18  O   UNL     1     -11.952   9.687  70.152  1.00  0.00    -0.453 OA 
HETATM   19  C   UNL     1     -11.973  11.441  68.353  1.00  0.00    -0.270 C  
HETATM   20  H   UNL     1     -12.128   9.019  69.500  1.00  0.00     0.000 HD 
BRANCH  19  21
HETATM   21  C   UNL     1     -10.840  10.606  67.725  1.00  0.00    -0.338 C  
BRANCH  21  22
HETATM   22  C   UNL     1      -9.561  11.370  67.489  1.00  0.00    -0.176 C  
HETATM   23  C   UNL     1      -8.859  11.498  66.354  1.00  0.00    -0.193 C  
BRANCH  23  24
HETATM   24  C   UNL     1      -9.158  10.855  65.034  1.00  0.00    -0.209 C  
BRANCH  24  25
HETATM   25  C   UNL     1     -10.559  11.196  64.519  1.00  0.00    -0.397 C  
BRANCH  25  26
HETATM   26  C   UNL     1     -10.724  12.671  64.146  1.00  0.00    -0.435 C  
HETATM   27  C   UNL     1     -12.141  12.975  63.710  1.00  0.00    -0.502 C  
HETATM   28  O   UNL     1     -13.053  12.172  63.651  1.00  0.00    -0.787 OA 
HETATM   29  O   UNL     1     -12.304  14.281  63.388  1.00  0.00    -0.678 OA 
ENDBRANCH  25  26
ENDBRANCH  24  25
ENDBRANCH  23  24
ENDBRANCH  21  22
ENDBRANCH  19  21
ENDBRANCH  11  12
ENDBRANCH  10  11
ENDBRANCH   8  10
ENDBRANCH   7   8
ENDBRANCH   6   7
ENDBRANCH   5   6
ENDBRANCH   4   5
ENDBRANCH   3   4
ENDBRANCH   2   3
TORSDOF 14
ENDMDL
MODEL       75
REMARK 921   NORMALIZED FREE ENERGY PREDICTED BY IDOCK:   -4.74 KCAL/MOL
REMARK 922        TOTAL FREE ENERGY PREDICTED BY IDOCK:  -11.58 KCAL/MOL
REMARK 923 INTER-LIGAND FREE ENERGY PREDICTED BY IDOCK:   -9.04 KCAL/MOL
REMARK 924 INTRA-LIGAND FREE ENERGY PREDICTED BY IDOCK:   -2.54 KCAL/MOL
REMARK 927      BINDING AFFINITY PREDICTED BY RF-SCORE:    0.00 PKD
ROOT
HETATM    1  C   UNL     1     -12.709  14.058  65.376  1.00  0.00    -0.499 C  
HETATM    2  C   UNL     1     -12.486  12.638  64.888  1.00  0.00    -0.564 C  
ENDROOT
BRANCH   2   3
HETATM    3  C   UNL     1     -11.602  12.594  63.639  1.00  0.00    -0.575 C  
BRANCH   3   4
HETATM    4  C   UNL     1     -10.344  11.770  63.913  1.00  0.00    -0.428 C  
BRANCH   4   5
HETATM    5  C   UNL     1     -10.075  11.569  65.405  1.00  0.00    -0.304 C  
BRANCH   5   6
HETATM    6  C   UNL     1      -9.963  10.072  65.716  1.00  0.00    -0.346 C  
BRANCH   6   7
HETATM    7  C   UNL     1     -10.513   9.723  67.091  1.00  0.00    -0.316 C  
BRANCH   7   8
HETATM    8  C   UNL     1      -9.427   9.232  68.050  1.00  0.00    -0.137 C  
HETATM    9  O   UNL     1      -8.695   8.279  67.796  1.00  0.00    -0.133 OA 
BRANCH   8  10
HETATM   10  C   UNL     1      -9.305  10.035  69.329  1.00  0.00    -0.224 C  
BRANCH  10  11
HETATM   11  C   UNL     1      -9.380   9.270  70.659  1.00  0.00    -0.329 C  
BRANCH  11  12
HETATM   12  C   UNL     1     -10.530   8.229  70.632  1.00  0.00    -0.224 C  
HETATM   13  C   UNL     1     -10.015   6.811  70.925  1.00  0.00    -0.186 C  
HETATM   14  O   UNL     1      -9.416   6.200  69.794  1.00  0.00    -0.148 OA 
HETATM   15  C   UNL     1     -11.254   6.046  71.313  1.00  0.00    -0.323 C  
HETATM   16  H   UNL     1      -9.098   5.323  69.976  1.00  0.00     0.000 HD 
HETATM   17  C   UNL     1     -12.027   7.014  72.184  1.00  0.00    -0.261 C  
HETATM   18  O   UNL     1     -13.399   6.677  72.099  1.00  0.00    -0.536 OA 
HETATM   19  C   UNL     1     -11.662   8.445  71.688  1.00  0.00    -0.354 C  
HETATM   20  H   UNL     1     -13.884   7.284  72.645  1.00  0.00     0.000 HD 
BRANCH  19  21
HETATM   21  C   UNL     1     -12.839   9.270  71.130  1.00  0.00    -0.285 C  
BRANCH  21  22
HETATM   22  C   UNL     1     -12.954  10.659  71.707  1.00  0.00    -0.577 C  
HETATM   23  C   UNL     1     -12.560  11.824  71.173  1.00  0.00    -0.412 C  
BRANCH  23  24
HETATM   24  C   UNL     1     -11.848  12.019  69.868  1.00  0.00    -0.405 C  
BRANCH  24  25
HETATM   25  C   UNL     1     -11.742  13.494  69.473  1.00  0.00    -0.382 C  
BRANCH  25  26
HETATM   26  C   UNL     1     -10.595  13.780  68.502  1.00  0.00    -0.261 C  
HETATM   27  C   UNL     1     -10.599  15.224  68.051  1.00  0.00    -0.261 C  
HETATM   28  O   UNL     1     -11.400  16.073  68.396  1.00  0.00    -0.355 OA 
HETATM   29  O   UNL     1      -9.581  15.494  67.199  1.00  0.00    -0.217 OA 
ENDBRANCH  25  26
ENDBRANCH  24  25
ENDBRANCH  23  24
ENDBRANCH  21  22
ENDBRANCH  19  21
ENDBRANCH  11  12
ENDBRANCH  10  11
ENDBRANCH   8  10
ENDBRANCH   7   8
ENDBRANCH   6   7
ENDBRANCH   5   6
ENDBRANCH   4   5
ENDBRANCH   3   4
ENDBRANCH   2   3
TORSDOF 14
ENDMDL
MODEL       76
REMARK 921   NORMALIZED FREE ENERGY PREDICTED BY IDOCK:   -4.73 KCAL/MOL
REMARK 922        TOTAL FREE ENERGY PREDICTED BY IDOCK:  -11.56 KCAL/MOL
REMARK 923 INTER-LIGAND FREE ENERGY PREDICTED BY IDOCK:   -9.53 KCAL/MOL
REMARK 924 INTRA-LIGAND FREE ENERGY PREDICTED BY IDOCK:   -2.03 KCAL/MOL
REMARK 927      BINDING AFFINITY PREDICTED BY RF-SCORE:    0.00 PKD
ROOT
HETATM    1  C   UNL     1      -8.875  16.218  66.003  1.00  0.00    -0.308 C  
HETATM    2  C   UNL     1     -10.311  16.705  65.941  1.00  0.00    -0.355 C  
ENDROOT
BRANCH   2   3
HETATM    3  C   UNL     1     -11.137  15.921  64.918  1.00  0.00    -0.400 C  
BRANCH   3   4
HETATM    4  C   UNL     1     -10.618  14.488  64.808  1.00  0.00    -0.401 C  
BRANCH   4   5
HETATM    5  C   UNL     1     -11.724  13.473  64.514  1.00  0.00    -0.431 C  
BRANCH   5   6
HETATM    6  C   UNL     1     -12.401  13.050  65.823  1.00  0.00    -0.477 C  
BRANCH   6   7
HETATM    7  C   UNL     1     -11.401  12.836  66.950  1.00  0.00    -0.371 C  
BRANCH   7   8
HETATM    8  C   UNL     1     -10.927  11.383  67.046  1.00  0.00    -0.292 C  
HETATM    9  O   UNL     1     -10.096  10.901  66.281  1.00  0.00    -0.218 OA 
BRANCH   8  10
HETATM   10  C   UNL     1     -11.544  10.594  68.183  1.00  0.00    -0.217 C  
BRANCH  10  11
HETATM   11  C   UNL     1     -10.614  10.136  69.317  1.00  0.00    -0.254 C  
BRANCH  11  12
HETATM   12  C   UNL     1     -11.316  10.269  70.694  1.00  0.00    -0.431 C  
HETATM   13  C   UNL     1     -12.390  11.369  70.676  1.00  0.00    -0.373 C  
HETATM   14  O   UNL     1     -11.844  12.671  70.812  1.00  0.00    -0.477 OA 
HETATM   15  C   UNL     1     -13.252  11.057  71.872  1.00  0.00    -0.503 C  
HETATM   16  H   UNL     1     -12.508  13.350  70.801  1.00  0.00     0.000 HD 
HETATM   17  C   UNL     1     -13.384   9.548  71.847  1.00  0.00    -0.437 C  
HETATM   18  O   UNL     1     -13.621   9.109  73.171  1.00  0.00    -0.931 OA 
HETATM   19  C   UNL     1     -12.084   9.000  71.186  1.00  0.00    -0.345 C  
HETATM   20  H   UNL     1     -13.704   8.163  73.155  1.00  0.00     0.000 HD 
BRANCH  19  21
HETATM   21  C   UNL     1     -11.217   8.097  72.086  1.00  0.00    -0.393 C  
BRANCH  21  22
HETATM   22  C   UNL     1     -11.342   6.623  71.793  1.00  0.00    -0.320 C  
HETATM   23  C   UNL     1     -10.472   5.817  71.167  1.00  0.00    -0.301 C  
BRANCH  23  24
HETATM   24  C   UNL     1      -9.164   6.210  70.551  1.00  0.00    -0.166 C  
BRANCH  24  25
HETATM   25  C   UNL     1      -9.324   6.747  69.127  1.00  0.00    -0.135 C  
BRANCH  25  26
HETATM   26  C   UNL     1      -9.720   5.669  68.115  1.00  0.00    -0.153 C  
HETATM   27  C   UNL     1     -10.533   6.251  66.978  1.00  0.00    -0.278 C  
HETATM   28  O   UNL     1     -10.849   7.419  66.857  1.00  0.00    -0.357 OA 
HETATM   29  O   UNL     1     -10.881   5.309  66.069  1.00  0.00    -0.208 OA 
ENDBRANCH  25  26
ENDBRANCH  24  25
ENDBRANCH  23  24
ENDBRANCH  21  22
ENDBRANCH  19  21
ENDBRANCH  11  12
ENDBRANCH  10  11
ENDBRANCH   8  10
ENDBRANCH   7   8
ENDBRANCH   6   7
ENDBRANCH   5   6
ENDBRANCH   4   5
ENDBRANCH   3   4
ENDBRANCH   2   3
TORSDOF 14
ENDMDL
MODEL       77
REMARK 921   NORMALIZED FREE ENERGY PREDICTED BY IDOCK:   -4.72 KCAL/MOL
REMARK 922        TOTAL FREE ENERGY PREDICTED BY IDOCK:  -11.54 KCAL/MOL
REMARK 923 INTER-LIGAND FREE ENERGY PREDICTED BY IDOCK:   -8.48 KCAL/MOL
REMARK 924 INTRA-LIGAND FREE ENERGY PREDICTED BY IDOCK:   -3.06 KCAL/MOL
REMARK 927      BINDING AFFINITY PREDICTED BY RF-SCORE:    0.00 PKD
ROOT
HETATM    1  C   UNL     1     -12.566  15.411  70.645  1.00  0.00    -0.491 C  
HETATM    2  C   UNL     1     -11.747  15.482  69.368  1.00  0.00    -0.382 C  
ENDROOT
BRANCH   2   3
HETATM    3  C   UNL     1     -12.036  14.303  68.436  1.00  0.00    -0.344 C  
BRANCH   3   4
HETATM    4  C   UNL     1     -11.526  14.607  67.028  1.00  0.00    -0.379 C  
BRANCH   4   5
HETATM    5  C   UNL     1     -12.493  14.154  65.933  1.00  0.00    -0.479 C  
BRANCH   5   6
HETATM    6  C   UNL     1     -11.760  14.088  64.587  1.00  0.00    -0.417 C  
BRANCH   6   7
HETATM    7  C   UNL     1     -10.427  13.361  64.689  1.00  0.00    -0.428 C  
BRANCH   7   8
HETATM    8  C   UNL     1     -10.562  11.853  64.463  1.00  0.00    -0.311 C  
HETATM    9  O   UNL     1     -10.925  11.370  63.394  1.00  0.00    -0.383 OA 
BRANCH   8  10
HETATM   10  C   UNL     1     -10.181  11.001  65.657  1.00  0.00    -0.318 C  
BRANCH  10  11
HETATM   11  C   UNL     1     -11.176  10.931  66.825  1.00  0.00    -0.109 C  
BRANCH  11  12
HETATM   12  C   UNL     1     -10.433  10.992  68.186  1.00  0.00    -0.216 C  
HETATM   13  C   UNL     1     -10.433   9.626  68.891  1.00  0.00    -0.215 C  
HETATM   14  O   UNL     1     -11.656   9.350  69.554  1.00  0.00    -0.437 OA 
HETATM   15  C   UNL     1      -9.325   9.739  69.905  1.00  0.00    -0.262 C  
HETATM   16  H   UNL     1     -11.656   8.506  69.990  1.00  0.00     0.000 HD 
HETATM   17  C   UNL     1      -8.222  10.468  69.166  1.00  0.00    -0.150 C  
HETATM   18  O   UNL     1      -7.431  11.147  70.123  1.00  0.00    -0.373 OA 
HETATM   19  C   UNL     1      -8.921  11.379  68.113  1.00  0.00    -0.169 C  
HETATM   20  H   UNL     1      -6.739  11.604  69.659  1.00  0.00     0.000 HD 
BRANCH  19  21
HETATM   21  C   UNL     1      -8.690  12.893  68.294  1.00  0.00    -0.168 C  
BRANCH  21  22
HETATM   22  C   UNL     1      -7.530  13.444  67.504  1.00  0.00    -0.170 C  
HETATM   23  C   UNL     1      -7.194  14.724  67.291  1.00  0.00    -0.114 C  
BRANCH  23  24
HETATM   24  C   UNL     1      -7.939  15.939  67.756  1.00  0.00    -0.154 C  
BRANCH  24  25
HETATM   25  C   UNL     1      -8.443  16.799  66.595  1.00  0.00    -0.291 C  
BRANCH  25  26
HETATM   26  C   UNL     1      -8.929  18.183  67.033  1.00  0.00    -0.263 C  
HETATM   27  C   UNL     1     -10.195  18.580  66.305  1.00  0.00    -0.418 C  
HETATM   28  O   UNL     1     -10.775  17.908  65.473  1.00  0.00    -0.585 OA 
HETATM   29  O   UNL     1     -10.642  19.799  66.692  1.00  0.00    -0.453 OA 
ENDBRANCH  25  26
ENDBRANCH  24  25
ENDBRANCH  23  24
ENDBRANCH  21  22
ENDBRANCH  19  21
ENDBRANCH  11  12
ENDBRANCH  10  11
ENDBRANCH   8  10
ENDBRANCH   7   8
ENDBRANCH   6   7
ENDBRANCH   5   6
ENDBRANCH   4   5
ENDBRANCH   3   4
ENDBRANCH   2   3
TORSDOF 14
ENDMDL
MODEL       78
REMARK 921   NORMALIZED FREE ENERGY PREDICTED BY IDOCK:   -4.70 KCAL/MOL
REMARK 922        TOTAL FREE ENERGY PREDICTED BY IDOCK:  -11.50 KCAL/MOL
REMARK 923 INTER-LIGAND FREE ENERGY PREDICTED BY IDOCK:   -8.75 KCAL/MOL
REMARK 924 INTRA-LIGAND FREE ENERGY PREDICTED BY IDOCK:   -2.75 KCAL/MOL
REMARK 927      BINDING AFFINITY PREDICTED BY RF-SCORE:    0.00 PKD
ROOT
HETATM    1  C   UNL     1      -9.279  10.064  62.838  1.00  0.00    -0.311 C  
HETATM    2  C   UNL     1      -9.967  11.281  63.432  1.00  0.00    -0.433 C  
ENDROOT
BRANCH   2   3
HETATM    3  C   UNL     1     -10.648  10.960  64.764  1.00  0.00    -0.316 C  
BRANCH   3   4
HETATM    4  C   UNL     1      -9.732  10.095  65.629  1.00  0.00    -0.322 C  
BRANCH   4   5
HETATM    5  C   UNL     1      -9.372  10.754  66.962  1.00  0.00    -0.174 C  
BRANCH   5   6
HETATM    6  C   UNL     1      -8.221  11.746  66.757  1.00  0.00    -0.147 C  
BRANCH   6   7
HETATM    7  C   UNL     1      -7.931  12.565  68.007  1.00  0.00    -0.153 C  
BRANCH   7   8
HETATM    8  C   UNL     1      -6.717  13.481  67.841  1.00  0.00    -0.150 C  
HETATM    9  O   UNL     1      -5.711  13.147  67.220  1.00  0.00    -0.348 OA 
BRANCH   8  10
HETATM   10  C   UNL     1      -6.867  14.848  68.477  1.00  0.00    -0.106 C  
BRANCH  10  11
HETATM   11  C   UNL     1      -7.667  15.907  67.705  1.00  0.00    -0.169 C  
BRANCH  11  12
HETATM   12  C   UNL     1      -8.109  17.059  68.646  1.00  0.00    -0.254 C  
HETATM   13  C   UNL     1      -7.220  18.301  68.473  1.00  0.00    -0.283 C  
HETATM   14  O   UNL     1      -5.985  18.192  69.162  1.00  0.00    -0.210 OA 
HETATM   15  C   UNL     1      -8.033  19.418  69.073  1.00  0.00    -0.301 C  
HETATM   16  H   UNL     1      -5.436  18.960  69.055  1.00  0.00     0.000 HD 
HETATM   17  C   UNL     1      -9.445  19.142  68.598  1.00  0.00    -0.405 C  
HETATM   18  O   UNL     1     -10.340  19.709  69.536  1.00  0.00    -0.607 OA 
HETATM   19  C   UNL     1      -9.558  17.598  68.420  1.00  0.00    -0.310 C  
HETATM   20  H   UNL     1     -11.225  19.535  69.239  1.00  0.00     0.000 HD 
BRANCH  19  21
HETATM   21  C   UNL     1     -10.595  16.904  69.326  1.00  0.00    -0.325 C  
BRANCH  21  22
HETATM   22  C   UNL     1     -10.281  15.462  69.639  1.00  0.00    -0.283 C  
HETATM   23  C   UNL     1     -10.703  14.357  69.009  1.00  0.00    -0.261 C  
BRANCH  23  24
HETATM   24  C   UNL     1     -11.650  14.289  67.849  1.00  0.00    -0.367 C  
BRANCH  24  25
HETATM   25  C   UNL     1     -10.926  14.165  66.507  1.00  0.00    -0.309 C  
BRANCH  25  26
HETATM   26  C   UNL     1     -10.997  15.437  65.659  1.00  0.00    -0.330 C  
HETATM   27  C   UNL     1     -11.958  15.277  64.502  1.00  0.00    -0.271 C  
HETATM   28  O   UNL     1     -12.604  14.278  64.249  1.00  0.00    -0.678 OA 
HETATM   29  O   UNL     1     -12.038  16.401  63.749  1.00  0.00    -0.927 OA 
ENDBRANCH  25  26
ENDBRANCH  24  25
ENDBRANCH  23  24
ENDBRANCH  21  22
ENDBRANCH  19  21
ENDBRANCH  11  12
ENDBRANCH  10  11
ENDBRANCH   8  10
ENDBRANCH   7   8
ENDBRANCH   6   7
ENDBRANCH   5   6
ENDBRANCH   4   5
ENDBRANCH   3   4
ENDBRANCH   2   3
TORSDOF 14
ENDMDL
MODEL       79
REMARK 921   NORMALIZED FREE ENERGY PREDICTED BY IDOCK:   -4.70 KCAL/MOL
REMARK 922        TOTAL FREE ENERGY PREDICTED BY IDOCK:  -11.50 KCAL/MOL
REMARK 923 INTER-LIGAND FREE ENERGY PREDICTED BY IDOCK:   -9.25 KCAL/MOL
REMARK 924 INTRA-LIGAND FREE ENERGY PREDICTED BY IDOCK:   -2.25 KCAL/MOL
REMARK 927      BINDING AFFINITY PREDICTED BY RF-SCORE:    0.00 PKD
ROOT
HETATM    1  C   UNL     1     -11.462  10.614  70.340  1.00  0.00    -0.422 C  
HETATM    2  C   UNL     1     -12.488   9.936  71.230  1.00  0.00    -0.479 C  
ENDROOT
BRANCH   2   3
HETATM    3  C   UNL     1     -13.445  10.943  71.872  1.00  0.00    -0.306 C  
BRANCH   3   4
HETATM    4  C   UNL     1     -12.812  12.334  71.889  1.00  0.00    -0.318 C  
BRANCH   4   5
HETATM    5  C   UNL     1     -13.815  13.442  72.215  1.00  0.00    -0.671 C  
BRANCH   5   6
HETATM    6  C   UNL     1     -13.478  14.702  71.408  1.00  0.00    -0.462 C  
BRANCH   6   7
HETATM    7  C   UNL     1     -12.059  14.674  70.858  1.00  0.00    -0.393 C  
BRANCH   7   8
HETATM    8  C   UNL     1     -12.024  14.549  69.333  1.00  0.00    -0.322 C  
HETATM    9  O   UNL     1     -12.264  13.498  68.745  1.00  0.00    -0.317 OA 
BRANCH   8  10
HETATM   10  C   UNL     1     -11.698  15.836  68.602  1.00  0.00    -0.353 C  
BRANCH  10  11
HETATM   11  C   UNL     1     -10.739  16.819  69.289  1.00  0.00    -0.324 C  
BRANCH  11  12
HETATM   12  C   UNL     1      -9.698  17.371  68.279  1.00  0.00    -0.299 C  
HETATM   13  C   UNL     1      -9.908  18.871  68.015  1.00  0.00    -0.352 C  
HETATM   14  O   UNL     1     -10.957  19.124  67.094  1.00  0.00    -0.453 OA 
HETATM   15  C   UNL     1      -8.599  19.323  67.422  1.00  0.00    -0.322 C  
HETATM   16  H   UNL     1     -11.086  20.051  66.931  1.00  0.00     0.000 HD 
HETATM   17  C   UNL     1      -7.552  18.604  68.248  1.00  0.00    -0.284 C  
HETATM   18  O   UNL     1      -6.393  18.457  67.450  1.00  0.00    -0.179 OA 
HETATM   19  C   UNL     1      -8.204  17.272  68.727  1.00  0.00    -0.231 C  
HETATM   20  H   UNL     1      -5.736  18.005  67.968  1.00  0.00     0.000 HD 
BRANCH  19  21
HETATM   21  C   UNL     1      -7.520  15.985  68.223  1.00  0.00    -0.136 C  
BRANCH  21  22
HETATM   22  C   UNL     1      -8.038  14.717  68.854  1.00  0.00    -0.160 C  
HETATM   23  C   UNL     1      -8.474  13.600  68.254  1.00  0.00    -0.170 C  
BRANCH  23  24
HETATM   24  C   UNL     1      -8.600  13.361  66.780  1.00  0.00    -0.043 C  
BRANCH  24  25
HETATM   25  C   UNL     1      -9.894  13.937  66.201  1.00  0.00    -0.316 C  
BRANCH  25  26
HETATM   26  C   UNL     1     -10.918  12.864  65.822  1.00  0.00    -0.303 C  
HETATM   27  C   UNL     1     -12.103  13.463  65.097  1.00  0.00    -0.409 C  
HETATM   28  O   UNL     1     -12.253  14.641  64.835  1.00  0.00    -0.401 OA 
HETATM   29  O   UNL     1     -13.012  12.522  64.746  1.00  0.00    -0.827 OA 
ENDBRANCH  25  26
ENDBRANCH  24  25
ENDBRANCH  23  24
ENDBRANCH  21  22
ENDBRANCH  19  21
ENDBRANCH  11  12
ENDBRANCH  10  11
ENDBRANCH   8  10
ENDBRANCH   7   8
ENDBRANCH   6   7
ENDBRANCH   5   6
ENDBRANCH   4   5
ENDBRANCH   3   4
ENDBRANCH   2   3
TORSDOF 14
ENDMDL
MODEL       80
REMARK 921   NORMALIZED FREE ENERGY PREDICTED BY IDOCK:   -4.70 KCAL/MOL
REMARK 922        TOTAL FREE ENERGY PREDICTED BY IDOCK:  -11.50 KCAL/MOL
REMARK 923 INTER-LIGAND FREE ENERGY PREDICTED BY IDOCK:   -9.39 KCAL/MOL
REMARK 924 INTRA-LIGAND FREE ENERGY PREDICTED BY IDOCK:   -2.10 KCAL/MOL
REMARK 927      BINDING AFFINITY PREDICTED BY RF-SCORE:    0.00 PKD
ROOT
HETATM    1  C   UNL     1      -9.715  20.090  66.294  1.00  0.00    -0.546 C  
HETATM    2  C   UNL     1     -10.742  19.668  67.330  1.00  0.00    -0.583 C  
ENDROOT
BRANCH   2   3
HETATM    3  C   UNL     1     -10.226  18.534  68.218  1.00  0.00    -0.412 C  
BRANCH   3   4
HETATM    4  C   UNL     1      -8.769  18.787  68.603  1.00  0.00    -0.360 C  
BRANCH   4   5
HETATM    5  C   UNL     1      -7.903  17.528  68.522  1.00  0.00    -0.274 C  
BRANCH   5   6
HETATM    6  C   UNL     1      -8.415  16.617  67.400  1.00  0.00    -0.204 C  
BRANCH   6   7
HETATM    7  C   UNL     1      -7.767  15.240  67.431  1.00  0.00    -0.225 C  
BRANCH   7   8
HETATM    8  C   UNL     1      -8.784  14.119  67.654  1.00  0.00    -0.187 C  
HETATM    9  O   UNL     1      -8.492  13.051  68.186  1.00  0.00    -0.164 OA 
BRANCH   8  10
HETATM   10  C   UNL     1     -10.191  14.442  67.193  1.00  0.00    -0.257 C  
BRANCH  10  11
HETATM   11  C   UNL     1     -11.281  13.391  67.447  1.00  0.00    -0.311 C  
BRANCH  11  12
HETATM   12  C   UNL     1     -11.752  12.750  66.114  1.00  0.00    -0.458 C  
HETATM   13  C   UNL     1     -12.407  13.789  65.189  1.00  0.00    -0.448 C  
HETATM   14  O   UNL     1     -13.751  14.069  65.546  1.00  0.00    -0.538 OA 
HETATM   15  C   UNL     1     -12.372  13.141  63.830  1.00  0.00    -0.439 C  
HETATM   16  H   UNL     1     -14.156  14.711  64.974  1.00  0.00     0.000 HD 
HETATM   17  C   UNL     1     -11.006  12.488  63.768  1.00  0.00    -0.447 C  
HETATM   18  O   UNL     1     -11.085  11.396  62.872  1.00  0.00    -0.791 OA 
HETATM   19  C   UNL     1     -10.625  12.120  65.234  1.00  0.00    -0.319 C  
HETATM   20  H   UNL     1     -10.229  10.986  62.833  1.00  0.00     0.000 HD 
BRANCH  19  21
HETATM   21  C   UNL     1     -10.436  10.614  65.507  1.00  0.00    -0.246 C  
BRANCH  21  22
HETATM   22  C   UNL     1      -9.231  10.281  66.351  1.00  0.00    -0.186 C  
HETATM   23  C   UNL     1      -9.105   9.339  67.297  1.00  0.00    -0.143 C  
BRANCH  23  24
HETATM   24  C   UNL     1     -10.172   8.407  67.785  1.00  0.00    -0.283 C  
BRANCH  24  25
HETATM   25  C   UNL     1     -10.641   8.743  69.203  1.00  0.00    -0.200 C  
BRANCH  25  26
HETATM   26  C   UNL     1     -11.098  10.195  69.361  1.00  0.00    -0.288 C  
HETATM   27  C   UNL     1     -11.673  10.446  70.738  1.00  0.00    -0.368 C  
HETATM   28  O   UNL     1     -11.775   9.621  71.626  1.00  0.00    -0.386 OA 
HETATM   29  O   UNL     1     -12.071  11.732  70.895  1.00  0.00    -0.330 OA 
ENDBRANCH  25  26
ENDBRANCH  24  25
ENDBRANCH  23  24
ENDBRANCH  21  22
ENDBRANCH  19  21
ENDBRANCH  11  12
ENDBRANCH  10  11
ENDBRANCH   8  10
ENDBRANCH   7   8
ENDBRANCH   6   7
ENDBRANCH   5   6
ENDBRANCH   4   5
ENDBRANCH   3   4
ENDBRANCH   2   3
TORSDOF 14
ENDMDL
MODEL       81
REMARK 921   NORMALIZED FREE ENERGY PREDICTED BY IDOCK:   -4.70 KCAL/MOL
REMARK 922        TOTAL FREE ENERGY PREDICTED BY IDOCK:  -11.50 KCAL/MOL
REMARK 923 INTER-LIGAND FREE ENERGY PREDICTED BY IDOCK:   -9.02 KCAL/MOL
REMARK 924 INTRA-LIGAND FREE ENERGY PREDICTED BY IDOCK:   -2.47 KCAL/MOL
REMARK 927      BINDING AFFINITY PREDICTED BY RF-SCORE:    0.00 PKD
ROOT
HETATM    1  C   UNL     1     -14.375   7.657  71.631  1.00  0.00    -0.613 C  
HETATM    2  C   UNL     1     -12.873   7.547  71.441  1.00  0.00    -0.381 C  
ENDROOT
BRANCH   2   3
HETATM    3  C   UNL     1     -12.113   8.577  72.278  1.00  0.00    -0.455 C  
BRANCH   3   4
HETATM    4  C   UNL     1     -11.489   9.637  71.371  1.00  0.00    -0.455 C  
BRANCH   4   5
HETATM    5  C   UNL     1     -12.489  10.709  70.932  1.00  0.00    -0.495 C  
BRANCH   5   6
HETATM    6  C   UNL     1     -12.228  11.094  69.470  1.00  0.00    -0.347 C  
BRANCH   6   7
HETATM    7  C   UNL     1     -10.923  10.516  68.943  1.00  0.00    -0.291 C  
BRANCH   7   8
HETATM    8  C   UNL     1      -9.908  11.600  68.572  1.00  0.00    -0.193 C  
HETATM    9  O   UNL     1      -8.718  11.363  68.384  1.00  0.00    -0.147 OA 
BRANCH   8  10
HETATM   10  C   UNL     1     -10.496  12.989  68.425  1.00  0.00    -0.261 C  
BRANCH  10  11
HETATM   11  C   UNL     1      -9.592  14.084  67.839  1.00  0.00    -0.221 C  
BRANCH  11  12
HETATM   12  C   UNL     1     -10.440  15.253  67.271  1.00  0.00    -0.275 C  
HETATM   13  C   UNL     1     -10.279  16.528  68.115  1.00  0.00    -0.271 C  
HETATM   14  O   UNL     1     -11.068  16.509  69.293  1.00  0.00    -0.308 OA 
HETATM   15  C   UNL     1     -10.759  17.630  67.207  1.00  0.00    -0.234 C  
HETATM   16  H   UNL     1     -10.969  17.297  69.815  1.00  0.00     0.000 HD 
HETATM   17  C   UNL     1     -10.188  17.265  65.851  1.00  0.00    -0.261 C  
HETATM   18  O   UNL     1     -11.025  17.828  64.859  1.00  0.00    -0.866 OA 
HETATM   19  C   UNL     1     -10.075  15.711  65.822  1.00  0.00    -0.394 C  
HETATM   20  H   UNL     1     -10.667  17.599  64.009  1.00  0.00     0.000 HD 
BRANCH  19  21
HETATM   21  C   UNL     1     -10.928  15.008  64.748  1.00  0.00    -0.389 C  
BRANCH  21  22
HETATM   22  C   UNL     1     -12.029  14.136  65.300  1.00  0.00    -0.383 C  
HETATM   23  C   UNL     1     -12.200  12.814  65.160  1.00  0.00    -0.530 C  
BRANCH  23  24
HETATM   24  C   UNL     1     -11.346  11.876  64.361  1.00  0.00    -0.395 C  
BRANCH  24  25
HETATM   25  C   UNL     1     -10.750  10.754  65.214  1.00  0.00    -0.153 C  
BRANCH  25  26
HETATM   26  C   UNL     1      -9.259  10.526  64.958  1.00  0.00    -0.245 C  
HETATM   27  C   UNL     1      -8.774   9.252  65.614  1.00  0.00    -0.166 C  
HETATM   28  O   UNL     1      -9.457   8.487  66.269  1.00  0.00    -0.207 OA 
HETATM   29  O   UNL     1      -7.457   9.032  65.386  1.00  0.00    -0.087 OA 
ENDBRANCH  25  26
ENDBRANCH  24  25
ENDBRANCH  23  24
ENDBRANCH  21  22
ENDBRANCH  19  21
ENDBRANCH  11  12
ENDBRANCH  10  11
ENDBRANCH   8  10
ENDBRANCH   7   8
ENDBRANCH   6   7
ENDBRANCH   5   6
ENDBRANCH   4   5
ENDBRANCH   3   4
ENDBRANCH   2   3
TORSDOF 14
ENDMDL
MODEL       82
REMARK 921   NORMALIZED FREE ENERGY PREDICTED BY IDOCK:   -4.69 KCAL/MOL
REMARK 922        TOTAL FREE ENERGY PREDICTED BY IDOCK:  -11.49 KCAL/MOL
REMARK 923 INTER-LIGAND FREE ENERGY PREDICTED BY IDOCK:   -8.15 KCAL/MOL
REMARK 924 INTRA-LIGAND FREE ENERGY PREDICTED BY IDOCK:   -3.34 KCAL/MOL
REMARK 927      BINDING AFFINITY PREDICTED BY RF-SCORE:    0.00 PKD
ROOT
HETATM    1  C   UNL     1      -8.355  19.985  66.414  1.00  0.00    -0.338 C  
HETATM    2  C   UNL     1      -9.545  19.522  67.234  1.00  0.00    -0.437 C  
ENDROOT
BRANCH   2   3
HETATM    3  C   UNL     1     -10.191  18.266  66.646  1.00  0.00    -0.399 C  
BRANCH   3   4
HETATM    4  C   UNL     1     -10.993  17.532  67.721  1.00  0.00    -0.126 C  
BRANCH   4   5
HETATM    5  C   UNL     1     -10.246  17.424  69.052  1.00  0.00    -0.317 C  
BRANCH   5   6
HETATM    6  C   UNL     1     -10.436  16.021  69.641  1.00  0.00    -0.300 C  
BRANCH   6   7
HETATM    7  C   UNL     1     -11.876  15.756  70.056  1.00  0.00    -0.365 C  
BRANCH   7   8
HETATM    8  C   UNL     1     -12.214  14.264  70.086  1.00  0.00    -0.345 C  
HETATM    9  O   UNL     1     -12.664  13.702  71.081  1.00  0.00    -0.341 OA 
BRANCH   8  10
HETATM   10  C   UNL     1     -11.977  13.538  68.777  1.00  0.00    -0.374 C  
BRANCH  10  11
HETATM   11  C   UNL     1     -10.934  12.410  68.769  1.00  0.00    -0.287 C  
BRANCH  11  12
HETATM   12  C   UNL     1     -10.275  12.279  67.370  1.00  0.00    -0.213 C  
HETATM   13  C   UNL     1     -10.706  10.983  66.663  1.00  0.00    -0.249 C  
HETATM   14  O   UNL     1      -9.994   9.846  67.121  1.00  0.00    -0.180 OA 
HETATM   15  C   UNL     1     -10.377  11.232  65.214  1.00  0.00    -0.337 C  
HETATM   16  H   UNL     1     -10.261   9.045  66.684  1.00  0.00     0.000 HD 
HETATM   17  C   UNL     1     -10.796  12.669  64.982  1.00  0.00    -0.290 C  
HETATM   18  O   UNL     1     -10.017  13.185  63.920  1.00  0.00    -0.760 OA 
HETATM   19  C   UNL     1     -10.632  13.404  66.347  1.00  0.00    -0.285 C  
HETATM   20  H   UNL     1     -10.279  14.087  63.775  1.00  0.00     0.000 HD 
BRANCH  19  21
HETATM   21  C   UNL     1      -9.608  14.557  66.355  1.00  0.00    -0.324 C  
BRANCH  21  22
HETATM   22  C   UNL     1      -8.342  14.259  67.119  1.00  0.00    -0.202 C  
HETATM   23  C   UNL     1      -7.307  15.071  67.374  1.00  0.00    -0.231 C  
BRANCH  23  24
HETATM   24  C   UNL     1      -7.136  16.485  66.906  1.00  0.00    -0.262 C  
BRANCH  24  25
HETATM   25  C   UNL     1      -6.063  17.239  67.695  1.00  0.00    -0.161 C  
BRANCH  25  26
HETATM   26  C   UNL     1      -6.602  17.914  68.958  1.00  0.00    -0.247 C  
HETATM   27  C   UNL     1      -6.039  19.309  69.123  1.00  0.00    -0.258 C  
HETATM   28  O   UNL     1      -5.254  19.851  68.367  1.00  0.00    -0.189 OA 
HETATM   29  O   UNL     1      -6.517  19.922  70.232  1.00  0.00    -0.335 OA 
ENDBRANCH  25  26
ENDBRANCH  24  25
ENDBRANCH  23  24
ENDBRANCH  21  22
ENDBRANCH  19  21
ENDBRANCH  11  12
ENDBRANCH  10  11
ENDBRANCH   8  10
ENDBRANCH   7   8
ENDBRANCH   6   7
ENDBRANCH   5   6
ENDBRANCH   4   5
ENDBRANCH   3   4
ENDBRANCH   2   3
TORSDOF 14
ENDMDL
MODEL       83
REMARK 921   NORMALIZED FREE ENERGY PREDICTED BY IDOCK:   -4.68 KCAL/MOL
REMARK 922        TOTAL FREE ENERGY PREDICTED BY IDOCK:  -11.46 KCAL/MOL
REMARK 923 INTER-LIGAND FREE ENERGY PREDICTED BY IDOCK:   -8.72 KCAL/MOL
REMARK 924 INTRA-LIGAND FREE ENERGY PREDICTED BY IDOCK:   -2.74 KCAL/MOL
REMARK 927      BINDING AFFINITY PREDICTED BY RF-SCORE:    0.00 PKD
ROOT
HETATM    1  C   UNL     1     -10.402   4.987  66.690  1.00  0.00    -0.312 C  
HETATM    2  C   UNL     1     -11.034   6.341  66.954  1.00  0.00    -0.404 C  
ENDROOT
BRANCH   2   3
HETATM    3  C   UNL     1     -10.931   6.745  68.426  1.00  0.00    -0.257 C  
BRANCH   3   4
HETATM    4  C   UNL     1     -10.014   7.958  68.577  1.00  0.00    -0.200 C  
BRANCH   4   5
HETATM    5  C   UNL     1      -8.543   7.577  68.752  1.00  0.00    -0.129 C  
BRANCH   5   6
HETATM    6  C   UNL     1      -7.664   8.491  67.890  1.00  0.00    -0.103 C  
BRANCH   6   7
HETATM    7  C   UNL     1      -7.431   7.926  66.497  1.00  0.00    -0.088 C  
BRANCH   7   8
HETATM    8  C   UNL     1      -7.585   8.983  65.401  1.00  0.00    -0.090 C  
HETATM    9  O   UNL     1      -7.102   8.854  64.279  1.00  0.00    -0.088 OA 
BRANCH   8  10
HETATM   10  C   UNL     1      -8.408  10.190  65.801  1.00  0.00    -0.147 C  
BRANCH  10  11
HETATM   11  C   UNL     1      -9.921  10.137  65.537  1.00  0.00    -0.363 C  
BRANCH  11  12
HETATM   12  C   UNL     1     -10.449  11.522  65.079  1.00  0.00    -0.344 C  
HETATM   13  C   UNL     1     -10.979  11.475  63.636  1.00  0.00    -0.404 C  
HETATM   14  O   UNL     1      -9.943  11.534  62.669  1.00  0.00    -0.586 OA 
HETATM   15  C   UNL     1     -11.842  12.705  63.524  1.00  0.00    -0.619 C  
HETATM   16  H   UNL     1     -10.270  11.505  61.778  1.00  0.00     0.000 HD 
HETATM   17  C   UNL     1     -12.581  12.758  64.846  1.00  0.00    -0.470 C  
HETATM   18  O   UNL     1     -12.921  14.107  65.102  1.00  0.00    -0.729 OA 
HETATM   19  C   UNL     1     -11.648  12.094  65.902  1.00  0.00    -0.425 C  
HETATM   20  H   UNL     1     -13.384  14.140  65.931  1.00  0.00     0.000 HD 
BRANCH  19  21
HETATM   21  C   UNL     1     -11.189  13.017  67.049  1.00  0.00    -0.325 C  
BRANCH  21  22
HETATM   22  C   UNL     1     -10.282  12.355  68.055  1.00  0.00    -0.219 C  
HETATM   23  C   UNL     1     -10.596  11.470  69.012  1.00  0.00    -0.207 C  
BRANCH  23  24
HETATM   24  C   UNL     1     -11.963  10.956  69.348  1.00  0.00    -0.393 C  
BRANCH  24  25
HETATM   25  C   UNL     1     -12.178  10.803  70.856  1.00  0.00    -0.487 C  
BRANCH  25  26
HETATM   26  C   UNL     1     -12.520   9.372  71.277  1.00  0.00    -0.416 C  
HETATM   27  C   UNL     1     -11.312   8.658  71.844  1.00  0.00    -0.347 C  
HETATM   28  O   UNL     1     -10.198   9.133  71.961  1.00  0.00    -0.290 OA 
HETATM   29  O   UNL     1     -11.604   7.393  72.230  1.00  0.00    -0.276 OA 
ENDBRANCH  25  26
ENDBRANCH  24  25
ENDBRANCH  23  24
ENDBRANCH  21  22
ENDBRANCH  19  21
ENDBRANCH  11  12
ENDBRANCH  10  11
ENDBRANCH   8  10
ENDBRANCH   7   8
ENDBRANCH   6   7
ENDBRANCH   5   6
ENDBRANCH   4   5
ENDBRANCH   3   4
ENDBRANCH   2   3
TORSDOF 14
ENDMDL
MODEL       84
REMARK 921   NORMALIZED FREE ENERGY PREDICTED BY IDOCK:   -4.67 KCAL/MOL
REMARK 922        TOTAL FREE ENERGY PREDICTED BY IDOCK:  -11.45 KCAL/MOL
REMARK 923 INTER-LIGAND FREE ENERGY PREDICTED BY IDOCK:   -8.80 KCAL/MOL
REMARK 924 INTRA-LIGAND FREE ENERGY PREDICTED BY IDOCK:   -2.65 KCAL/MOL
REMARK 927      BINDING AFFINITY PREDICTED BY RF-SCORE:    0.00 PKD
ROOT
HETATM    1  C   UNL     1      -9.450   3.998  69.879  1.00  0.00    -0.265 C  
HETATM    2  C   UNL     1     -10.441   5.119  69.621  1.00  0.00    -0.262 C  
ENDROOT
BRANCH   2   3
HETATM    3  C   UNL     1     -10.623   6.016  70.847  1.00  0.00    -0.310 C  
BRANCH   3   4
HETATM    4  C   UNL     1     -11.608   7.142  70.535  1.00  0.00    -0.331 C  
BRANCH   4   5
HETATM    5  C   UNL     1     -12.753   7.230  71.547  1.00  0.00    -0.422 C  
BRANCH   5   6
HETATM    6  C   UNL     1     -12.942   8.686  71.990  1.00  0.00    -0.419 C  
BRANCH   6   7
HETATM    7  C   UNL     1     -11.869   9.607  71.428  1.00  0.00    -0.484 C  
BRANCH   7   8
HETATM    8  C   UNL     1     -12.452  10.882  70.814  1.00  0.00    -0.394 C  
HETATM    9  O   UNL     1     -13.077  11.712  71.470  1.00  0.00    -0.412 OA 
BRANCH   8  10
HETATM   10  C   UNL     1     -12.170  11.055  69.335  1.00  0.00    -0.329 C  
BRANCH  10  11
HETATM   11  C   UNL     1     -10.964  11.922  68.939  1.00  0.00    -0.285 C  
BRANCH  11  12
HETATM   12  C   UNL     1     -11.265  12.726  67.647  1.00  0.00    -0.323 C  
HETATM   13  C   UNL     1     -11.204  14.241  67.898  1.00  0.00    -0.285 C  
HETATM   14  O   UNL     1     -12.384  14.745  68.503  1.00  0.00    -0.590 OA 
HETATM   15  C   UNL     1     -11.052  14.834  66.522  1.00  0.00    -0.334 C  
HETATM   16  H   UNL     1     -12.347  15.681  68.658  1.00  0.00     0.000 HD 
HETATM   17  C   UNL     1     -10.073  13.909  65.828  1.00  0.00    -0.320 C  
HETATM   18  O   UNL     1     -10.314  13.983  64.436  1.00  0.00    -0.592 OA 
HETATM   19  C   UNL     1     -10.268  12.500  66.464  1.00  0.00    -0.255 C  
HETATM   20  H   UNL     1      -9.701  13.403  64.001  1.00  0.00     0.000 HD 
BRANCH  19  21
HETATM   21  C   UNL     1     -10.744  11.400  65.494  1.00  0.00    -0.313 C  
BRANCH  21  22
HETATM   22  C   UNL     1      -9.712  10.338  65.204  1.00  0.00    -0.364 C  
HETATM   23  C   UNL     1      -9.504   9.176  65.840  1.00  0.00    -0.326 C  
BRANCH  23  24
HETATM   24  C   UNL     1     -10.231   8.670  67.049  1.00  0.00    -0.360 C  
BRANCH  24  25
HETATM   25  C   UNL     1      -9.281   8.297  68.190  1.00  0.00    -0.137 C  
BRANCH  25  26
HETATM   26  C   UNL     1      -8.348   9.438  68.600  1.00  0.00    -0.117 C  
HETATM   27  C   UNL     1      -8.108   9.447  70.094  1.00  0.00    -0.157 C  
HETATM   28  O   UNL     1      -8.583   8.663  70.893  1.00  0.00    -0.139 OA 
HETATM   29  O   UNL     1      -7.274  10.447  70.468  1.00  0.00    -0.276 OA 
ENDBRANCH  25  26
ENDBRANCH  24  25
ENDBRANCH  23  24
ENDBRANCH  21  22
ENDBRANCH  19  21
ENDBRANCH  11  12
ENDBRANCH  10  11
ENDBRANCH   8  10
ENDBRANCH   7   8
ENDBRANCH   6   7
ENDBRANCH   5   6
ENDBRANCH   4   5
ENDBRANCH   3   4
ENDBRANCH   2   3
TORSDOF 14
ENDMDL
MODEL       85
REMARK 921   NORMALIZED FREE ENERGY PREDICTED BY IDOCK:   -4.67 KCAL/MOL
REMARK 922        TOTAL FREE ENERGY PREDICTED BY IDOCK:  -11.45 KCAL/MOL
REMARK 923 INTER-LIGAND FREE ENERGY PREDICTED BY IDOCK:   -9.38 KCAL/MOL
REMARK 924 INTRA-LIGAND FREE ENERGY PREDICTED BY IDOCK:   -2.08 KCAL/MOL
REMARK 927      BINDING AFFINITY PREDICTED BY RF-SCORE:    0.00 PKD
ROOT
HETATM    1  C   UNL     1      -7.686  11.641  67.174  1.00  0.00    -0.159 C  
HETATM    2  C   UNL     1      -7.676  10.531  66.139  1.00  0.00    -0.142 C  
ENDROOT
BRANCH   2   3
HETATM    3  C   UNL     1      -8.935   9.665  66.215  1.00  0.00    -0.184 C  
BRANCH   3   4
HETATM    4  C   UNL     1     -10.047  10.276  65.364  1.00  0.00    -0.354 C  
BRANCH   4   5
HETATM    5  C   UNL     1      -9.674  10.387  63.885  1.00  0.00    -0.367 C  
BRANCH   5   6
HETATM    6  C   UNL     1     -10.528  11.469  63.213  1.00  0.00    -0.421 C  
BRANCH   6   7
HETATM    7  C   UNL     1     -11.607  12.013  64.139  1.00  0.00    -0.460 C  
BRANCH   7   8
HETATM    8  C   UNL     1     -11.782  13.528  64.011  1.00  0.00    -0.395 C  
HETATM    9  O   UNL     1     -12.752  14.042  63.461  1.00  0.00    -0.805 OA 
BRANCH   8  10
HETATM   10  C   UNL     1     -10.676  14.345  64.646  1.00  0.00    -0.357 C  
BRANCH  10  11
HETATM   11  C   UNL     1     -10.099  13.846  65.979  1.00  0.00    -0.324 C  
BRANCH  11  12
HETATM   12  C   UNL     1     -11.058  14.179  67.154  1.00  0.00    -0.315 C  
HETATM   13  C   UNL     1     -11.320  12.947  68.035  1.00  0.00    -0.292 C  
HETATM   14  O   UNL     1     -12.285  12.069  67.477  1.00  0.00    -0.490 OA 
HETATM   15  C   UNL     1     -11.850  13.524  69.321  1.00  0.00    -0.392 C  
HETATM   16  H   UNL     1     -12.447  11.308  68.021  1.00  0.00     0.000 HD 
HETATM   17  C   UNL     1     -10.983  14.743  69.562  1.00  0.00    -0.266 C  
HETATM   18  O   UNL     1     -11.728  15.662  70.338  1.00  0.00    -0.299 OA 
HETATM   19  C   UNL     1     -10.544  15.259  68.159  1.00  0.00    -0.254 C  
HETATM   20  H   UNL     1     -11.185  16.427  70.489  1.00  0.00     0.000 HD 
BRANCH  19  21
HETATM   21  C   UNL     1     -11.026  16.678  67.798  1.00  0.00    -0.234 C  
BRANCH  21  22
HETATM   22  C   UNL     1     -10.418  17.240  66.538  1.00  0.00    -0.260 C  
HETATM   23  C   UNL     1     -10.273  18.523  66.177  1.00  0.00    -0.424 C  
BRANCH  23  24
HETATM   24  C   UNL     1     -10.738  19.729  66.937  1.00  0.00    -0.541 C  
BRANCH  24  25
HETATM   25  C   UNL     1      -9.666  20.276  67.882  1.00  0.00    -0.472 C  
BRANCH  25  26
HETATM   26  C   UNL     1      -8.255  20.226  67.292  1.00  0.00    -0.393 C  
HETATM   27  C   UNL     1      -7.227  19.878  68.347  1.00  0.00    -0.296 C  
HETATM   28  O   UNL     1      -7.461  19.661  69.521  1.00  0.00    -0.275 OA 
HETATM   29  O   UNL     1      -5.974  19.819  67.835  1.00  0.00    -0.203 OA 
ENDBRANCH  25  26
ENDBRANCH  24  25
ENDBRANCH  23  24
ENDBRANCH  21  22
ENDBRANCH  19  21
ENDBRANCH  11  12
ENDBRANCH  10  11
ENDBRANCH   8  10
ENDBRANCH   7   8
ENDBRANCH   6   7
ENDBRANCH   5   6
ENDBRANCH   4   5
ENDBRANCH   3   4
ENDBRANCH   2   3
TORSDOF 14
ENDMDL
MODEL       86
REMARK 921   NORMALIZED FREE ENERGY PREDICTED BY IDOCK:   -4.66 KCAL/MOL
REMARK 922        TOTAL FREE ENERGY PREDICTED BY IDOCK:  -11.44 KCAL/MOL
REMARK 923 INTER-LIGAND FREE ENERGY PREDICTED BY IDOCK:   -8.95 KCAL/MOL
REMARK 924 INTRA-LIGAND FREE ENERGY PREDICTED BY IDOCK:   -2.49 KCAL/MOL
REMARK 927      BINDING AFFINITY PREDICTED BY RF-SCORE:    0.00 PKD
ROOT
HETATM    1  C   UNL     1      -8.080  18.784  66.800  1.00  0.00    -0.274 C  
HETATM    2  C   UNL     1      -8.127  17.459  66.061  1.00  0.00    -0.180 C  
ENDROOT
BRANCH   2   3
HETATM    3  C   UNL     1      -9.153  16.501  66.668  1.00  0.00    -0.283 C  
BRANCH   3   4
HETATM    4  C   UNL     1     -10.273  17.288  67.346  1.00  0.00    -0.325 C  
BRANCH   4   5
HETATM    5  C   UNL     1     -10.486  16.886  68.807  1.00  0.00    -0.343 C  
BRANCH   5   6
HETATM    6  C   UNL     1     -11.230  15.547  68.874  1.00  0.00    -0.306 C  
BRANCH   6   7
HETATM    7  C   UNL     1     -12.141  15.451  70.089  1.00  0.00    -0.400 C  
BRANCH   7   8
HETATM    8  C   UNL     1     -12.401  14.004  70.514  1.00  0.00    -0.367 C  
HETATM    9  O   UNL     1     -13.146  13.706  71.445  1.00  0.00    -0.340 OA 
BRANCH   8  10
HETATM   10  C   UNL     1     -11.688  12.963  69.675  1.00  0.00    -0.367 C  
BRANCH  10  11
HETATM   11  C   UNL     1     -12.410  11.629  69.435  1.00  0.00    -0.131 C  
BRANCH  11  12
HETATM   12  C   UNL     1     -11.880  10.533  70.398  1.00  0.00    -0.431 C  
HETATM   13  C   UNL     1     -13.001   9.976  71.290  1.00  0.00    -0.400 C  
HETATM   14  O   UNL     1     -13.297  10.820  72.390  1.00  0.00    -0.606 OA 
HETATM   15  C   UNL     1     -12.449   8.668  71.795  1.00  0.00    -0.397 C  
HETATM   16  H   UNL     1     -13.990  10.476  72.942  1.00  0.00     0.000 HD 
HETATM   17  C   UNL     1     -11.760   8.068  70.586  1.00  0.00    -0.150 C  
HETATM   18  O   UNL     1     -10.737   7.208  71.050  1.00  0.00    -0.228 OA 
HETATM   19  C   UNL     1     -11.278   9.265  69.712  1.00  0.00    -0.104 C  
HETATM   20  H   UNL     1     -10.304   6.832  70.292  1.00  0.00     0.000 HD 
BRANCH  19  21
HETATM   21  C   UNL     1      -9.752   9.367  69.518  1.00  0.00    -0.191 C  
BRANCH  21  22
HETATM   22  C   UNL     1      -9.279   9.051  68.121  1.00  0.00    -0.141 C  
HETATM   23  C   UNL     1      -9.229   9.857  67.052  1.00  0.00    -0.164 C  
BRANCH  23  24
HETATM   24  C   UNL     1      -9.690  11.282  66.976  1.00  0.00    -0.208 C  
BRANCH  24  25
HETATM   25  C   UNL     1     -10.865  11.468  66.015  1.00  0.00    -0.330 C  
BRANCH  25  26
HETATM   26  C   UNL     1     -11.485  12.866  66.079  1.00  0.00    -0.384 C  
HETATM   27  C   UNL     1     -12.677  12.985  65.154  1.00  0.00    -0.397 C  
HETATM   28  O   UNL     1     -13.110  12.103  64.438  1.00  0.00    -0.740 OA 
HETATM   29  O   UNL     1     -13.242  14.215  65.210  1.00  0.00    -0.760 OA 
ENDBRANCH  25  26
ENDBRANCH  24  25
ENDBRANCH  23  24
ENDBRANCH  21  22
ENDBRANCH  19  21
ENDBRANCH  11  12
ENDBRANCH  10  11
ENDBRANCH   8  10
ENDBRANCH   7   8
ENDBRANCH   6   7
ENDBRANCH   5   6
ENDBRANCH   4   5
ENDBRANCH   3   4
ENDBRANCH   2   3
TORSDOF 14
ENDMDL
MODEL       87
REMARK 921   NORMALIZED FREE ENERGY PREDICTED BY IDOCK:   -4.66 KCAL/MOL
REMARK 922        TOTAL FREE ENERGY PREDICTED BY IDOCK:  -11.43 KCAL/MOL
REMARK 923 INTER-LIGAND FREE ENERGY PREDICTED BY IDOCK:   -9.66 KCAL/MOL
REMARK 924 INTRA-LIGAND FREE ENERGY PREDICTED BY IDOCK:   -1.77 KCAL/MOL
REMARK 927      BINDING AFFINITY PREDICTED BY RF-SCORE:    0.00 PKD
ROOT
HETATM    1  C   UNL     1      -8.897   4.941  68.453  1.00  0.00    -0.115 C  
HETATM    2  C   UNL     1     -10.142   5.134  67.607  1.00  0.00    -0.204 C  
ENDROOT
BRANCH   2   3
HETATM    3  C   UNL     1     -10.946   6.360  68.044  1.00  0.00    -0.400 C  
BRANCH   3   4
HETATM    4  C   UNL     1     -11.366   6.222  69.507  1.00  0.00    -0.475 C  
BRANCH   4   5
HETATM    5  C   UNL     1     -11.006   7.446  70.350  1.00  0.00    -0.269 C  
BRANCH   5   6
HETATM    6  C   UNL     1     -10.227   8.454  69.496  1.00  0.00    -0.207 C  
BRANCH   6   7
HETATM    7  C   UNL     1     -10.063   9.798  70.191  1.00  0.00    -0.317 C  
BRANCH   7   8
HETATM    8  C   UNL     1     -10.825  10.921  69.485  1.00  0.00    -0.238 C  
HETATM    9  O   UNL     1     -11.792  11.488  69.987  1.00  0.00    -0.310 OA 
BRANCH   8  10
HETATM   10  C   UNL     1     -10.272  11.300  68.126  1.00  0.00    -0.196 C  
BRANCH  10  11
HETATM   11  C   UNL     1     -11.094  10.905  66.889  1.00  0.00    -0.236 C  
BRANCH  11  12
HETATM   12  C   UNL     1     -10.934  11.959  65.761  1.00  0.00    -0.359 C  
HETATM   13  C   UNL     1     -10.238  11.362  64.527  1.00  0.00    -0.299 C  
HETATM   14  O   UNL     1      -8.829  11.286  64.676  1.00  0.00    -0.379 OA 
HETATM   15  C   UNL     1     -10.574  12.324  63.418  1.00  0.00    -0.427 C  
HETATM   16  H   UNL     1      -8.399  10.917  63.913  1.00  0.00     0.000 HD 
HETATM   17  C   UNL     1     -12.030  12.670  63.659  1.00  0.00    -0.535 C  
HETATM   18  O   UNL     1     -12.271  13.950  63.109  1.00  0.00    -1.071 OA 
HETATM   19  C   UNL     1     -12.265  12.549  65.195  1.00  0.00    -0.509 C  
HETATM   20  H   UNL     1     -13.184  14.168  63.260  1.00  0.00     0.000 HD 
BRANCH  19  21
HETATM   21  C   UNL     1     -12.680  13.855  65.902  1.00  0.00    -0.466 C  
BRANCH  21  22
HETATM   22  C   UNL     1     -11.679  14.362  66.910  1.00  0.00    -0.422 C  
HETATM   23  C   UNL     1     -10.749  15.315  66.760  1.00  0.00    -0.313 C  
BRANCH  23  24
HETATM   24  C   UNL     1     -10.442  16.084  65.511  1.00  0.00    -0.426 C  
BRANCH  24  25
HETATM   25  C   UNL     1     -10.396  17.596  65.749  1.00  0.00    -0.194 C  
BRANCH  25  26
HETATM   26  C   UNL     1     -10.664  17.988  67.204  1.00  0.00    -0.276 C  
HETATM   27  C   UNL     1      -9.619  18.955  67.717  1.00  0.00    -0.312 C  
HETATM   28  O   UNL     1      -8.674  19.382  67.081  1.00  0.00    -0.282 OA 
HETATM   29  O   UNL     1      -9.851  19.319  69.001  1.00  0.00    -0.422 OA 
ENDBRANCH  25  26
ENDBRANCH  24  25
ENDBRANCH  23  24
ENDBRANCH  21  22
ENDBRANCH  19  21
ENDBRANCH  11  12
ENDBRANCH  10  11
ENDBRANCH   8  10
ENDBRANCH   7   8
ENDBRANCH   6   7
ENDBRANCH   5   6
ENDBRANCH   4   5
ENDBRANCH   3   4
ENDBRANCH   2   3
TORSDOF 14
ENDMDL
MODEL       88
REMARK 921   NORMALIZED FREE ENERGY PREDICTED BY IDOCK:   -4.66 KCAL/MOL
REMARK 922        TOTAL FREE ENERGY PREDICTED BY IDOCK:  -11.42 KCAL/MOL
REMARK 923 INTER-LIGAND FREE ENERGY PREDICTED BY IDOCK:   -9.59 KCAL/MOL
REMARK 924 INTRA-LIGAND FREE ENERGY PREDICTED BY IDOCK:   -1.83 KCAL/MOL
REMARK 927      BINDING AFFINITY PREDICTED BY RF-SCORE:    0.00 PKD
ROOT
HETATM    1  C   UNL     1      -9.947   7.834  73.169  1.00  0.00    -0.374 C  
HETATM    2  C   UNL     1     -11.368   7.804  72.635  1.00  0.00    -0.449 C  
ENDROOT
BRANCH   2   3
HETATM    3  C   UNL     1     -11.681   6.490  71.915  1.00  0.00    -0.371 C  
BRANCH   3   4
HETATM    4  C   UNL     1     -11.902   6.746  70.425  1.00  0.00    -0.395 C  
BRANCH   4   5
HETATM    5  C   UNL     1     -10.625   6.594  69.597  1.00  0.00    -0.276 C  
BRANCH   5   6
HETATM    6  C   UNL     1     -10.477   7.788  68.647  1.00  0.00    -0.199 C  
BRANCH   6   7
HETATM    7  C   UNL     1     -10.323   9.106  69.393  1.00  0.00    -0.220 C  
BRANCH   7   8
HETATM    8  C   UNL     1     -11.276  10.187  68.878  1.00  0.00    -0.170 C  
HETATM    9  O   UNL     1     -12.067  10.780  69.607  1.00  0.00    -0.308 OA 
BRANCH   8  10
HETATM   10  C   UNL     1     -11.146  10.489  67.399  1.00  0.00    -0.322 C  
BRANCH  10  11
HETATM   11  C   UNL     1      -9.930  11.312  66.947  1.00  0.00    -0.238 C  
BRANCH  11  12
HETATM   12  C   UNL     1     -10.251  12.104  65.652  1.00  0.00    -0.285 C  
HETATM   13  C   UNL     1     -10.082  11.230  64.399  1.00  0.00    -0.303 C  
HETATM   14  O   UNL     1      -8.727  11.098  64.000  1.00  0.00    -0.377 OA 
HETATM   15  C   UNL     1     -10.850  11.967  63.333  1.00  0.00    -0.469 C  
HETATM   16  H   UNL     1      -8.623  10.558  63.226  1.00  0.00     0.000 HD 
HETATM   17  C   UNL     1     -12.101  12.442  64.044  1.00  0.00    -0.475 C  
HETATM   18  O   UNL     1     -12.569  13.598  63.376  1.00  0.00    -0.864 OA 
HETATM   19  C   UNL     1     -11.711  12.649  65.538  1.00  0.00    -0.446 C  
HETATM   20  H   UNL     1     -13.354  13.897  63.821  1.00  0.00     0.000 HD 
BRANCH  19  21
HETATM   21  C   UNL     1     -11.845  14.094  66.060  1.00  0.00    -0.409 C  
BRANCH  21  22
HETATM   22  C   UNL     1     -12.075  14.199  67.547  1.00  0.00    -0.363 C  
HETATM   23  C   UNL     1     -11.399  14.922  68.451  1.00  0.00    -0.320 C  
BRANCH  23  24
HETATM   24  C   UNL     1     -10.193  15.776  68.199  1.00  0.00    -0.230 C  
BRANCH  24  25
HETATM   25  C   UNL     1     -10.540  17.262  68.085  1.00  0.00    -0.386 C  
BRANCH  25  26
HETATM   26  C   UNL     1      -9.985  17.919  66.819  1.00  0.00    -0.339 C  
HETATM   27  C   UNL     1      -8.609  18.503  67.057  1.00  0.00    -0.272 C  
HETATM   28  O   UNL     1      -7.998  18.472  68.108  1.00  0.00    -0.272 OA 
HETATM   29  O   UNL     1      -8.101  19.078  65.940  1.00  0.00    -0.458 OA 
ENDBRANCH  25  26
ENDBRANCH  24  25
ENDBRANCH  23  24
ENDBRANCH  21  22
ENDBRANCH  19  21
ENDBRANCH  11  12
ENDBRANCH  10  11
ENDBRANCH   8  10
ENDBRANCH   7   8
ENDBRANCH   6   7
ENDBRANCH   5   6
ENDBRANCH   4   5
ENDBRANCH   3   4
ENDBRANCH   2   3
TORSDOF 14
ENDMDL
MODEL       89
REMARK 921   NORMALIZED FREE ENERGY PREDICTED BY IDOCK:   -4.65 KCAL/MOL
REMARK 922        TOTAL FREE ENERGY PREDICTED BY IDOCK:  -11.42 KCAL/MOL
REMARK 923 INTER-LIGAND FREE ENERGY PREDICTED BY IDOCK:   -9.10 KCAL/MOL
REMARK 924 INTRA-LIGAND FREE ENERGY PREDICTED BY IDOCK:   -2.32 KCAL/MOL
REMARK 927      BINDING AFFINITY PREDICTED BY RF-SCORE:    0.00 PKD
ROOT
HETATM    1  C   UNL     1     -10.186  17.433  68.523  1.00  0.00    -0.369 C  
HETATM    2  C   UNL     1     -10.281  17.049  67.058  1.00  0.00    -0.303 C  
ENDROOT
BRANCH   2   3
HETATM    3  C   UNL     1     -10.753  15.605  66.873  1.00  0.00    -0.307 C  
BRANCH   3   4
HETATM    4  C   UNL     1     -10.695  14.857  68.205  1.00  0.00    -0.249 C  
BRANCH   4   5
HETATM    5  C   UNL     1     -12.016  14.176  68.565  1.00  0.00    -0.367 C  
BRANCH   5   6
HETATM    6  C   UNL     1     -11.740  12.795  69.171  1.00  0.00    -0.375 C  
BRANCH   6   7
HETATM    7  C   UNL     1     -12.399  12.617  70.532  1.00  0.00    -0.350 C  
BRANCH   7   8
HETATM    8  C   UNL     1     -12.507  11.147  70.944  1.00  0.00    -0.409 C  
HETATM    9  O   UNL     1     -13.159  10.774  71.916  1.00  0.00    -0.481 OA 
BRANCH   8  10
HETATM   10  C   UNL     1     -11.770  10.183  70.037  1.00  0.00    -0.294 C  
BRANCH  10  11
HETATM   11  C   UNL     1     -10.353   9.758  70.454  1.00  0.00    -0.354 C  
BRANCH  11  12
HETATM   12  C   UNL     1     -10.087   8.277  70.072  1.00  0.00    -0.196 C  
HETATM   13  C   UNL     1     -10.915   7.314  70.936  1.00  0.00    -0.253 C  
HETATM   14  O   UNL     1     -10.347   7.101  72.218  1.00  0.00    -0.195 OA 
HETATM   15  C   UNL     1     -10.902   6.023  70.160  1.00  0.00    -0.409 C  
HETATM   16  H   UNL     1     -10.859   6.505  72.753  1.00  0.00     0.000 HD 
HETATM   17  C   UNL     1     -11.080   6.458  68.719  1.00  0.00    -0.326 C  
HETATM   18  O   UNL     1     -10.494   5.473  67.890  1.00  0.00    -0.207 OA 
HETATM   19  C   UNL     1     -10.456   7.881  68.606  1.00  0.00    -0.196 C  
HETATM   20  H   UNL     1     -10.606   5.746  66.987  1.00  0.00     0.000 HD 
BRANCH  19  21
HETATM   21  C   UNL     1      -9.258   8.001  67.643  1.00  0.00    -0.145 C  
BRANCH  21  22
HETATM   22  C   UNL     1      -9.627   8.401  66.236  1.00  0.00    -0.286 C  
HETATM   23  C   UNL     1      -9.883   9.625  65.753  1.00  0.00    -0.373 C  
BRANCH  23  24
HETATM   24  C   UNL     1      -9.913  10.909  66.527  1.00  0.00    -0.255 C  
BRANCH  24  25
HETATM   25  C   UNL     1     -10.115  12.131  65.628  1.00  0.00    -0.274 C  
BRANCH  25  26
HETATM   26  C   UNL     1     -10.890  11.818  64.345  1.00  0.00    -0.389 C  
HETATM   27  C   UNL     1     -12.320  12.304  64.432  1.00  0.00    -0.404 C  
HETATM   28  O   UNL     1     -12.820  12.872  65.384  1.00  0.00    -0.599 OA 
HETATM   29  O   UNL     1     -13.014  12.043  63.298  1.00  0.00    -0.736 OA 
ENDBRANCH  25  26
ENDBRANCH  24  25
ENDBRANCH  23  24
ENDBRANCH  21  22
ENDBRANCH  19  21
ENDBRANCH  11  12
ENDBRANCH  10  11
ENDBRANCH   8  10
ENDBRANCH   7   8
ENDBRANCH   6   7
ENDBRANCH   5   6
ENDBRANCH   4   5
ENDBRANCH   3   4
ENDBRANCH   2   3
TORSDOF 14
ENDMDL
MODEL       90
REMARK 921   NORMALIZED FREE ENERGY PREDICTED BY IDOCK:   -4.65 KCAL/MOL
REMARK 922        TOTAL FREE ENERGY PREDICTED BY IDOCK:  -11.41 KCAL/MOL
REMARK 923 INTER-LIGAND FREE ENERGY PREDICTED BY IDOCK:   -9.17 KCAL/MOL
REMARK 924 INTRA-LIGAND FREE ENERGY PREDICTED BY IDOCK:   -2.24 KCAL/MOL
REMARK 927      BINDING AFFINITY PREDICTED BY RF-SCORE:    0.00 PKD
ROOT
HETATM    1  C   UNL     1     -10.464  19.066  65.960  1.00  0.00    -0.530 C  
HETATM    2  C   UNL     1     -10.856  19.429  67.382  1.00  0.00    -0.555 C  
ENDROOT
BRANCH   2   3
HETATM    3  C   UNL     1      -9.751  19.089  68.384  1.00  0.00    -0.442 C  
BRANCH   3   4
HETATM    4  C   UNL     1      -8.380  19.212  67.720  1.00  0.00    -0.325 C  
BRANCH   4   5
HETATM    5  C   UNL     1      -7.505  17.974  67.921  1.00  0.00    -0.222 C  
BRANCH   5   6
HETATM    6  C   UNL     1      -7.610  17.059  66.695  1.00  0.00    -0.298 C  
BRANCH   6   7
HETATM    7  C   UNL     1      -7.960  15.626  67.070  1.00  0.00    -0.268 C  
BRANCH   7   8
HETATM    8  C   UNL     1      -9.466  15.416  67.245  1.00  0.00    -0.210 C  
HETATM    9  O   UNL     1     -10.012  15.397  68.345  1.00  0.00    -0.210 OA 
BRANCH   8  10
HETATM   10  C   UNL     1     -10.236  15.265  65.949  1.00  0.00    -0.353 C  
BRANCH  10  11
HETATM   11  C   UNL     1     -11.653  14.677  66.030  1.00  0.00    -0.328 C  
BRANCH  11  12
HETATM   12  C   UNL     1     -11.707  13.275  65.365  1.00  0.00    -0.370 C  
HETATM   13  C   UNL     1     -11.417  13.354  63.858  1.00  0.00    -0.309 C  
HETATM   14  O   UNL     1     -12.543  13.771  63.104  1.00  0.00    -1.024 OA 
HETATM   15  C   UNL     1     -11.056  11.941  63.482  1.00  0.00    -0.506 C  
HETATM   16  H   UNL     1     -12.364  13.820  62.172  1.00  0.00     0.000 HD 
HETATM   17  C   UNL     1     -10.189  11.464  64.630  1.00  0.00    -0.294 C  
HETATM   18  O   UNL     1     -10.299  10.056  64.703  1.00  0.00    -0.309 OA 
HETATM   19  C   UNL     1     -10.668  12.236  65.896  1.00  0.00    -0.294 C  
HETATM   20  H   UNL     1      -9.756   9.757  65.423  1.00  0.00     0.000 HD 
BRANCH  19  21
HETATM   21  C   UNL     1     -11.237  11.357  67.028  1.00  0.00    -0.350 C  
BRANCH  21  22
HETATM   22  C   UNL     1     -10.944  11.865  68.417  1.00  0.00    -0.273 C  
HETATM   23  C   UNL     1     -10.833  11.169  69.557  1.00  0.00    -0.241 C  
BRANCH  23  24
HETATM   24  C   UNL     1     -11.029   9.693  69.733  1.00  0.00    -0.266 C  
BRANCH  24  25
HETATM   25  C   UNL     1      -9.811   8.882  69.284  1.00  0.00    -0.176 C  
BRANCH  25  26
HETATM   26  C   UNL     1     -10.100   7.386  69.140  1.00  0.00    -0.189 C  
HETATM   27  C   UNL     1     -10.602   7.051  67.753  1.00  0.00    -0.233 C  
HETATM   28  O   UNL     1     -10.768   7.846  66.847  1.00  0.00    -0.333 OA 
HETATM   29  O   UNL     1     -10.851   5.727  67.608  1.00  0.00    -0.258 OA 
ENDBRANCH  25  26
ENDBRANCH  24  25
ENDBRANCH  23  24
ENDBRANCH  21  22
ENDBRANCH  19  21
ENDBRANCH  11  12
ENDBRANCH  10  11
ENDBRANCH   8  10
ENDBRANCH   7   8
ENDBRANCH   6   7
ENDBRANCH   5   6
ENDBRANCH   4   5
ENDBRANCH   3   4
ENDBRANCH   2   3
TORSDOF 14
ENDMDL
MODEL       91
REMARK 921   NORMALIZED FREE ENERGY PREDICTED BY IDOCK:   -4.64 KCAL/MOL
REMARK 922        TOTAL FREE ENERGY PREDICTED BY IDOCK:  -11.40 KCAL/MOL
REMARK 923 INTER-LIGAND FREE ENERGY PREDICTED BY IDOCK:   -9.40 KCAL/MOL
REMARK 924 INTRA-LIGAND FREE ENERGY PREDICTED BY IDOCK:   -2.00 KCAL/MOL
REMARK 927      BINDING AFFINITY PREDICTED BY RF-SCORE:    0.00 PKD
ROOT
HETATM    1  C   UNL     1     -10.860   5.569  73.394  1.00  0.00    -0.332 C  
HETATM    2  C   UNL     1     -10.961   7.043  73.047  1.00  0.00    -0.327 C  
ENDROOT
BRANCH   2   3
HETATM    3  C   UNL     1     -11.998   7.304  71.953  1.00  0.00    -0.342 C  
BRANCH   3   4
HETATM    4  C   UNL     1     -11.847   8.725  71.411  1.00  0.00    -0.369 C  
BRANCH   4   5
HETATM    5  C   UNL     1     -12.986   9.652  71.838  1.00  0.00    -0.527 C  
BRANCH   5   6
HETATM    6  C   UNL     1     -12.687  11.086  71.383  1.00  0.00    -0.534 C  
BRANCH   6   7
HETATM    7  C   UNL     1     -11.538  11.150  70.387  1.00  0.00    -0.355 C  
BRANCH   7   8
HETATM    8  C   UNL     1     -11.797  12.150  69.257  1.00  0.00    -0.313 C  
HETATM    9  O   UNL     1     -12.042  13.336  69.460  1.00  0.00    -0.303 OA 
BRANCH   8  10
HETATM   10  C   UNL     1     -11.695  11.565  67.863  1.00  0.00    -0.317 C  
BRANCH  10  11
HETATM   11  C   UNL     1     -10.326  11.622  67.167  1.00  0.00    -0.247 C  
BRANCH  11  12
HETATM   12  C   UNL     1     -10.434  12.340  65.796  1.00  0.00    -0.287 C  
HETATM   13  C   UNL     1     -10.307  11.348  64.628  1.00  0.00    -0.307 C  
HETATM   14  O   UNL     1      -8.961  10.994  64.354  1.00  0.00    -0.312 OA 
HETATM   15  C   UNL     1     -10.881  12.093  63.452  1.00  0.00    -0.474 C  
HETATM   16  H   UNL     1      -8.883  10.381  63.632  1.00  0.00     0.000 HD 
HETATM   17  C   UNL     1     -12.096  12.798  64.020  1.00  0.00    -0.457 C  
HETATM   18  O   UNL     1     -12.340  13.948  63.233  1.00  0.00    -1.115 OA 
HETATM   19  C   UNL     1     -11.787  13.073  65.522  1.00  0.00    -0.438 C  
HETATM   20  H   UNL     1     -13.102  14.391  63.589  1.00  0.00     0.000 HD 
BRANCH  19  21
HETATM   21  C   UNL     1     -11.744  14.561  65.925  1.00  0.00    -0.345 C  
BRANCH  21  22
HETATM   22  C   UNL     1     -10.406  15.224  65.712  1.00  0.00    -0.364 C  
HETATM   23  C   UNL     1      -9.434  15.454  66.606  1.00  0.00    -0.281 C  
BRANCH  23  24
HETATM   24  C   UNL     1      -9.468  15.144  68.072  1.00  0.00    -0.199 C  
BRANCH  24  25
HETATM   25  C   UNL     1      -8.073  14.902  68.653  1.00  0.00    -0.151 C  
BRANCH  25  26
HETATM   26  C   UNL     1      -7.076  14.356  67.628  1.00  0.00    -0.202 C  
HETATM   27  C   UNL     1      -6.768  12.896  67.880  1.00  0.00    -0.123 C  
HETATM   28  O   UNL     1      -7.234  12.217  68.775  1.00  0.00    -0.106 OA 
HETATM   29  O   UNL     1      -5.895  12.397  66.972  1.00  0.00    -0.275 OA 
ENDBRANCH  25  26
ENDBRANCH  24  25
ENDBRANCH  23  24
ENDBRANCH  21  22
ENDBRANCH  19  21
ENDBRANCH  11  12
ENDBRANCH  10  11
ENDBRANCH   8  10
ENDBRANCH   7   8
ENDBRANCH   6   7
ENDBRANCH   5   6
ENDBRANCH   4   5
ENDBRANCH   3   4
ENDBRANCH   2   3
TORSDOF 14
ENDMDL
MODEL       92
REMARK 921   NORMALIZED FREE ENERGY PREDICTED BY IDOCK:   -4.64 KCAL/MOL
REMARK 922        TOTAL FREE ENERGY PREDICTED BY IDOCK:  -11.40 KCAL/MOL
REMARK 923 INTER-LIGAND FREE ENERGY PREDICTED BY IDOCK:   -8.83 KCAL/MOL
REMARK 924 INTRA-LIGAND FREE ENERGY PREDICTED BY IDOCK:   -2.57 KCAL/MOL
REMARK 927      BINDING AFFINITY PREDICTED BY RF-SCORE:    0.00 PKD
ROOT
HETATM    1  C   UNL     1      -6.919  10.720  66.064  1.00  0.00    -0.104 C  
HETATM    2  C   UNL     1      -7.841  10.023  65.080  1.00  0.00    -0.137 C  
ENDROOT
BRANCH   2   3
HETATM    3  C   UNL     1      -9.151   9.581  65.736  1.00  0.00    -0.243 C  
BRANCH   3   4
HETATM    4  C   UNL     1     -10.317  10.403  65.190  1.00  0.00    -0.260 C  
BRANCH   4   5
HETATM    5  C   UNL     1     -10.039  10.987  63.803  1.00  0.00    -0.420 C  
BRANCH   5   6
HETATM    6  C   UNL     1     -11.091  12.051  63.467  1.00  0.00    -0.519 C  
BRANCH   6   7
HETATM    7  C   UNL     1     -12.098  12.245  64.592  1.00  0.00    -0.449 C  
BRANCH   7   8
HETATM    8  C   UNL     1     -12.151  13.692  65.088  1.00  0.00    -0.403 C  
HETATM    9  O   UNL     1     -13.205  14.283  65.307  1.00  0.00    -0.704 OA 
BRANCH   8  10
HETATM   10  C   UNL     1     -10.796  14.329  65.318  1.00  0.00    -0.363 C  
BRANCH  10  11
HETATM   11  C   UNL     1      -9.874  13.680  66.361  1.00  0.00    -0.302 C  
BRANCH  11  12
HETATM   12  C   UNL     1      -9.999  14.400  67.731  1.00  0.00    -0.226 C  
HETATM   13  C   UNL     1      -9.585  15.877  67.632  1.00  0.00    -0.221 C  
HETATM   14  O   UNL     1      -8.178  16.055  67.651  1.00  0.00    -0.143 OA 
HETATM   15  C   UNL     1     -10.188  16.507  68.860  1.00  0.00    -0.268 C  
HETATM   16  H   UNL     1      -7.922  16.968  67.590  1.00  0.00     0.000 HD 
HETATM   17  C   UNL     1     -11.559  15.871  68.966  1.00  0.00    -0.389 C  
HETATM   18  O   UNL     1     -11.950  15.900  70.325  1.00  0.00    -0.353 OA 
HETATM   19  C   UNL     1     -11.438  14.450  68.338  1.00  0.00    -0.329 C  
HETATM   20  H   UNL     1     -12.810  15.501  70.391  1.00  0.00     0.000 HD 
BRANCH  19  21
HETATM   21  C   UNL     1     -11.714  13.279  69.301  1.00  0.00    -0.380 C  
BRANCH  21  22
HETATM   22  C   UNL     1     -12.119  11.995  68.620  1.00  0.00    -0.145 C  
HETATM   23  C   UNL     1     -11.518  10.798  68.664  1.00  0.00    -0.365 C  
BRANCH  23  24
HETATM   24  C   UNL     1     -10.243  10.457  69.375  1.00  0.00    -0.257 C  
BRANCH  24  25
HETATM   25  C   UNL     1     -10.476   9.581  70.608  1.00  0.00    -0.374 C  
BRANCH  25  26
HETATM   26  C   UNL     1     -11.827   9.832  71.283  1.00  0.00    -0.481 C  
HETATM   27  C   UNL     1     -12.090   8.826  72.383  1.00  0.00    -0.309 C  
HETATM   28  O   UNL     1     -11.345   7.923  72.711  1.00  0.00    -0.382 OA 
HETATM   29  O   UNL     1     -13.279   9.044  72.995  1.00  0.00    -0.306 OA 
ENDBRANCH  25  26
ENDBRANCH  24  25
ENDBRANCH  23  24
ENDBRANCH  21  22
ENDBRANCH  19  21
ENDBRANCH  11  12
ENDBRANCH  10  11
ENDBRANCH   8  10
ENDBRANCH   7   8
ENDBRANCH   6   7
ENDBRANCH   5   6
ENDBRANCH   4   5
ENDBRANCH   3   4
ENDBRANCH   2   3
TORSDOF 14
ENDMDL
MODEL       93
REMARK 921   NORMALIZED FREE ENERGY PREDICTED BY IDOCK:   -4.64 KCAL/MOL
REMARK 922        TOTAL FREE ENERGY PREDICTED BY IDOCK:  -11.39 KCAL/MOL
REMARK 923 INTER-LIGAND FREE ENERGY PREDICTED BY IDOCK:   -8.66 KCAL/MOL
REMARK 924 INTRA-LIGAND FREE ENERGY PREDICTED BY IDOCK:   -2.73 KCAL/MOL
REMARK 927      BINDING AFFINITY PREDICTED BY RF-SCORE:    0.00 PKD
ROOT
HETATM    1  C   UNL     1      -8.386  14.824  67.077  1.00  0.00    -0.228 C  
HETATM    2  C   UNL     1      -7.561  14.174  68.174  1.00  0.00    -0.136 C  
ENDROOT
BRANCH   2   3
HETATM    3  C   UNL     1      -7.985  12.726  68.428  1.00  0.00    -0.137 C  
BRANCH   3   4
HETATM    4  C   UNL     1      -6.777  11.796  68.318  1.00  0.00    -0.065 C  
BRANCH   4   5
HETATM    5  C   UNL     1      -6.382  11.499  66.870  1.00  0.00    -0.146 C  
BRANCH   5   6
HETATM    6  C   UNL     1      -7.523  10.757  66.163  1.00  0.00    -0.129 C  
BRANCH   6   7
HETATM    7  C   UNL     1      -8.102   9.637  67.015  1.00  0.00    -0.113 C  
BRANCH   7   8
HETATM    8  C   UNL     1      -9.438   9.119  66.475  1.00  0.00    -0.208 C  
HETATM    9  O   UNL     1      -9.710   9.102  65.278  1.00  0.00    -0.157 OA 
BRANCH   8  10
HETATM   10  C   UNL     1     -10.387   8.600  67.536  1.00  0.00    -0.336 C  
BRANCH  10  11
HETATM   11  C   UNL     1      -9.964   8.753  69.005  1.00  0.00    -0.197 C  
BRANCH  11  12
HETATM   12  C   UNL     1     -11.109   8.316  69.957  1.00  0.00    -0.147 C  
HETATM   13  C   UNL     1     -10.791   6.978  70.644  1.00  0.00    -0.246 C  
HETATM   14  O   UNL     1     -11.040   5.860  69.808  1.00  0.00    -0.377 OA 
HETATM   15  C   UNL     1     -11.728   6.942  71.823  1.00  0.00    -0.338 C  
HETATM   16  H   UNL     1     -10.844   5.033  70.233  1.00  0.00     0.000 HD 
HETATM   17  C   UNL     1     -11.698   8.359  72.360  1.00  0.00    -0.382 C  
HETATM   18  O   UNL     1     -12.924   8.599  73.025  1.00  0.00    -0.706 OA 
HETATM   19  C   UNL     1     -11.408   9.288  71.143  1.00  0.00    -0.412 C  
HETATM   20  H   UNL     1     -12.906   9.487  73.362  1.00  0.00     0.000 HD 
BRANCH  19  21
HETATM   21  C   UNL     1     -12.520  10.303  70.809  1.00  0.00    -0.439 C  
BRANCH  21  22
HETATM   22  C   UNL     1     -12.029  11.710  70.578  1.00  0.00    -0.413 C  
HETATM   23  C   UNL     1     -11.786  12.332  69.415  1.00  0.00    -0.370 C  
BRANCH  23  24
HETATM   24  C   UNL     1     -11.899  11.746  68.041  1.00  0.00    -0.304 C  
BRANCH  24  25
HETATM   25  C   UNL     1     -11.266  12.636  66.969  1.00  0.00    -0.348 C  
BRANCH  25  26
HETATM   26  C   UNL     1     -11.511  12.137  65.544  1.00  0.00    -0.394 C  
HETATM   27  C   UNL     1     -12.556  12.972  64.837  1.00  0.00    -0.428 C  
HETATM   28  O   UNL     1     -13.145  13.924  65.314  1.00  0.00    -0.777 OA 
HETATM   29  O   UNL     1     -12.775  12.547  63.570  1.00  0.00    -0.722 OA 
ENDBRANCH  25  26
ENDBRANCH  24  25
ENDBRANCH  23  24
ENDBRANCH  21  22
ENDBRANCH  19  21
ENDBRANCH  11  12
ENDBRANCH  10  11
ENDBRANCH   8  10
ENDBRANCH   7   8
ENDBRANCH   6   7
ENDBRANCH   5   6
ENDBRANCH   4   5
ENDBRANCH   3   4
ENDBRANCH   2   3
TORSDOF 14
ENDMDL
MODEL       94
REMARK 921   NORMALIZED FREE ENERGY PREDICTED BY IDOCK:   -4.63 KCAL/MOL
REMARK 922        TOTAL FREE ENERGY PREDICTED BY IDOCK:  -11.38 KCAL/MOL
REMARK 923 INTER-LIGAND FREE ENERGY PREDICTED BY IDOCK:   -9.14 KCAL/MOL
REMARK 924 INTRA-LIGAND FREE ENERGY PREDICTED BY IDOCK:   -2.24 KCAL/MOL
REMARK 927      BINDING AFFINITY PREDICTED BY RF-SCORE:    0.00 PKD
ROOT
HETATM    1  C   UNL     1      -5.928  13.890  69.097  1.00  0.00    -0.092 C  
HETATM    2  C   UNL     1      -7.165  14.469  68.433  1.00  0.00    -0.116 C  
ENDROOT
BRANCH   2   3
HETATM    3  C   UNL     1      -6.827  15.649  67.521  1.00  0.00    -0.221 C  
BRANCH   3   4
HETATM    4  C   UNL     1      -8.050  16.549  67.346  1.00  0.00    -0.172 C  
BRANCH   4   5
HETATM    5  C   UNL     1      -9.254  16.085  68.168  1.00  0.00    -0.195 C  
BRANCH   5   6
HETATM    6  C   UNL     1     -10.551  16.402  67.414  1.00  0.00    -0.306 C  
BRANCH   6   7
HETATM    7  C   UNL     1     -10.291  17.067  66.070  1.00  0.00    -0.324 C  
BRANCH   7   8
HETATM    8  C   UNL     1     -10.931  16.307  64.906  1.00  0.00    -0.307 C  
HETATM    9  O   UNL     1     -11.652  16.848  64.072  1.00  0.00    -1.123 OA 
BRANCH   8  10
HETATM   10  C   UNL     1     -10.579  14.834  64.846  1.00  0.00    -0.431 C  
BRANCH  10  11
HETATM   11  C   UNL     1     -11.724  13.839  64.607  1.00  0.00    -0.417 C  
BRANCH  11  12
HETATM   12  C   UNL     1     -11.410  12.468  65.265  1.00  0.00    -0.363 C  
HETATM   13  C   UNL     1     -10.433  11.644  64.411  1.00  0.00    -0.322 C  
HETATM   14  O   UNL     1     -11.069  10.993  63.324  1.00  0.00    -0.734 OA 
HETATM   15  C   UNL     1      -9.893  10.613  65.368  1.00  0.00    -0.325 C  
HETATM   16  H   UNL     1     -10.466  10.483  62.796  1.00  0.00     0.000 HD 
HETATM   17  C   UNL     1      -9.672  11.384  66.653  1.00  0.00    -0.200 C  
HETATM   18  O   UNL     1      -9.761  10.471  67.730  1.00  0.00    -0.157 OA 
HETATM   19  C   UNL     1     -10.724  12.534  66.667  1.00  0.00    -0.261 C  
HETATM   20  H   UNL     1      -9.623  10.954  68.537  1.00  0.00     0.000 HD 
BRANCH  19  21
HETATM   21  C   UNL     1     -11.740  12.483  67.825  1.00  0.00    -0.419 C  
BRANCH  21  22
HETATM   22  C   UNL     1     -11.420  13.404  68.975  1.00  0.00    -0.348 C  
HETATM   23  C   UNL     1     -11.789  13.300  70.260  1.00  0.00    -0.307 C  
BRANCH  23  24
HETATM   24  C   UNL     1     -12.672  12.248  70.859  1.00  0.00    -0.277 C  
BRANCH  24  25
HETATM   25  C   UNL     1     -11.922  10.943  71.139  1.00  0.00    -0.317 C  
BRANCH  25  26
HETATM   26  C   UNL     1     -12.827   9.708  71.119  1.00  0.00    -0.400 C  
HETATM   27  C   UNL     1     -12.167   8.528  71.798  1.00  0.00    -0.334 C  
HETATM   28  O   UNL     1     -11.060   8.528  72.303  1.00  0.00    -0.342 OA 
HETATM   29  O   UNL     1     -12.962   7.431  71.796  1.00  0.00    -0.338 OA 
ENDBRANCH  25  26
ENDBRANCH  24  25
ENDBRANCH  23  24
ENDBRANCH  21  22
ENDBRANCH  19  21
ENDBRANCH  11  12
ENDBRANCH  10  11
ENDBRANCH   8  10
ENDBRANCH   7   8
ENDBRANCH   6   7
ENDBRANCH   5   6
ENDBRANCH   4   5
ENDBRANCH   3   4
ENDBRANCH   2   3
TORSDOF 14
ENDMDL
MODEL       95
REMARK 921   NORMALIZED FREE ENERGY PREDICTED BY IDOCK:   -4.63 KCAL/MOL
REMARK 922        TOTAL FREE ENERGY PREDICTED BY IDOCK:  -11.38 KCAL/MOL
REMARK 923 INTER-LIGAND FREE ENERGY PREDICTED BY IDOCK:   -8.66 KCAL/MOL
REMARK 924 INTRA-LIGAND FREE ENERGY PREDICTED BY IDOCK:   -2.73 KCAL/MOL
REMARK 927      BINDING AFFINITY PREDICTED BY RF-SCORE:    0.00 PKD
ROOT
HETATM    1  C   UNL     1     -13.880  15.287  72.027  1.00  0.00    -0.626 C  
HETATM    2  C   UNL     1     -13.569  13.803  72.088  1.00  0.00    -0.613 C  
ENDROOT
BRANCH   2   3
HETATM    3  C   UNL     1     -12.531  13.392  71.041  1.00  0.00    -0.437 C  
BRANCH   3   4
HETATM    4  C   UNL     1     -11.962  14.631  70.349  1.00  0.00    -0.375 C  
BRANCH   4   5
HETATM    5  C   UNL     1     -12.108  14.584  68.827  1.00  0.00    -0.256 C  
BRANCH   5   6
HETATM    6  C   UNL     1     -12.258  13.129  68.364  1.00  0.00    -0.065 C  
BRANCH   6   7
HETATM    7  C   UNL     1     -11.797  12.928  66.927  1.00  0.00    -0.444 C  
BRANCH   7   8
HETATM    8  C   UNL     1     -12.358  13.989  65.977  1.00  0.00    -0.473 C  
HETATM    9  O   UNL     1     -13.507  13.956  65.545  1.00  0.00    -0.657 OA 
BRANCH   8  10
HETATM   10  C   UNL     1     -11.390  15.104  65.636  1.00  0.00    -0.255 C  
BRANCH  10  11
HETATM   11  C   UNL     1      -9.946  14.711  65.292  1.00  0.00    -0.329 C  
BRANCH  11  12
HETATM   12  C   UNL     1      -8.954  15.285  66.338  1.00  0.00    -0.339 C  
HETATM   13  C   UNL     1      -9.375  16.688  66.804  1.00  0.00    -0.244 C  
HETATM   14  O   UNL     1      -9.014  17.704  65.882  1.00  0.00    -0.519 OA 
HETATM   15  C   UNL     1      -8.620  16.887  68.092  1.00  0.00    -0.221 C  
HETATM   16  H   UNL     1      -9.274  18.571  66.170  1.00  0.00     0.000 HD 
HETATM   17  C   UNL     1      -8.719  15.545  68.788  1.00  0.00    -0.192 C  
HETATM   18  O   UNL     1      -7.602  15.415  69.647  1.00  0.00    -0.215 OA 
HETATM   19  C   UNL     1      -8.825  14.470  67.666  1.00  0.00    -0.189 C  
HETATM   20  H   UNL     1      -7.664  14.574  70.083  1.00  0.00     0.000 HD 
BRANCH  19  21
HETATM   21  C   UNL     1      -7.671  13.449  67.621  1.00  0.00    -0.179 C  
BRANCH  21  22
HETATM   22  C   UNL     1      -8.025  12.138  66.965  1.00  0.00    -0.138 C  
HETATM   23  C   UNL     1      -8.621  11.065  67.505  1.00  0.00    -0.128 C  
BRANCH  23  24
HETATM   24  C   UNL     1      -9.038  10.892  68.934  1.00  0.00    -0.151 C  
BRANCH  24  25
HETATM   25  C   UNL     1     -10.001   9.717  69.126  1.00  0.00    -0.195 C  
BRANCH  25  26
HETATM   26  C   UNL     1     -11.315  10.116  69.801  1.00  0.00    -0.312 C  
HETATM   27  C   UNL     1     -11.348   9.678  71.249  1.00  0.00    -0.388 C  
HETATM   28  O   UNL     1     -10.461   9.082  71.830  1.00  0.00    -0.332 OA 
HETATM   29  O   UNL     1     -12.503  10.034  71.861  1.00  0.00    -0.385 OA 
ENDBRANCH  25  26
ENDBRANCH  24  25
ENDBRANCH  23  24
ENDBRANCH  21  22
ENDBRANCH  19  21
ENDBRANCH  11  12
ENDBRANCH  10  11
ENDBRANCH   8  10
ENDBRANCH   7   8
ENDBRANCH   6   7
ENDBRANCH   5   6
ENDBRANCH   4   5
ENDBRANCH   3   4
ENDBRANCH   2   3
TORSDOF 14
ENDMDL
MODEL       96
REMARK 921   NORMALIZED FREE ENERGY PREDICTED BY IDOCK:   -4.63 KCAL/MOL
REMARK 922        TOTAL FREE ENERGY PREDICTED BY IDOCK:  -11.38 KCAL/MOL
REMARK 923 INTER-LIGAND FREE ENERGY PREDICTED BY IDOCK:   -8.76 KCAL/MOL
REMARK 924 INTRA-LIGAND FREE ENERGY PREDICTED BY IDOCK:   -2.61 KCAL/MOL
REMARK 927      BINDING AFFINITY PREDICTED BY RF-SCORE:    0.00 PKD
ROOT
HETATM    1  C   UNL     1     -12.865  13.938  65.413  1.00  0.00    -0.466 C  
HETATM    2  C   UNL     1     -12.590  12.501  65.008  1.00  0.00    -0.424 C  
ENDROOT
BRANCH   2   3
HETATM    3  C   UNL     1     -12.262  12.380  63.518  1.00  0.00    -0.661 C  
BRANCH   3   4
HETATM    4  C   UNL     1     -10.985  11.563  63.324  1.00  0.00    -0.308 C  
BRANCH   4   5
HETATM    5  C   UNL     1     -10.012  11.689  64.498  1.00  0.00    -0.290 C  
BRANCH   5   6
HETATM    6  C   UNL     1      -9.495  10.301  64.894  1.00  0.00    -0.337 C  
BRANCH   6   7
HETATM    7  C   UNL     1      -9.780   9.971  66.352  1.00  0.00    -0.266 C  
BRANCH   7   8
HETATM    8  C   UNL     1      -8.570  10.214  67.257  1.00  0.00    -0.125 C  
HETATM    9  O   UNL     1      -7.481  10.586  66.827  1.00  0.00    -0.105 OA 
BRANCH   8  10
HETATM   10  C   UNL     1      -8.831   9.989  68.732  1.00  0.00    -0.137 C  
BRANCH  10  11
HETATM   11  C   UNL     1      -9.490   8.663  69.143  1.00  0.00    -0.157 C  
BRANCH  11  12
HETATM   12  C   UNL     1     -10.913   8.908  69.711  1.00  0.00    -0.164 C  
HETATM   13  C   UNL     1     -11.181   8.042  70.953  1.00  0.00    -0.266 C  
HETATM   14  O   UNL     1     -11.526   6.706  70.625  1.00  0.00    -0.317 OA 
HETATM   15  C   UNL     1     -12.352   8.714  71.620  1.00  0.00    -0.384 C  
HETATM   16  H   UNL     1     -11.692   6.170  71.392  1.00  0.00     0.000 HD 
HETATM   17  C   UNL     1     -12.048  10.193  71.496  1.00  0.00    -0.351 C  
HETATM   18  O   UNL     1     -13.277  10.894  71.515  1.00  0.00    -0.386 OA 
HETATM   19  C   UNL     1     -11.205  10.364  70.197  1.00  0.00    -0.393 C  
HETATM   20  H   UNL     1     -13.087  11.822  71.437  1.00  0.00     0.000 HD 
BRANCH  19  21
HETATM   21  C   UNL     1     -11.852  11.233  69.101  1.00  0.00    -0.423 C  
BRANCH  21  22
HETATM   22  C   UNL     1     -11.767  12.718  69.352  1.00  0.00    -0.380 C  
HETATM   23  C   UNL     1     -10.997  13.629  68.739  1.00  0.00    -0.292 C  
BRANCH  23  24
HETATM   24  C   UNL     1      -9.979  13.372  67.670  1.00  0.00    -0.229 C  
BRANCH  24  25
HETATM   25  C   UNL     1      -9.157  14.618  67.332  1.00  0.00    -0.203 C  
BRANCH  25  26
HETATM   26  C   UNL     1      -9.584  15.289  66.024  1.00  0.00    -0.372 C  
HETATM   27  C   UNL     1     -10.348  16.569  66.283  1.00  0.00    -0.320 C  
HETATM   28  O   UNL     1     -10.607  17.031  67.378  1.00  0.00    -0.328 OA 
HETATM   29  O   UNL     1     -10.722  17.179  65.133  1.00  0.00    -0.680 OA 
ENDBRANCH  25  26
ENDBRANCH  24  25
ENDBRANCH  23  24
ENDBRANCH  21  22
ENDBRANCH  19  21
ENDBRANCH  11  12
ENDBRANCH  10  11
ENDBRANCH   8  10
ENDBRANCH   7   8
ENDBRANCH   6   7
ENDBRANCH   5   6
ENDBRANCH   4   5
ENDBRANCH   3   4
ENDBRANCH   2   3
TORSDOF 14
ENDMDL
MODEL       97
REMARK 921   NORMALIZED FREE ENERGY PREDICTED BY IDOCK:   -4.63 KCAL/MOL
REMARK 922        TOTAL FREE ENERGY PREDICTED BY IDOCK:  -11.37 KCAL/MOL
REMARK 923 INTER-LIGAND FREE ENERGY PREDICTED BY IDOCK:   -9.15 KCAL/MOL
REMARK 924 INTRA-LIGAND FREE ENERGY PREDICTED BY IDOCK:   -2.22 KCAL/MOL
REMARK 927      BINDING AFFINITY PREDICTED BY RF-SCORE:    0.00 PKD
ROOT
HETATM    1  C   UNL     1     -11.117  15.771  64.742  1.00  0.00    -0.413 C  
HETATM    2  C   UNL     1     -12.211  14.829  64.272  1.00  0.00    -0.402 C  
ENDROOT
BRANCH   2   3
HETATM    3  C   UNL     1     -11.707  13.391  64.132  1.00  0.00    -0.466 C  
BRANCH   3   4
HETATM    4  C   UNL     1     -12.394  12.489  65.157  1.00  0.00    -0.496 C  
BRANCH   4   5
HETATM    5  C   UNL     1     -11.764  12.578  66.548  1.00  0.00    -0.454 C  
BRANCH   5   6
HETATM    6  C   UNL     1     -10.238  12.492  66.433  1.00  0.00    -0.260 C  
BRANCH   6   7
HETATM    7  C   UNL     1      -9.642  11.468  67.389  1.00  0.00    -0.177 C  
BRANCH   7   8
HETATM    8  C   UNL     1     -10.220  10.066  67.182  1.00  0.00    -0.228 C  
HETATM    9  O   UNL     1     -10.167   9.475  66.107  1.00  0.00    -0.273 OA 
BRANCH   8  10
HETATM   10  C   UNL     1     -10.838   9.450  68.421  1.00  0.00    -0.156 C  
BRANCH  10  11
HETATM   11  C   UNL     1     -10.036   9.530  69.729  1.00  0.00    -0.238 C  
BRANCH  11  12
HETATM   12  C   UNL     1     -10.969   9.844  70.929  1.00  0.00    -0.392 C  
HETATM   13  C   UNL     1     -12.098  10.806  70.529  1.00  0.00    -0.366 C  
HETATM   14  O   UNL     1     -11.676  12.159  70.485  1.00  0.00    -0.513 OA 
HETATM   15  C   UNL     1     -13.126  10.636  71.618  1.00  0.00    -0.555 C  
HETATM   16  H   UNL     1     -12.374  12.754  70.238  1.00  0.00     0.000 HD 
HETATM   17  C   UNL     1     -13.146   9.143  71.874  1.00  0.00    -0.411 C  
HETATM   18  O   UNL     1     -13.571   8.935  73.208  1.00  0.00    -1.012 OA 
HETATM   19  C   UNL     1     -11.718   8.616  71.541  1.00  0.00    -0.369 C  
HETATM   20  H   UNL     1     -13.584   7.998  73.369  1.00  0.00     0.000 HD 
BRANCH  19  21
HETATM   21  C   UNL     1     -10.954   7.989  72.724  1.00  0.00    -0.449 C  
BRANCH  21  22
HETATM   22  C   UNL     1      -9.517   8.431  72.843  1.00  0.00    -0.275 C  
HETATM   23  C   UNL     1      -8.407   7.680  72.851  1.00  0.00    -0.176 C  
BRANCH  23  24
HETATM   24  C   UNL     1      -8.333   6.184  72.794  1.00  0.00    -0.117 C  
BRANCH  24  25
HETATM   25  C   UNL     1      -7.879   5.671  71.426  1.00  0.00    -0.111 C  
BRANCH  25  26
HETATM   26  C   UNL     1      -8.745   6.178  70.271  1.00  0.00    -0.145 C  
HETATM   27  C   UNL     1      -9.986   5.330  70.097  1.00  0.00    -0.243 C  
HETATM   28  O   UNL     1     -10.285   4.363  70.771  1.00  0.00    -0.172 OA 
HETATM   29  O   UNL     1     -10.767   5.776  69.083  1.00  0.00    -0.281 OA 
ENDBRANCH  25  26
ENDBRANCH  24  25
ENDBRANCH  23  24
ENDBRANCH  21  22
ENDBRANCH  19  21
ENDBRANCH  11  12
ENDBRANCH  10  11
ENDBRANCH   8  10
ENDBRANCH   7   8
ENDBRANCH   6   7
ENDBRANCH   5   6
ENDBRANCH   4   5
ENDBRANCH   3   4
ENDBRANCH   2   3
TORSDOF 14
ENDMDL
MODEL       98
REMARK 921   NORMALIZED FREE ENERGY PREDICTED BY IDOCK:   -4.61 KCAL/MOL
REMARK 922        TOTAL FREE ENERGY PREDICTED BY IDOCK:  -11.35 KCAL/MOL
REMARK 923 INTER-LIGAND FREE ENERGY PREDICTED BY IDOCK:   -9.68 KCAL/MOL
REMARK 924 INTRA-LIGAND FREE ENERGY PREDICTED BY IDOCK:   -1.66 KCAL/MOL
REMARK 927      BINDING AFFINITY PREDICTED BY RF-SCORE:    0.00 PKD
ROOT
HETATM    1  C   UNL     1     -12.754  12.115  63.469  1.00  0.00    -0.553 C  
HETATM    2  C   UNL     1     -11.405  11.925  64.139  1.00  0.00    -0.455 C  
ENDROOT
BRANCH   2   3
HETATM    3  C   UNL     1     -10.764  13.261  64.524  1.00  0.00    -0.428 C  
BRANCH   3   4
HETATM    4  C   UNL     1     -11.807  14.377  64.486  1.00  0.00    -0.463 C  
BRANCH   4   5
HETATM    5  C   UNL     1     -11.216  15.757  64.778  1.00  0.00    -0.375 C  
BRANCH   5   6
HETATM    6  C   UNL     1      -9.955  15.610  65.638  1.00  0.00    -0.388 C  
BRANCH   6   7
HETATM    7  C   UNL     1      -9.706  16.830  66.513  1.00  0.00    -0.298 C  
BRANCH   7   8
HETATM    8  C   UNL     1     -10.130  16.606  67.967  1.00  0.00    -0.262 C  
HETATM    9  O   UNL     1     -10.253  17.524  68.774  1.00  0.00    -0.344 OA 
BRANCH   8  10
HETATM   10  C   UNL     1     -10.418  15.162  68.324  1.00  0.00    -0.241 C  
BRANCH  10  11
HETATM   11  C   UNL     1     -11.861  14.799  68.706  1.00  0.00    -0.330 C  
BRANCH  11  12
HETATM   12  C   UNL     1     -11.984  14.564  70.235  1.00  0.00    -0.379 C  
HETATM   13  C   UNL     1     -12.559  15.796  70.951  1.00  0.00    -0.386 C  
HETATM   14  O   UNL     1     -11.589  16.806  71.170  1.00  0.00    -0.534 OA 
HETATM   15  C   UNL     1     -13.034  15.259  72.276  1.00  0.00    -0.459 C  
HETATM   16  H   UNL     1     -11.944  17.568  71.612  1.00  0.00     0.000 HD 
HETATM   17  C   UNL     1     -13.675  13.932  71.928  1.00  0.00    -0.435 C  
HETATM   18  O   UNL     1     -13.600  13.098  73.068  1.00  0.00    -0.612 OA 
HETATM   19  C   UNL     1     -12.934  13.399  70.665  1.00  0.00    -0.057 C  
HETATM   20  H   UNL     1     -14.002  12.265  72.850  1.00  0.00     0.000 HD 
BRANCH  19  21
HETATM   21  C   UNL     1     -12.184  12.065  70.854  1.00  0.00    -0.325 C  
BRANCH  21  22
HETATM   22  C   UNL     1     -13.079  10.882  71.127  1.00  0.00    -0.351 C  
HETATM   23  C   UNL     1     -12.740   9.654  71.544  1.00  0.00    -0.480 C  
BRANCH  23  24
HETATM   24  C   UNL     1     -11.354   9.140  71.794  1.00  0.00    -0.451 C  
BRANCH  24  25
HETATM   25  C   UNL     1     -10.917   8.104  70.755  1.00  0.00    -0.261 C  
BRANCH  25  26
HETATM   26  C   UNL     1     -10.623   8.710  69.381  1.00  0.00    -0.207 C  
HETATM   27  C   UNL     1     -10.526   7.640  68.315  1.00  0.00    -0.174 C  
HETATM   28  O   UNL     1     -10.658   6.445  68.495  1.00  0.00    -0.198 OA 
HETATM   29  O   UNL     1     -10.277   8.165  67.091  1.00  0.00    -0.237 OA 
ENDBRANCH  25  26
ENDBRANCH  24  25
ENDBRANCH  23  24
ENDBRANCH  21  22
ENDBRANCH  19  21
ENDBRANCH  11  12
ENDBRANCH  10  11
ENDBRANCH   8  10
ENDBRANCH   7   8
ENDBRANCH   6   7
ENDBRANCH   5   6
ENDBRANCH   4   5
ENDBRANCH   3   4
ENDBRANCH   2   3
TORSDOF 14
ENDMDL
MODEL       99
REMARK 921   NORMALIZED FREE ENERGY PREDICTED BY IDOCK:   -4.61 KCAL/MOL
REMARK 922        TOTAL FREE ENERGY PREDICTED BY IDOCK:  -11.34 KCAL/MOL
REMARK 923 INTER-LIGAND FREE ENERGY PREDICTED BY IDOCK:   -9.18 KCAL/MOL
REMARK 924 INTRA-LIGAND FREE ENERGY PREDICTED BY IDOCK:   -2.16 KCAL/MOL
REMARK 927      BINDING AFFINITY PREDICTED BY RF-SCORE:    0.00 PKD
ROOT
HETATM    1  C   UNL     1     -11.876  16.514  73.346  1.00  0.00    -0.311 C  
HETATM    2  C   UNL     1     -12.844  15.365  73.563  1.00  0.00    -0.683 C  
ENDROOT
BRANCH   2   3
HETATM    3  C   UNL     1     -14.120  15.526  72.733  1.00  0.00    -0.432 C  
BRANCH   3   4
HETATM    4  C   UNL     1     -14.323  14.305  71.837  1.00  0.00    -0.597 C  
BRANCH   4   5
HETATM    5  C   UNL     1     -13.310  13.191  72.106  1.00  0.00    -0.621 C  
BRANCH   5   6
HETATM    6  C   UNL     1     -12.644  12.766  70.792  1.00  0.00    -0.308 C  
BRANCH   6   7
HETATM    7  C   UNL     1     -11.548  13.730  70.359  1.00  0.00    -0.143 C  
BRANCH   7   8
HETATM    8  C   UNL     1     -11.931  14.532  69.113  1.00  0.00    -0.309 C  
HETATM    9  O   UNL     1     -12.217  14.003  68.043  1.00  0.00    -0.321 OA 
BRANCH   8  10
HETATM   10  C   UNL     1     -11.959  16.034  69.314  1.00  0.00    -0.188 C  
BRANCH  10  11
HETATM   11  C   UNL     1     -10.617  16.744  69.548  1.00  0.00    -0.283 C  
BRANCH  11  12
HETATM   12  C   UNL     1      -9.980  17.176  68.200  1.00  0.00    -0.297 C  
HETATM   13  C   UNL     1      -9.670  18.681  68.179  1.00  0.00    -0.336 C  
HETATM   14  O   UNL     1     -10.815  19.473  67.908  1.00  0.00    -0.376 OA 
HETATM   15  C   UNL     1      -8.677  18.834  67.057  1.00  0.00    -0.291 C  
HETATM   16  H   UNL     1     -10.624  20.403  67.895  1.00  0.00     0.000 HD 
HETATM   17  C   UNL     1      -7.758  17.639  67.214  1.00  0.00    -0.204 C  
HETATM   18  O   UNL     1      -7.210  17.341  65.944  1.00  0.00    -0.302 OA 
HETATM   19  C   UNL     1      -8.612  16.504  67.854  1.00  0.00    -0.183 C  
HETATM   20  H   UNL     1      -6.634  16.592  66.042  1.00  0.00     0.000 HD 
BRANCH  19  21
HETATM   21  C   UNL     1      -8.777  15.238  66.991  1.00  0.00    -0.260 C  
BRANCH  21  22
HETATM   22  C   UNL     1      -8.574  13.944  67.738  1.00  0.00    -0.182 C  
HETATM   23  C   UNL     1      -8.753  12.688  67.304  1.00  0.00    -0.198 C  
BRANCH  23  24
HETATM   24  C   UNL     1      -9.260  12.265  65.959  1.00  0.00    -0.086 C  
BRANCH  24  25
HETATM   25  C   UNL     1     -10.711  12.691  65.718  1.00  0.00    -0.295 C  
BRANCH  25  26
HETATM   26  C   UNL     1     -11.451  11.787  64.729  1.00  0.00    -0.281 C  
HETATM   27  C   UNL     1     -12.398  12.582  63.857  1.00  0.00    -0.485 C  
HETATM   28  O   UNL     1     -12.574  13.784  63.912  1.00  0.00    -0.701 OA 
HETATM   29  O   UNL     1     -13.052  11.795  62.969  1.00  0.00    -0.508 OA 
ENDBRANCH  25  26
ENDBRANCH  24  25
ENDBRANCH  23  24
ENDBRANCH  21  22
ENDBRANCH  19  21
ENDBRANCH  11  12
ENDBRANCH  10  11
ENDBRANCH   8  10
ENDBRANCH   7   8
ENDBRANCH   6   7
ENDBRANCH   5   6
ENDBRANCH   4   5
ENDBRANCH   3   4
ENDBRANCH   2   3
TORSDOF 14
ENDMDL
MODEL      100
REMARK 921   NORMALIZED FREE ENERGY PREDICTED BY IDOCK:   -4.61 KCAL/MOL
REMARK 922        TOTAL FREE ENERGY PREDICTED BY IDOCK:  -11.34 KCAL/MOL
REMARK 923 INTER-LIGAND FREE ENERGY PREDICTED BY IDOCK:   -8.77 KCAL/MOL
REMARK 924 INTRA-LIGAND FREE ENERGY PREDICTED BY IDOCK:   -2.57 KCAL/MOL
REMARK 927      BINDING AFFINITY PREDICTED BY RF-SCORE:    0.00 PKD
ROOT
HETATM    1  C   UNL     1     -11.661  13.164  68.491  1.00  0.00    -0.387 C  
HETATM    2  C   UNL     1     -11.599  14.447  67.683  1.00  0.00    -0.396 C  
ENDROOT
BRANCH   2   3
HETATM    3  C   UNL     1     -10.546  14.375  66.574  1.00  0.00    -0.296 C  
BRANCH   3   4
HETATM    4  C   UNL     1     -11.200  14.594  65.211  1.00  0.00    -0.358 C  
BRANCH   4   5
HETATM    5  C   UNL     1     -12.618  14.025  65.131  1.00  0.00    -0.453 C  
BRANCH   5   6
HETATM    6  C   UNL     1     -12.569  12.573  64.642  1.00  0.00    -0.507 C  
BRANCH   6   7
HETATM    7  C   UNL     1     -11.662  12.399  63.432  1.00  0.00    -0.554 C  
BRANCH   7   8
HETATM    8  C   UNL     1     -10.587  11.333  63.653  1.00  0.00    -0.388 C  
HETATM    9  O   UNL     1      -9.886  10.896  62.744  1.00  0.00    -0.289 OA 
BRANCH   8  10
HETATM   10  C   UNL     1     -10.436  10.879  65.091  1.00  0.00    -0.316 C  
BRANCH  10  11
HETATM   11  C   UNL     1      -9.511   9.683  65.364  1.00  0.00    -0.343 C  
BRANCH  11  12
HETATM   12  C   UNL     1      -8.864   9.797  66.770  1.00  0.00    -0.151 C  
HETATM   13  C   UNL     1      -8.549  11.258  67.130  1.00  0.00    -0.147 C  
HETATM   14  O   UNL     1      -7.354  11.726  66.526  1.00  0.00    -0.349 OA 
HETATM   15  C   UNL     1      -8.381  11.237  68.627  1.00  0.00    -0.146 C  
HETATM   16  H   UNL     1      -7.159  12.629  66.748  1.00  0.00     0.000 HD 
HETATM   17  C   UNL     1      -9.485  10.319  69.109  1.00  0.00    -0.215 C  
HETATM   18  O   UNL     1      -9.077   9.754  70.340  1.00  0.00    -0.314 OA 
HETATM   19  C   UNL     1      -9.744   9.297  67.961  1.00  0.00    -0.172 C  
HETATM   20  H   UNL     1      -9.770   9.178  70.642  1.00  0.00     0.000 HD 
BRANCH  19  21
HETATM   21  C   UNL     1      -9.471   7.822  68.318  1.00  0.00    -0.150 C  
BRANCH  21  22
HETATM   22  C   UNL     1     -10.686   6.932  68.258  1.00  0.00    -0.265 C  
HETATM   23  C   UNL     1     -11.235   6.195  69.234  1.00  0.00    -0.438 C  
BRANCH  23  24
HETATM   24  C   UNL     1     -10.727   6.038  70.636  1.00  0.00    -0.341 C  
BRANCH  24  25
HETATM   25  C   UNL     1     -11.795   6.355  71.685  1.00  0.00    -0.361 C  
BRANCH  25  26
HETATM   26  C   UNL     1     -12.807   7.406  71.222  1.00  0.00    -0.365 C  
HETATM   27  C   UNL     1     -12.363   8.803  71.596  1.00  0.00    -0.337 C  
HETATM   28  O   UNL     1     -11.341   9.088  72.190  1.00  0.00    -0.357 OA 
HETATM   29  O   UNL     1     -13.245   9.744  71.181  1.00  0.00    -0.371 OA 
ENDBRANCH  25  26
ENDBRANCH  24  25
ENDBRANCH  23  24
ENDBRANCH  21  22
ENDBRANCH  19  21
ENDBRANCH  11  12
ENDBRANCH  10  11
ENDBRANCH   8  10
ENDBRANCH   7   8
ENDBRANCH   6   7
ENDBRANCH   5   6
ENDBRANCH   4   5
ENDBRANCH   3   4
ENDBRANCH   2   3
TORSDOF 14
ENDMDL
MODEL      101
REMARK 921   NORMALIZED FREE ENERGY PREDICTED BY IDOCK:   -4.60 KCAL/MOL
REMARK 922        TOTAL FREE ENERGY PREDICTED BY IDOCK:  -11.32 KCAL/MOL
REMARK 923 INTER-LIGAND FREE ENERGY PREDICTED BY IDOCK:   -9.76 KCAL/MOL
REMARK 924 INTRA-LIGAND FREE ENERGY PREDICTED BY IDOCK:   -1.55 KCAL/MOL
REMARK 927      BINDING AFFINITY PREDICTED BY RF-SCORE:    0.00 PKD
ROOT
HETATM    1  C   UNL     1     -11.627  15.216  69.195  1.00  0.00    -0.343 C  
HETATM    2  C   UNL     1     -11.449  15.500  70.675  1.00  0.00    -0.383 C  
ENDROOT
BRANCH   2   3
HETATM    3  C   UNL     1     -12.791  15.694  71.386  1.00  0.00    -0.546 C  
BRANCH   3   4
HETATM    4  C   UNL     1     -12.953  14.656  72.496  1.00  0.00    -0.492 C  
BRANCH   4   5
HETATM    5  C   UNL     1     -14.003  13.592  72.170  1.00  0.00    -0.609 C  
BRANCH   5   6
HETATM    6  C   UNL     1     -13.342  12.210  72.117  1.00  0.00    -0.438 C  
BRANCH   6   7
HETATM    7  C   UNL     1     -12.658  11.945  70.784  1.00  0.00    -0.325 C  
BRANCH   7   8
HETATM    8  C   UNL     1     -12.021  10.555  70.716  1.00  0.00    -0.370 C  
HETATM    9  O   UNL     1     -12.166   9.712  71.599  1.00  0.00    -0.360 OA 
BRANCH   8  10
HETATM   10  C   UNL     1     -11.221  10.288  69.457  1.00  0.00    -0.314 C  
BRANCH  10  11
HETATM   11  C   UNL     1      -9.860   9.595  69.615  1.00  0.00    -0.233 C  
BRANCH  11  12
HETATM   12  C   UNL     1      -9.921   8.134  69.094  1.00  0.00    -0.192 C  
HETATM   13  C   UNL     1     -10.939   7.296  69.884  1.00  0.00    -0.243 C  
HETATM   14  O   UNL     1     -10.431   6.847  71.129  1.00  0.00    -0.211 OA 
HETATM   15  C   UNL     1     -11.206   6.112  68.993  1.00  0.00    -0.375 C  
HETATM   16  H   UNL     1     -11.060   6.329  71.618  1.00  0.00     0.000 HD 
HETATM   17  C   UNL     1     -11.286   6.707  67.602  1.00  0.00    -0.170 C  
HETATM   18  O   UNL     1     -10.928   5.701  66.675  1.00  0.00    -0.509 OA 
HETATM   19  C   UNL     1     -10.367   7.966  67.606  1.00  0.00    -0.307 C  
HETATM   20  H   UNL     1     -10.977   6.074  65.803  1.00  0.00     0.000 HD 
BRANCH  19  21
HETATM   21  C   UNL     1      -9.172   7.912  66.634  1.00  0.00    -0.221 C  
BRANCH  21  22
HETATM   22  C   UNL     1      -8.446   9.224  66.467  1.00  0.00    -0.131 C  
HETATM   23  C   UNL     1      -8.879  10.353  65.888  1.00  0.00    -0.179 C  
BRANCH  23  24
HETATM   24  C   UNL     1     -10.198  10.568  65.210  1.00  0.00    -0.352 C  
BRANCH  24  25
HETATM   25  C   UNL     1     -10.106  11.559  64.047  1.00  0.00    -0.366 C  
BRANCH  25  26
HETATM   26  C   UNL     1     -11.437  12.243  63.727  1.00  0.00    -0.545 C  
HETATM   27  C   UNL     1     -11.410  13.708  64.102  1.00  0.00    -0.304 C  
HETATM   28  O   UNL     1     -10.468  14.297  64.598  1.00  0.00    -0.425 OA 
HETATM   29  O   UNL     1     -12.580  14.328  63.813  1.00  0.00    -0.821 OA 
ENDBRANCH  25  26
ENDBRANCH  24  25
ENDBRANCH  23  24
ENDBRANCH  21  22
ENDBRANCH  19  21
ENDBRANCH  11  12
ENDBRANCH  10  11
ENDBRANCH   8  10
ENDBRANCH   7   8
ENDBRANCH   6   7
ENDBRANCH   5   6
ENDBRANCH   4   5
ENDBRANCH   3   4
ENDBRANCH   2   3
TORSDOF 14
ENDMDL
MODEL      102
REMARK 921   NORMALIZED FREE ENERGY PREDICTED BY IDOCK:   -4.59 KCAL/MOL
REMARK 922        TOTAL FREE ENERGY PREDICTED BY IDOCK:  -11.31 KCAL/MOL
REMARK 923 INTER-LIGAND FREE ENERGY PREDICTED BY IDOCK:   -9.34 KCAL/MOL
REMARK 924 INTRA-LIGAND FREE ENERGY PREDICTED BY IDOCK:   -1.96 KCAL/MOL
REMARK 927      BINDING AFFINITY PREDICTED BY RF-SCORE:    0.00 PKD
ROOT
HETATM    1  C   UNL     1      -9.294  17.343  68.519  1.00  0.00    -0.281 C  
HETATM    2  C   UNL     1     -10.433  17.973  67.737  1.00  0.00    -0.421 C  
ENDROOT
BRANCH   2   3
HETATM    3  C   UNL     1     -10.154  17.988  66.233  1.00  0.00    -0.363 C  
BRANCH   3   4
HETATM    4  C   UNL     1     -10.627  16.682  65.596  1.00  0.00    -0.282 C  
BRANCH   4   5
HETATM    5  C   UNL     1      -9.519  15.632  65.493  1.00  0.00    -0.164 C  
BRANCH   5   6
HETATM    6  C   UNL     1     -10.124  14.273  65.123  1.00  0.00    -0.353 C  
BRANCH   6   7
HETATM    7  C   UNL     1     -11.619  14.209  65.401  1.00  0.00    -0.334 C  
BRANCH   7   8
HETATM    8  C   UNL     1     -11.950  13.381  66.645  1.00  0.00    -0.399 C  
HETATM    9  O   UNL     1     -12.027  12.156  66.629  1.00  0.00    -0.616 OA 
BRANCH   8  10
HETATM   10  C   UNL     1     -12.145  14.194  67.909  1.00  0.00    -0.309 C  
BRANCH  10  11
HETATM   11  C   UNL     1     -11.064  14.089  68.996  1.00  0.00    -0.296 C  
BRANCH  11  12
HETATM   12  C   UNL     1     -11.699  14.129  70.411  1.00  0.00    -0.312 C  
HETATM   13  C   UNL     1     -12.282  15.515  70.728  1.00  0.00    -0.403 C  
HETATM   14  O   UNL     1     -11.292  16.448  71.130  1.00  0.00    -0.442 OA 
HETATM   15  C   UNL     1     -13.227  15.260  71.874  1.00  0.00    -0.506 C  
HETATM   16  H   UNL     1     -11.653  17.305  71.326  1.00  0.00     0.000 HD 
HETATM   17  C   UNL     1     -13.914  13.962  71.503  1.00  0.00    -0.163 C  
HETATM   18  O   UNL     1     -14.329  13.331  72.698  1.00  0.00    -0.679 OA 
HETATM   19  C   UNL     1     -12.898  13.153  70.641  1.00  0.00    -0.100 C  
HETATM   20  H   UNL     1     -14.760  12.516  72.466  1.00  0.00     0.000 HD 
BRANCH  19  21
HETATM   21  C   UNL     1     -12.454  11.804  71.240  1.00  0.00    -0.351 C  
BRANCH  21  22
HETATM   22  C   UNL     1     -11.609  10.962  70.317  1.00  0.00    -0.426 C  
HETATM   23  C   UNL     1     -10.990   9.801  70.574  1.00  0.00    -0.384 C  
BRANCH  23  24
HETATM   24  C   UNL     1     -10.947   9.075  71.885  1.00  0.00    -0.423 C  
BRANCH  24  25
HETATM   25  C   UNL     1     -11.741   7.767  71.858  1.00  0.00    -0.335 C  
BRANCH  25  26
HETATM   26  C   UNL     1     -10.864   6.523  72.021  1.00  0.00    -0.267 C  
HETATM   27  C   UNL     1     -10.558   5.883  70.685  1.00  0.00    -0.268 C  
HETATM   28  O   UNL     1     -10.946   6.281  69.602  1.00  0.00    -0.298 OA 
HETATM   29  O   UNL     1      -9.773   4.787  70.814  1.00  0.00    -0.168 OA 
ENDBRANCH  25  26
ENDBRANCH  24  25
ENDBRANCH  23  24
ENDBRANCH  21  22
ENDBRANCH  19  21
ENDBRANCH  11  12
ENDBRANCH  10  11
ENDBRANCH   8  10
ENDBRANCH   7   8
ENDBRANCH   6   7
ENDBRANCH   5   6
ENDBRANCH   4   5
ENDBRANCH   3   4
ENDBRANCH   2   3
TORSDOF 14
ENDMDL
MODEL      103
REMARK 921   NORMALIZED FREE ENERGY PREDICTED BY IDOCK:   -4.59 KCAL/MOL
REMARK 922        TOTAL FREE ENERGY PREDICTED BY IDOCK:  -11.30 KCAL/MOL
REMARK 923 INTER-LIGAND FREE ENERGY PREDICTED BY IDOCK:   -9.83 KCAL/MOL
REMARK 924 INTRA-LIGAND FREE ENERGY PREDICTED BY IDOCK:   -1.46 KCAL/MOL
REMARK 927      BINDING AFFINITY PREDICTED BY RF-SCORE:    0.00 PKD
ROOT
HETATM    1  C   UNL     1     -11.619   8.233  72.191  1.00  0.00    -0.428 C  
HETATM    2  C   UNL     1     -11.335   6.754  72.001  1.00  0.00    -0.308 C  
ENDROOT
BRANCH   2   3
HETATM    3  C   UNL     1     -11.565   6.308  70.555  1.00  0.00    -0.357 C  
BRANCH   3   4
HETATM    4  C   UNL     1     -10.310   5.630  70.006  1.00  0.00    -0.345 C  
BRANCH   4   5
HETATM    5  C   UNL     1     -10.444   5.226  68.537  1.00  0.00    -0.147 C  
BRANCH   5   6
HETATM    6  C   UNL     1     -11.054   6.382  67.734  1.00  0.00    -0.376 C  
BRANCH   6   7
HETATM    7  C   UNL     1     -10.018   7.423  67.339  1.00  0.00    -0.239 C  
BRANCH   7   8
HETATM    8  C   UNL     1     -10.418   8.839  67.761  1.00  0.00    -0.229 C  
HETATM    9  O   UNL     1     -10.750   9.123  68.908  1.00  0.00    -0.212 OA 
BRANCH   8  10
HETATM   10  C   UNL     1     -10.342   9.872  66.654  1.00  0.00    -0.275 C  
BRANCH  10  11
HETATM   11  C   UNL     1     -10.157  11.340  67.065  1.00  0.00    -0.238 C  
BRANCH  11  12
HETATM   12  C   UNL     1     -10.430  12.287  65.866  1.00  0.00    -0.288 C  
HETATM   13  C   UNL     1     -10.208  11.574  64.522  1.00  0.00    -0.288 C  
HETATM   14  O   UNL     1      -8.838  11.493  64.165  1.00  0.00    -0.377 OA 
HETATM   15  C   UNL     1     -10.937  12.437  63.526  1.00  0.00    -0.506 C  
HETATM   16  H   UNL     1      -8.700  11.053  63.334  1.00  0.00     0.000 HD 
HETATM   17  C   UNL     1     -12.218  12.821  64.239  1.00  0.00    -0.425 C  
HETATM   18  O   UNL     1     -12.665  14.050  63.701  1.00  0.00    -0.789 OA 
HETATM   19  C   UNL     1     -11.888  12.841  65.761  1.00  0.00    -0.484 C  
HETATM   20  H   UNL     1     -13.468  14.291  64.148  1.00  0.00     0.000 HD 
BRANCH  19  21
HETATM   21  C   UNL     1     -12.050  14.210  66.453  1.00  0.00    -0.475 C  
BRANCH  21  22
HETATM   22  C   UNL     1     -10.749  14.881  66.816  1.00  0.00    -0.312 C  
HETATM   23  C   UNL     1     -10.167  14.985  68.019  1.00  0.00    -0.228 C  
BRANCH  23  24
HETATM   24  C   UNL     1     -10.710  14.491  69.326  1.00  0.00    -0.241 C  
BRANCH  24  25
HETATM   25  C   UNL     1     -11.045  15.631  70.290  1.00  0.00    -0.361 C  
BRANCH  25  26
HETATM   26  C   UNL     1     -12.529  15.696  70.658  1.00  0.00    -0.463 C  
HETATM   27  C   UNL     1     -12.725  15.758  72.158  1.00  0.00    -0.447 C  
HETATM   28  O   UNL     1     -11.837  15.756  72.989  1.00  0.00    -0.452 OA 
HETATM   29  O   UNL     1     -14.034  15.826  72.497  1.00  0.00    -0.545 OA 
ENDBRANCH  25  26
ENDBRANCH  24  25
ENDBRANCH  23  24
ENDBRANCH  21  22
ENDBRANCH  19  21
ENDBRANCH  11  12
ENDBRANCH  10  11
ENDBRANCH   8  10
ENDBRANCH   7   8
ENDBRANCH   6   7
ENDBRANCH   5   6
ENDBRANCH   4   5
ENDBRANCH   3   4
ENDBRANCH   2   3
TORSDOF 14
ENDMDL
MODEL      104
REMARK 921   NORMALIZED FREE ENERGY PREDICTED BY IDOCK:   -4.58 KCAL/MOL
REMARK 922        TOTAL FREE ENERGY PREDICTED BY IDOCK:  -11.29 KCAL/MOL
REMARK 923 INTER-LIGAND FREE ENERGY PREDICTED BY IDOCK:   -9.02 KCAL/MOL
REMARK 924 INTRA-LIGAND FREE ENERGY PREDICTED BY IDOCK:   -2.27 KCAL/MOL
REMARK 927      BINDING AFFINITY PREDICTED BY RF-SCORE:    0.00 PKD
ROOT
HETATM    1  C   UNL     1     -12.432  12.973  65.270  1.00  0.00    -0.555 C  
HETATM    2  C   UNL     1     -11.910  12.926  66.695  1.00  0.00    -0.461 C  
ENDROOT
BRANCH   2   3
HETATM    3  C   UNL     1     -11.147  11.631  66.983  1.00  0.00    -0.359 C  
BRANCH   3   4
HETATM    4  C   UNL     1     -10.493  11.110  65.705  1.00  0.00    -0.308 C  
BRANCH   4   5
HETATM    5  C   UNL     1      -9.660   9.847  65.933  1.00  0.00    -0.300 C  
BRANCH   5   6
HETATM    6  C   UNL     1     -10.070   9.186  67.254  1.00  0.00    -0.295 C  
BRANCH   6   7
HETATM    7  C   UNL     1     -10.656   7.797  67.049  1.00  0.00    -0.396 C  
BRANCH   7   8
HETATM    8  C   UNL     1      -9.722   6.687  67.537  1.00  0.00    -0.127 C  
HETATM    9  O   UNL     1      -8.564   6.570  67.143  1.00  0.00    -0.112 OA 
BRANCH   8  10
HETATM   10  C   UNL     1     -10.330   5.760  68.570  1.00  0.00    -0.274 C  
BRANCH  10  11
HETATM   11  C   UNL     1     -11.373   6.353  69.529  1.00  0.00    -0.460 C  
BRANCH  11  12
HETATM   12  C   UNL     1     -10.727   6.714  70.893  1.00  0.00    -0.278 C  
HETATM   13  C   UNL     1      -9.650   5.693  71.295  1.00  0.00    -0.160 C  
HETATM   14  O   UNL     1     -10.198   4.509  71.852  1.00  0.00    -0.195 OA 
HETATM   15  C   UNL     1      -8.839   6.411  72.341  1.00  0.00    -0.134 C  
HETATM   16  H   UNL     1      -9.533   3.878  72.100  1.00  0.00     0.000 HD 
HETATM   17  C   UNL     1      -8.709   7.821  71.802  1.00  0.00    -0.119 C  
HETATM   18  O   UNL     1      -8.527   8.693  72.901  1.00  0.00    -0.403 OA 
HETATM   19  C   UNL     1      -9.982   8.087  70.945  1.00  0.00    -0.207 C  
HETATM   20  H   UNL     1      -8.446   9.578  72.564  1.00  0.00     0.000 HD 
BRANCH  19  21
HETATM   21  C   UNL     1     -10.887   9.231  71.446  1.00  0.00    -0.434 C  
BRANCH  21  22
HETATM   22  C   UNL     1     -11.447  10.105  70.352  1.00  0.00    -0.400 C  
HETATM   23  C   UNL     1     -12.383  11.061  70.441  1.00  0.00    -0.442 C  
BRANCH  23  24
HETATM   24  C   UNL     1     -13.149  11.459  71.666  1.00  0.00    -0.498 C  
BRANCH  24  25
HETATM   25  C   UNL     1     -13.145  12.972  71.894  1.00  0.00    -0.483 C  
BRANCH  25  26
HETATM   26  C   UNL     1     -12.332  13.740  70.850  1.00  0.00    -0.456 C  
HETATM   27  C   UNL     1     -12.458  15.236  71.042  1.00  0.00    -0.384 C  
HETATM   28  O   UNL     1     -13.115  15.788  71.904  1.00  0.00    -0.449 OA 
HETATM   29  O   UNL     1     -11.734  15.928  70.130  1.00  0.00    -0.332 OA 
ENDBRANCH  25  26
ENDBRANCH  24  25
ENDBRANCH  23  24
ENDBRANCH  21  22
ENDBRANCH  19  21
ENDBRANCH  11  12
ENDBRANCH  10  11
ENDBRANCH   8  10
ENDBRANCH   7   8
ENDBRANCH   6   7
ENDBRANCH   5   6
ENDBRANCH   4   5
ENDBRANCH   3   4
ENDBRANCH   2   3
TORSDOF 14
ENDMDL
MODEL      105
REMARK 921   NORMALIZED FREE ENERGY PREDICTED BY IDOCK:   -4.58 KCAL/MOL
REMARK 922        TOTAL FREE ENERGY PREDICTED BY IDOCK:  -11.29 KCAL/MOL
REMARK 923 INTER-LIGAND FREE ENERGY PREDICTED BY IDOCK:   -9.61 KCAL/MOL
REMARK 924 INTRA-LIGAND FREE ENERGY PREDICTED BY IDOCK:   -1.67 KCAL/MOL
REMARK 927      BINDING AFFINITY PREDICTED BY RF-SCORE:    0.00 PKD
ROOT
HETATM    1  C   UNL     1      -6.101  17.530  66.256  1.00  0.00    -0.257 C  
HETATM    2  C   UNL     1      -7.360  16.700  66.433  1.00  0.00    -0.216 C  
ENDROOT
BRANCH   2   3
HETATM    3  C   UNL     1      -8.136  17.098  67.690  1.00  0.00    -0.187 C  
BRANCH   3   4
HETATM    4  C   UNL     1      -9.607  16.709  67.548  1.00  0.00    -0.242 C  
BRANCH   4   5
HETATM    5  C   UNL     1     -10.428  17.746  66.780  1.00  0.00    -0.300 C  
BRANCH   5   6
HETATM    6  C   UNL     1     -10.756  17.216  65.379  1.00  0.00    -0.097 C  
BRANCH   6   7
HETATM    7  C   UNL     1     -10.643  15.700  65.292  1.00  0.00    -0.448 C  
BRANCH   7   8
HETATM    8  C   UNL     1     -11.737  15.079  64.420  1.00  0.00    -0.312 C  
HETATM    9  O   UNL     1     -12.533  15.752  63.770  1.00  0.00    -0.674 OA 
BRANCH   8  10
HETATM   10  C   UNL     1     -11.741  13.564  64.399  1.00  0.00    -0.443 C  
BRANCH  10  11
HETATM   11  C   UNL     1     -12.404  12.839  65.579  1.00  0.00    -0.495 C  
BRANCH  11  12
HETATM   12  C   UNL     1     -11.340  12.129  66.458  1.00  0.00    -0.405 C  
HETATM   13  C   UNL     1     -10.127  11.684  65.625  1.00  0.00    -0.240 C  
HETATM   14  O   UNL     1     -10.363  10.480  64.913  1.00  0.00    -0.328 OA 
HETATM   15  C   UNL     1      -9.046  11.458  66.649  1.00  0.00    -0.187 C  
HETATM   16  H   UNL     1      -9.614  10.205  64.399  1.00  0.00     0.000 HD 
HETATM   17  C   UNL     1      -9.208  12.612  67.617  1.00  0.00    -0.191 C  
HETATM   18  O   UNL     1      -8.705  12.201  68.874  1.00  0.00    -0.368 OA 
HETATM   19  C   UNL     1     -10.717  12.997  67.598  1.00  0.00    -0.239 C  
HETATM   20  H   UNL     1      -8.807  12.925  69.481  1.00  0.00     0.000 HD 
BRANCH  19  21
HETATM   21  C   UNL     1     -11.457  12.829  68.940  1.00  0.00    -0.352 C  
BRANCH  21  22
HETATM   22  C   UNL     1     -11.946  11.428  69.210  1.00  0.00    -0.400 C  
HETATM   23  C   UNL     1     -12.479  10.929  70.334  1.00  0.00    -0.411 C  
BRANCH  23  24
HETATM   24  C   UNL     1     -12.670  11.648  71.635  1.00  0.00    -0.375 C  
BRANCH  24  25
HETATM   25  C   UNL     1     -13.422  12.971  71.469  1.00  0.00    -0.176 C  
BRANCH  25  26
HETATM   26  C   UNL     1     -13.192  13.948  72.625  1.00  0.00    -0.592 C  
HETATM   27  C   UNL     1     -13.799  15.303  72.332  1.00  0.00    -0.540 C  
HETATM   28  O   UNL     1     -14.397  15.608  71.318  1.00  0.00    -0.521 OA 
HETATM   29  O   UNL     1     -13.612  16.174  73.353  1.00  0.00    -0.615 OA 
ENDBRANCH  25  26
ENDBRANCH  24  25
ENDBRANCH  23  24
ENDBRANCH  21  22
ENDBRANCH  19  21
ENDBRANCH  11  12
ENDBRANCH  10  11
ENDBRANCH   8  10
ENDBRANCH   7   8
ENDBRANCH   6   7
ENDBRANCH   5   6
ENDBRANCH   4   5
ENDBRANCH   3   4
ENDBRANCH   2   3
TORSDOF 14
ENDMDL
MODEL      106
REMARK 921   NORMALIZED FREE ENERGY PREDICTED BY IDOCK:   -4.58 KCAL/MOL
REMARK 922        TOTAL FREE ENERGY PREDICTED BY IDOCK:  -11.28 KCAL/MOL
REMARK 923 INTER-LIGAND FREE ENERGY PREDICTED BY IDOCK:   -9.43 KCAL/MOL
REMARK 924 INTRA-LIGAND FREE ENERGY PREDICTED BY IDOCK:   -1.86 KCAL/MOL
REMARK 927      BINDING AFFINITY PREDICTED BY RF-SCORE:    0.00 PKD
ROOT
HETATM    1  C   UNL     1     -10.034   4.675  69.611  1.00  0.00    -0.281 C  
HETATM    2  C   UNL     1      -9.301   4.380  68.315  1.00  0.00    -0.199 C  
ENDROOT
BRANCH   2   3
HETATM    3  C   UNL     1     -10.136   4.753  67.087  1.00  0.00    -0.210 C  
BRANCH   3   4
HETATM    4  C   UNL     1      -9.377   5.755  66.218  1.00  0.00    -0.171 C  
BRANCH   4   5
HETATM    5  C   UNL     1      -9.131   7.090  66.922  1.00  0.00    -0.156 C  
BRANCH   5   6
HETATM    6  C   UNL     1     -10.471   7.740  67.285  1.00  0.00    -0.392 C  
BRANCH   6   7
HETATM    7  C   UNL     1     -10.393   8.550  68.572  1.00  0.00    -0.230 C  
BRANCH   7   8
HETATM    8  C   UNL     1      -9.962   9.998  68.329  1.00  0.00    -0.153 C  
HETATM    9  O   UNL     1      -9.167  10.588  69.056  1.00  0.00    -0.174 OA 
BRANCH   8  10
HETATM   10  C   UNL     1     -10.571  10.639  67.098  1.00  0.00    -0.312 C  
BRANCH  10  11
HETATM   11  C   UNL     1      -9.624  10.998  65.942  1.00  0.00    -0.255 C  
BRANCH  11  12
HETATM   12  C   UNL     1     -10.258  12.079  65.027  1.00  0.00    -0.308 C  
HETATM   13  C   UNL     1     -11.137  11.449  63.935  1.00  0.00    -0.329 C  
HETATM   14  O   UNL     1     -10.382  10.947  62.844  1.00  0.00    -0.725 OA 
HETATM   15  C   UNL     1     -12.005  12.586  63.464  1.00  0.00    -0.629 C  
HETATM   16  H   UNL     1     -10.926  10.557  62.169  1.00  0.00     0.000 HD 
HETATM   17  C   UNL     1     -12.384  13.313  64.738  1.00  0.00    -0.402 C  
HETATM   18  O   UNL     1     -12.652  14.662  64.408  1.00  0.00    -0.662 OA 
HETATM   19  C   UNL     1     -11.209  13.094  65.739  1.00  0.00    -0.309 C  
HETATM   20  H   UNL     1     -12.889  15.118  65.207  1.00  0.00     0.000 HD 
BRANCH  19  21
HETATM   21  C   UNL     1     -10.477  14.374  66.187  1.00  0.00    -0.295 C  
BRANCH  21  22
HETATM   22  C   UNL     1      -9.869  14.294  67.565  1.00  0.00    -0.231 C  
HETATM   23  C   UNL     1     -10.450  13.930  68.717  1.00  0.00    -0.229 C  
BRANCH  23  24
HETATM   24  C   UNL     1     -11.888  13.559  68.922  1.00  0.00    -0.384 C  
BRANCH  24  25
HETATM   25  C   UNL     1     -12.247  13.397  70.400  1.00  0.00    -0.415 C  
BRANCH  25  26
HETATM   26  C   UNL     1     -12.395  14.730  71.137  1.00  0.00    -0.397 C  
HETATM   27  C   UNL     1     -13.117  14.555  72.456  1.00  0.00    -0.431 C  
HETATM   28  O   UNL     1     -13.539  13.504  72.900  1.00  0.00    -0.639 OA 
HETATM   29  O   UNL     1     -13.245  15.727  73.124  1.00  0.00    -0.507 OA 
ENDBRANCH  25  26
ENDBRANCH  24  25
ENDBRANCH  23  24
ENDBRANCH  21  22
ENDBRANCH  19  21
ENDBRANCH  11  12
ENDBRANCH  10  11
ENDBRANCH   8  10
ENDBRANCH   7   8
ENDBRANCH   6   7
ENDBRANCH   5   6
ENDBRANCH   4   5
ENDBRANCH   3   4
ENDBRANCH   2   3
TORSDOF 14
ENDMDL
MODEL      107
REMARK 921   NORMALIZED FREE ENERGY PREDICTED BY IDOCK:   -4.57 KCAL/MOL
REMARK 922        TOTAL FREE ENERGY PREDICTED BY IDOCK:  -11.26 KCAL/MOL
REMARK 923 INTER-LIGAND FREE ENERGY PREDICTED BY IDOCK:   -8.89 KCAL/MOL
REMARK 924 INTRA-LIGAND FREE ENERGY PREDICTED BY IDOCK:   -2.38 KCAL/MOL
REMARK 927      BINDING AFFINITY PREDICTED BY RF-SCORE:    0.00 PKD
ROOT
HETATM    1  C   UNL     1     -13.373  14.872  72.619  1.00  0.00    -0.553 C  
HETATM    2  C   UNL     1     -13.697  13.403  72.415  1.00  0.00    -0.698 C  
ENDROOT
BRANCH   2   3
HETATM    3  C   UNL     1     -12.853  12.780  71.301  1.00  0.00    -0.355 C  
BRANCH   3   4
HETATM    4  C   UNL     1     -12.041  13.861  70.588  1.00  0.00    -0.417 C  
BRANCH   4   5
HETATM    5  C   UNL     1     -11.736  13.513  69.129  1.00  0.00    -0.374 C  
BRANCH   5   6
HETATM    6  C   UNL     1     -12.219  12.090  68.823  1.00  0.00     0.012 C  
BRANCH   6   7
HETATM    7  C   UNL     1     -11.243  11.326  67.939  1.00  0.00    -0.353 C  
BRANCH   7   8
HETATM    8  C   UNL     1      -9.874  11.142  68.599  1.00  0.00    -0.202 C  
HETATM    9  O   UNL     1      -8.912  11.862  68.346  1.00  0.00    -0.183 OA 
BRANCH   8  10
HETATM   10  C   UNL     1      -9.809  10.018  69.613  1.00  0.00    -0.261 C  
BRANCH  10  11
HETATM   11  C   UNL     1      -8.667   9.000  69.473  1.00  0.00    -0.144 C  
BRANCH  11  12
HETATM   12  C   UNL     1      -9.161   7.712  68.762  1.00  0.00    -0.139 C  
HETATM   13  C   UNL     1     -10.139   6.920  69.645  1.00  0.00    -0.184 C  
HETATM   14  O   UNL     1      -9.480   6.142  70.630  1.00  0.00    -0.166 OA 
HETATM   15  C   UNL     1     -10.849   6.010  68.677  1.00  0.00    -0.379 C  
HETATM   16  H   UNL     1     -10.085   5.652  71.176  1.00  0.00     0.000 HD 
HETATM   17  C   UNL     1     -11.100   6.885  67.465  1.00  0.00    -0.213 C  
HETATM   18  O   UNL     1     -11.184   6.044  66.331  1.00  0.00    -0.742 OA 
HETATM   19  C   UNL     1      -9.949   7.935  67.431  1.00  0.00    -0.261 C  
HETATM   20  H   UNL     1     -11.341   6.592  65.570  1.00  0.00     0.000 HD 
BRANCH  19  21
HETATM   21  C   UNL     1      -9.039   7.875  66.188  1.00  0.00    -0.210 C  
BRANCH  21  22
HETATM   22  C   UNL     1      -8.340   9.172  65.866  1.00  0.00    -0.127 C  
HETATM   23  C   UNL     1      -8.806  10.229  65.185  1.00  0.00    -0.205 C  
BRANCH  23  24
HETATM   24  C   UNL     1     -10.146  10.352  64.523  1.00  0.00    -0.365 C  
BRANCH  24  25
HETATM   25  C   UNL     1     -10.357  11.723  63.877  1.00  0.00    -0.428 C  
BRANCH  25  26
HETATM   26  C   UNL     1     -11.788  12.246  64.020  1.00  0.00    -0.530 C  
HETATM   27  C   UNL     1     -11.865  13.381  65.018  1.00  0.00    -0.352 C  
HETATM   28  O   UNL     1     -10.928  13.840  65.644  1.00  0.00    -0.284 OA 
HETATM   29  O   UNL     1     -13.125  13.861  65.145  1.00  0.00    -0.773 OA 
ENDBRANCH  25  26
ENDBRANCH  24  25
ENDBRANCH  23  24
ENDBRANCH  21  22
ENDBRANCH  19  21
ENDBRANCH  11  12
ENDBRANCH  10  11
ENDBRANCH   8  10
ENDBRANCH   7   8
ENDBRANCH   6   7
ENDBRANCH   5   6
ENDBRANCH   4   5
ENDBRANCH   3   4
ENDBRANCH   2   3
TORSDOF 14
ENDMDL
MODEL      108
REMARK 921   NORMALIZED FREE ENERGY PREDICTED BY IDOCK:   -4.57 KCAL/MOL
REMARK 922        TOTAL FREE ENERGY PREDICTED BY IDOCK:  -11.26 KCAL/MOL
REMARK 923 INTER-LIGAND FREE ENERGY PREDICTED BY IDOCK:   -9.26 KCAL/MOL
REMARK 924 INTRA-LIGAND FREE ENERGY PREDICTED BY IDOCK:   -2.00 KCAL/MOL
REMARK 927      BINDING AFFINITY PREDICTED BY RF-SCORE:    0.00 PKD
ROOT
HETATM    1  C   UNL     1     -10.635   6.074  69.398  1.00  0.00    -0.365 C  
HETATM    2  C   UNL     1     -11.612   6.557  70.455  1.00  0.00    -0.455 C  
ENDROOT
BRANCH   2   3
HETATM    3  C   UNL     1     -10.977   6.595  71.847  1.00  0.00    -0.277 C  
BRANCH   3   4
HETATM    4  C   UNL     1     -11.645   7.671  72.702  1.00  0.00    -0.371 C  
BRANCH   4   5
HETATM    5  C   UNL     1     -12.860   8.305  72.022  1.00  0.00    -0.369 C  
BRANCH   5   6
HETATM    6  C   UNL     1     -12.759   9.833  72.098  1.00  0.00    -0.410 C  
BRANCH   6   7
HETATM    7  C   UNL     1     -12.848  10.489  70.728  1.00  0.00    -0.454 C  
BRANCH   7   8
HETATM    8  C   UNL     1     -11.478  10.661  70.069  1.00  0.00    -0.325 C  
HETATM    9  O   UNL     1     -10.447  10.191  70.543  1.00  0.00    -0.261 OA 
BRANCH   8  10
HETATM   10  C   UNL     1     -11.498  11.432  68.764  1.00  0.00    -0.354 C  
BRANCH  10  11
HETATM   11  C   UNL     1     -10.434  12.522  68.568  1.00  0.00    -0.246 C  
BRANCH  11  12
HETATM   12  C   UNL     1     -11.084  13.931  68.548  1.00  0.00    -0.289 C  
HETATM   13  C   UNL     1     -10.972  14.624  69.916  1.00  0.00    -0.160 C  
HETATM   14  O   UNL     1     -11.946  14.171  70.842  1.00  0.00    -0.364 OA 
HETATM   15  C   UNL     1     -11.209  16.079  69.608  1.00  0.00    -0.336 C  
HETATM   16  H   UNL     1     -11.876  14.599  71.687  1.00  0.00     0.000 HD 
HETATM   17  C   UNL     1     -10.449  16.312  68.319  1.00  0.00    -0.284 C  
HETATM   18  O   UNL     1     -11.063  17.389  67.638  1.00  0.00    -0.214 OA 
HETATM   19  C   UNL     1     -10.449  14.954  67.553  1.00  0.00    -0.254 C  
HETATM   20  H   UNL     1     -10.587  17.535  66.829  1.00  0.00     0.000 HD 
BRANCH  19  21
HETATM   21  C   UNL     1     -11.161  14.969  66.186  1.00  0.00    -0.329 C  
BRANCH  21  22
HETATM   22  C   UNL     1     -12.338  14.031  66.087  1.00  0.00    -0.491 C  
HETATM   23  C   UNL     1     -12.650  13.180  65.100  1.00  0.00    -0.525 C  
BRANCH  23  24
HETATM   24  C   UNL     1     -11.914  12.991  63.809  1.00  0.00    -0.585 C  
BRANCH  24  25
HETATM   25  C   UNL     1     -10.631  12.174  63.979  1.00  0.00    -0.429 C  
BRANCH  25  26
HETATM   26  C   UNL     1     -10.663  11.242  65.192  1.00  0.00    -0.312 C  
HETATM   27  C   UNL     1      -9.868   9.979  64.940  1.00  0.00    -0.281 C  
HETATM   28  O   UNL     1      -9.270   9.710  63.916  1.00  0.00    -0.249 OA 
HETATM   29  O   UNL     1      -9.879   9.150  66.012  1.00  0.00    -0.277 OA 
ENDBRANCH  25  26
ENDBRANCH  24  25
ENDBRANCH  23  24
ENDBRANCH  21  22
ENDBRANCH  19  21
ENDBRANCH  11  12
ENDBRANCH  10  11
ENDBRANCH   8  10
ENDBRANCH   7   8
ENDBRANCH   6   7
ENDBRANCH   5   6
ENDBRANCH   4   5
ENDBRANCH   3   4
ENDBRANCH   2   3
TORSDOF 14
ENDMDL
MODEL      109
REMARK 921   NORMALIZED FREE ENERGY PREDICTED BY IDOCK:   -4.57 KCAL/MOL
REMARK 922        TOTAL FREE ENERGY PREDICTED BY IDOCK:  -11.26 KCAL/MOL
REMARK 923 INTER-LIGAND FREE ENERGY PREDICTED BY IDOCK:   -9.37 KCAL/MOL
REMARK 924 INTRA-LIGAND FREE ENERGY PREDICTED BY IDOCK:   -1.89 KCAL/MOL
REMARK 927      BINDING AFFINITY PREDICTED BY RF-SCORE:    0.00 PKD
ROOT
HETATM    1  C   UNL     1     -13.407  12.834  72.087  1.00  0.00    -0.593 C  
HETATM    2  C   UNL     1     -14.226  14.110  72.169  1.00  0.00    -0.638 C  
ENDROOT
BRANCH   2   3
HETATM    3  C   UNL     1     -13.604  15.243  71.350  1.00  0.00    -0.598 C  
BRANCH   3   4
HETATM    4  C   UNL     1     -12.099  15.022  71.203  1.00  0.00    -0.375 C  
BRANCH   4   5
HETATM    5  C   UNL     1     -11.358  16.267  70.711  1.00  0.00    -0.327 C  
BRANCH   5   6
HETATM    6  C   UNL     1     -10.303  15.867  69.672  1.00  0.00    -0.299 C  
BRANCH   6   7
HETATM    7  C   UNL     1     -10.633  14.547  68.990  1.00  0.00    -0.250 C  
BRANCH   7   8
HETATM    8  C   UNL     1     -11.447  14.736  67.708  1.00  0.00    -0.345 C  
HETATM    9  O   UNL     1     -12.626  14.407  67.613  1.00  0.00     0.038 OA 
BRANCH   8  10
HETATM   10  C   UNL     1     -10.688  15.390  66.571  1.00  0.00    -0.308 C  
BRANCH  10  11
HETATM   11  C   UNL     1      -9.698  14.519  65.784  1.00  0.00    -0.306 C  
BRANCH  11  12
HETATM   12  C   UNL     1     -10.289  13.107  65.527  1.00  0.00    -0.299 C  
HETATM   13  C   UNL     1     -10.453  12.828  64.024  1.00  0.00    -0.406 C  
HETATM   14  O   UNL     1     -11.615  13.430  63.479  1.00  0.00    -0.658 OA 
HETATM   15  C   UNL     1     -10.578  11.329  63.943  1.00  0.00    -0.455 C  
HETATM   16  H   UNL     1     -11.717  13.257  62.550  1.00  0.00     0.000 HD 
HETATM   17  C   UNL     1      -9.552  10.820  64.935  1.00  0.00    -0.256 C  
HETATM   18  O   UNL     1      -9.975   9.547  65.386  1.00  0.00    -0.409 OA 
HETATM   19  C   UNL     1      -9.426  11.910  66.041  1.00  0.00    -0.241 C  
HETATM   20  H   UNL     1      -9.332   9.228  66.008  1.00  0.00     0.000 HD 
BRANCH  19  21
HETATM   21  C   UNL     1      -9.828  11.459  67.460  1.00  0.00    -0.194 C  
BRANCH  21  22
HETATM   22  C   UNL     1     -11.316  11.383  67.691  1.00  0.00    -0.359 C  
HETATM   23  C   UNL     1     -11.978  11.221  68.846  1.00  0.00    -0.378 C  
BRANCH  23  24
HETATM   24  C   UNL     1     -11.378  11.021  70.205  1.00  0.00    -0.335 C  
BRANCH  24  25
HETATM   25  C   UNL     1     -11.043   9.555  70.489  1.00  0.00    -0.342 C  
BRANCH  25  26
HETATM   26  C   UNL     1      -9.694   9.367  71.187  1.00  0.00    -0.257 C  
HETATM   27  C   UNL     1      -9.794   8.371  72.322  1.00  0.00    -0.313 C  
HETATM   28  O   UNL     1     -10.801   7.781  72.661  1.00  0.00    -0.292 OA 
HETATM   29  O   UNL     1      -8.603   8.187  72.941  1.00  0.00    -0.169 OA 
ENDBRANCH  25  26
ENDBRANCH  24  25
ENDBRANCH  23  24
ENDBRANCH  21  22
ENDBRANCH  19  21
ENDBRANCH  11  12
ENDBRANCH  10  11
ENDBRANCH   8  10
ENDBRANCH   7   8
ENDBRANCH   6   7
ENDBRANCH   5   6
ENDBRANCH   4   5
ENDBRANCH   3   4
ENDBRANCH   2   3
TORSDOF 14
ENDMDL
MODEL      110
REMARK 921   NORMALIZED FREE ENERGY PREDICTED BY IDOCK:   -4.56 KCAL/MOL
REMARK 922        TOTAL FREE ENERGY PREDICTED BY IDOCK:  -11.24 KCAL/MOL
REMARK 923 INTER-LIGAND FREE ENERGY PREDICTED BY IDOCK:   -9.18 KCAL/MOL
REMARK 924 INTRA-LIGAND FREE ENERGY PREDICTED BY IDOCK:   -2.07 KCAL/MOL
REMARK 927      BINDING AFFINITY PREDICTED BY RF-SCORE:    0.00 PKD
ROOT
HETATM    1  C   UNL     1     -13.215  10.259  71.140  1.00  0.00    -0.429 C  
HETATM    2  C   UNL     1     -11.905   9.586  71.511  1.00  0.00    -0.478 C  
ENDROOT
BRANCH   2   3
HETATM    3  C   UNL     1     -12.128   8.273  72.263  1.00  0.00    -0.439 C  
BRANCH   3   4
HETATM    4  C   UNL     1     -10.824   7.480  72.338  1.00  0.00    -0.323 C  
BRANCH   4   5
HETATM    5  C   UNL     1     -10.929   6.096  71.695  1.00  0.00    -0.320 C  
BRANCH   5   6
HETATM    6  C   UNL     1     -11.533   6.219  70.291  1.00  0.00    -0.428 C  
BRANCH   6   7
HETATM    7  C   UNL     1     -10.527   5.895  69.196  1.00  0.00    -0.338 C  
BRANCH   7   8
HETATM    8  C   UNL     1     -10.702   6.776  67.958  1.00  0.00    -0.241 C  
HETATM    9  O   UNL     1     -11.036   6.329  66.864  1.00  0.00    -0.358 OA 
BRANCH   8  10
HETATM   10  C   UNL     1     -10.462   8.253  68.196  1.00  0.00    -0.226 C  
BRANCH  10  11
HETATM   11  C   UNL     1     -10.466   9.180  66.972  1.00  0.00    -0.311 C  
BRANCH  11  12
HETATM   12  C   UNL     1      -9.932  10.589  67.344  1.00  0.00    -0.214 C  
HETATM   13  C   UNL     1      -8.422  10.708  67.081  1.00  0.00    -0.128 C  
HETATM   14  O   UNL     1      -7.638  10.123  68.108  1.00  0.00    -0.086 OA 
HETATM   15  C   UNL     1      -8.174  12.193  67.043  1.00  0.00    -0.164 C  
HETATM   16  H   UNL     1      -6.705  10.197  67.945  1.00  0.00     0.000 HD 
HETATM   17  C   UNL     1      -9.357  12.745  66.273  1.00  0.00    -0.152 C  
HETATM   18  O   UNL     1      -9.558  14.084  66.684  1.00  0.00    -0.270 OA 
HETATM   19  C   UNL     1     -10.550  11.779  66.542  1.00  0.00    -0.289 C  
HETATM   20  H   UNL     1     -10.300  14.430  66.201  1.00  0.00     0.000 HD 
BRANCH  19  21
HETATM   21  C   UNL     1     -11.759  12.411  67.261  1.00  0.00    -0.419 C  
BRANCH  21  22
HETATM   22  C   UNL     1     -11.731  12.275  68.762  1.00  0.00    -0.390 C  
HETATM   23  C   UNL     1     -11.808  13.238  69.692  1.00  0.00    -0.391 C  
BRANCH  23  24
HETATM   24  C   UNL     1     -11.889  14.715  69.452  1.00  0.00    -0.368 C  
BRANCH  24  25
HETATM   25  C   UNL     1     -12.500  15.469  70.636  1.00  0.00    -0.483 C  
BRANCH  25  26
HETATM   26  C   UNL     1     -12.535  14.646  71.925  1.00  0.00    -0.412 C  
HETATM   27  C   UNL     1     -12.239  15.503  73.137  1.00  0.00    -0.469 C  
HETATM   28  O   UNL     1     -11.998  16.695  73.120  1.00  0.00    -0.500 OA 
HETATM   29  O   UNL     1     -12.278  14.788  74.287  1.00  0.00    -0.552 OA 
ENDBRANCH  25  26
ENDBRANCH  24  25
ENDBRANCH  23  24
ENDBRANCH  21  22
ENDBRANCH  19  21
ENDBRANCH  11  12
ENDBRANCH  10  11
ENDBRANCH   8  10
ENDBRANCH   7   8
ENDBRANCH   6   7
ENDBRANCH   5   6
ENDBRANCH   4   5
ENDBRANCH   3   4
ENDBRANCH   2   3
TORSDOF 14
ENDMDL
MODEL      111
REMARK 921   NORMALIZED FREE ENERGY PREDICTED BY IDOCK:   -4.55 KCAL/MOL
REMARK 922        TOTAL FREE ENERGY PREDICTED BY IDOCK:  -11.23 KCAL/MOL
REMARK 923 INTER-LIGAND FREE ENERGY PREDICTED BY IDOCK:   -8.46 KCAL/MOL
REMARK 924 INTRA-LIGAND FREE ENERGY PREDICTED BY IDOCK:   -2.76 KCAL/MOL
REMARK 927      BINDING AFFINITY PREDICTED BY RF-SCORE:    0.00 PKD
ROOT
HETATM    1  C   UNL     1     -10.798   5.406  66.266  1.00  0.00    -0.161 C  
HETATM    2  C   UNL     1     -10.830   6.611  67.190  1.00  0.00    -0.471 C  
ENDROOT
BRANCH   2   3
HETATM    3  C   UNL     1     -11.175   6.219  68.629  1.00  0.00    -0.328 C  
BRANCH   3   4
HETATM    4  C   UNL     1      -9.942   5.649  69.330  1.00  0.00    -0.251 C  
BRANCH   4   5
HETATM    5  C   UNL     1      -8.692   6.508  69.132  1.00  0.00    -0.129 C  
BRANCH   5   6
HETATM    6  C   UNL     1      -7.927   6.624  70.456  1.00  0.00    -0.111 C  
BRANCH   6   7
HETATM    7  C   UNL     1      -8.833   6.446  71.666  1.00  0.00    -0.136 C  
BRANCH   7   8
HETATM    8  C   UNL     1      -9.095   7.763  72.402  1.00  0.00    -0.155 C  
HETATM    9  O   UNL     1      -8.215   8.594  72.612  1.00  0.00    -0.372 OA 
BRANCH   8  10
HETATM   10  C   UNL     1     -10.535   7.974  72.823  1.00  0.00    -0.415 C  
BRANCH  10  11
HETATM   11  C   UNL     1     -11.632   7.605  71.813  1.00  0.00    -0.307 C  
BRANCH  11  12
HETATM   12  C   UNL     1     -12.389   8.872  71.335  1.00  0.00    -0.368 C  
HETATM   13  C   UNL     1     -13.098   9.579  72.501  1.00  0.00    -0.246 C  
HETATM   14  O   UNL     1     -14.325   8.961  72.852  1.00  0.00    -1.050 OA 
HETATM   15  C   UNL     1     -13.367  10.966  71.978  1.00  0.00    -0.394 C  
HETATM   16  H   UNL     1     -14.764   9.398  73.573  1.00  0.00     0.000 HD 
HETATM   17  C   UNL     1     -12.101  11.328  71.228  1.00  0.00    -0.045 C  
HETATM   18  O   UNL     1     -12.439  12.273  70.231  1.00  0.00    -0.198 OA 
HETATM   19  C   UNL     1     -11.501   9.990  70.700  1.00  0.00    -0.425 C  
HETATM   20  H   UNL     1     -11.646  12.500  69.761  1.00  0.00     0.000 HD 
BRANCH  19  21
HETATM   21  C   UNL     1     -11.408   9.870  69.166  1.00  0.00    -0.088 C  
BRANCH  21  22
HETATM   22  C   UNL     1     -10.001   9.903  68.623  1.00  0.00    -0.177 C  
HETATM   23  C   UNL     1      -9.396  10.873  67.922  1.00  0.00    -0.159 C  
BRANCH  23  24
HETATM   24  C   UNL     1     -10.006  12.161  67.458  1.00  0.00    -0.202 C  
BRANCH  24  25
HETATM   25  C   UNL     1     -10.106  12.246  65.933  1.00  0.00    -0.272 C  
BRANCH  25  26
HETATM   26  C   UNL     1     -11.548  12.222  65.418  1.00  0.00    -0.412 C  
HETATM   27  C   UNL     1     -11.594  12.180  63.907  1.00  0.00    -0.448 C  
HETATM   28  O   UNL     1     -10.629  12.168  63.167  1.00  0.00    -0.380 OA 
HETATM   29  O   UNL     1     -12.865  12.147  63.438  1.00  0.00    -0.765 OA 
ENDBRANCH  25  26
ENDBRANCH  24  25
ENDBRANCH  23  24
ENDBRANCH  21  22
ENDBRANCH  19  21
ENDBRANCH  11  12
ENDBRANCH  10  11
ENDBRANCH   8  10
ENDBRANCH   7   8
ENDBRANCH   6   7
ENDBRANCH   5   6
ENDBRANCH   4   5
ENDBRANCH   3   4
ENDBRANCH   2   3
TORSDOF 14
ENDMDL
MODEL      112
REMARK 921   NORMALIZED FREE ENERGY PREDICTED BY IDOCK:   -4.53 KCAL/MOL
REMARK 922        TOTAL FREE ENERGY PREDICTED BY IDOCK:  -11.19 KCAL/MOL
REMARK 923 INTER-LIGAND FREE ENERGY PREDICTED BY IDOCK:   -9.24 KCAL/MOL
REMARK 924 INTRA-LIGAND FREE ENERGY PREDICTED BY IDOCK:   -1.95 KCAL/MOL
REMARK 927      BINDING AFFINITY PREDICTED BY RF-SCORE:    0.00 PKD
ROOT
HETATM    1  C   UNL     1      -8.575   5.257  72.027  1.00  0.00    -0.130 C  
HETATM    2  C   UNL     1     -10.056   5.546  71.864  1.00  0.00    -0.239 C  
ENDROOT
BRANCH   2   3
HETATM    3  C   UNL     1     -10.445   5.738  70.397  1.00  0.00    -0.342 C  
BRANCH   3   4
HETATM    4  C   UNL     1     -11.783   6.469  70.297  1.00  0.00    -0.430 C  
BRANCH   4   5
HETATM    5  C   UNL     1     -12.235   7.072  71.628  1.00  0.00    -0.395 C  
BRANCH   5   6
HETATM    6  C   UNL     1     -12.515   8.569  71.451  1.00  0.00    -0.327 C  
BRANCH   6   7
HETATM    7  C   UNL     1     -11.353   9.303  70.797  1.00  0.00    -0.349 C  
BRANCH   7   8
HETATM    8  C   UNL     1     -11.712  10.737  70.401  1.00  0.00    -0.351 C  
HETATM    9  O   UNL     1     -12.485  11.434  71.053  1.00  0.00    -0.386 OA 
BRANCH   8  10
HETATM   10  C   UNL     1     -11.013  11.241  69.155  1.00  0.00    -0.292 C  
BRANCH  10  11
HETATM   11  C   UNL     1     -11.513  10.717  67.800  1.00  0.00    -0.283 C  
BRANCH  11  12
HETATM   12  C   UNL     1     -10.550  11.138  66.657  1.00  0.00    -0.314 C  
HETATM   13  C   UNL     1     -10.199   9.949  65.749  1.00  0.00    -0.181 C  
HETATM   14  O   UNL     1      -9.197   9.112  66.304  1.00  0.00    -0.165 OA 
HETATM   15  C   UNL     1      -9.676  10.593  64.491  1.00  0.00    -0.367 C  
HETATM   16  H   UNL     1      -8.979   8.377  65.743  1.00  0.00     0.000 HD 
HETATM   17  C   UNL     1     -10.606  11.766  64.264  1.00  0.00    -0.335 C  
HETATM   18  O   UNL     1      -9.899  12.748  63.531  1.00  0.00    -0.682 OA 
HETATM   19  C   UNL     1     -11.105  12.216  65.670  1.00  0.00    -0.360 C  
HETATM   20  H   UNL     1     -10.483  13.485  63.389  1.00  0.00     0.000 HD 
BRANCH  19  21
HETATM   21  C   UNL     1     -10.713  13.649  66.081  1.00  0.00    -0.286 C  
BRANCH  21  22
HETATM   22  C   UNL     1     -11.796  14.406  66.809  1.00  0.00    -0.431 C  
HETATM   23  C   UNL     1     -11.751  14.972  68.023  1.00  0.00    -0.320 C  
BRANCH  23  24
HETATM   24  C   UNL     1     -10.605  14.941  68.988  1.00  0.00    -0.245 C  
BRANCH  24  25
HETATM   25  C   UNL     1     -11.064  15.002  70.447  1.00  0.00    -0.263 C  
BRANCH  25  26
HETATM   26  C   UNL     1     -12.585  14.938  70.606  1.00  0.00    -0.420 C  
HETATM   27  C   UNL     1     -13.018  15.423  71.973  1.00  0.00    -0.401 C  
HETATM   28  O   UNL     1     -12.277  15.817  72.853  1.00  0.00    -0.392 OA 
HETATM   29  O   UNL     1     -14.364  15.383  72.123  1.00  0.00    -0.550 OA 
ENDBRANCH  25  26
ENDBRANCH  24  25
ENDBRANCH  23  24
ENDBRANCH  21  22
ENDBRANCH  19  21
ENDBRANCH  11  12
ENDBRANCH  10  11
ENDBRANCH   8  10
ENDBRANCH   7   8
ENDBRANCH   6   7
ENDBRANCH   5   6
ENDBRANCH   4   5
ENDBRANCH   3   4
ENDBRANCH   2   3
TORSDOF 14
ENDMDL
MODEL      113
REMARK 921   NORMALIZED FREE ENERGY PREDICTED BY IDOCK:   -4.53 KCAL/MOL
REMARK 922        TOTAL FREE ENERGY PREDICTED BY IDOCK:  -11.19 KCAL/MOL
REMARK 923 INTER-LIGAND FREE ENERGY PREDICTED BY IDOCK:   -8.93 KCAL/MOL
REMARK 924 INTRA-LIGAND FREE ENERGY PREDICTED BY IDOCK:   -2.26 KCAL/MOL
REMARK 927      BINDING AFFINITY PREDICTED BY RF-SCORE:    0.00 PKD
ROOT
HETATM    1  C   UNL     1      -7.585   8.906  66.247  1.00  0.00    -0.095 C  
HETATM    2  C   UNL     1      -8.740   8.752  65.274  1.00  0.00    -0.216 C  
ENDROOT
BRANCH   2   3
HETATM    3  C   UNL     1      -9.779   9.864  65.438  1.00  0.00    -0.375 C  
BRANCH   3   4
HETATM    4  C   UNL     1     -10.019  10.561  64.099  1.00  0.00    -0.385 C  
BRANCH   4   5
HETATM    5  C   UNL     1     -10.170  12.077  64.234  1.00  0.00    -0.347 C  
BRANCH   5   6
HETATM    6  C   UNL     1     -10.958  12.409  65.506  1.00  0.00    -0.328 C  
BRANCH   6   7
HETATM    7  C   UNL     1     -10.224  13.397  66.401  1.00  0.00    -0.293 C  
BRANCH   7   8
HETATM    8  C   UNL     1     -11.177  14.325  67.158  1.00  0.00    -0.322 C  
HETATM    9  O   UNL     1     -12.264  14.675  66.706  1.00  0.00    -0.314 OA 
BRANCH   8  10
HETATM   10  C   UNL     1     -10.686  14.753  68.526  1.00  0.00    -0.247 C  
BRANCH  10  11
HETATM   11  C   UNL     1     -11.658  15.545  69.413  1.00  0.00    -0.366 C  
BRANCH  11  12
HETATM   12  C   UNL     1     -11.886  14.819  70.766  1.00  0.00    -0.370 C  
HETATM   13  C   UNL     1     -12.586  15.733  71.786  1.00  0.00    -0.462 C  
HETATM   14  O   UNL     1     -11.694  16.643  72.408  1.00  0.00    -0.543 OA 
HETATM   15  C   UNL     1     -13.131  14.779  72.816  1.00  0.00    -0.569 C  
HETATM   16  H   UNL     1     -12.126  17.207  73.038  1.00  0.00     0.000 HD 
HETATM   17  C   UNL     1     -13.666  13.620  71.999  1.00  0.00    -0.493 C  
HETATM   18  O   UNL     1     -13.633  12.462  72.811  1.00  0.00    -0.597 OA 
HETATM   19  C   UNL     1     -12.799  13.552  70.707  1.00  0.00    -0.243 C  
HETATM   20  H   UNL     1     -13.969  11.735  72.299  1.00  0.00     0.000 HD 
BRANCH  19  21
HETATM   21  C   UNL     1     -11.992  12.251  70.522  1.00  0.00    -0.296 C  
BRANCH  21  22
HETATM   22  C   UNL     1     -12.284  11.514  69.240  1.00  0.00    -0.245 C  
HETATM   23  C   UNL     1     -11.501  10.657  68.569  1.00  0.00    -0.333 C  
BRANCH  23  24
HETATM   24  C   UNL     1     -10.098  10.261  68.916  1.00  0.00    -0.216 C  
BRANCH  24  25
HETATM   25  C   UNL     1     -10.045   9.080  69.887  1.00  0.00    -0.213 C  
BRANCH  25  26
HETATM   26  C   UNL     1      -9.121   9.319  71.083  1.00  0.00    -0.197 C  
HETATM   27  C   UNL     1      -9.560   8.521  72.291  1.00  0.00    -0.307 C  
HETATM   28  O   UNL     1     -10.521   7.777  72.338  1.00  0.00    -0.223 OA 
HETATM   29  O   UNL     1      -8.743   8.716  73.354  1.00  0.00    -0.333 OA 
ENDBRANCH  25  26
ENDBRANCH  24  25
ENDBRANCH  23  24
ENDBRANCH  21  22
ENDBRANCH  19  21
ENDBRANCH  11  12
ENDBRANCH  10  11
ENDBRANCH   8  10
ENDBRANCH   7   8
ENDBRANCH   6   7
ENDBRANCH   5   6
ENDBRANCH   4   5
ENDBRANCH   3   4
ENDBRANCH   2   3
TORSDOF 14
ENDMDL
MODEL      114
REMARK 921   NORMALIZED FREE ENERGY PREDICTED BY IDOCK:   -4.52 KCAL/MOL
REMARK 922        TOTAL FREE ENERGY PREDICTED BY IDOCK:  -11.18 KCAL/MOL
REMARK 923 INTER-LIGAND FREE ENERGY PREDICTED BY IDOCK:   -8.93 KCAL/MOL
REMARK 924 INTRA-LIGAND FREE ENERGY PREDICTED BY IDOCK:   -2.25 KCAL/MOL
REMARK 927      BINDING AFFINITY PREDICTED BY RF-SCORE:    0.00 PKD
ROOT
HETATM    1  C   UNL     1      -9.748   4.104  69.868  1.00  0.00    -0.280 C  
HETATM    2  C   UNL     1      -9.725   5.583  69.528  1.00  0.00    -0.218 C  
ENDROOT
BRANCH   2   3
HETATM    3  C   UNL     1     -11.136   6.163  69.397  1.00  0.00    -0.479 C  
BRANCH   3   4
HETATM    4  C   UNL     1     -11.377   7.212  70.482  1.00  0.00    -0.333 C  
BRANCH   4   5
HETATM    5  C   UNL     1     -10.211   8.191  70.635  1.00  0.00    -0.211 C  
BRANCH   5   6
HETATM    6  C   UNL     1     -10.669   9.423  71.425  1.00  0.00    -0.407 C  
BRANCH   6   7
HETATM    7  C   UNL     1     -12.113   9.799  71.126  1.00  0.00    -0.460 C  
BRANCH   7   8
HETATM    8  C   UNL     1     -12.271  11.276  70.758  1.00  0.00    -0.380 C  
HETATM    9  O   UNL     1     -12.923  12.066  71.436  1.00  0.00    -0.370 OA 
BRANCH   8  10
HETATM   10  C   UNL     1     -11.531  11.695  69.503  1.00  0.00    -0.371 C  
BRANCH  10  11
HETATM   11  C   UNL     1     -11.798  10.893  68.221  1.00  0.00    -0.157 C  
BRANCH  11  12
HETATM   12  C   UNL     1     -10.727  11.206  67.141  1.00  0.00    -0.305 C  
HETATM   13  C   UNL     1     -10.213   9.924  66.468  1.00  0.00    -0.222 C  
HETATM   14  O   UNL     1      -9.245   9.244  67.252  1.00  0.00    -0.125 OA 
HETATM   15  C   UNL     1      -9.575  10.411  65.194  1.00  0.00    -0.329 C  
HETATM   16  H   UNL     1      -8.927   8.451  66.836  1.00  0.00     0.000 HD 
HETATM   17  C   UNL     1     -10.527  11.476  64.689  1.00  0.00    -0.301 C  
HETATM   18  O   UNL     1      -9.786  12.386  63.900  1.00  0.00    -0.583 OA 
HETATM   19  C   UNL     1     -11.211  12.091  65.947  1.00  0.00    -0.385 C  
HETATM   20  H   UNL     1     -10.383  13.054  63.583  1.00  0.00     0.000 HD 
BRANCH  19  21
HETATM   21  C   UNL     1     -10.941  13.591  66.177  1.00  0.00    -0.289 C  
BRANCH  21  22
HETATM   22  C   UNL     1      -9.676  13.886  66.943  1.00  0.00    -0.268 C  
HETATM   23  C   UNL     1      -9.529  14.574  68.085  1.00  0.00    -0.208 C  
BRANCH  23  24
HETATM   24  C   UNL     1     -10.605  15.272  68.859  1.00  0.00    -0.242 C  
BRANCH  24  25
HETATM   25  C   UNL     1     -11.135  16.514  68.138  1.00  0.00    -0.303 C  
BRANCH  25  26
HETATM   26  C   UNL     1     -10.043  17.533  67.803  1.00  0.00    -0.330 C  
HETATM   27  C   UNL     1      -9.919  17.739  66.309  1.00  0.00    -0.318 C  
HETATM   28  O   UNL     1     -10.584  17.180  65.458  1.00  0.00    -0.563 OA 
HETATM   29  O   UNL     1      -8.962  18.647  66.000  1.00  0.00    -0.489 OA 
ENDBRANCH  25  26
ENDBRANCH  24  25
ENDBRANCH  23  24
ENDBRANCH  21  22
ENDBRANCH  19  21
ENDBRANCH  11  12
ENDBRANCH  10  11
ENDBRANCH   8  10
ENDBRANCH   7   8
ENDBRANCH   6   7
ENDBRANCH   5   6
ENDBRANCH   4   5
ENDBRANCH   3   4
ENDBRANCH   2   3
TORSDOF 14
ENDMDL
MODEL      115
REMARK 921   NORMALIZED FREE ENERGY PREDICTED BY IDOCK:   -4.52 KCAL/MOL
REMARK 922        TOTAL FREE ENERGY PREDICTED BY IDOCK:  -11.17 KCAL/MOL
REMARK 923 INTER-LIGAND FREE ENERGY PREDICTED BY IDOCK:   -8.68 KCAL/MOL
REMARK 924 INTRA-LIGAND FREE ENERGY PREDICTED BY IDOCK:   -2.49 KCAL/MOL
REMARK 927      BINDING AFFINITY PREDICTED BY RF-SCORE:    0.00 PKD
ROOT
HETATM    1  C   UNL     1     -12.139  13.450  64.563  1.00  0.00    -0.457 C  
HETATM    2  C   UNL     1     -12.056  13.905  66.009  1.00  0.00    -0.465 C  
ENDROOT
BRANCH   2   3
HETATM    3  C   UNL     1     -11.884  12.727  66.971  1.00  0.00    -0.428 C  
BRANCH   3   4
HETATM    4  C   UNL     1     -11.570  13.237  68.377  1.00  0.00    -0.372 C  
BRANCH   4   5
HETATM    5  C   UNL     1     -11.945  14.706  68.578  1.00  0.00    -0.298 C  
BRANCH   5   6
HETATM    6  C   UNL     1     -12.406  14.932  70.022  1.00  0.00    -0.358 C  
BRANCH   6   7
HETATM    7  C   UNL     1     -12.072  13.756  70.928  1.00  0.00    -0.366 C  
BRANCH   7   8
HETATM    8  C   UNL     1     -13.269  13.303  71.767  1.00  0.00    -0.405 C  
HETATM    9  O   UNL     1     -14.078  14.090  72.253  1.00  0.00    -0.500 OA 
BRANCH   8  10
HETATM   10  C   UNL     1     -13.395  11.801  71.927  1.00  0.00    -0.401 C  
BRANCH  10  11
HETATM   11  C   UNL     1     -12.967  10.923  70.742  1.00  0.00    -0.308 C  
BRANCH  11  12
HETATM   12  C   UNL     1     -12.052   9.763  71.217  1.00  0.00    -0.470 C  
HETATM   13  C   UNL     1     -12.868   8.621  71.843  1.00  0.00    -0.369 C  
HETATM   14  O   UNL     1     -13.249   8.889  73.183  1.00  0.00    -0.867 OA 
HETATM   15  C   UNL     1     -11.930   7.443  71.814  1.00  0.00    -0.338 C  
HETATM   16  H   UNL     1     -13.753   8.183  73.570  1.00  0.00     0.000 HD 
HETATM   17  C   UNL     1     -11.252   7.546  70.462  1.00  0.00    -0.269 C  
HETATM   18  O   UNL     1      -9.988   6.918  70.559  1.00  0.00    -0.183 OA 
HETATM   19  C   UNL     1     -11.216   9.061  70.099  1.00  0.00    -0.191 C  
HETATM   20  H   UNL     1      -9.563   6.982  69.712  1.00  0.00     0.000 HD 
BRANCH  19  21
HETATM   21  C   UNL     1      -9.808   9.668  69.945  1.00  0.00    -0.271 C  
BRANCH  21  22
HETATM   22  C   UNL     1      -9.333   9.786  68.519  1.00  0.00    -0.142 C  
HETATM   23  C   UNL     1      -8.664  10.793  67.939  1.00  0.00    -0.129 C  
BRANCH  23  24
HETATM   24  C   UNL     1      -8.266  12.091  68.573  1.00  0.00    -0.113 C  
BRANCH  24  25
HETATM   25  C   UNL     1      -7.957  13.178  67.540  1.00  0.00    -0.179 C  
BRANCH  25  26
HETATM   26  C   UNL     1      -7.759  14.563  68.160  1.00  0.00    -0.128 C  
HETATM   27  C   UNL     1      -8.381  15.645  67.305  1.00  0.00    -0.184 C  
HETATM   28  O   UNL     1      -8.969  15.469  66.254  1.00  0.00    -0.297 OA 
HETATM   29  O   UNL     1      -8.222  16.876  67.848  1.00  0.00    -0.190 OA 
ENDBRANCH  25  26
ENDBRANCH  24  25
ENDBRANCH  23  24
ENDBRANCH  21  22
ENDBRANCH  19  21
ENDBRANCH  11  12
ENDBRANCH  10  11
ENDBRANCH   8  10
ENDBRANCH   7   8
ENDBRANCH   6   7
ENDBRANCH   5   6
ENDBRANCH   4   5
ENDBRANCH   3   4
ENDBRANCH   2   3
TORSDOF 14
ENDMDL
MODEL      116
REMARK 921   NORMALIZED FREE ENERGY PREDICTED BY IDOCK:   -4.51 KCAL/MOL
REMARK 922        TOTAL FREE ENERGY PREDICTED BY IDOCK:  -11.15 KCAL/MOL
REMARK 923 INTER-LIGAND FREE ENERGY PREDICTED BY IDOCK:   -8.79 KCAL/MOL
REMARK 924 INTRA-LIGAND FREE ENERGY PREDICTED BY IDOCK:   -2.37 KCAL/MOL
REMARK 927      BINDING AFFINITY PREDICTED BY RF-SCORE:    0.00 PKD
ROOT
HETATM    1  C   UNL     1     -10.477   3.831  72.833  1.00  0.00    -0.246 C  
HETATM    2  C   UNL     1     -10.976   5.238  73.108  1.00  0.00    -0.362 C  
ENDROOT
BRANCH   2   3
HETATM    3  C   UNL     1     -11.402   5.955  71.825  1.00  0.00    -0.289 C  
BRANCH   3   4
HETATM    4  C   UNL     1     -11.841   7.385  72.141  1.00  0.00    -0.323 C  
BRANCH   4   5
HETATM    5  C   UNL     1     -13.225   7.721  71.582  1.00  0.00    -0.381 C  
BRANCH   5   6
HETATM    6  C   UNL     1     -13.494   9.223  71.730  1.00  0.00    -0.483 C  
BRANCH   6   7
HETATM    7  C   UNL     1     -12.230  10.056  71.571  1.00  0.00    -0.496 C  
BRANCH   7   8
HETATM    8  C   UNL     1     -12.428  11.252  70.637  1.00  0.00    -0.348 C  
HETATM    9  O   UNL     1     -12.975  12.292  70.994  1.00  0.00    -0.209 OA 
BRANCH   8  10
HETATM   10  C   UNL     1     -11.868  11.062  69.242  1.00  0.00    -0.411 C  
BRANCH  10  11
HETATM   11  C   UNL     1     -10.371  11.339  69.034  1.00  0.00    -0.189 C  
BRANCH  11  12
HETATM   12  C   UNL     1      -9.594  10.018  68.791  1.00  0.00    -0.168 C  
HETATM   13  C   UNL     1      -9.134   9.382  70.113  1.00  0.00    -0.231 C  
HETATM   14  O   UNL     1      -7.965   9.991  70.636  1.00  0.00    -0.416 OA 
HETATM   15  C   UNL     1      -8.835   7.952  69.745  1.00  0.00    -0.141 C  
HETATM   16  H   UNL     1      -7.680   9.598  71.453  1.00  0.00     0.000 HD 
HETATM   17  C   UNL     1      -9.961   7.570  68.806  1.00  0.00    -0.172 C  
HETATM   18  O   UNL     1      -9.491   6.542  67.956  1.00  0.00    -0.123 OA 
HETATM   19  C   UNL     1     -10.401   8.880  68.086  1.00  0.00    -0.261 C  
HETATM   20  H   UNL     1     -10.196   6.302  67.367  1.00  0.00     0.000 HD 
BRANCH  19  21
HETATM   21  C   UNL     1     -10.214   8.885  66.555  1.00  0.00    -0.319 C  
BRANCH  21  22
HETATM   22  C   UNL     1      -9.221   9.903  66.053  1.00  0.00    -0.215 C  
HETATM   23  C   UNL     1      -9.344  10.757  65.027  1.00  0.00    -0.261 C  
BRANCH  23  24
HETATM   24  C   UNL     1     -10.503  10.870  64.084  1.00  0.00    -0.397 C  
BRANCH  24  25
HETATM   25  C   UNL     1     -11.372  12.097  64.367  1.00  0.00    -0.407 C  
BRANCH  25  26
HETATM   26  C   UNL     1     -11.278  12.586  65.815  1.00  0.00    -0.356 C  
HETATM   27  C   UNL     1     -12.270  13.694  66.090  1.00  0.00    -0.444 C  
HETATM   28  O   UNL     1     -13.054  14.161  65.285  1.00  0.00    -0.763 OA 
HETATM   29  O   UNL     1     -12.205  14.128  67.371  1.00  0.00    -0.380 OA 
ENDBRANCH  25  26
ENDBRANCH  24  25
ENDBRANCH  23  24
ENDBRANCH  21  22
ENDBRANCH  19  21
ENDBRANCH  11  12
ENDBRANCH  10  11
ENDBRANCH   8  10
ENDBRANCH   7   8
ENDBRANCH   6   7
ENDBRANCH   5   6
ENDBRANCH   4   5
ENDBRANCH   3   4
ENDBRANCH   2   3
TORSDOF 14
ENDMDL
MODEL      117
REMARK 921   NORMALIZED FREE ENERGY PREDICTED BY IDOCK:   -4.51 KCAL/MOL
REMARK 922        TOTAL FREE ENERGY PREDICTED BY IDOCK:  -11.15 KCAL/MOL
REMARK 923 INTER-LIGAND FREE ENERGY PREDICTED BY IDOCK:   -8.67 KCAL/MOL
REMARK 924 INTRA-LIGAND FREE ENERGY PREDICTED BY IDOCK:   -2.48 KCAL/MOL
REMARK 927      BINDING AFFINITY PREDICTED BY RF-SCORE:    0.00 PKD
ROOT
HETATM    1  C   UNL     1      -5.722  18.729  66.099  1.00  0.00    -0.188 C  
HETATM    2  C   UNL     1      -6.985  19.406  66.601  1.00  0.00    -0.210 C  
ENDROOT
BRANCH   2   3
HETATM    3  C   UNL     1      -7.450  18.830  67.940  1.00  0.00    -0.262 C  
BRANCH   3   4
HETATM    4  C   UNL     1      -8.916  18.408  67.852  1.00  0.00    -0.296 C  
BRANCH   4   5
HETATM    5  C   UNL     1      -9.776  19.398  67.064  1.00  0.00    -0.425 C  
BRANCH   5   6
HETATM    6  C   UNL     1     -10.601  18.647  66.012  1.00  0.00    -0.410 C  
BRANCH   6   7
HETATM    7  C   UNL     1     -10.489  17.136  66.158  1.00  0.00    -0.277 C  
BRANCH   7   8
HETATM    8  C   UNL     1     -11.033  16.387  64.940  1.00  0.00    -0.263 C  
HETATM    9  O   UNL     1     -11.562  16.956  63.989  1.00  0.00    -1.123 OA 
BRANCH   8  10
HETATM   10  C   UNL     1     -10.840  14.884  64.986  1.00  0.00    -0.439 C  
BRANCH  10  11
HETATM   11  C   UNL     1     -11.932  14.048  65.671  1.00  0.00    -0.408 C  
BRANCH  11  12
HETATM   12  C   UNL     1     -11.799  12.550  65.290  1.00  0.00    -0.461 C  
HETATM   13  C   UNL     1     -11.505  12.372  63.792  1.00  0.00    -0.467 C  
HETATM   14  O   UNL     1     -12.667  12.488  62.988  1.00  0.00    -0.669 OA 
HETATM   15  C   UNL     1     -10.961  10.971  63.691  1.00  0.00    -0.065 C  
HETATM   16  H   UNL     1     -12.486  12.378  62.062  1.00  0.00     0.000 HD 
HETATM   17  C   UNL     1     -10.053  10.840  64.897  1.00  0.00    -0.322 C  
HETATM   18  O   UNL     1      -9.982   9.470  65.242  1.00  0.00    -0.427 OA 
HETATM   19  C   UNL     1     -10.640  11.774  65.997  1.00  0.00    -0.302 C  
HETATM   20  H   UNL     1      -9.413   9.387  65.999  1.00  0.00     0.000 HD 
BRANCH  19  21
HETATM   21  C   UNL     1     -11.104  11.065  67.285  1.00  0.00    -0.359 C  
BRANCH  21  22
HETATM   22  C   UNL     1     -11.161  11.957  68.500  1.00  0.00    -0.290 C  
HETATM   23  C   UNL     1     -10.255  12.847  68.929  1.00  0.00    -0.007 C  
BRANCH  23  24
HETATM   24  C   UNL     1      -8.918  13.136  68.316  1.00  0.00    -0.175 C  
BRANCH  24  25
HETATM   25  C   UNL     1      -8.686  14.632  68.093  1.00  0.00    -0.168 C  
BRANCH  25  26
HETATM   26  C   UNL     1      -7.543  14.930  67.119  1.00  0.00    -0.145 C  
HETATM   27  C   UNL     1      -6.271  15.293  67.854  1.00  0.00    -0.153 C  
HETATM   28  O   UNL     1      -6.142  15.352  69.062  1.00  0.00    -0.100 OA 
HETATM   29  O   UNL     1      -5.249  15.548  67.003  1.00  0.00    -0.258 OA 
ENDBRANCH  25  26
ENDBRANCH  24  25
ENDBRANCH  23  24
ENDBRANCH  21  22
ENDBRANCH  19  21
ENDBRANCH  11  12
ENDBRANCH  10  11
ENDBRANCH   8  10
ENDBRANCH   7   8
ENDBRANCH   6   7
ENDBRANCH   5   6
ENDBRANCH   4   5
ENDBRANCH   3   4
ENDBRANCH   2   3
TORSDOF 14
ENDMDL
MODEL      118
REMARK 921   NORMALIZED FREE ENERGY PREDICTED BY IDOCK:   -4.49 KCAL/MOL
REMARK 922        TOTAL FREE ENERGY PREDICTED BY IDOCK:  -11.13 KCAL/MOL
REMARK 923 INTER-LIGAND FREE ENERGY PREDICTED BY IDOCK:   -8.89 KCAL/MOL
REMARK 924 INTRA-LIGAND FREE ENERGY PREDICTED BY IDOCK:   -2.24 KCAL/MOL
REMARK 927      BINDING AFFINITY PREDICTED BY RF-SCORE:    0.00 PKD
ROOT
HETATM    1  C   UNL     1     -14.045  14.049  72.226  1.00  0.00    -0.633 C  
HETATM    2  C   UNL     1     -13.168  14.929  73.098  1.00  0.00    -0.568 C  
ENDROOT
BRANCH   2   3
HETATM    3  C   UNL     1     -12.244  15.821  72.265  1.00  0.00    -0.555 C  
BRANCH   3   4
HETATM    4  C   UNL     1     -12.494  15.593  70.775  1.00  0.00    -0.484 C  
BRANCH   4   5
HETATM    5  C   UNL     1     -11.273  15.908  69.909  1.00  0.00    -0.348 C  
BRANCH   5   6
HETATM    6  C   UNL     1     -11.234  14.963  68.702  1.00  0.00    -0.288 C  
BRANCH   6   7
HETATM    7  C   UNL     1     -11.897  13.624  68.994  1.00  0.00    -0.393 C  
BRANCH   7   8
HETATM    8  C   UNL     1     -11.829  12.665  67.803  1.00  0.00    -0.323 C  
HETATM    9  O   UNL     1     -11.991  11.452  67.915  1.00  0.00    -0.626 OA 
BRANCH   8  10
HETATM   10  C   UNL     1     -11.578  13.334  66.467  1.00  0.00    -0.392 C  
BRANCH  10  11
HETATM   11  C   UNL     1     -10.234  13.057  65.776  1.00  0.00    -0.297 C  
BRANCH  11  12
HETATM   12  C   UNL     1     -10.267  11.696  65.031  1.00  0.00    -0.321 C  
HETATM   13  C   UNL     1     -10.269  11.888  63.506  1.00  0.00    -0.457 C  
HETATM   14  O   UNL     1     -11.551  12.215  62.996  1.00  0.00    -0.682 OA 
HETATM   15  C   UNL     1      -9.842  10.547  62.969  1.00  0.00    -0.267 C  
HETATM   16  H   UNL     1     -11.552  12.334  62.053  1.00  0.00     0.000 HD 
HETATM   17  C   UNL     1      -8.736  10.110  63.908  1.00  0.00    -0.210 C  
HETATM   18  O   UNL     1      -8.686   8.696  63.896  1.00  0.00    -0.412 OA 
HETATM   19  C   UNL     1      -9.048  10.754  65.292  1.00  0.00    -0.217 C  
HETATM   20  H   UNL     1      -7.993   8.422  64.485  1.00  0.00     0.000 HD 
BRANCH  19  21
HETATM   21  C   UNL     1      -9.308   9.757  66.439  1.00  0.00    -0.218 C  
BRANCH  21  22
HETATM   22  C   UNL     1      -8.067   9.322  67.178  1.00  0.00    -0.109 C  
HETATM   23  C   UNL     1      -7.404   9.963  68.152  1.00  0.00    -0.080 C  
BRANCH  23  24
HETATM   24  C   UNL     1      -7.718  11.317  68.713  1.00  0.00    -0.138 C  
BRANCH  24  25
HETATM   25  C   UNL     1      -7.096  12.450  67.892  1.00  0.00    -0.109 C  
BRANCH  25  26
HETATM   26  C   UNL     1      -7.733  13.815  68.165  1.00  0.00    -0.140 C  
HETATM   27  C   UNL     1      -6.748  14.940  67.932  1.00  0.00    -0.160 C  
HETATM   28  O   UNL     1      -5.593  14.809  67.577  1.00  0.00    -0.334 OA 
HETATM   29  O   UNL     1      -7.303  16.155  68.159  1.00  0.00    -0.127 OA 
ENDBRANCH  25  26
ENDBRANCH  24  25
ENDBRANCH  23  24
ENDBRANCH  21  22
ENDBRANCH  19  21
ENDBRANCH  11  12
ENDBRANCH  10  11
ENDBRANCH   8  10
ENDBRANCH   7   8
ENDBRANCH   6   7
ENDBRANCH   5   6
ENDBRANCH   4   5
ENDBRANCH   3   4
ENDBRANCH   2   3
TORSDOF 14
ENDMDL
MODEL      119
REMARK 921   NORMALIZED FREE ENERGY PREDICTED BY IDOCK:   -4.49 KCAL/MOL
REMARK 922        TOTAL FREE ENERGY PREDICTED BY IDOCK:  -11.13 KCAL/MOL
REMARK 923 INTER-LIGAND FREE ENERGY PREDICTED BY IDOCK:   -8.30 KCAL/MOL
REMARK 924 INTRA-LIGAND FREE ENERGY PREDICTED BY IDOCK:   -2.83 KCAL/MOL
REMARK 927      BINDING AFFINITY PREDICTED BY RF-SCORE:    0.00 PKD
ROOT
HETATM    1  C   UNL     1      -9.480   3.550  70.199  1.00  0.00    -0.252 C  
HETATM    2  C   UNL     1      -9.241   4.238  68.867  1.00  0.00    -0.205 C  
ENDROOT
BRANCH   2   3
HETATM    3  C   UNL     1      -9.406   5.756  68.969  1.00  0.00    -0.144 C  
BRANCH   3   4
HETATM    4  C   UNL     1     -10.814   6.163  68.536  1.00  0.00    -0.389 C  
BRANCH   4   5
HETATM    5  C   UNL     1     -10.820   7.096  67.324  1.00  0.00    -0.382 C  
BRANCH   5   6
HETATM    6  C   UNL     1      -9.379   7.428  66.917  1.00  0.00    -0.195 C  
BRANCH   6   7
HETATM    7  C   UNL     1      -9.189   8.907  66.614  1.00  0.00    -0.215 C  
BRANCH   7   8
HETATM    8  C   UNL     1      -8.029   9.523  67.400  1.00  0.00    -0.106 C  
HETATM    9  O   UNL     1      -7.324  10.423  66.952  1.00  0.00    -0.100 OA 
BRANCH   8  10
HETATM   10  C   UNL     1      -7.839   8.954  68.792  1.00  0.00    -0.101 C  
BRANCH  10  11
HETATM   11  C   UNL     1      -8.422   9.748  69.970  1.00  0.00    -0.229 C  
BRANCH  11  12
HETATM   12  C   UNL     1      -9.914   9.384  70.195  1.00  0.00    -0.269 C  
HETATM   13  C   UNL     1     -10.156   8.847  71.615  1.00  0.00    -0.341 C  
HETATM   14  O   UNL     1      -9.787   7.485  71.757  1.00  0.00    -0.163 OA 
HETATM   15  C   UNL     1     -11.643   8.988  71.811  1.00  0.00    -0.444 C  
HETATM   16  H   UNL     1      -9.936   7.153  72.635  1.00  0.00     0.000 HD 
HETATM   17  C   UNL     1     -11.969  10.333  71.195  1.00  0.00    -0.376 C  
HETATM   18  O   UNL     1     -13.320  10.305  70.777  1.00  0.00    -0.450 OA 
HETATM   19  C   UNL     1     -10.926  10.567  70.062  1.00  0.00    -0.351 C  
HETATM   20  H   UNL     1     -13.525  11.149  70.391  1.00  0.00     0.000 HD 
BRANCH  19  21
HETATM   21  C   UNL     1     -11.512  10.686  68.641  1.00  0.00    -0.332 C  
BRANCH  21  22
HETATM   22  C   UNL     1     -11.865  12.093  68.229  1.00  0.00    -0.361 C  
HETATM   23  C   UNL     1     -11.180  12.931  67.438  1.00  0.00    -0.331 C  
BRANCH  23  24
HETATM   24  C   UNL     1      -9.846  12.680  66.803  1.00  0.00    -0.236 C  
BRANCH  24  25
HETATM   25  C   UNL     1      -9.947  12.455  65.293  1.00  0.00    -0.234 C  
BRANCH  25  26
HETATM   26  C   UNL     1     -10.718  13.560  64.566  1.00  0.00    -0.431 C  
HETATM   27  C   UNL     1     -11.759  12.985  63.632  1.00  0.00    -0.490 C  
HETATM   28  O   UNL     1     -11.979  11.801  63.456  1.00  0.00    -0.482 OA 
HETATM   29  O   UNL     1     -12.457  13.953  62.990  1.00  0.00    -0.689 OA 
ENDBRANCH  25  26
ENDBRANCH  24  25
ENDBRANCH  23  24
ENDBRANCH  21  22
ENDBRANCH  19  21
ENDBRANCH  11  12
ENDBRANCH  10  11
ENDBRANCH   8  10
ENDBRANCH   7   8
ENDBRANCH   6   7
ENDBRANCH   5   6
ENDBRANCH   4   5
ENDBRANCH   3   4
ENDBRANCH   2   3
TORSDOF 14
ENDMDL
MODEL      120
REMARK 921   NORMALIZED FREE ENERGY PREDICTED BY IDOCK:   -4.48 KCAL/MOL
REMARK 922        TOTAL FREE ENERGY PREDICTED BY IDOCK:  -11.11 KCAL/MOL
REMARK 923 INTER-LIGAND FREE ENERGY PREDICTED BY IDOCK:   -8.44 KCAL/MOL
REMARK 924 INTRA-LIGAND FREE ENERGY PREDICTED BY IDOCK:   -2.67 KCAL/MOL
REMARK 927      BINDING AFFINITY PREDICTED BY RF-SCORE:    0.00 PKD
ROOT
HETATM    1  C   UNL     1      -9.404   3.800  67.810  1.00  0.00    -0.237 C  
HETATM    2  C   UNL     1      -9.724   5.008  66.948  1.00  0.00    -0.182 C  
ENDROOT
BRANCH   2   3
HETATM    3  C   UNL     1      -9.834   6.290  67.776  1.00  0.00    -0.130 C  
BRANCH   3   4
HETATM    4  C   UNL     1     -10.774   7.281  67.090  1.00  0.00    -0.413 C  
BRANCH   4   5
HETATM    5  C   UNL     1     -10.272   8.725  67.158  1.00  0.00    -0.346 C  
BRANCH   5   6
HETATM    6  C   UNL     1      -8.769   8.738  67.461  1.00  0.00    -0.135 C  
BRANCH   6   7
HETATM    7  C   UNL     1      -8.381   9.856  68.418  1.00  0.00    -0.107 C  
BRANCH   7   8
HETATM    8  C   UNL     1      -7.597   9.346  69.629  1.00  0.00    -0.095 C  
HETATM    9  O   UNL     1      -6.503   9.800  69.954  1.00  0.00    -0.049 OA 
BRANCH   8  10
HETATM   10  C   UNL     1      -8.293   8.255  70.416  1.00  0.00    -0.120 C  
BRANCH  10  11
HETATM   11  C   UNL     1      -9.285   8.688  71.506  1.00  0.00    -0.316 C  
BRANCH  11  12
HETATM   12  C   UNL     1     -10.735   8.291  71.121  1.00  0.00    -0.270 C  
HETATM   13  C   UNL     1     -11.260   7.146  72.002  1.00  0.00    -0.251 C  
HETATM   14  O   UNL     1     -10.787   5.875  71.587  1.00  0.00    -0.247 OA 
HETATM   15  C   UNL     1     -12.755   7.207  71.827  1.00  0.00    -0.374 C  
HETATM   16  H   UNL     1     -11.111   5.166  72.131  1.00  0.00     0.000 HD 
HETATM   17  C   UNL     1     -13.068   8.689  71.847  1.00  0.00    -0.373 C  
HETATM   18  O   UNL     1     -14.260   8.893  71.114  1.00  0.00    -0.551 OA 
HETATM   19  C   UNL     1     -11.809   9.415  71.284  1.00  0.00    -0.435 C  
HETATM   20  H   UNL     1     -14.457   9.822  71.125  1.00  0.00     0.000 HD 
BRANCH  19  21
HETATM   21  C   UNL     1     -12.033  10.211  69.983  1.00  0.00    -0.210 C  
BRANCH  21  22
HETATM   22  C   UNL     1     -11.898  11.705  70.137  1.00  0.00    -0.428 C  
HETATM   23  C   UNL     1     -11.457  12.603  69.244  1.00  0.00    -0.354 C  
BRANCH  23  24
HETATM   24  C   UNL     1     -10.935  12.320  67.868  1.00  0.00    -0.265 C  
BRANCH  24  25
HETATM   25  C   UNL     1     -12.034  12.360  66.803  1.00  0.00    -0.282 C  
BRANCH  25  26
HETATM   26  C   UNL     1     -11.908  13.548  65.846  1.00  0.00    -0.405 C  
HETATM   27  C   UNL     1     -12.635  13.288  64.545  1.00  0.00    -0.251 C  
HETATM   28  O   UNL     1     -13.248  12.275  64.264  1.00  0.00    -0.785 OA 
HETATM   29  O   UNL     1     -12.541  14.337  63.693  1.00  0.00    -0.831 OA 
ENDBRANCH  25  26
ENDBRANCH  24  25
ENDBRANCH  23  24
ENDBRANCH  21  22
ENDBRANCH  19  21
ENDBRANCH  11  12
ENDBRANCH  10  11
ENDBRANCH   8  10
ENDBRANCH   7   8
ENDBRANCH   6   7
ENDBRANCH   5   6
ENDBRANCH   4   5
ENDBRANCH   3   4
ENDBRANCH   2   3
TORSDOF 14
ENDMDL
MODEL      121
REMARK 921   NORMALIZED FREE ENERGY PREDICTED BY IDOCK:   -4.48 KCAL/MOL
REMARK 922        TOTAL FREE ENERGY PREDICTED BY IDOCK:  -11.11 KCAL/MOL
REMARK 923 INTER-LIGAND FREE ENERGY PREDICTED BY IDOCK:   -8.45 KCAL/MOL
REMARK 924 INTRA-LIGAND FREE ENERGY PREDICTED BY IDOCK:   -2.66 KCAL/MOL
REMARK 927      BINDING AFFINITY PREDICTED BY RF-SCORE:    0.00 PKD
ROOT
HETATM    1  C   UNL     1     -13.953   9.031  72.238  1.00  0.00    -0.522 C  
HETATM    2  C   UNL     1     -12.787   8.288  71.609  1.00  0.00    -0.350 C  
ENDROOT
BRANCH   2   3
HETATM    3  C   UNL     1     -11.443   8.925  71.965  1.00  0.00    -0.431 C  
BRANCH   3   4
HETATM    4  C   UNL     1     -10.732   9.401  70.699  1.00  0.00    -0.353 C  
BRANCH   4   5
HETATM    5  C   UNL     1     -11.373  10.649  70.088  1.00  0.00    -0.402 C  
BRANCH   5   6
HETATM    6  C   UNL     1     -10.727  10.953  68.731  1.00  0.00    -0.243 C  
BRANCH   6   7
HETATM    7  C   UNL     1      -9.232  10.668  68.723  1.00  0.00    -0.182 C  
BRANCH   7   8
HETATM    8  C   UNL     1      -8.418  11.823  68.136  1.00  0.00    -0.158 C  
HETATM    9  O   UNL     1      -7.304  11.669  67.641  1.00  0.00    -0.095 OA 
BRANCH   8  10
HETATM   10  C   UNL     1      -9.109  13.171  68.186  1.00  0.00    -0.200 C  
BRANCH  10  11
HETATM   11  C   UNL     1      -9.237  13.952  66.869  1.00  0.00    -0.269 C  
BRANCH  11  12
HETATM   12  C   UNL     1     -10.552  13.581  66.133  1.00  0.00    -0.290 C  
HETATM   13  C   UNL     1     -11.722  14.468  66.587  1.00  0.00    -0.371 C  
HETATM   14  O   UNL     1     -12.279  14.052  67.823  1.00  0.00    -0.506 OA 
HETATM   15  C   UNL     1     -12.747  14.308  65.495  1.00  0.00    -0.399 C  
HETATM   16  H   UNL     1     -13.002  14.600  68.104  1.00  0.00     0.000 HD 
HETATM   17  C   UNL     1     -11.931  14.327  64.218  1.00  0.00    -0.425 C  
HETATM   18  O   UNL     1     -12.644  13.605  63.233  1.00  0.00    -0.939 OA 
HETATM   19  C   UNL     1     -10.528  13.753  64.580  1.00  0.00    -0.433 C  
HETATM   20  H   UNL     1     -12.132  13.617  62.433  1.00  0.00     0.000 HD 
BRANCH  19  21
HETATM   21  C   UNL     1     -10.140  12.452  63.848  1.00  0.00    -0.349 C  
BRANCH  21  22
HETATM   22  C   UNL     1     -10.577  11.190  64.548  1.00  0.00    -0.397 C  
HETATM   23  C   UNL     1      -9.833  10.140  64.924  1.00  0.00    -0.390 C  
BRANCH  23  24
HETATM   24  C   UNL     1      -8.366   9.946  64.686  1.00  0.00    -0.166 C  
BRANCH  24  25
HETATM   25  C   UNL     1      -7.747   8.924  65.642  1.00  0.00    -0.087 C  
BRANCH  25  26
HETATM   26  C   UNL     1      -8.772   7.963  66.248  1.00  0.00    -0.174 C  
HETATM   27  C   UNL     1      -8.297   7.414  67.576  1.00  0.00    -0.113 C  
HETATM   28  O   UNL     1      -7.240   7.681  68.117  1.00  0.00    -0.087 OA 
HETATM   29  O   UNL     1      -9.200   6.570  68.129  1.00  0.00    -0.115 OA 
ENDBRANCH  25  26
ENDBRANCH  24  25
ENDBRANCH  23  24
ENDBRANCH  21  22
ENDBRANCH  19  21
ENDBRANCH  11  12
ENDBRANCH  10  11
ENDBRANCH   8  10
ENDBRANCH   7   8
ENDBRANCH   6   7
ENDBRANCH   5   6
ENDBRANCH   4   5
ENDBRANCH   3   4
ENDBRANCH   2   3
TORSDOF 14
ENDMDL
MODEL      122
REMARK 921   NORMALIZED FREE ENERGY PREDICTED BY IDOCK:   -4.48 KCAL/MOL
REMARK 922        TOTAL FREE ENERGY PREDICTED BY IDOCK:  -11.10 KCAL/MOL
REMARK 923 INTER-LIGAND FREE ENERGY PREDICTED BY IDOCK:   -8.48 KCAL/MOL
REMARK 924 INTRA-LIGAND FREE ENERGY PREDICTED BY IDOCK:   -2.62 KCAL/MOL
REMARK 927      BINDING AFFINITY PREDICTED BY RF-SCORE:    0.00 PKD
ROOT
HETATM    1  C   UNL     1      -9.829  20.300  67.082  1.00  0.00    -0.606 C  
HETATM    2  C   UNL     1      -9.352  19.026  66.408  1.00  0.00    -0.358 C  
ENDROOT
BRANCH   2   3
HETATM    3  C   UNL     1     -10.285  17.846  66.686  1.00  0.00    -0.371 C  
BRANCH   3   4
HETATM    4  C   UNL     1     -10.713  17.192  65.373  1.00  0.00    -0.097 C  
BRANCH   4   5
HETATM    5  C   UNL     1     -10.370  15.702  65.309  1.00  0.00    -0.405 C  
BRANCH   5   6
HETATM    6  C   UNL     1     -11.576  14.913  64.788  1.00  0.00    -0.410 C  
BRANCH   6   7
HETATM    7  C   UNL     1     -11.168  13.625  64.088  1.00  0.00    -0.294 C  
BRANCH   7   8
HETATM    8  C   UNL     1     -11.999  12.422  64.540  1.00  0.00    -0.402 C  
HETATM    9  O   UNL     1     -13.223  12.457  64.638  1.00  0.00    -0.822 OA 
BRANCH   8  10
HETATM   10  C   UNL     1     -11.193  11.172  64.829  1.00  0.00    -0.040 C  
BRANCH  10  11
HETATM   11  C   UNL     1     -10.177  11.232  65.979  1.00  0.00    -0.295 C  
BRANCH  11  12
HETATM   12  C   UNL     1     -10.684  10.427  67.206  1.00  0.00    -0.331 C  
HETATM   13  C   UNL     1      -9.935   9.093  67.353  1.00  0.00    -0.206 C  
HETATM   14  O   UNL     1     -10.423   8.091  66.476  1.00  0.00    -0.455 OA 
HETATM   15  C   UNL     1     -10.198   8.683  68.779  1.00  0.00    -0.224 C  
HETATM   16  H   UNL     1      -9.961   7.266  66.567  1.00  0.00     0.000 HD 
HETATM   17  C   UNL     1     -10.075   9.975  69.562  1.00  0.00    -0.227 C  
HETATM   18  O   UNL     1     -10.862   9.853  70.731  1.00  0.00    -0.309 OA 
HETATM   19  C   UNL     1     -10.495  11.121  68.593  1.00  0.00    -0.220 C  
HETATM   20  H   UNL     1     -10.786  10.663  71.222  1.00  0.00     0.000 HD 
BRANCH  19  21
HETATM   21  C   UNL     1     -11.737  11.926  69.024  1.00  0.00    -0.391 C  
BRANCH  21  22
HETATM   22  C   UNL     1     -11.995  13.162  68.199  1.00  0.00    -0.333 C  
HETATM   23  C   UNL     1     -11.787  14.446  68.525  1.00  0.00    -0.369 C  
BRANCH  23  24
HETATM   24  C   UNL     1     -11.285  14.971  69.837  1.00  0.00    -0.303 C  
BRANCH  24  25
HETATM   25  C   UNL     1      -9.966  15.734  69.697  1.00  0.00    -0.284 C  
BRANCH  25  26
HETATM   26  C   UNL     1      -8.953  15.031  68.789  1.00  0.00    -0.196 C  
HETATM   27  C   UNL     1      -7.775  15.929  68.477  1.00  0.00    -0.147 C  
HETATM   28  O   UNL     1      -7.624  17.067  68.878  1.00  0.00    -0.236 OA 
HETATM   29  O   UNL     1      -6.865  15.315  67.682  1.00  0.00    -0.151 OA 
ENDBRANCH  25  26
ENDBRANCH  24  25
ENDBRANCH  23  24
ENDBRANCH  21  22
ENDBRANCH  19  21
ENDBRANCH  11  12
ENDBRANCH  10  11
ENDBRANCH   8  10
ENDBRANCH   7   8
ENDBRANCH   6   7
ENDBRANCH   5   6
ENDBRANCH   4   5
ENDBRANCH   3   4
ENDBRANCH   2   3
TORSDOF 14
ENDMDL
MODEL      123
REMARK 921   NORMALIZED FREE ENERGY PREDICTED BY IDOCK:   -4.47 KCAL/MOL
REMARK 922        TOTAL FREE ENERGY PREDICTED BY IDOCK:  -11.08 KCAL/MOL
REMARK 923 INTER-LIGAND FREE ENERGY PREDICTED BY IDOCK:   -8.79 KCAL/MOL
REMARK 924 INTRA-LIGAND FREE ENERGY PREDICTED BY IDOCK:   -2.29 KCAL/MOL
REMARK 927      BINDING AFFINITY PREDICTED BY RF-SCORE:    0.00 PKD
ROOT
HETATM    1  C   UNL     1      -6.369  13.001  69.050  1.00  0.00    -0.099 C  
HETATM    2  C   UNL     1      -7.398  13.683  68.167  1.00  0.00    -0.121 C  
ENDROOT
BRANCH   2   3
HETATM    3  C   UNL     1      -6.822  14.912  67.461  1.00  0.00    -0.189 C  
BRANCH   3   4
HETATM    4  C   UNL     1      -7.953  15.795  66.932  1.00  0.00    -0.285 C  
BRANCH   4   5
HETATM    5  C   UNL     1      -9.274  15.581  67.674  1.00  0.00    -0.190 C  
BRANCH   5   6
HETATM    6  C   UNL     1     -10.440  15.620  66.680  1.00  0.00    -0.301 C  
BRANCH   6   7
HETATM    7  C   UNL     1     -10.025  15.185  65.282  1.00  0.00    -0.325 C  
BRANCH   7   8
HETATM    8  C   UNL     1     -10.593  13.816  64.901  1.00  0.00    -0.413 C  
HETATM    9  O   UNL     1     -11.450  13.668  64.034  1.00  0.00    -0.360 OA 
BRANCH   8  10
HETATM   10  C   UNL     1      -9.989  12.650  65.659  1.00  0.00    -0.253 C  
BRANCH  10  11
HETATM   11  C   UNL     1     -10.623  11.266  65.455  1.00  0.00    -0.312 C  
BRANCH  11  12
HETATM   12  C   UNL     1     -10.605  10.451  66.775  1.00  0.00    -0.270 C  
HETATM   13  C   UNL     1      -9.516   9.366  66.754  1.00  0.00    -0.165 C  
HETATM   14  O   UNL     1      -9.908   8.211  66.030  1.00  0.00    -0.456 OA 
HETATM   15  C   UNL     1      -9.329   9.009  68.206  1.00  0.00    -0.145 C  
HETATM   16  H   UNL     1      -9.236   7.540  66.017  1.00  0.00     0.000 HD 
HETATM   17  C   UNL     1      -9.377  10.344  68.922  1.00  0.00    -0.186 C  
HETATM   18  O   UNL     1      -9.816  10.112  70.247  1.00  0.00    -0.396 OA 
HETATM   19  C   UNL     1     -10.295  11.271  68.070  1.00  0.00    -0.204 C  
HETATM   20  H   UNL     1      -9.847  10.948  70.696  1.00  0.00     0.000 HD 
BRANCH  19  21
HETATM   21  C   UNL     1     -11.574  11.762  68.777  1.00  0.00    -0.367 C  
BRANCH  21  22
HETATM   22  C   UNL     1     -11.754  13.260  68.768  1.00  0.00    -0.366 C  
HETATM   23  C   UNL     1     -12.112  14.066  69.777  1.00  0.00    -0.405 C  
BRANCH  23  24
HETATM   24  C   UNL     1     -12.476  13.655  71.172  1.00  0.00    -0.442 C  
BRANCH  24  25
HETATM   25  C   UNL     1     -13.634  14.477  71.742  1.00  0.00    -0.474 C  
BRANCH  25  26
HETATM   26  C   UNL     1     -13.412  14.913  73.192  1.00  0.00    -0.398 C  
HETATM   27  C   UNL     1     -12.513  16.127  73.272  1.00  0.00    -0.536 C  
HETATM   28  O   UNL     1     -12.014  16.704  72.325  1.00  0.00    -0.421 OA 
HETATM   29  O   UNL     1     -12.316  16.530  74.551  1.00  0.00    -0.710 OA 
ENDBRANCH  25  26
ENDBRANCH  24  25
ENDBRANCH  23  24
ENDBRANCH  21  22
ENDBRANCH  19  21
ENDBRANCH  11  12
ENDBRANCH  10  11
ENDBRANCH   8  10
ENDBRANCH   7   8
ENDBRANCH   6   7
ENDBRANCH   5   6
ENDBRANCH   4   5
ENDBRANCH   3   4
ENDBRANCH   2   3
TORSDOF 14
ENDMDL
MODEL      124
REMARK 921   NORMALIZED FREE ENERGY PREDICTED BY IDOCK:   -4.46 KCAL/MOL
REMARK 922        TOTAL FREE ENERGY PREDICTED BY IDOCK:  -11.06 KCAL/MOL
REMARK 923 INTER-LIGAND FREE ENERGY PREDICTED BY IDOCK:   -8.74 KCAL/MOL
REMARK 924 INTRA-LIGAND FREE ENERGY PREDICTED BY IDOCK:   -2.33 KCAL/MOL
REMARK 927      BINDING AFFINITY PREDICTED BY RF-SCORE:    0.00 PKD
ROOT
HETATM    1  C   UNL     1     -11.307  15.975  64.476  1.00  0.00    -0.303 C  
HETATM    2  C   UNL     1     -12.178  14.783  64.123  1.00  0.00    -0.321 C  
ENDROOT
BRANCH   2   3
HETATM    3  C   UNL     1     -12.623  14.010  65.367  1.00  0.00    -0.529 C  
BRANCH   3   4
HETATM    4  C   UNL     1     -12.461  12.508  65.141  1.00  0.00    -0.451 C  
BRANCH   4   5
HETATM    5  C   UNL     1     -12.097  12.157  63.697  1.00  0.00    -0.648 C  
BRANCH   5   6
HETATM    6  C   UNL     1     -10.778  11.375  63.670  1.00  0.00    -0.470 C  
BRANCH   6   7
HETATM    7  C   UNL     1      -9.974  11.550  64.950  1.00  0.00    -0.303 C  
BRANCH   7   8
HETATM    8  C   UNL     1      -9.655  10.216  65.629  1.00  0.00    -0.243 C  
HETATM    9  O   UNL     1      -9.189   9.254  65.023  1.00  0.00    -0.235 OA 
BRANCH   8  10
HETATM   10  C   UNL     1      -9.931  10.185  67.119  1.00  0.00    -0.243 C  
BRANCH  10  11
HETATM   11  C   UNL     1      -9.443  11.378  67.956  1.00  0.00    -0.181 C  
BRANCH  11  12
HETATM   12  C   UNL     1     -10.582  12.413  68.155  1.00  0.00    -0.232 C  
HETATM   13  C   UNL     1     -11.550  11.980  69.268  1.00  0.00    -0.321 C  
HETATM   14  O   UNL     1     -12.489  11.011  68.832  1.00  0.00    -0.683 OA 
HETATM   15  C   UNL     1     -12.273  13.250  69.636  1.00  0.00    -0.258 C  
HETATM   16  H   UNL     1     -13.087  10.744  69.519  1.00  0.00     0.000 HD 
HETATM   17  C   UNL     1     -11.188  14.307  69.629  1.00  0.00    -0.210 C  
HETATM   18  O   UNL     1     -11.796  15.555  69.357  1.00  0.00    -0.343 OA 
HETATM   19  C   UNL     1     -10.125  13.844  68.587  1.00  0.00    -0.203 C  
HETATM   20  H   UNL     1     -11.116  16.218  69.351  1.00  0.00     0.000 HD 
BRANCH  19  21
HETATM   21  C   UNL     1      -9.925  14.788  67.385  1.00  0.00    -0.223 C  
BRANCH  21  22
HETATM   22  C   UNL     1      -8.493  14.925  66.933  1.00  0.00    -0.255 C  
HETATM   23  C   UNL     1      -7.854  16.019  66.493  1.00  0.00    -0.226 C  
BRANCH  23  24
HETATM   24  C   UNL     1      -8.441  17.383  66.293  1.00  0.00    -0.260 C  
BRANCH  24  25
HETATM   25  C   UNL     1      -7.739  18.452  67.135  1.00  0.00    -0.233 C  
BRANCH  25  26
HETATM   26  C   UNL     1      -8.675  19.574  67.592  1.00  0.00    -0.361 C  
HETATM   27  C   UNL     1      -9.678  19.076  68.610  1.00  0.00    -0.410 C  
HETATM   28  O   UNL     1      -9.757  17.937  69.030  1.00  0.00    -0.280 OA 
HETATM   29  O   UNL     1     -10.506  20.063  69.031  1.00  0.00    -0.312 OA 
ENDBRANCH  25  26
ENDBRANCH  24  25
ENDBRANCH  23  24
ENDBRANCH  21  22
ENDBRANCH  19  21
ENDBRANCH  11  12
ENDBRANCH  10  11
ENDBRANCH   8  10
ENDBRANCH   7   8
ENDBRANCH   6   7
ENDBRANCH   5   6
ENDBRANCH   4   5
ENDBRANCH   3   4
ENDBRANCH   2   3
TORSDOF 14
ENDMDL
MODEL      125
REMARK 921   NORMALIZED FREE ENERGY PREDICTED BY IDOCK:   -4.45 KCAL/MOL
REMARK 922        TOTAL FREE ENERGY PREDICTED BY IDOCK:  -11.05 KCAL/MOL
REMARK 923 INTER-LIGAND FREE ENERGY PREDICTED BY IDOCK:   -8.91 KCAL/MOL
REMARK 924 INTRA-LIGAND FREE ENERGY PREDICTED BY IDOCK:   -2.14 KCAL/MOL
REMARK 927      BINDING AFFINITY PREDICTED BY RF-SCORE:    0.00 PKD
ROOT
HETATM    1  C   UNL     1     -12.811  14.063  65.401  1.00  0.00    -0.442 C  
HETATM    2  C   UNL     1     -12.032  13.855  64.115  1.00  0.00    -0.464 C  
ENDROOT
BRANCH   2   3
HETATM    3  C   UNL     1     -12.475  12.591  63.375  1.00  0.00    -0.514 C  
BRANCH   3   4
HETATM    4  C   UNL     1     -11.443  11.480  63.563  1.00  0.00    -0.334 C  
BRANCH   4   5
HETATM    5  C   UNL     1     -10.004  11.998  63.571  1.00  0.00    -0.393 C  
BRANCH   5   6
HETATM    6  C   UNL     1      -9.125  11.102  62.690  1.00  0.00    -0.366 C  
BRANCH   6   7
HETATM    7  C   UNL     1      -8.929   9.715  63.287  1.00  0.00    -0.251 C  
BRANCH   7   8
HETATM    8  C   UNL     1      -7.924   9.710  64.441  1.00  0.00    -0.138 C  
HETATM    9  O   UNL     1      -6.767  10.104  64.318  1.00  0.00    -0.128 OA 
BRANCH   8  10
HETATM   10  C   UNL     1      -8.479   9.206  65.758  1.00  0.00    -0.152 C  
BRANCH  10  11
HETATM   11  C   UNL     1     -10.006   9.174  65.918  1.00  0.00    -0.232 C  
BRANCH  11  12
HETATM   12  C   UNL     1     -10.402   8.638  67.320  1.00  0.00    -0.366 C  
HETATM   13  C   UNL     1     -10.428   7.102  67.350  1.00  0.00    -0.284 C  
HETATM   14  O   UNL     1     -11.616   6.563  66.793  1.00  0.00    -0.731 OA 
HETATM   15  C   UNL     1     -10.363   6.764  68.817  1.00  0.00    -0.211 C  
HETATM   16  H   UNL     1     -11.632   5.613  66.811  1.00  0.00     0.000 HD 
HETATM   17  C   UNL     1      -9.353   7.745  69.376  1.00  0.00    -0.152 C  
HETATM   18  O   UNL     1      -9.647   7.941  70.745  1.00  0.00    -0.164 OA 
HETATM   19  C   UNL     1      -9.436   9.022  68.487  1.00  0.00    -0.148 C  
HETATM   20  H   UNL     1      -9.013   8.557  71.096  1.00  0.00     0.000 HD 
BRANCH  19  21
HETATM   21  C   UNL     1      -9.875  10.306  69.218  1.00  0.00    -0.244 C  
BRANCH  21  22
HETATM   22  C   UNL     1      -9.463  11.585  68.532  1.00  0.00    -0.175 C  
HETATM   23  C   UNL     1     -10.208  12.665  68.257  1.00  0.00    -0.240 C  
BRANCH  23  24
HETATM   24  C   UNL     1     -11.672  12.841  68.526  1.00  0.00    -0.371 C  
BRANCH  24  25
HETATM   25  C   UNL     1     -11.948  13.886  69.609  1.00  0.00    -0.399 C  
BRANCH  25  26
HETATM   26  C   UNL     1     -12.531  13.289  70.892  1.00  0.00    -0.424 C  
HETATM   27  C   UNL     1     -13.441  14.273  71.595  1.00  0.00    -0.376 C  
HETATM   28  O   UNL     1     -13.696  15.400  71.216  1.00  0.00    -0.498 OA 
HETATM   29  O   UNL     1     -13.973  13.752  72.727  1.00  0.00    -0.714 OA 
ENDBRANCH  25  26
ENDBRANCH  24  25
ENDBRANCH  23  24
ENDBRANCH  21  22
ENDBRANCH  19  21
ENDBRANCH  11  12
ENDBRANCH  10  11
ENDBRANCH   8  10
ENDBRANCH   7   8
ENDBRANCH   6   7
ENDBRANCH   5   6
ENDBRANCH   4   5
ENDBRANCH   3   4
ENDBRANCH   2   3
TORSDOF 14
ENDMDL
MODEL      126
REMARK 921   NORMALIZED FREE ENERGY PREDICTED BY IDOCK:   -4.45 KCAL/MOL
REMARK 922        TOTAL FREE ENERGY PREDICTED BY IDOCK:  -11.05 KCAL/MOL
REMARK 923 INTER-LIGAND FREE ENERGY PREDICTED BY IDOCK:   -8.72 KCAL/MOL
REMARK 924 INTRA-LIGAND FREE ENERGY PREDICTED BY IDOCK:   -2.33 KCAL/MOL
REMARK 927      BINDING AFFINITY PREDICTED BY RF-SCORE:    0.00 PKD
ROOT
HETATM    1  C   UNL     1     -11.848  15.297  64.573  1.00  0.00    -0.298 C  
HETATM    2  C   UNL     1     -12.213  14.006  63.863  1.00  0.00    -0.336 C  
ENDROOT
BRANCH   2   3
HETATM    3  C   UNL     1     -12.517  12.876  64.850  1.00  0.00    -0.540 C  
BRANCH   3   4
HETATM    4  C   UNL     1     -11.780  11.603  64.438  1.00  0.00    -0.226 C  
BRANCH   4   5
HETATM    5  C   UNL     1     -10.300  11.841  64.135  1.00  0.00    -0.376 C  
BRANCH   5   6
HETATM    6  C   UNL     1      -9.444  10.817  64.891  1.00  0.00    -0.288 C  
BRANCH   6   7
HETATM    7  C   UNL     1      -9.506  11.012  66.400  1.00  0.00    -0.218 C  
BRANCH   7   8
HETATM    8  C   UNL     1     -10.278   9.895  67.104  1.00  0.00    -0.228 C  
HETATM    9  O   UNL     1      -9.996   8.706  66.977  1.00  0.00    -0.200 OA 
BRANCH   8  10
HETATM   10  C   UNL     1     -11.403  10.374  67.999  1.00  0.00    -0.277 C  
BRANCH  10  11
HETATM   11  C   UNL     1     -11.024  10.942  69.375  1.00  0.00    -0.304 C  
BRANCH  11  12
HETATM   12  C   UNL     1     -12.275  11.494  70.108  1.00  0.00    -0.387 C  
HETATM   13  C   UNL     1     -12.730  10.552  71.235  1.00  0.00    -0.428 C  
HETATM   14  O   UNL     1     -13.479   9.447  70.756  1.00  0.00    -0.578 OA 
HETATM   15  C   UNL     1     -13.607  11.416  72.102  1.00  0.00    -0.084 C  
HETATM   16  H   UNL     1     -13.760   8.864  71.452  1.00  0.00     0.000 HD 
HETATM   17  C   UNL     1     -12.876  12.742  72.159  1.00  0.00    -0.114 C  
HETATM   18  O   UNL     1     -13.832  13.757  72.398  1.00  0.00    -0.526 OA 
HETATM   19  C   UNL     1     -12.087  12.872  70.822  1.00  0.00    -0.252 C  
HETATM   20  H   UNL     1     -13.374  14.589  72.433  1.00  0.00     0.000 HD 
BRANCH  19  21
HETATM   21  C   UNL     1     -12.496  14.059  69.928  1.00  0.00    -0.301 C  
BRANCH  21  22
HETATM   22  C   UNL     1     -12.094  13.917  68.481  1.00  0.00    -0.331 C  
HETATM   23  C   UNL     1     -10.954  14.295  67.887  1.00  0.00    -0.278 C  
BRANCH  23  24
HETATM   24  C   UNL     1      -9.802  15.012  68.525  1.00  0.00    -0.217 C  
BRANCH  24  25
HETATM   25  C   UNL     1      -9.383  16.259  67.744  1.00  0.00    -0.216 C  
BRANCH  25  26
HETATM   26  C   UNL     1     -10.352  17.432  67.910  1.00  0.00    -0.369 C  
HETATM   27  C   UNL     1     -10.131  18.487  66.848  1.00  0.00    -0.370 C  
HETATM   28  O   UNL     1      -9.298  18.439  65.963  1.00  0.00    -0.502 OA 
HETATM   29  O   UNL     1     -10.990  19.526  66.978  1.00  0.00    -0.477 OA 
ENDBRANCH  25  26
ENDBRANCH  24  25
ENDBRANCH  23  24
ENDBRANCH  21  22
ENDBRANCH  19  21
ENDBRANCH  11  12
ENDBRANCH  10  11
ENDBRANCH   8  10
ENDBRANCH   7   8
ENDBRANCH   6   7
ENDBRANCH   5   6
ENDBRANCH   4   5
ENDBRANCH   3   4
ENDBRANCH   2   3
TORSDOF 14
ENDMDL
MODEL      127
REMARK 921   NORMALIZED FREE ENERGY PREDICTED BY IDOCK:   -4.45 KCAL/MOL
REMARK 922        TOTAL FREE ENERGY PREDICTED BY IDOCK:  -11.04 KCAL/MOL
REMARK 923 INTER-LIGAND FREE ENERGY PREDICTED BY IDOCK:   -8.23 KCAL/MOL
REMARK 924 INTRA-LIGAND FREE ENERGY PREDICTED BY IDOCK:   -2.81 KCAL/MOL
REMARK 927      BINDING AFFINITY PREDICTED BY RF-SCORE:    0.00 PKD
ROOT
HETATM    1  C   UNL     1      -9.112  17.712  68.108  1.00  0.00    -0.276 C  
HETATM    2  C   UNL     1      -9.564  16.838  66.952  1.00  0.00    -0.253 C  
ENDROOT
BRANCH   2   3
HETATM    3  C   UNL     1      -8.823  15.499  66.922  1.00  0.00    -0.284 C  
BRANCH   3   4
HETATM    4  C   UNL     1      -8.812  14.872  68.316  1.00  0.00    -0.172 C  
BRANCH   4   5
HETATM    5  C   UNL     1      -8.254  13.447  68.325  1.00  0.00    -0.160 C  
BRANCH   5   6
HETATM    6  C   UNL     1      -8.177  12.911  66.890  1.00  0.00    -0.012 C  
BRANCH   6   7
HETATM    7  C   UNL     1      -8.378  11.404  66.824  1.00  0.00    -0.163 C  
BRANCH   7   8
HETATM    8  C   UNL     1      -9.308  10.985  65.682  1.00  0.00    -0.214 C  
HETATM    9  O   UNL     1      -9.508  11.687  64.695  1.00  0.00    -0.167 OA 
BRANCH   8  10
HETATM   10  C   UNL     1      -9.940   9.619  65.854  1.00  0.00    -0.351 C  
BRANCH  10  11
HETATM   11  C   UNL     1      -9.219   8.612  66.763  1.00  0.00    -0.211 C  
BRANCH  11  12
HETATM   12  C   UNL     1     -10.074   8.291  68.018  1.00  0.00    -0.243 C  
HETATM   13  C   UNL     1     -10.366   6.787  68.132  1.00  0.00    -0.188 C  
HETATM   14  O   UNL     1     -11.424   6.367  67.286  1.00  0.00    -0.714 OA 
HETATM   15  C   UNL     1     -10.770   6.602  69.572  1.00  0.00    -0.305 C  
HETATM   16  H   UNL     1     -11.605   5.437  67.357  1.00  0.00     0.000 HD 
HETATM   17  C   UNL     1      -9.805   7.481  70.341  1.00  0.00    -0.183 C  
HETATM   18  O   UNL     1     -10.432   7.864  71.550  1.00  0.00    -0.205 OA 
HETATM   19  C   UNL     1      -9.421   8.655  69.390  1.00  0.00    -0.161 C  
HETATM   20  H   UNL     1      -9.828   8.415  72.032  1.00  0.00     0.000 HD 
BRANCH  19  21
HETATM   21  C   UNL     1      -9.823  10.060  69.882  1.00  0.00    -0.266 C  
BRANCH  21  22
HETATM   22  C   UNL     1     -11.308  10.254  70.064  1.00  0.00    -0.370 C  
HETATM   23  C   UNL     1     -12.082  11.256  69.623  1.00  0.00    -0.391 C  
BRANCH  23  24
HETATM   24  C   UNL     1     -11.635  12.475  68.873  1.00  0.00    -0.364 C  
BRANCH  24  25
HETATM   25  C   UNL     1     -11.900  12.368  67.370  1.00  0.00    -0.360 C  
BRANCH  25  26
HETATM   26  C   UNL     1     -12.030  13.728  66.680  1.00  0.00    -0.469 C  
HETATM   27  C   UNL     1     -12.542  13.583  65.263  1.00  0.00    -0.468 C  
HETATM   28  O   UNL     1     -12.822  12.534  64.714  1.00  0.00    -0.755 OA 
HETATM   29  O   UNL     1     -12.671  14.781  64.644  1.00  0.00    -0.523 OA 
ENDBRANCH  25  26
ENDBRANCH  24  25
ENDBRANCH  23  24
ENDBRANCH  21  22
ENDBRANCH  19  21
ENDBRANCH  11  12
ENDBRANCH  10  11
ENDBRANCH   8  10
ENDBRANCH   7   8
ENDBRANCH   6   7
ENDBRANCH   5   6
ENDBRANCH   4   5
ENDBRANCH   3   4
ENDBRANCH   2   3
TORSDOF 14
ENDMDL
MODEL      128
REMARK 921   NORMALIZED FREE ENERGY PREDICTED BY IDOCK:   -4.42 KCAL/MOL
REMARK 922        TOTAL FREE ENERGY PREDICTED BY IDOCK:  -11.00 KCAL/MOL
REMARK 923 INTER-LIGAND FREE ENERGY PREDICTED BY IDOCK:   -9.18 KCAL/MOL
REMARK 924 INTRA-LIGAND FREE ENERGY PREDICTED BY IDOCK:   -1.81 KCAL/MOL
REMARK 927      BINDING AFFINITY PREDICTED BY RF-SCORE:    0.00 PKD
ROOT
HETATM    1  C   UNL     1     -10.623   6.149  71.875  1.00  0.00    -0.263 C  
HETATM    2  C   UNL     1     -11.722   6.548  70.907  1.00  0.00    -0.416 C  
ENDROOT
BRANCH   2   3
HETATM    3  C   UNL     1     -12.887   7.242  71.617  1.00  0.00    -0.415 C  
BRANCH   3   4
HETATM    4  C   UNL     1     -12.400   8.514  72.309  1.00  0.00    -0.450 C  
BRANCH   4   5
HETATM    5  C   UNL     1     -13.308   9.718  72.053  1.00  0.00    -0.547 C  
BRANCH   5   6
HETATM    6  C   UNL     1     -12.695  10.610  70.967  1.00  0.00    -0.512 C  
BRANCH   6   7
HETATM    7  C   UNL     1     -11.242  10.258  70.680  1.00  0.00    -0.406 C  
BRANCH   7   8
HETATM    8  C   UNL     1     -10.728  10.897  69.388  1.00  0.00    -0.225 C  
HETATM    9  O   UNL     1      -9.556  10.821  69.028  1.00  0.00    -0.197 OA 
BRANCH   8  10
HETATM   10  C   UNL     1     -11.788  11.607  68.571  1.00  0.00    -0.357 C  
BRANCH  10  11
HETATM   11  C   UNL     1     -11.313  12.636  67.533  1.00  0.00    -0.361 C  
BRANCH  11  12
HETATM   12  C   UNL     1     -11.589  12.131  66.091  1.00  0.00    -0.418 C  
HETATM   13  C   UNL     1     -11.920  13.293  65.141  1.00  0.00    -0.381 C  
HETATM   14  O   UNL     1     -13.263  13.733  65.260  1.00  0.00    -0.755 OA 
HETATM   15  C   UNL     1     -11.701  12.715  63.767  1.00  0.00    -0.566 C  
HETATM   16  H   UNL     1     -13.468  14.451  64.672  1.00  0.00     0.000 HD 
HETATM   17  C   UNL     1     -10.439  11.889  63.913  1.00  0.00    -0.397 C  
HETATM   18  O   UNL     1     -10.474  10.864  62.939  1.00  0.00    -0.758 OA 
HETATM   19  C   UNL     1     -10.398  11.400  65.392  1.00  0.00    -0.331 C  
HETATM   20  H   UNL     1      -9.683  10.345  63.030  1.00  0.00     0.000 HD 
BRANCH  19  21
HETATM   21  C   UNL     1     -10.451   9.871  65.583  1.00  0.00     0.026 C  
BRANCH  21  22
HETATM   22  C   UNL     1      -9.100   9.201  65.613  1.00  0.00    -0.273 C  
HETATM   23  C   UNL     1      -8.713   8.127  66.316  1.00  0.00    -0.172 C  
BRANCH  23  24
HETATM   24  C   UNL     1      -9.536   7.352  67.300  1.00  0.00    -0.191 C  
BRANCH  24  25
HETATM   25  C   UNL     1      -9.320   5.841  67.185  1.00  0.00    -0.116 C  
BRANCH  25  26
HETATM   26  C   UNL     1     -10.247   5.173  66.167  1.00  0.00    -0.258 C  
HETATM   27  C   UNL     1      -9.518   4.116  65.366  1.00  0.00    -0.173 C  
HETATM   28  O   UNL     1      -8.346   3.814  65.491  1.00  0.00    -0.104 OA 
HETATM   29  O   UNL     1     -10.331   3.508  64.468  1.00  0.00    -0.170 OA 
ENDBRANCH  25  26
ENDBRANCH  24  25
ENDBRANCH  23  24
ENDBRANCH  21  22
ENDBRANCH  19  21
ENDBRANCH  11  12
ENDBRANCH  10  11
ENDBRANCH   8  10
ENDBRANCH   7   8
ENDBRANCH   6   7
ENDBRANCH   5   6
ENDBRANCH   4   5
ENDBRANCH   3   4
ENDBRANCH   2   3
TORSDOF 14
ENDMDL
MODEL      129
REMARK 921   NORMALIZED FREE ENERGY PREDICTED BY IDOCK:   -4.42 KCAL/MOL
REMARK 922        TOTAL FREE ENERGY PREDICTED BY IDOCK:  -10.99 KCAL/MOL
REMARK 923 INTER-LIGAND FREE ENERGY PREDICTED BY IDOCK:   -8.51 KCAL/MOL
REMARK 924 INTRA-LIGAND FREE ENERGY PREDICTED BY IDOCK:   -2.48 KCAL/MOL
REMARK 927      BINDING AFFINITY PREDICTED BY RF-SCORE:    0.00 PKD
ROOT
HETATM    1  C   UNL     1     -11.291  11.669  63.944  1.00  0.00    -0.457 C  
HETATM    2  C   UNL     1      -9.940  11.029  64.207  1.00  0.00    -0.373 C  
ENDROOT
BRANCH   2   3
HETATM    3  C   UNL     1      -9.978  10.083  65.409  1.00  0.00    -0.364 C  
BRANCH   3   4
HETATM    4  C   UNL     1      -8.922   8.989  65.253  1.00  0.00    -0.233 C  
BRANCH   4   5
HETATM    5  C   UNL     1      -9.043   7.888  66.308  1.00  0.00    -0.224 C  
BRANCH   5   6
HETATM    6  C   UNL     1     -10.419   7.963  66.982  1.00  0.00    -0.419 C  
BRANCH   6   7
HETATM    7  C   UNL     1     -11.126   6.616  67.007  1.00  0.00    -0.395 C  
BRANCH   7   8
HETATM    8  C   UNL     1     -10.312   5.538  67.727  1.00  0.00    -0.189 C  
HETATM    9  O   UNL     1      -9.713   4.647  67.131  1.00  0.00    -0.166 OA 
BRANCH   8  10
HETATM   10  C   UNL     1     -10.277   5.677  69.235  1.00  0.00    -0.309 C  
BRANCH  10  11
HETATM   11  C   UNL     1     -11.494   6.321  69.917  1.00  0.00    -0.459 C  
BRANCH  11  12
HETATM   12  C   UNL     1     -11.052   7.201  71.117  1.00  0.00    -0.281 C  
HETATM   13  C   UNL     1     -10.883   6.366  72.397  1.00  0.00    -0.236 C  
HETATM   14  O   UNL     1     -12.118   6.089  73.037  1.00  0.00    -0.418 OA 
HETATM   15  C   UNL     1     -10.038   7.236  73.290  1.00  0.00    -0.341 C  
HETATM   16  H   UNL     1     -12.014   5.573  73.828  1.00  0.00     0.000 HD 
HETATM   17  C   UNL     1      -9.004   7.829  72.356  1.00  0.00    -0.150 C  
HETATM   18  O   UNL     1      -8.575   9.061  72.904  1.00  0.00    -0.213 OA 
HETATM   19  C   UNL     1      -9.676   7.923  70.953  1.00  0.00    -0.177 C  
HETATM   20  H   UNL     1      -7.927   9.434  72.318  1.00  0.00     0.000 HD 
BRANCH  19  21
HETATM   21  C   UNL     1      -9.821   9.349  70.386  1.00  0.00    -0.313 C  
BRANCH  21  22
HETATM   22  C   UNL     1     -11.090  10.055  70.794  1.00  0.00    -0.407 C  
HETATM   23  C   UNL     1     -11.837  10.913  70.085  1.00  0.00    -0.438 C  
BRANCH  23  24
HETATM   24  C   UNL     1     -11.552  11.426  68.705  1.00  0.00    -0.378 C  
BRANCH  24  25
HETATM   25  C   UNL     1     -11.789  12.933  68.579  1.00  0.00    -0.350 C  
BRANCH  25  26
HETATM   26  C   UNL     1     -11.826  13.421  67.129  1.00  0.00    -0.429 C  
HETATM   27  C   UNL     1     -10.617  14.271  66.802  1.00  0.00    -0.278 C  
HETATM   28  O   UNL     1      -9.717  14.550  67.570  1.00  0.00    -0.208 OA 
HETATM   29  O   UNL     1     -10.632  14.700  65.517  1.00  0.00    -0.311 OA 
ENDBRANCH  25  26
ENDBRANCH  24  25
ENDBRANCH  23  24
ENDBRANCH  21  22
ENDBRANCH  19  21
ENDBRANCH  11  12
ENDBRANCH  10  11
ENDBRANCH   8  10
ENDBRANCH   7   8
ENDBRANCH   6   7
ENDBRANCH   5   6
ENDBRANCH   4   5
ENDBRANCH   3   4
ENDBRANCH   2   3
TORSDOF 14
ENDMDL
MODEL      130
REMARK 921   NORMALIZED FREE ENERGY PREDICTED BY IDOCK:   -4.41 KCAL/MOL
REMARK 922        TOTAL FREE ENERGY PREDICTED BY IDOCK:  -10.97 KCAL/MOL
REMARK 923 INTER-LIGAND FREE ENERGY PREDICTED BY IDOCK:   -8.34 KCAL/MOL
REMARK 924 INTRA-LIGAND FREE ENERGY PREDICTED BY IDOCK:   -2.63 KCAL/MOL
REMARK 927      BINDING AFFINITY PREDICTED BY RF-SCORE:    0.00 PKD
ROOT
HETATM    1  C   UNL     1     -10.390  15.949  65.343  1.00  0.00    -0.399 C  
HETATM    2  C   UNL     1     -11.527  15.965  64.338  1.00  0.00    -0.268 C  
ENDROOT
BRANCH   2   3
HETATM    3  C   UNL     1     -12.505  14.809  64.561  1.00  0.00    -0.272 C  
BRANCH   3   4
HETATM    4  C   UNL     1     -11.743  13.489  64.676  1.00  0.00    -0.412 C  
BRANCH   4   5
HETATM    5  C   UNL     1     -11.702  12.707  63.362  1.00  0.00    -0.571 C  
BRANCH   5   6
HETATM    6  C   UNL     1     -10.780  11.490  63.511  1.00  0.00    -0.483 C  
BRANCH   6   7
HETATM    7  C   UNL     1     -10.313  11.289  64.945  1.00  0.00    -0.362 C  
BRANCH   7   8
HETATM    8  C   UNL     1      -9.788   9.874  65.199  1.00  0.00    -0.278 C  
HETATM    9  O   UNL     1      -9.123   9.252  64.374  1.00  0.00    -0.189 OA 
BRANCH   8  10
HETATM   10  C   UNL     1     -10.129   9.310  66.563  1.00  0.00    -0.343 C  
BRANCH  10  11
HETATM   11  C   UNL     1     -10.969  10.187  67.504  1.00  0.00    -0.319 C  
BRANCH  11  12
HETATM   12  C   UNL     1     -10.297  10.302  68.898  1.00  0.00    -0.221 C  
HETATM   13  C   UNL     1     -10.784   9.199  69.852  1.00  0.00    -0.231 C  
HETATM   14  O   UNL     1     -12.049   9.487  70.423  1.00  0.00    -0.451 OA 
HETATM   15  C   UNL     1      -9.739   9.167  70.936  1.00  0.00    -0.352 C  
HETATM   16  H   UNL     1     -12.351   8.806  71.012  1.00  0.00     0.000 HD 
HETATM   17  C   UNL     1      -8.429   9.318  70.190  1.00  0.00    -0.191 C  
HETATM   18  O   UNL     1      -7.488   9.897  71.074  1.00  0.00    -0.329 OA 
HETATM   19  C   UNL     1      -8.741  10.152  68.911  1.00  0.00    -0.149 C  
HETATM   20  H   UNL     1      -6.666   9.992  70.606  1.00  0.00     0.000 HD 
BRANCH  19  21
HETATM   21  C   UNL     1      -8.017  11.510  68.817  1.00  0.00    -0.107 C  
BRANCH  21  22
HETATM   22  C   UNL     1      -8.402  12.339  67.618  1.00  0.00    -0.166 C  
HETATM   23  C   UNL     1      -9.204  13.412  67.563  1.00  0.00    -0.219 C  
BRANCH  23  24
HETATM   24  C   UNL     1      -9.965  14.025  68.700  1.00  0.00    -0.203 C  
BRANCH  24  25
HETATM   25  C   UNL     1     -11.454  14.186  68.389  1.00  0.00    -0.334 C  
BRANCH  25  26
HETATM   26  C   UNL     1     -12.130  15.284  69.215  1.00  0.00    -0.280 C  
HETATM   27  C   UNL     1     -12.590  14.762  70.558  1.00  0.00    -0.359 C  
HETATM   28  O   UNL     1     -12.456  13.622  70.960  1.00  0.00    -0.354 OA 
HETATM   29  O   UNL     1     -13.180  15.728  71.303  1.00  0.00    -0.496 OA 
ENDBRANCH  25  26
ENDBRANCH  24  25
ENDBRANCH  23  24
ENDBRANCH  21  22
ENDBRANCH  19  21
ENDBRANCH  11  12
ENDBRANCH  10  11
ENDBRANCH   8  10
ENDBRANCH   7   8
ENDBRANCH   6   7
ENDBRANCH   5   6
ENDBRANCH   4   5
ENDBRANCH   3   4
ENDBRANCH   2   3
TORSDOF 14
ENDMDL
MODEL      131
REMARK 921   NORMALIZED FREE ENERGY PREDICTED BY IDOCK:   -4.40 KCAL/MOL
REMARK 922        TOTAL FREE ENERGY PREDICTED BY IDOCK:  -10.96 KCAL/MOL
REMARK 923 INTER-LIGAND FREE ENERGY PREDICTED BY IDOCK:   -9.18 KCAL/MOL
REMARK 924 INTRA-LIGAND FREE ENERGY PREDICTED BY IDOCK:   -1.79 KCAL/MOL
REMARK 927      BINDING AFFINITY PREDICTED BY RF-SCORE:    0.00 PKD
ROOT
HETATM    1  C   UNL     1     -10.334  14.998  66.009  1.00  0.00    -0.326 C  
HETATM    2  C   UNL     1     -11.495  14.850  65.041  1.00  0.00    -0.379 C  
ENDROOT
BRANCH   2   3
HETATM    3  C   UNL     1     -12.549  13.868  65.556  1.00  0.00    -0.560 C  
BRANCH   3   4
HETATM    4  C   UNL     1     -12.073  12.430  65.355  1.00  0.00    -0.428 C  
BRANCH   4   5
HETATM    5  C   UNL     1     -11.684  12.127  63.907  1.00  0.00    -0.546 C  
BRANCH   5   6
HETATM    6  C   UNL     1     -10.585  11.058  63.878  1.00  0.00    -0.382 C  
BRANCH   6   7
HETATM    7  C   UNL     1     -10.229  10.554  65.269  1.00  0.00    -0.352 C  
BRANCH   7   8
HETATM    8  C   UNL     1      -8.968   9.688  65.275  1.00  0.00    -0.204 C  
HETATM    9  O   UNL     1      -7.929  10.019  64.709  1.00  0.00    -0.134 OA 
BRANCH   8  10
HETATM   10  C   UNL     1      -9.092   8.399  66.063  1.00  0.00    -0.235 C  
BRANCH  10  11
HETATM   11  C   UNL     1     -10.393   8.168  66.847  1.00  0.00    -0.401 C  
BRANCH  11  12
HETATM   12  C   UNL     1     -10.367   6.793  67.565  1.00  0.00    -0.267 C  
HETATM   13  C   UNL     1     -10.166   5.640  66.568  1.00  0.00    -0.211 C  
HETATM   14  O   UNL     1     -11.361   5.282  65.895  1.00  0.00    -0.793 OA 
HETATM   15  C   UNL     1      -9.710   4.490  67.428  1.00  0.00    -0.218 C  
HETATM   16  H   UNL     1     -11.237   4.569  65.279  1.00  0.00     0.000 HD 
HETATM   17  C   UNL     1      -8.747   5.124  68.411  1.00  0.00    -0.101 C  
HETATM   18  O   UNL     1      -8.736   4.333  69.583  1.00  0.00    -0.071 OA 
HETATM   19  C   UNL     1      -9.218   6.596  68.606  1.00  0.00    -0.128 C  
HETATM   20  H   UNL     1      -8.132   4.730  70.200  1.00  0.00     0.000 HD 
BRANCH  19  21
HETATM   21  C   UNL     1      -9.651   6.965  70.039  1.00  0.00    -0.158 C  
BRANCH  21  22
HETATM   22  C   UNL     1     -11.137   6.878  70.282  1.00  0.00    -0.342 C  
HETATM   23  C   UNL     1     -11.944   7.774  70.868  1.00  0.00    -0.229 C  
BRANCH  23  24
HETATM   24  C   UNL     1     -11.542   9.081  71.481  1.00  0.00    -0.413 C  
BRANCH  24  25
HETATM   25  C   UNL     1     -12.291  10.269  70.873  1.00  0.00    -0.471 C  
BRANCH  25  26
HETATM   26  C   UNL     1     -13.134  11.039  71.892  1.00  0.00    -0.525 C  
HETATM   27  C   UNL     1     -12.916  12.532  71.775  1.00  0.00    -0.313 C  
HETATM   28  O   UNL     1     -12.171  13.080  70.985  1.00  0.00    -0.319 OA 
HETATM   29  O   UNL     1     -13.666  13.226  72.665  1.00  0.00    -0.674 OA 
ENDBRANCH  25  26
ENDBRANCH  24  25
ENDBRANCH  23  24
ENDBRANCH  21  22
ENDBRANCH  19  21
ENDBRANCH  11  12
ENDBRANCH  10  11
ENDBRANCH   8  10
ENDBRANCH   7   8
ENDBRANCH   6   7
ENDBRANCH   5   6
ENDBRANCH   4   5
ENDBRANCH   3   4
ENDBRANCH   2   3
TORSDOF 14
ENDMDL
MODEL      132
REMARK 921   NORMALIZED FREE ENERGY PREDICTED BY IDOCK:   -4.40 KCAL/MOL
REMARK 922        TOTAL FREE ENERGY PREDICTED BY IDOCK:  -10.96 KCAL/MOL
REMARK 923 INTER-LIGAND FREE ENERGY PREDICTED BY IDOCK:   -8.94 KCAL/MOL
REMARK 924 INTRA-LIGAND FREE ENERGY PREDICTED BY IDOCK:   -2.02 KCAL/MOL
REMARK 927      BINDING AFFINITY PREDICTED BY RF-SCORE:    0.00 PKD
ROOT
HETATM    1  C   UNL     1     -10.517  19.879  65.741  1.00  0.00    -0.518 C  
HETATM    2  C   UNL     1     -10.386  19.383  67.170  1.00  0.00    -0.548 C  
ENDROOT
BRANCH   2   3
HETATM    3  C   UNL     1     -10.458  17.857  67.256  1.00  0.00    -0.373 C  
BRANCH   3   4
HETATM    4  C   UNL     1     -10.361  17.246  65.858  1.00  0.00    -0.287 C  
BRANCH   4   5
HETATM    5  C   UNL     1     -10.283  15.718  65.879  1.00  0.00    -0.377 C  
BRANCH   5   6
HETATM    6  C   UNL     1     -11.172  15.138  64.773  1.00  0.00    -0.396 C  
BRANCH   6   7
HETATM    7  C   UNL     1     -12.439  14.499  65.323  1.00  0.00    -0.281 C  
BRANCH   7   8
HETATM    8  C   UNL     1     -12.439  12.976  65.179  1.00  0.00    -0.496 C  
HETATM    9  O   UNL     1     -12.765  12.404  64.141  1.00  0.00    -0.654 OA 
BRANCH   8  10
HETATM   10  C   UNL     1     -11.974  12.226  66.411  1.00  0.00    -0.286 C  
BRANCH  10  11
HETATM   11  C   UNL     1     -10.482  11.873  66.506  1.00  0.00    -0.256 C  
BRANCH  11  12
HETATM   12  C   UNL     1     -10.240  10.391  66.113  1.00  0.00    -0.288 C  
HETATM   13  C   UNL     1      -9.405  10.277  64.828  1.00  0.00    -0.260 C  
HETATM   14  O   UNL     1     -10.175  10.477  63.654  1.00  0.00    -0.464 OA 
HETATM   15  C   UNL     1      -8.887   8.862  64.853  1.00  0.00    -0.161 C  
HETATM   16  H   UNL     1      -9.659  10.406  62.859  1.00  0.00     0.000 HD 
HETATM   17  C   UNL     1      -8.504   8.636  66.302  1.00  0.00    -0.125 C  
HETATM   18  O   UNL     1      -8.592   7.249  66.565  1.00  0.00    -0.121 OA 
HETATM   19  C   UNL     1      -9.448   9.537  67.155  1.00  0.00    -0.187 C  
HETATM   20  H   UNL     1      -8.352   7.107  67.474  1.00  0.00     0.000 HD 
BRANCH  19  21
HETATM   21  C   UNL     1     -10.375   8.783  68.128  1.00  0.00    -0.266 C  
BRANCH  21  22
HETATM   22  C   UNL     1     -10.127   9.085  69.585  1.00  0.00    -0.202 C  
HETATM   23  C   UNL     1     -10.886   9.789  70.436  1.00  0.00    -0.370 C  
BRANCH  23  24
HETATM   24  C   UNL     1     -12.165  10.503  70.121  1.00  0.00    -0.358 C  
BRANCH  24  25
HETATM   25  C   UNL     1     -12.169  11.949  70.624  1.00  0.00    -0.424 C  
BRANCH  25  26
HETATM   26  C   UNL     1     -12.152  12.983  69.495  1.00  0.00    -0.289 C  
HETATM   27  C   UNL     1     -12.135  14.394  70.040  1.00  0.00    -0.343 C  
HETATM   28  O   UNL     1     -12.136  14.701  71.217  1.00  0.00    -0.321 OA 
HETATM   29  O   UNL     1     -12.108  15.320  69.051  1.00  0.00    -0.295 OA 
ENDBRANCH  25  26
ENDBRANCH  24  25
ENDBRANCH  23  24
ENDBRANCH  21  22
ENDBRANCH  19  21
ENDBRANCH  11  12
ENDBRANCH  10  11
ENDBRANCH   8  10
ENDBRANCH   7   8
ENDBRANCH   6   7
ENDBRANCH   5   6
ENDBRANCH   4   5
ENDBRANCH   3   4
ENDBRANCH   2   3
TORSDOF 14
ENDMDL
MODEL      133
REMARK 921   NORMALIZED FREE ENERGY PREDICTED BY IDOCK:   -4.39 KCAL/MOL
REMARK 922        TOTAL FREE ENERGY PREDICTED BY IDOCK:  -10.95 KCAL/MOL
REMARK 923 INTER-LIGAND FREE ENERGY PREDICTED BY IDOCK:   -8.90 KCAL/MOL
REMARK 924 INTRA-LIGAND FREE ENERGY PREDICTED BY IDOCK:   -2.05 KCAL/MOL
REMARK 927      BINDING AFFINITY PREDICTED BY RF-SCORE:    0.00 PKD
ROOT
HETATM    1  C   UNL     1      -6.846   9.328  65.819  1.00  0.00    -0.084 C  
HETATM    2  C   UNL     1      -8.006  10.199  65.371  1.00  0.00    -0.144 C  
ENDROOT
BRANCH   2   3
HETATM    3  C   UNL     1      -8.987   9.432  64.481  1.00  0.00    -0.227 C  
BRANCH   3   4
HETATM    4  C   UNL     1      -9.245  10.208  63.190  1.00  0.00    -0.316 C  
BRANCH   4   5
HETATM    5  C   UNL     1      -9.728  11.638  63.439  1.00  0.00    -0.369 C  
BRANCH   5   6
HETATM    6  C   UNL     1     -11.192  11.619  63.894  1.00  0.00    -0.479 C  
BRANCH   6   7
HETATM    7  C   UNL     1     -12.001  12.760  63.292  1.00  0.00    -0.522 C  
BRANCH   7   8
HETATM    8  C   UNL     1     -12.338  13.844  64.318  1.00  0.00    -0.348 C  
HETATM    9  O   UNL     1     -12.557  15.012  64.005  1.00  0.00    -0.817 OA 
BRANCH   8  10
HETATM   10  C   UNL     1     -12.412  13.356  65.750  1.00  0.00    -0.496 C  
BRANCH  10  11
HETATM   11  C   UNL     1     -12.142  14.379  66.864  1.00  0.00    -0.386 C  
BRANCH  11  12
HETATM   12  C   UNL     1     -10.700  14.225  67.416  1.00  0.00    -0.282 C  
HETATM   13  C   UNL     1     -10.509  12.875  68.127  1.00  0.00    -0.237 C  
HETATM   14  O   UNL     1     -11.031  12.871  69.446  1.00  0.00    -0.437 OA 
HETATM   15  C   UNL     1      -9.014  12.697  68.177  1.00  0.00    -0.199 C  
HETATM   16  H   UNL     1     -10.913  12.037  69.885  1.00  0.00     0.000 HD 
HETATM   17  C   UNL     1      -8.541  13.173  66.818  1.00  0.00    -0.036 C  
HETATM   18  O   UNL     1      -7.206  13.620  66.953  1.00  0.00    -0.333 OA 
HETATM   19  C   UNL     1      -9.561  14.253  66.347  1.00  0.00    -0.317 C  
HETATM   20  H   UNL     1      -6.909  13.919  66.101  1.00  0.00     0.000 HD 
BRANCH  19  21
HETATM   21  C   UNL     1      -8.978  15.666  66.143  1.00  0.00    -0.362 C  
BRANCH  21  22
HETATM   22  C   UNL     1      -9.982  16.694  65.686  1.00  0.00    -0.197 C  
HETATM   23  C   UNL     1     -10.625  17.618  66.414  1.00  0.00    -0.208 C  
BRANCH  23  24
HETATM   24  C   UNL     1     -10.533  17.818  67.897  1.00  0.00    -0.401 C  
BRANCH  24  25
HETATM   25  C   UNL     1     -10.121  19.243  68.272  1.00  0.00    -0.516 C  
BRANCH  25  26
HETATM   26  C   UNL     1      -9.065  19.835  67.335  1.00  0.00    -0.415 C  
HETATM   27  C   UNL     1      -7.673  19.376  67.710  1.00  0.00    -0.277 C  
HETATM   28  O   UNL     1      -7.395  18.634  68.634  1.00  0.00    -0.287 OA 
HETATM   29  O   UNL     1      -6.730  19.884  66.881  1.00  0.00    -0.202 OA 
ENDBRANCH  25  26
ENDBRANCH  24  25
ENDBRANCH  23  24
ENDBRANCH  21  22
ENDBRANCH  19  21
ENDBRANCH  11  12
ENDBRANCH  10  11
ENDBRANCH   8  10
ENDBRANCH   7   8
ENDBRANCH   6   7
ENDBRANCH   5   6
ENDBRANCH   4   5
ENDBRANCH   3   4
ENDBRANCH   2   3
TORSDOF 14
ENDMDL
MODEL      134
REMARK 921   NORMALIZED FREE ENERGY PREDICTED BY IDOCK:   -4.39 KCAL/MOL
REMARK 922        TOTAL FREE ENERGY PREDICTED BY IDOCK:  -10.93 KCAL/MOL
REMARK 923 INTER-LIGAND FREE ENERGY PREDICTED BY IDOCK:   -8.57 KCAL/MOL
REMARK 924 INTRA-LIGAND FREE ENERGY PREDICTED BY IDOCK:   -2.36 KCAL/MOL
REMARK 927      BINDING AFFINITY PREDICTED BY RF-SCORE:    0.00 PKD
ROOT
HETATM    1  C   UNL     1      -6.316  14.722  68.312  1.00  0.00    -0.123 C  
HETATM    2  C   UNL     1      -7.309  15.851  68.522  1.00  0.00    -0.127 C  
ENDROOT
BRANCH   2   3
HETATM    3  C   UNL     1      -6.667  17.225  68.317  1.00  0.00    -0.177 C  
BRANCH   3   4
HETATM    4  C   UNL     1      -7.717  18.325  68.464  1.00  0.00    -0.319 C  
BRANCH   4   5
HETATM    5  C   UNL     1      -8.985  17.849  69.176  1.00  0.00     0.108 C  
BRANCH   5   6
HETATM    6  C   UNL     1     -10.218  18.475  68.515  1.00  0.00    -0.389 C  
BRANCH   6   7
HETATM    7  C   UNL     1      -9.889  19.138  67.185  1.00  0.00    -0.411 C  
BRANCH   7   8
HETATM    8  C   UNL     1     -10.333  18.300  65.985  1.00  0.00    -0.363 C  
HETATM    9  O   UNL     1     -10.937  18.775  65.026  1.00  0.00    -0.520 OA 
BRANCH   8  10
HETATM   10  C   UNL     1      -9.942  16.837  66.058  1.00  0.00    -0.334 C  
BRANCH  10  11
HETATM   11  C   UNL     1     -10.888  15.816  65.410  1.00  0.00    -0.376 C  
BRANCH  11  12
HETATM   12  C   UNL     1     -10.925  14.500  66.233  1.00  0.00    -0.323 C  
HETATM   13  C   UNL     1      -9.789  13.548  65.826  1.00  0.00    -0.201 C  
HETATM   14  O   UNL     1     -10.074  12.830  64.637  1.00  0.00    -0.458 OA 
HETATM   15  C   UNL     1      -9.687  12.587  66.981  1.00  0.00    -0.213 C  
HETATM   16  H   UNL     1      -9.372  12.242  64.385  1.00  0.00     0.000 HD 
HETATM   17  C   UNL     1      -9.848  13.465  68.206  1.00  0.00    -0.235 C  
HETATM   18  O   UNL     1     -10.368  12.664  69.251  1.00  0.00    -0.424 OA 
HETATM   19  C   UNL     1     -10.746  14.663  67.776  1.00  0.00    -0.265 C  
HETATM   20  H   UNL     1     -10.469  13.214  70.019  1.00  0.00     0.000 HD 
BRANCH  19  21
HETATM   21  C   UNL     1     -12.093  14.777  68.518  1.00  0.00    -0.210 C  
BRANCH  21  22
HETATM   22  C   UNL     1     -12.105  15.789  69.636  1.00  0.00    -0.282 C  
HETATM   23  C   UNL     1     -12.652  15.684  70.856  1.00  0.00    -0.503 C  
BRANCH  23  24
HETATM   24  C   UNL     1     -13.444  14.529  71.390  1.00  0.00    -0.445 C  
BRANCH  24  25
HETATM   25  C   UNL     1     -12.635  13.230  71.428  1.00  0.00    -0.365 C  
BRANCH  25  26
HETATM   26  C   UNL     1     -13.341  12.098  72.178  1.00  0.00    -0.438 C  
HETATM   27  C   UNL     1     -12.794  10.745  71.779  1.00  0.00    -0.423 C  
HETATM   28  O   UNL     1     -11.908  10.549  70.968  1.00  0.00    -0.350 OA 
HETATM   29  O   UNL     1     -13.403   9.735  72.444  1.00  0.00    -0.412 OA 
ENDBRANCH  25  26
ENDBRANCH  24  25
ENDBRANCH  23  24
ENDBRANCH  21  22
ENDBRANCH  19  21
ENDBRANCH  11  12
ENDBRANCH  10  11
ENDBRANCH   8  10
ENDBRANCH   7   8
ENDBRANCH   6   7
ENDBRANCH   5   6
ENDBRANCH   4   5
ENDBRANCH   3   4
ENDBRANCH   2   3
TORSDOF 14
ENDMDL
MODEL      135
REMARK 921   NORMALIZED FREE ENERGY PREDICTED BY IDOCK:   -4.38 KCAL/MOL
REMARK 922        TOTAL FREE ENERGY PREDICTED BY IDOCK:  -10.92 KCAL/MOL
REMARK 923 INTER-LIGAND FREE ENERGY PREDICTED BY IDOCK:   -8.79 KCAL/MOL
REMARK 924 INTRA-LIGAND FREE ENERGY PREDICTED BY IDOCK:   -2.13 KCAL/MOL
REMARK 927      BINDING AFFINITY PREDICTED BY RF-SCORE:    0.00 PKD
ROOT
HETATM    1  C   UNL     1     -10.622   5.390  71.326  1.00  0.00    -0.276 C  
HETATM    2  C   UNL     1     -11.339   6.037  72.498  1.00  0.00    -0.344 C  
ENDROOT
BRANCH   2   3
HETATM    3  C   UNL     1     -11.553   7.536  72.283  1.00  0.00    -0.354 C  
BRANCH   3   4
HETATM    4  C   UNL     1     -10.575   8.062  71.232  1.00  0.00    -0.245 C  
BRANCH   4   5
HETATM    5  C   UNL     1      -9.315   8.678  71.844  1.00  0.00    -0.357 C  
BRANCH   5   6
HETATM    6  C   UNL     1      -8.406   9.212  70.731  1.00  0.00    -0.248 C  
BRANCH   6   7
HETATM    7  C   UNL     1      -9.102   9.243  69.378  1.00  0.00    -0.152 C  
BRANCH   7   8
HETATM    8  C   UNL     1      -8.532  10.317  68.449  1.00  0.00    -0.124 C  
HETATM    9  O   UNL     1      -7.331  10.561  68.370  1.00  0.00    -0.081 OA 
BRANCH   8  10
HETATM   10  C   UNL     1      -9.568  11.037  67.608  1.00  0.00    -0.181 C  
BRANCH  10  11
HETATM   11  C   UNL     1     -11.012  10.515  67.659  1.00  0.00    -0.375 C  
BRANCH  11  12
HETATM   12  C   UNL     1     -11.938  11.526  68.386  1.00  0.00    -0.268 C  
HETATM   13  C   UNL     1     -12.020  11.232  69.893  1.00  0.00    -0.365 C  
HETATM   14  O   UNL     1     -12.913  10.173  70.198  1.00  0.00    -0.580 OA 
HETATM   15  C   UNL     1     -12.542  12.515  70.486  1.00  0.00    -0.177 C  
HETATM   16  H   UNL     1     -12.964   9.992  71.129  1.00  0.00     0.000 HD 
HETATM   17  C   UNL     1     -11.799  13.599  69.731  1.00  0.00    -0.327 C  
HETATM   18  O   UNL     1     -12.597  14.767  69.746  1.00  0.00    -0.541 OA 
HETATM   19  C   UNL     1     -11.491  13.021  68.317  1.00  0.00    -0.347 C  
HETATM   20  H   UNL     1     -12.132  15.446  69.273  1.00  0.00     0.000 HD 
BRANCH  19  21
HETATM   21  C   UNL     1     -12.141  13.777  67.141  1.00  0.00    -0.416 C  
BRANCH  21  22
HETATM   22  C   UNL     1     -11.537  13.469  65.794  1.00  0.00    -0.351 C  
HETATM   23  C   UNL     1     -10.944  14.306  64.930  1.00  0.00    -0.413 C  
BRANCH  23  24
HETATM   24  C   UNL     1     -10.784  15.789  65.080  1.00  0.00    -0.455 C  
BRANCH  24  25
HETATM   25  C   UNL     1      -9.653  16.162  66.042  1.00  0.00    -0.381 C  
BRANCH  25  26
HETATM   26  C   UNL     1      -9.710  17.619  66.507  1.00  0.00    -0.310 C  
HETATM   27  C   UNL     1     -10.479  17.755  67.803  1.00  0.00    -0.397 C  
HETATM   28  O   UNL     1     -10.999  16.843  68.419  1.00  0.00    -0.356 OA 
HETATM   29  O   UNL     1     -10.528  19.039  68.233  1.00  0.00    -0.366 OA 
ENDBRANCH  25  26
ENDBRANCH  24  25
ENDBRANCH  23  24
ENDBRANCH  21  22
ENDBRANCH  19  21
ENDBRANCH  11  12
ENDBRANCH  10  11
ENDBRANCH   8  10
ENDBRANCH   7   8
ENDBRANCH   6   7
ENDBRANCH   5   6
ENDBRANCH   4   5
ENDBRANCH   3   4
ENDBRANCH   2   3
TORSDOF 14
ENDMDL
MODEL      136
REMARK 921   NORMALIZED FREE ENERGY PREDICTED BY IDOCK:   -4.38 KCAL/MOL
REMARK 922        TOTAL FREE ENERGY PREDICTED BY IDOCK:  -10.91 KCAL/MOL
REMARK 923 INTER-LIGAND FREE ENERGY PREDICTED BY IDOCK:   -8.20 KCAL/MOL
REMARK 924 INTRA-LIGAND FREE ENERGY PREDICTED BY IDOCK:   -2.72 KCAL/MOL
REMARK 927      BINDING AFFINITY PREDICTED BY RF-SCORE:    0.00 PKD
ROOT
HETATM    1  C   UNL     1     -10.942  15.146  67.296  1.00  0.00    -0.327 C  
HETATM    2  C   UNL     1     -10.539  16.585  67.562  1.00  0.00    -0.313 C  
ENDROOT
BRANCH   2   3
HETATM    3  C   UNL     1     -10.536  16.912  69.057  1.00  0.00    -0.338 C  
BRANCH   3   4
HETATM    4  C   UNL     1     -10.387  15.631  69.876  1.00  0.00    -0.322 C  
BRANCH   4   5
HETATM    5  C   UNL     1     -11.403  15.529  71.015  1.00  0.00    -0.421 C  
BRANCH   5   6
HETATM    6  C   UNL     1     -12.598  14.677  70.570  1.00  0.00    -0.409 C  
BRANCH   6   7
HETATM    7  C   UNL     1     -13.175  13.848  71.708  1.00  0.00    -0.455 C  
BRANCH   7   8
HETATM    8  C   UNL     1     -12.918  12.350  71.532  1.00  0.00    -0.285 C  
HETATM    9  O   UNL     1     -13.487  11.492  72.202  1.00  0.00    -0.410 OA 
BRANCH   8  10
HETATM   10  C   UNL     1     -11.925  12.005  70.440  1.00  0.00    -0.379 C  
BRANCH  10  11
HETATM   11  C   UNL     1     -12.279  10.844  69.499  1.00  0.00    -0.331 C  
BRANCH  11  12
HETATM   12  C   UNL     1     -11.246   9.693  69.630  1.00  0.00    -0.176 C  
HETATM   13  C   UNL     1     -10.227   9.716  68.479  1.00  0.00    -0.193 C  
HETATM   14  O   UNL     1     -10.736   9.142  67.286  1.00  0.00    -0.304 OA 
HETATM   15  C   UNL     1      -9.082   8.881  68.989  1.00  0.00    -0.137 C  
HETATM   16  H   UNL     1     -10.107   9.156  66.575  1.00  0.00     0.000 HD 
HETATM   17  C   UNL     1      -8.941   9.296  70.440  1.00  0.00    -0.239 C  
HETATM   18  O   UNL     1      -8.364   8.216  71.149  1.00  0.00    -0.106 OA 
HETATM   19  C   UNL     1     -10.361   9.724  70.918  1.00  0.00    -0.245 C  
HETATM   20  H   UNL     1      -8.276   8.476  72.058  1.00  0.00     0.000 HD 
BRANCH  19  21
HETATM   21  C   UNL     1     -10.953   8.879  72.062  1.00  0.00    -0.412 C  
BRANCH  21  22
HETATM   22  C   UNL     1     -12.084   7.972  71.645  1.00  0.00    -0.339 C  
HETATM   23  C   UNL     1     -12.063   6.648  71.437  1.00  0.00    -0.400 C  
BRANCH  23  24
HETATM   24  C   UNL     1     -10.870   5.743  71.521  1.00  0.00    -0.316 C  
BRANCH  24  25
HETATM   25  C   UNL     1     -10.259   5.449  70.149  1.00  0.00    -0.342 C  
BRANCH  25  26
HETATM   26  C   UNL     1     -11.075   6.021  68.987  1.00  0.00    -0.377 C  
HETATM   27  C   UNL     1     -10.436   5.702  67.653  1.00  0.00    -0.219 C  
HETATM   28  O   UNL     1      -9.406   5.075  67.492  1.00  0.00    -0.117 OA 
HETATM   29  O   UNL     1     -11.155   6.193  66.615  1.00  0.00    -0.284 OA 
ENDBRANCH  25  26
ENDBRANCH  24  25
ENDBRANCH  23  24
ENDBRANCH  21  22
ENDBRANCH  19  21
ENDBRANCH  11  12
ENDBRANCH  10  11
ENDBRANCH   8  10
ENDBRANCH   7   8
ENDBRANCH   6   7
ENDBRANCH   5   6
ENDBRANCH   4   5
ENDBRANCH   3   4
ENDBRANCH   2   3
TORSDOF 14
ENDMDL
MODEL      137
REMARK 921   NORMALIZED FREE ENERGY PREDICTED BY IDOCK:   -4.36 KCAL/MOL
REMARK 922        TOTAL FREE ENERGY PREDICTED BY IDOCK:  -10.89 KCAL/MOL
REMARK 923 INTER-LIGAND FREE ENERGY PREDICTED BY IDOCK:   -7.80 KCAL/MOL
REMARK 924 INTRA-LIGAND FREE ENERGY PREDICTED BY IDOCK:   -3.09 KCAL/MOL
REMARK 927      BINDING AFFINITY PREDICTED BY RF-SCORE:    0.00 PKD
ROOT
HETATM    1  C   UNL     1     -10.005  19.051  68.451  1.00  0.00    -0.473 C  
HETATM    2  C   UNL     1     -10.751  19.674  67.285  1.00  0.00    -0.583 C  
ENDROOT
BRANCH   2   3
HETATM    3  C   UNL     1     -10.294  19.100  65.942  1.00  0.00    -0.463 C  
BRANCH   3   4
HETATM    4  C   UNL     1     -10.161  17.580  66.035  1.00  0.00    -0.306 C  
BRANCH   4   5
HETATM    5  C   UNL     1     -11.172  16.838  65.159  1.00  0.00     0.076 C  
BRANCH   5   6
HETATM    6  C   UNL     1     -10.744  15.374  64.999  1.00  0.00    -0.460 C  
BRANCH   6   7
HETATM    7  C   UNL     1     -11.846  14.402  65.396  1.00  0.00    -0.366 C  
BRANCH   7   8
HETATM    8  C   UNL     1     -11.297  13.116  66.019  1.00  0.00    -0.308 C  
HETATM    9  O   UNL     1     -12.011  12.160  66.312  1.00  0.00    -0.605 OA 
BRANCH   8  10
HETATM   10  C   UNL     1      -9.795  13.103  66.216  1.00  0.00    -0.284 C  
BRANCH  10  11
HETATM   11  C   UNL     1      -9.254  12.477  67.511  1.00  0.00    -0.188 C  
BRANCH  11  12
HETATM   12  C   UNL     1      -8.355  13.483  68.276  1.00  0.00    -0.165 C  
HETATM   13  C   UNL     1      -6.898  13.422  67.789  1.00  0.00    -0.160 C  
HETATM   14  O   UNL     1      -6.179  12.333  68.346  1.00  0.00    -0.050 OA 
HETATM   15  C   UNL     1      -6.298  14.718  68.268  1.00  0.00    -0.123 C  
HETATM   16  H   UNL     1      -5.279  12.295  68.045  1.00  0.00     0.000 HD 
HETATM   17  C   UNL     1      -7.383  15.744  68.009  1.00  0.00    -0.125 C  
HETATM   18  O   UNL     1      -7.205  16.807  68.925  1.00  0.00    -0.202 OA 
HETATM   19  C   UNL     1      -8.742  14.989  68.120  1.00  0.00    -0.165 C  
HETATM   20  H   UNL     1      -7.886  17.450  68.763  1.00  0.00     0.000 HD 
BRANCH  19  21
HETATM   21  C   UNL     1      -9.677  15.478  69.243  1.00  0.00    -0.272 C  
BRANCH  21  22
HETATM   22  C   UNL     1     -11.127  15.585  68.844  1.00  0.00    -0.282 C  
HETATM   23  C   UNL     1     -12.220  15.417  69.602  1.00  0.00    -0.312 C  
BRANCH  23  24
HETATM   24  C   UNL     1     -12.259  15.025  71.048  1.00  0.00    -0.386 C  
BRANCH  24  25
HETATM   25  C   UNL     1     -12.474  13.522  71.243  1.00  0.00    -0.388 C  
BRANCH  25  26
HETATM   26  C   UNL     1     -12.232  12.706  69.972  1.00  0.00    -0.267 C  
HETATM   27  C   UNL     1     -12.247  11.220  70.258  1.00  0.00    -0.345 C  
HETATM   28  O   UNL     1     -12.425  10.709  71.347  1.00  0.00    -0.368 OA 
HETATM   29  O   UNL     1     -12.045  10.485  69.137  1.00  0.00    -0.226 OA 
ENDBRANCH  25  26
ENDBRANCH  24  25
ENDBRANCH  23  24
ENDBRANCH  21  22
ENDBRANCH  19  21
ENDBRANCH  11  12
ENDBRANCH  10  11
ENDBRANCH   8  10
ENDBRANCH   7   8
ENDBRANCH   6   7
ENDBRANCH   5   6
ENDBRANCH   4   5
ENDBRANCH   3   4
ENDBRANCH   2   3
TORSDOF 14
ENDMDL
MODEL      138
REMARK 921   NORMALIZED FREE ENERGY PREDICTED BY IDOCK:   -4.36 KCAL/MOL
REMARK 922        TOTAL FREE ENERGY PREDICTED BY IDOCK:  -10.88 KCAL/MOL
REMARK 923 INTER-LIGAND FREE ENERGY PREDICTED BY IDOCK:   -8.78 KCAL/MOL
REMARK 924 INTRA-LIGAND FREE ENERGY PREDICTED BY IDOCK:   -2.09 KCAL/MOL
REMARK 927      BINDING AFFINITY PREDICTED BY RF-SCORE:    0.00 PKD
ROOT
HETATM    1  C   UNL     1     -10.625  19.819  66.236  1.00  0.00    -0.572 C  
HETATM    2  C   UNL     1      -9.612  19.557  67.336  1.00  0.00    -0.436 C  
ENDROOT
BRANCH   2   3
HETATM    3  C   UNL     1     -10.169  18.630  68.419  1.00  0.00    -0.415 C  
BRANCH   3   4
HETATM    4  C   UNL     1     -10.025  17.171  67.988  1.00  0.00    -0.295 C  
BRANCH   4   5
HETATM    5  C   UNL     1     -11.083  16.258  68.610  1.00  0.00    -0.356 C  
BRANCH   5   6
HETATM    6  C   UNL     1     -10.620  14.798  68.532  1.00  0.00    -0.248 C  
BRANCH   6   7
HETATM    7  C   UNL     1     -11.775  13.836  68.293  1.00  0.00    -0.394 C  
BRANCH   7   8
HETATM    8  C   UNL     1     -11.939  12.823  69.429  1.00  0.00    -0.263 C  
HETATM    9  O   UNL     1     -12.514  13.090  70.481  1.00  0.00    -0.305 OA 
BRANCH   8  10
HETATM   10  C   UNL     1     -11.363  11.452  69.139  1.00  0.00    -0.353 C  
BRANCH  10  11
HETATM   11  C   UNL     1      -9.885  11.376  68.727  1.00  0.00    -0.175 C  
BRANCH  11  12
HETATM   12  C   UNL     1      -9.351   9.924  68.856  1.00  0.00    -0.170 C  
HETATM   13  C   UNL     1      -9.043   9.564  70.318  1.00  0.00    -0.253 C  
HETATM   14  O   UNL     1      -7.797  10.077  70.759  1.00  0.00    -0.406 OA 
HETATM   15  C   UNL     1      -8.996   8.058  70.320  1.00  0.00    -0.147 C  
HETATM   16  H   UNL     1      -7.607   9.854  71.663  1.00  0.00     0.000 HD 
HETATM   17  C   UNL     1     -10.149   7.652  69.425  1.00  0.00    -0.196 C  
HETATM   18  O   UNL     1      -9.850   6.383  68.876  1.00  0.00    -0.134 OA 
HETATM   19  C   UNL     1     -10.331   8.800  68.388  1.00  0.00    -0.242 C  
HETATM   20  H   UNL     1     -10.573   6.128  68.315  1.00  0.00     0.000 HD 
BRANCH  19  21
HETATM   21  C   UNL     1     -10.109   8.399  66.916  1.00  0.00    -0.364 C  
BRANCH  21  22
HETATM   22  C   UNL     1      -8.886   9.012  66.281  1.00  0.00    -0.180 C  
HETATM   23  C   UNL     1      -8.819   9.965  65.341  1.00  0.00    -0.196 C  
BRANCH  23  24
HETATM   24  C   UNL     1      -9.971  10.626  64.645  1.00  0.00    -0.401 C  
BRANCH  24  25
HETATM   25  C   UNL     1     -10.247  12.035  65.177  1.00  0.00    -0.308 C  
BRANCH  25  26
HETATM   26  C   UNL     1     -11.493  12.680  64.565  1.00  0.00    -0.389 C  
HETATM   27  C   UNL     1     -11.414  14.190  64.614  1.00  0.00    -0.387 C  
HETATM   28  O   UNL     1     -10.494  14.838  65.076  1.00  0.00    -0.397 OA 
HETATM   29  O   UNL     1     -12.506  14.773  64.065  1.00  0.00    -0.803 OA 
ENDBRANCH  25  26
ENDBRANCH  24  25
ENDBRANCH  23  24
ENDBRANCH  21  22
ENDBRANCH  19  21
ENDBRANCH  11  12
ENDBRANCH  10  11
ENDBRANCH   8  10
ENDBRANCH   7   8
ENDBRANCH   6   7
ENDBRANCH   5   6
ENDBRANCH   4   5
ENDBRANCH   3   4
ENDBRANCH   2   3
TORSDOF 14
ENDMDL
MODEL      139
REMARK 921   NORMALIZED FREE ENERGY PREDICTED BY IDOCK:   -4.36 KCAL/MOL
REMARK 922        TOTAL FREE ENERGY PREDICTED BY IDOCK:  -10.88 KCAL/MOL
REMARK 923 INTER-LIGAND FREE ENERGY PREDICTED BY IDOCK:   -8.66 KCAL/MOL
REMARK 924 INTRA-LIGAND FREE ENERGY PREDICTED BY IDOCK:   -2.22 KCAL/MOL
REMARK 927      BINDING AFFINITY PREDICTED BY RF-SCORE:    0.00 PKD
ROOT
HETATM    1  C   UNL     1      -7.678   8.337  64.004  1.00  0.00    -0.140 C  
HETATM    2  C   UNL     1      -8.611   9.210  63.184  1.00  0.00    -0.186 C  
ENDROOT
BRANCH   2   3
HETATM    3  C   UNL     1      -9.038  10.466  63.946  1.00  0.00    -0.272 C  
BRANCH   3   4
HETATM    4  C   UNL     1     -10.006  11.292  63.100  1.00  0.00    -0.398 C  
BRANCH   4   5
HETATM    5  C   UNL     1     -10.735  12.368  63.906  1.00  0.00    -0.465 C  
BRANCH   5   6
HETATM    6  C   UNL     1     -10.583  12.086  65.405  1.00  0.00    -0.319 C  
BRANCH   6   7
HETATM    7  C   UNL     1     -10.099  13.304  66.179  1.00  0.00    -0.293 C  
BRANCH   7   8
HETATM    8  C   UNL     1     -11.221  13.983  66.967  1.00  0.00    -0.313 C  
HETATM    9  O   UNL     1     -12.331  14.205  66.490  1.00  0.00    -0.460 OA 
BRANCH   8  10
HETATM   10  C   UNL     1     -10.864  14.332  68.398  1.00  0.00    -0.263 C  
BRANCH  10  11
HETATM   11  C   UNL     1     -11.868  15.181  69.193  1.00  0.00    -0.340 C  
BRANCH  11  12
HETATM   12  C   UNL     1     -12.067  14.606  70.620  1.00  0.00    -0.385 C  
HETATM   13  C   UNL     1     -12.763  15.618  71.545  1.00  0.00    -0.457 C  
HETATM   14  O   UNL     1     -11.873  16.601  72.049  1.00  0.00    -0.648 OA 
HETATM   15  C   UNL     1     -13.281  14.777  72.682  1.00  0.00    -0.548 C  
HETATM   16  H   UNL     1     -12.303  17.226  72.621  1.00  0.00     0.000 HD 
HETATM   17  C   UNL     1     -13.814  13.531  72.006  1.00  0.00    -0.436 C  
HETATM   18  O   UNL     1     -13.755  12.469  72.939  1.00  0.00    -0.608 OA 
HETATM   19  C   UNL     1     -12.965  13.330  70.715  1.00  0.00    -0.097 C  
HETATM   20  H   UNL     1     -14.088  11.687  72.515  1.00  0.00     0.000 HD 
BRANCH  19  21
HETATM   21  C   UNL     1     -12.145  12.026  70.661  1.00  0.00    -0.369 C  
BRANCH  21  22
HETATM   22  C   UNL     1     -12.189  11.316  69.331  1.00  0.00    -0.315 C  
HETATM   23  C   UNL     1     -11.199  10.682  68.687  1.00  0.00    -0.337 C  
BRANCH  23  24
HETATM   24  C   UNL     1      -9.769  10.570  69.122  1.00  0.00    -0.226 C  
BRANCH  24  25
HETATM   25  C   UNL     1      -8.838  10.159  67.979  1.00  0.00    -0.125 C  
BRANCH  25  26
HETATM   26  C   UNL     1      -8.494   8.667  67.985  1.00  0.00    -0.127 C  
HETATM   27  C   UNL     1      -9.414   7.883  67.076  1.00  0.00    -0.174 C  
HETATM   28  O   UNL     1     -10.322   8.348  66.414  1.00  0.00    -0.235 OA 
HETATM   29  O   UNL     1      -9.112   6.562  67.065  1.00  0.00    -0.123 OA 
ENDBRANCH  25  26
ENDBRANCH  24  25
ENDBRANCH  23  24
ENDBRANCH  21  22
ENDBRANCH  19  21
ENDBRANCH  11  12
ENDBRANCH  10  11
ENDBRANCH   8  10
ENDBRANCH   7   8
ENDBRANCH   6   7
ENDBRANCH   5   6
ENDBRANCH   4   5
ENDBRANCH   3   4
ENDBRANCH   2   3
TORSDOF 14
ENDMDL
MODEL      140
REMARK 921   NORMALIZED FREE ENERGY PREDICTED BY IDOCK:   -4.35 KCAL/MOL
REMARK 922        TOTAL FREE ENERGY PREDICTED BY IDOCK:  -10.86 KCAL/MOL
REMARK 923 INTER-LIGAND FREE ENERGY PREDICTED BY IDOCK:   -9.38 KCAL/MOL
REMARK 924 INTRA-LIGAND FREE ENERGY PREDICTED BY IDOCK:   -1.48 KCAL/MOL
REMARK 927      BINDING AFFINITY PREDICTED BY RF-SCORE:    0.00 PKD
ROOT
HETATM    1  C   UNL     1      -9.532   3.257  70.946  1.00  0.00    -0.234 C  
HETATM    2  C   UNL     1      -9.831   4.424  70.022  1.00  0.00    -0.294 C  
ENDROOT
BRANCH   2   3
HETATM    3  C   UNL     1      -9.870   5.755  70.775  1.00  0.00    -0.235 C  
BRANCH   3   4
HETATM    4  C   UNL     1     -11.315   6.218  70.954  1.00  0.00    -0.389 C  
BRANCH   4   5
HETATM    5  C   UNL     1     -11.525   7.684  70.571  1.00  0.00    -0.236 C  
BRANCH   5   6
HETATM    6  C   UNL     1     -10.419   8.132  69.608  1.00  0.00    -0.224 C  
BRANCH   6   7
HETATM    7  C   UNL     1     -10.443   9.633  69.356  1.00  0.00    -0.236 C  
BRANCH   7   8
HETATM    8  C   UNL     1      -9.549  10.045  68.185  1.00  0.00    -0.139 C  
HETATM    9  O   UNL     1      -8.380  10.395  68.330  1.00  0.00    -0.113 OA 
BRANCH   8  10
HETATM   10  C   UNL     1     -10.211   9.958  66.824  1.00  0.00    -0.301 C  
BRANCH  10  11
HETATM   11  C   UNL     1      -9.475  10.591  65.634  1.00  0.00    -0.259 C  
BRANCH  11  12
HETATM   12  C   UNL     1     -10.288  11.777  65.050  1.00  0.00    -0.325 C  
HETATM   13  C   UNL     1     -11.024  11.376  63.762  1.00  0.00    -0.370 C  
HETATM   14  O   UNL     1     -10.178  11.378  62.624  1.00  0.00    -0.603 OA 
HETATM   15  C   UNL     1     -12.083  12.436  63.602  1.00  0.00    -0.648 C  
HETATM   16  H   UNL     1     -10.632  11.130  61.827  1.00  0.00     0.000 HD 
HETATM   17  C   UNL     1     -12.603  12.652  65.009  1.00  0.00    -0.430 C  
HETATM   18  O   UNL     1     -13.113  13.969  65.087  1.00  0.00    -0.776 OA 
HETATM   19  C   UNL     1     -11.418  12.339  65.972  1.00  0.00    -0.434 C  
HETATM   20  H   UNL     1     -13.439  14.106  65.969  1.00  0.00     0.000 HD 
BRANCH  19  21
HETATM   21  C   UNL     1     -10.941  13.523  66.837  1.00  0.00    -0.296 C  
BRANCH  21  22
HETATM   22  C   UNL     1      -9.866  14.366  66.199  1.00  0.00    -0.340 C  
HETATM   23  C   UNL     1      -9.161  15.372  66.736  1.00  0.00    -0.286 C  
BRANCH  23  24
HETATM   24  C   UNL     1      -9.315  15.943  68.113  1.00  0.00    -0.198 C  
BRANCH  24  25
HETATM   25  C   UNL     1     -10.322  17.094  68.161  1.00  0.00    -0.350 C  
BRANCH  25  26
HETATM   26  C   UNL     1     -10.371  17.911  66.868  1.00  0.00    -0.358 C  
HETATM   27  C   UNL     1     -10.430  19.396  67.153  1.00  0.00    -0.466 C  
HETATM   28  O   UNL     1     -10.441  19.906  68.257  1.00  0.00    -0.426 OA 
HETATM   29  O   UNL     1     -10.462  20.130  66.015  1.00  0.00    -0.418 OA 
ENDBRANCH  25  26
ENDBRANCH  24  25
ENDBRANCH  23  24
ENDBRANCH  21  22
ENDBRANCH  19  21
ENDBRANCH  11  12
ENDBRANCH  10  11
ENDBRANCH   8  10
ENDBRANCH   7   8
ENDBRANCH   6   7
ENDBRANCH   5   6
ENDBRANCH   4   5
ENDBRANCH   3   4
ENDBRANCH   2   3
TORSDOF 14
ENDMDL
MODEL      141
REMARK 921   NORMALIZED FREE ENERGY PREDICTED BY IDOCK:   -4.34 KCAL/MOL
REMARK 922        TOTAL FREE ENERGY PREDICTED BY IDOCK:  -10.85 KCAL/MOL
REMARK 923 INTER-LIGAND FREE ENERGY PREDICTED BY IDOCK:   -8.73 KCAL/MOL
REMARK 924 INTRA-LIGAND FREE ENERGY PREDICTED BY IDOCK:   -2.12 KCAL/MOL
REMARK 927      BINDING AFFINITY PREDICTED BY RF-SCORE:    0.00 PKD
ROOT
HETATM    1  C   UNL     1     -13.512   7.963  71.727  1.00  0.00    -0.379 C  
HETATM    2  C   UNL     1     -12.697   6.690  71.584  1.00  0.00    -0.280 C  
ENDROOT
BRANCH   2   3
HETATM    3  C   UNL     1     -11.996   6.608  70.226  1.00  0.00    -0.302 C  
BRANCH   3   4
HETATM    4  C   UNL     1     -10.671   5.858  70.362  1.00  0.00    -0.373 C  
BRANCH   4   5
HETATM    5  C   UNL     1      -9.457   6.726  70.023  1.00  0.00    -0.158 C  
BRANCH   5   6
HETATM    6  C   UNL     1      -9.455   7.981  70.903  1.00  0.00    -0.178 C  
BRANCH   6   7
HETATM    7  C   UNL     1      -9.340   9.261  70.087  1.00  0.00    -0.258 C  
BRANCH   7   8
HETATM    8  C   UNL     1     -10.703   9.883  69.775  1.00  0.00    -0.267 C  
HETATM    9  O   UNL     1     -11.399  10.424  70.630  1.00  0.00    -0.319 OA 
BRANCH   8  10
HETATM   10  C   UNL     1     -11.113   9.804  68.318  1.00  0.00    -0.158 C  
BRANCH  10  11
HETATM   11  C   UNL     1     -11.296  11.127  67.560  1.00  0.00    -0.351 C  
BRANCH  11  12
HETATM   12  C   UNL     1     -10.016  11.485  66.759  1.00  0.00    -0.235 C  
HETATM   13  C   UNL     1      -8.895  11.989  67.682  1.00  0.00    -0.172 C  
HETATM   14  O   UNL     1      -9.060  13.347  68.054  1.00  0.00    -0.190 OA 
HETATM   15  C   UNL     1      -7.646  11.842  66.853  1.00  0.00    -0.093 C  
HETATM   16  H   UNL     1      -8.367  13.659  68.624  1.00  0.00     0.000 HD 
HETATM   17  C   UNL     1      -7.823  10.511  66.151  1.00  0.00    -0.145 C  
HETATM   18  O   UNL     1      -7.077  10.548  64.950  1.00  0.00    -0.303 OA 
HETATM   19  C   UNL     1      -9.358  10.304  65.975  1.00  0.00    -0.224 C  
HETATM   20  H   UNL     1      -7.188   9.713  64.510  1.00  0.00     0.000 HD 
BRANCH  19  21
HETATM   21  C   UNL     1      -9.848  10.218  64.516  1.00  0.00    -0.384 C  
BRANCH  21  22
HETATM   22  C   UNL     1      -9.730  11.507  63.743  1.00  0.00    -0.298 C  
HETATM   23  C   UNL     1     -10.677  12.422  63.489  1.00  0.00    -0.473 C  
BRANCH  23  24
HETATM   24  C   UNL     1     -12.122  12.352  63.881  1.00  0.00    -0.587 C  
BRANCH  24  25
HETATM   25  C   UNL     1     -12.512  13.442  64.882  1.00  0.00    -0.447 C  
BRANCH  25  26
HETATM   26  C   UNL     1     -11.342  14.345  65.281  1.00  0.00    -0.346 C  
HETATM   27  C   UNL     1     -11.449  15.706  64.630  1.00  0.00    -0.303 C  
HETATM   28  O   UNL     1     -12.336  16.067  63.880  1.00  0.00    -0.855 OA 
HETATM   29  O   UNL     1     -10.425  16.520  64.983  1.00  0.00    -0.652 OA 
ENDBRANCH  25  26
ENDBRANCH  24  25
ENDBRANCH  23  24
ENDBRANCH  21  22
ENDBRANCH  19  21
ENDBRANCH  11  12
ENDBRANCH  10  11
ENDBRANCH   8  10
ENDBRANCH   7   8
ENDBRANCH   6   7
ENDBRANCH   5   6
ENDBRANCH   4   5
ENDBRANCH   3   4
ENDBRANCH   2   3
TORSDOF 14
ENDMDL
MODEL      142
REMARK 921   NORMALIZED FREE ENERGY PREDICTED BY IDOCK:   -4.32 KCAL/MOL
REMARK 922        TOTAL FREE ENERGY PREDICTED BY IDOCK:  -10.81 KCAL/MOL
REMARK 923 INTER-LIGAND FREE ENERGY PREDICTED BY IDOCK:   -8.40 KCAL/MOL
REMARK 924 INTRA-LIGAND FREE ENERGY PREDICTED BY IDOCK:   -2.41 KCAL/MOL
REMARK 927      BINDING AFFINITY PREDICTED BY RF-SCORE:    0.00 PKD
ROOT
HETATM    1  C   UNL     1     -10.410   7.374  67.670  1.00  0.00    -0.297 C  
HETATM    2  C   UNL     1     -11.111   6.540  68.727  1.00  0.00    -0.357 C  
ENDROOT
BRANCH   2   3
HETATM    3  C   UNL     1     -10.717   6.962  70.144  1.00  0.00    -0.270 C  
BRANCH   3   4
HETATM    4  C   UNL     1     -11.928   6.889  71.072  1.00  0.00    -0.422 C  
BRANCH   4   5
HETATM    5  C   UNL     1     -12.563   8.256  71.335  1.00  0.00    -0.295 C  
BRANCH   5   6
HETATM    6  C   UNL     1     -11.499   9.354  71.213  1.00  0.00    -0.433 C  
BRANCH   6   7
HETATM    7  C   UNL     1     -11.982  10.540  70.391  1.00  0.00    -0.425 C  
BRANCH   7   8
HETATM    8  C   UNL     1     -11.081  10.825  69.187  1.00  0.00    -0.249 C  
HETATM    9  O   UNL     1      -9.942  10.375  69.086  1.00  0.00    -0.202 OA 
BRANCH   8  10
HETATM   10  C   UNL     1     -11.718  11.682  68.112  1.00  0.00    -0.365 C  
BRANCH  10  11
HETATM   11  C   UNL     1     -10.792  12.291  67.048  1.00  0.00    -0.288 C  
BRANCH  11  12
HETATM   12  C   UNL     1     -11.075  11.675  65.652  1.00  0.00    -0.308 C  
HETATM   13  C   UNL     1     -11.823  12.663  64.741  1.00  0.00    -0.380 C  
HETATM   14  O   UNL     1     -13.213  12.717  65.016  1.00  0.00    -0.768 OA 
HETATM   15  C   UNL     1     -11.605  12.116  63.355  1.00  0.00    -0.508 C  
HETATM   16  H   UNL     1     -13.675  13.327  64.453  1.00  0.00     0.000 HD 
HETATM   17  C   UNL     1     -10.155  11.678  63.355  1.00  0.00    -0.440 C  
HETATM   18  O   UNL     1     -10.010  10.647  62.397  1.00  0.00    -0.694 OA 
HETATM   19  C   UNL     1      -9.813  11.277  64.822  1.00  0.00    -0.312 C  
HETATM   20  H   UNL     1      -9.101  10.371  62.397  1.00  0.00     0.000 HD 
BRANCH  19  21
HETATM   21  C   UNL     1      -9.414   9.801  65.026  1.00  0.00    -0.337 C  
BRANCH  21  22
HETATM   22  C   UNL     1      -7.930   9.544  64.964  1.00  0.00    -0.119 C  
HETATM   23  C   UNL     1      -7.004   9.749  65.911  1.00  0.00    -0.101 C  
BRANCH  23  24
HETATM   24  C   UNL     1      -7.223  10.345  67.269  1.00  0.00    -0.089 C  
BRANCH  24  25
HETATM   25  C   UNL     1      -6.812  11.818  67.336  1.00  0.00    -0.122 C  
BRANCH  25  26
HETATM   26  C   UNL     1      -7.476  12.580  68.486  1.00  0.00    -0.122 C  
HETATM   27  C   UNL     1      -7.432  14.075  68.257  1.00  0.00    -0.123 C  
HETATM   28  O   UNL     1      -6.939  14.631  67.294  1.00  0.00    -0.221 OA 
HETATM   29  O   UNL     1      -8.026  14.761  69.263  1.00  0.00    -0.157 OA 
ENDBRANCH  25  26
ENDBRANCH  24  25
ENDBRANCH  23  24
ENDBRANCH  21  22
ENDBRANCH  19  21
ENDBRANCH  11  12
ENDBRANCH  10  11
ENDBRANCH   8  10
ENDBRANCH   7   8
ENDBRANCH   6   7
ENDBRANCH   5   6
ENDBRANCH   4   5
ENDBRANCH   3   4
ENDBRANCH   2   3
TORSDOF 14
ENDMDL
MODEL      143
REMARK 921   NORMALIZED FREE ENERGY PREDICTED BY IDOCK:   -4.31 KCAL/MOL
REMARK 922        TOTAL FREE ENERGY PREDICTED BY IDOCK:  -10.80 KCAL/MOL
REMARK 923 INTER-LIGAND FREE ENERGY PREDICTED BY IDOCK:   -9.00 KCAL/MOL
REMARK 924 INTRA-LIGAND FREE ENERGY PREDICTED BY IDOCK:   -1.80 KCAL/MOL
REMARK 927      BINDING AFFINITY PREDICTED BY RF-SCORE:    0.00 PKD
ROOT
HETATM    1  C   UNL     1      -8.426  20.436  67.219  1.00  0.00    -0.405 C  
HETATM    2  C   UNL     1      -8.890  19.323  66.297  1.00  0.00    -0.341 C  
ENDROOT
BRANCH   2   3
HETATM    3  C   UNL     1     -10.386  19.041  66.446  1.00  0.00    -0.520 C  
BRANCH   3   4
HETATM    4  C   UNL     1     -10.629  18.093  67.620  1.00  0.00    -0.424 C  
BRANCH   4   5
HETATM    5  C   UNL     1      -9.860  16.777  67.492  1.00  0.00    -0.255 C  
BRANCH   5   6
HETATM    6  C   UNL     1     -10.152  15.885  68.705  1.00  0.00    -0.216 C  
BRANCH   6   7
HETATM    7  C   UNL     1     -11.636  15.582  68.857  1.00  0.00    -0.384 C  
BRANCH   7   8
HETATM    8  C   UNL     1     -11.982  14.138  68.487  1.00  0.00    -0.332 C  
HETATM    9  O   UNL     1     -12.274  13.795  67.344  1.00  0.00    -0.368 OA 
BRANCH   8  10
HETATM   10  C   UNL     1     -11.904  13.157  69.639  1.00  0.00    -0.390 C  
BRANCH  10  11
HETATM   11  C   UNL     1     -12.232  11.686  69.341  1.00  0.00    -0.246 C  
BRANCH  11  12
HETATM   12  C   UNL     1     -11.758  10.770  70.501  1.00  0.00    -0.449 C  
HETATM   13  C   UNL     1     -12.943  10.263  71.340  1.00  0.00    -0.440 C  
HETATM   14  O   UNL     1     -13.407  11.226  72.271  1.00  0.00    -0.625 OA 
HETATM   15  C   UNL     1     -12.384   9.077  72.081  1.00  0.00    -0.442 C  
HETATM   16  H   UNL     1     -14.139  10.913  72.789  1.00  0.00     0.000 HD 
HETATM   17  C   UNL     1     -11.529   8.367  71.050  1.00  0.00    -0.268 C  
HETATM   18  O   UNL     1     -10.522   7.650  71.737  1.00  0.00    -0.202 OA 
HETATM   19  C   UNL     1     -11.015   9.464  70.071  1.00  0.00    -0.267 C  
HETATM   20  H   UNL     1      -9.986   7.205  71.091  1.00  0.00     0.000 HD 
BRANCH  19  21
HETATM   21  C   UNL     1      -9.484   9.644  70.027  1.00  0.00    -0.277 C  
BRANCH  21  22
HETATM   22  C   UNL     1      -8.843   9.213  68.732  1.00  0.00    -0.132 C  
HETATM   23  C   UNL     1      -8.752   9.889  67.577  1.00  0.00    -0.121 C  
BRANCH  23  24
HETATM   24  C   UNL     1      -9.324  11.242  67.279  1.00  0.00    -0.173 C  
BRANCH  24  25
HETATM   25  C   UNL     1     -10.153  11.258  65.993  1.00  0.00    -0.283 C  
BRANCH  25  26
HETATM   26  C   UNL     1      -9.670  10.249  64.948  1.00  0.00    -0.385 C  
HETATM   27  C   UNL     1      -9.726  10.830  63.552  1.00  0.00    -0.341 C  
HETATM   28  O   UNL     1     -10.104  11.950  63.264  1.00  0.00    -0.428 OA 
HETATM   29  O   UNL     1      -9.290   9.950  62.618  1.00  0.00    -0.287 OA 
ENDBRANCH  25  26
ENDBRANCH  24  25
ENDBRANCH  23  24
ENDBRANCH  21  22
ENDBRANCH  19  21
ENDBRANCH  11  12
ENDBRANCH  10  11
ENDBRANCH   8  10
ENDBRANCH   7   8
ENDBRANCH   6   7
ENDBRANCH   5   6
ENDBRANCH   4   5
ENDBRANCH   3   4
ENDBRANCH   2   3
TORSDOF 14
ENDMDL
MODEL      144
REMARK 921   NORMALIZED FREE ENERGY PREDICTED BY IDOCK:   -4.31 KCAL/MOL
REMARK 922        TOTAL FREE ENERGY PREDICTED BY IDOCK:  -10.79 KCAL/MOL
REMARK 923 INTER-LIGAND FREE ENERGY PREDICTED BY IDOCK:   -8.36 KCAL/MOL
REMARK 924 INTRA-LIGAND FREE ENERGY PREDICTED BY IDOCK:   -2.44 KCAL/MOL
REMARK 927      BINDING AFFINITY PREDICTED BY RF-SCORE:    0.00 PKD
ROOT
HETATM    1  C   UNL     1     -12.182   8.676  71.781  1.00  0.00    -0.403 C  
HETATM    2  C   UNL     1     -11.195   9.506  70.981  1.00  0.00    -0.432 C  
ENDROOT
BRANCH   2   3
HETATM    3  C   UNL     1     -11.879  10.665  70.254  1.00  0.00    -0.430 C  
BRANCH   3   4
HETATM    4  C   UNL     1     -11.306  10.816  68.845  1.00  0.00    -0.349 C  
BRANCH   4   5
HETATM    5  C   UNL     1      -9.946  10.135  68.678  1.00  0.00    -0.181 C  
BRANCH   5   6
HETATM    6  C   UNL     1      -8.984  11.071  67.937  1.00  0.00    -0.144 C  
BRANCH   6   7
HETATM    7  C   UNL     1      -8.255  12.017  68.881  1.00  0.00     0.127 C  
BRANCH   7   8
HETATM    8  C   UNL     1      -7.337  12.992  68.141  1.00  0.00    -0.118 C  
HETATM    9  O   UNL     1      -6.660  12.663  67.170  1.00  0.00    -0.142 OA 
BRANCH   8  10
HETATM   10  C   UNL     1      -7.351  14.407  68.683  1.00  0.00    -0.123 C  
BRANCH  10  11
HETATM   11  C   UNL     1      -7.908  15.511  67.772  1.00  0.00    -0.158 C  
BRANCH  11  12
HETATM   12  C   UNL     1      -8.173  16.810  68.578  1.00  0.00    -0.242 C  
HETATM   13  C   UNL     1      -7.297  17.971  68.080  1.00  0.00    -0.250 C  
HETATM   14  O   UNL     1      -5.972  17.912  68.582  1.00  0.00    -0.178 OA 
HETATM   15  C   UNL     1      -7.982  19.201  68.615  1.00  0.00    -0.398 C  
HETATM   16  H   UNL     1      -5.430  18.630  68.275  1.00  0.00     0.000 HD 
HETATM   17  C   UNL     1      -9.457  18.919  68.410  1.00  0.00    -0.356 C  
HETATM   18  O   UNL     1     -10.181  19.660  69.374  1.00  0.00    -0.636 OA 
HETATM   19  C   UNL     1      -9.628  17.373  68.494  1.00  0.00    -0.298 C  
HETATM   20  H   UNL     1     -11.106  19.484  69.246  1.00  0.00     0.000 HD 
BRANCH  19  21
HETATM   21  C   UNL     1     -10.523  16.870  69.644  1.00  0.00    -0.158 C  
BRANCH  21  22
HETATM   22  C   UNL     1     -10.511  15.374  69.834  1.00  0.00    -0.310 C  
HETATM   23  C   UNL     1     -11.028  14.425  69.041  1.00  0.00    -0.274 C  
BRANCH  23  24
HETATM   24  C   UNL     1     -11.803  14.634  67.776  1.00  0.00    -0.359 C  
BRANCH  24  25
HETATM   25  C   UNL     1     -11.005  14.248  66.528  1.00  0.00    -0.316 C  
BRANCH  25  26
HETATM   26  C   UNL     1     -11.657  14.715  65.224  1.00  0.00    -0.354 C  
HETATM   27  C   UNL     1     -11.090  16.041  64.766  1.00  0.00    -0.365 C  
HETATM   28  O   UNL     1     -10.229  16.680  65.340  1.00  0.00    -0.585 OA 
HETATM   29  O   UNL     1     -11.651  16.460  63.606  1.00  0.00    -0.926 OA 
ENDBRANCH  25  26
ENDBRANCH  24  25
ENDBRANCH  23  24
ENDBRANCH  21  22
ENDBRANCH  19  21
ENDBRANCH  11  12
ENDBRANCH  10  11
ENDBRANCH   8  10
ENDBRANCH   7   8
ENDBRANCH   6   7
ENDBRANCH   5   6
ENDBRANCH   4   5
ENDBRANCH   3   4
ENDBRANCH   2   3
TORSDOF 14
ENDMDL
MODEL      145
REMARK 921   NORMALIZED FREE ENERGY PREDICTED BY IDOCK:   -4.31 KCAL/MOL
REMARK 922        TOTAL FREE ENERGY PREDICTED BY IDOCK:  -10.79 KCAL/MOL
REMARK 923 INTER-LIGAND FREE ENERGY PREDICTED BY IDOCK:   -8.05 KCAL/MOL
REMARK 924 INTRA-LIGAND FREE ENERGY PREDICTED BY IDOCK:   -2.74 KCAL/MOL
REMARK 927      BINDING AFFINITY PREDICTED BY RF-SCORE:    0.00 PKD
ROOT
HETATM    1  C   UNL     1     -10.063   8.340  72.069  1.00  0.00    -0.331 C  
HETATM    2  C   UNL     1     -11.506   7.920  72.277  1.00  0.00    -0.403 C  
ENDROOT
BRANCH   2   3
HETATM    3  C   UNL     1     -12.093   7.251  71.032  1.00  0.00    -0.361 C  
BRANCH   3   4
HETATM    4  C   UNL     1     -11.068   6.303  70.410  1.00  0.00    -0.416 C  
BRANCH   4   5
HETATM    5  C   UNL     1     -11.173   6.226  68.886  1.00  0.00    -0.387 C  
BRANCH   5   6
HETATM    6  C   UNL     1      -9.881   5.638  68.305  1.00  0.00    -0.177 C  
BRANCH   6   7
HETATM    7  C   UNL     1      -9.559   6.196  66.926  1.00  0.00    -0.164 C  
BRANCH   7   8
HETATM    8  C   UNL     1      -8.975   7.609  66.987  1.00  0.00    -0.133 C  
HETATM    9  O   UNL     1      -7.927   7.873  67.570  1.00  0.00    -0.119 OA 
BRANCH   8  10
HETATM   10  C   UNL     1      -9.778   8.656  66.241  1.00  0.00    -0.322 C  
BRANCH  10  11
HETATM   11  C   UNL     1     -10.858   9.415  67.027  1.00  0.00    -0.096 C  
BRANCH  11  12
HETATM   12  C   UNL     1     -10.415  10.877  67.300  1.00  0.00    -0.275 C  
HETATM   13  C   UNL     1      -9.566  10.980  68.577  1.00  0.00    -0.187 C  
HETATM   14  O   UNL     1     -10.350  10.982  69.759  1.00  0.00    -0.445 OA 
HETATM   15  C   UNL     1      -8.861  12.305  68.441  1.00  0.00    -0.137 C  
HETATM   16  H   UNL     1      -9.826  11.046  70.548  1.00  0.00     0.000 HD 
HETATM   17  C   UNL     1      -8.459  12.359  66.981  1.00  0.00    -0.170 C  
HETATM   18  O   UNL     1      -8.358  13.719  66.606  1.00  0.00    -0.425 OA 
HETATM   19  C   UNL     1      -9.520  11.529  66.198  1.00  0.00    -0.239 C  
HETATM   20  H   UNL     1      -8.106  13.753  65.691  1.00  0.00     0.000 HD 
BRANCH  19  21
HETATM   21  C   UNL     1     -10.342  12.321  65.161  1.00  0.00    -0.316 C  
BRANCH  21  22
HETATM   22  C   UNL     1     -11.759  12.615  65.584  1.00  0.00    -0.458 C  
HETATM   23  C   UNL     1     -12.243  13.711  66.186  1.00  0.00    -0.490 C  
BRANCH  23  24
HETATM   24  C   UNL     1     -11.462  14.909  66.637  1.00  0.00    -0.297 C  
BRANCH  24  25
HETATM   25  C   UNL     1     -11.494  15.092  68.156  1.00  0.00    -0.355 C  
BRANCH  25  26
HETATM   26  C   UNL     1     -12.059  13.880  68.900  1.00  0.00    -0.355 C  
HETATM   27  C   UNL     1     -11.931  14.043  70.399  1.00  0.00    -0.328 C  
HETATM   28  O   UNL     1     -11.445  15.001  70.970  1.00  0.00    -0.299 OA 
HETATM   29  O   UNL     1     -12.439  12.981  71.070  1.00  0.00    -0.368 OA 
ENDBRANCH  25  26
ENDBRANCH  24  25
ENDBRANCH  23  24
ENDBRANCH  21  22
ENDBRANCH  19  21
ENDBRANCH  11  12
ENDBRANCH  10  11
ENDBRANCH   8  10
ENDBRANCH   7   8
ENDBRANCH   6   7
ENDBRANCH   5   6
ENDBRANCH   4   5
ENDBRANCH   3   4
ENDBRANCH   2   3
TORSDOF 14
ENDMDL
MODEL      146
REMARK 921   NORMALIZED FREE ENERGY PREDICTED BY IDOCK:   -4.30 KCAL/MOL
REMARK 922        TOTAL FREE ENERGY PREDICTED BY IDOCK:  -10.78 KCAL/MOL
REMARK 923 INTER-LIGAND FREE ENERGY PREDICTED BY IDOCK:   -8.91 KCAL/MOL
REMARK 924 INTRA-LIGAND FREE ENERGY PREDICTED BY IDOCK:   -1.87 KCAL/MOL
REMARK 927      BINDING AFFINITY PREDICTED BY RF-SCORE:    0.00 PKD
ROOT
HETATM    1  C   UNL     1     -14.278  13.260  72.203  1.00  0.00    -0.242 C  
HETATM    2  C   UNL     1     -13.073  13.983  72.777  1.00  0.00    -0.537 C  
ENDROOT
BRANCH   2   3
HETATM    3  C   UNL     1     -12.061  14.360  71.693  1.00  0.00    -0.339 C  
BRANCH   3   4
HETATM    4  C   UNL     1     -12.377  15.748  71.137  1.00  0.00    -0.480 C  
BRANCH   4   5
HETATM    5  C   UNL     1     -11.867  15.949  69.708  1.00  0.00    -0.303 C  
BRANCH   5   6
HETATM    6  C   UNL     1     -10.513  16.669  69.737  1.00  0.00    -0.182 C  
BRANCH   6   7
HETATM    7  C   UNL     1     -10.357  17.656  68.589  1.00  0.00    -0.359 C  
BRANCH   7   8
HETATM    8  C   UNL     1      -8.974  17.584  67.937  1.00  0.00    -0.251 C  
HETATM    9  O   UNL     1      -7.933  17.764  68.563  1.00  0.00    -0.279 OA 
BRANCH   8  10
HETATM   10  C   UNL     1      -8.991  17.242  66.461  1.00  0.00    -0.294 C  
BRANCH  10  11
HETATM   11  C   UNL     1      -8.986  15.755  66.077  1.00  0.00    -0.322 C  
BRANCH  11  12
HETATM   12  C   UNL     1     -10.434  15.228  65.897  1.00  0.00    -0.345 C  
HETATM   13  C   UNL     1     -10.962  15.499  64.478  1.00  0.00    -0.206 C  
HETATM   14  O   UNL     1     -11.411  16.834  64.307  1.00  0.00    -1.313 OA 
HETATM   15  C   UNL     1     -12.126  14.555  64.335  1.00  0.00    -0.492 C  
HETATM   16  H   UNL     1     -11.737  17.002  63.430  1.00  0.00     0.000 HD 
HETATM   17  C   UNL     1     -11.641  13.271  64.978  1.00  0.00    -0.316 C  
HETATM   18  O   UNL     1     -12.773  12.561  65.441  1.00  0.00    -0.624 OA 
HETATM   19  C   UNL     1     -10.619  13.686  66.079  1.00  0.00    -0.290 C  
HETATM   20  H   UNL     1     -12.469  11.756  65.845  1.00  0.00     0.000 HD 
BRANCH  19  21
HETATM   21  C   UNL     1     -11.012  13.306  67.520  1.00  0.00    -0.281 C  
BRANCH  21  22
HETATM   22  C   UNL     1      -9.846  13.161  68.466  1.00  0.00    -0.155 C  
HETATM   23  C   UNL     1      -8.661  12.574  68.250  1.00  0.00    -0.173 C  
BRANCH  23  24
HETATM   24  C   UNL     1      -8.223  11.860  67.007  1.00  0.00    -0.170 C  
BRANCH  24  25
HETATM   25  C   UNL     1      -8.576  10.371  67.030  1.00  0.00    -0.130 C  
BRANCH  25  26
HETATM   26  C   UNL     1      -9.011   9.873  68.411  1.00  0.00    -0.120 C  
HETATM   27  C   UNL     1     -10.091   8.818  68.303  1.00  0.00    -0.188 C  
HETATM   28  O   UNL     1     -10.573   8.400  67.267  1.00  0.00    -0.302 OA 
HETATM   29  O   UNL     1     -10.477   8.361  69.518  1.00  0.00    -0.220 OA 
ENDBRANCH  25  26
ENDBRANCH  24  25
ENDBRANCH  23  24
ENDBRANCH  21  22
ENDBRANCH  19  21
ENDBRANCH  11  12
ENDBRANCH  10  11
ENDBRANCH   8  10
ENDBRANCH   7   8
ENDBRANCH   6   7
ENDBRANCH   5   6
ENDBRANCH   4   5
ENDBRANCH   3   4
ENDBRANCH   2   3
TORSDOF 14
ENDMDL
MODEL      147
REMARK 921   NORMALIZED FREE ENERGY PREDICTED BY IDOCK:   -4.30 KCAL/MOL
REMARK 922        TOTAL FREE ENERGY PREDICTED BY IDOCK:  -10.77 KCAL/MOL
REMARK 923 INTER-LIGAND FREE ENERGY PREDICTED BY IDOCK:   -8.89 KCAL/MOL
REMARK 924 INTRA-LIGAND FREE ENERGY PREDICTED BY IDOCK:   -1.88 KCAL/MOL
REMARK 927      BINDING AFFINITY PREDICTED BY RF-SCORE:    0.00 PKD
ROOT
HETATM    1  C   UNL     1     -13.629   7.963  71.791  1.00  0.00    -0.396 C  
HETATM    2  C   UNL     1     -13.295   9.422  72.049  1.00  0.00    -0.525 C  
ENDROOT
BRANCH   2   3
HETATM    3  C   UNL     1     -12.097   9.891  71.220  1.00  0.00    -0.485 C  
BRANCH   3   4
HETATM    4  C   UNL     1     -12.389  11.256  70.599  1.00  0.00    -0.477 C  
BRANCH   4   5
HETATM    5  C   UNL     1     -11.349  11.672  69.557  1.00  0.00    -0.328 C  
BRANCH   5   6
HETATM    6  C   UNL     1     -11.439  10.749  68.336  1.00  0.00    -0.358 C  
BRANCH   6   7
HETATM    7  C   UNL     1     -10.157   9.961  68.109  1.00  0.00    -0.193 C  
BRANCH   7   8
HETATM    8  C   UNL     1      -9.716   9.967  66.643  1.00  0.00    -0.198 C  
HETATM    9  O   UNL     1      -9.746   8.964  65.935  1.00  0.00    -0.255 OA 
BRANCH   8  10
HETATM   10  C   UNL     1      -9.269  11.318  66.125  1.00  0.00    -0.222 C  
BRANCH  10  11
HETATM   11  C   UNL     1     -10.097  11.958  65.000  1.00  0.00    -0.297 C  
BRANCH  11  12
HETATM   12  C   UNL     1     -10.669  13.329  65.448  1.00  0.00    -0.308 C  
HETATM   13  C   UNL     1     -12.147  13.219  65.856  1.00  0.00    -0.441 C  
HETATM   14  O   UNL     1     -13.023  13.201  64.742  1.00  0.00    -0.725 OA 
HETATM   15  C   UNL     1     -12.394  14.461  66.671  1.00  0.00    -0.245 C  
HETATM   16  H   UNL     1     -13.937  13.133  64.994  1.00  0.00     0.000 HD 
HETATM   17  C   UNL     1     -11.145  14.602  67.516  1.00  0.00    -0.313 C  
HETATM   18  O   UNL     1     -10.988  15.971  67.837  1.00  0.00    -0.327 OA 
HETATM   19  C   UNL     1      -9.980  13.973  66.695  1.00  0.00    -0.280 C  
HETATM   20  H   UNL     1     -10.204  16.060  68.367  1.00  0.00     0.000 HD 
BRANCH  19  21
HETATM   21  C   UNL     1      -8.847  14.944  66.308  1.00  0.00    -0.108 C  
BRANCH  21  22
HETATM   22  C   UNL     1      -7.791  15.123  67.369  1.00  0.00    -0.224 C  
HETATM   23  C   UNL     1      -7.004  16.184  67.598  1.00  0.00    -0.175 C  
BRANCH  23  24
HETATM   24  C   UNL     1      -6.952  17.453  66.802  1.00  0.00    -0.246 C  
BRANCH  24  25
HETATM   25  C   UNL     1      -7.944  18.503  67.306  1.00  0.00    -0.241 C  
BRANCH  25  26
HETATM   26  C   UNL     1      -8.770  19.143  66.188  1.00  0.00    -0.230 C  
HETATM   27  C   UNL     1     -10.254  18.975  66.431  1.00  0.00    -0.437 C  
HETATM   28  O   UNL     1     -10.757  18.408  67.382  1.00  0.00    -0.416 OA 
HETATM   29  O   UNL     1     -10.996  19.547  65.453  1.00  0.00    -0.447 OA 
ENDBRANCH  25  26
ENDBRANCH  24  25
ENDBRANCH  23  24
ENDBRANCH  21  22
ENDBRANCH  19  21
ENDBRANCH  11  12
ENDBRANCH  10  11
ENDBRANCH   8  10
ENDBRANCH   7   8
ENDBRANCH   6   7
ENDBRANCH   5   6
ENDBRANCH   4   5
ENDBRANCH   3   4
ENDBRANCH   2   3
TORSDOF 14
ENDMDL
MODEL      148
REMARK 921   NORMALIZED FREE ENERGY PREDICTED BY IDOCK:   -4.29 KCAL/MOL
REMARK 922        TOTAL FREE ENERGY PREDICTED BY IDOCK:  -10.76 KCAL/MOL
REMARK 923 INTER-LIGAND FREE ENERGY PREDICTED BY IDOCK:   -7.36 KCAL/MOL
REMARK 924 INTRA-LIGAND FREE ENERGY PREDICTED BY IDOCK:   -3.40 KCAL/MOL
REMARK 927      BINDING AFFINITY PREDICTED BY RF-SCORE:    0.00 PKD
ROOT
HETATM    1  C   UNL     1     -12.604  11.974  63.837  1.00  0.00    -0.517 C  
HETATM    2  C   UNL     1     -11.138  11.629  63.649  1.00  0.00    -0.506 C  
ENDROOT
BRANCH   2   3
HETATM    3  C   UNL     1     -10.218  12.653  64.318  1.00  0.00    -0.358 C  
BRANCH   3   4
HETATM    4  C   UNL     1     -10.944  13.988  64.479  1.00  0.00    -0.361 C  
BRANCH   4   5
HETATM    5  C   UNL     1     -10.192  14.972  65.376  1.00  0.00    -0.411 C  
BRANCH   5   6
HETATM    6  C   UNL     1     -11.066  15.353  66.577  1.00  0.00    -0.227 C  
BRANCH   6   7
HETATM    7  C   UNL     1     -12.036  14.245  66.962  1.00  0.00    -0.463 C  
BRANCH   7   8
HETATM    8  C   UNL     1     -11.597  13.493  68.221  1.00  0.00    -0.346 C  
HETATM    9  O   UNL     1     -11.913  13.847  69.353  1.00  0.00    -0.315 OA 
BRANCH   8  10
HETATM   10  C   UNL     1     -10.764  12.255  67.956  1.00  0.00    -0.245 C  
BRANCH  10  11
HETATM   11  C   UNL     1     -11.429  10.889  68.188  1.00  0.00    -0.368 C  
BRANCH  11  12
HETATM   12  C   UNL     1     -11.016  10.301  69.564  1.00  0.00    -0.300 C  
HETATM   13  C   UNL     1     -12.210  10.232  70.529  1.00  0.00    -0.301 C  
HETATM   14  O   UNL     1     -12.500  11.481  71.133  1.00  0.00    -0.376 OA 
HETATM   15  C   UNL     1     -11.768   9.253  71.585  1.00  0.00    -0.462 C  
HETATM   16  H   UNL     1     -13.238  11.438  71.730  1.00  0.00     0.000 HD 
HETATM   17  C   UNL     1     -11.066   8.161  70.805  1.00  0.00    -0.259 C  
HETATM   18  O   UNL     1     -10.123   7.548  71.664  1.00  0.00    -0.180 OA 
HETATM   19  C   UNL     1     -10.467   8.838  69.535  1.00  0.00    -0.222 C  
HETATM   20  H   UNL     1      -9.682   6.863  71.174  1.00  0.00     0.000 HD 
BRANCH  19  21
HETATM   21  C   UNL     1      -8.930   8.786  69.423  1.00  0.00    -0.145 C  
BRANCH  21  22
HETATM   22  C   UNL     1      -8.230  10.042  69.876  1.00  0.00    -0.175 C  
HETATM   23  C   UNL     1      -7.311  10.770  69.226  1.00  0.00    -0.129 C  
BRANCH  23  24
HETATM   24  C   UNL     1      -6.711  10.471  67.885  1.00  0.00    -0.065 C  
BRANCH  24  25
HETATM   25  C   UNL     1      -7.568  10.992  66.730  1.00  0.00    -0.139 C  
BRANCH  25  26
HETATM   26  C   UNL     1      -8.288   9.882  65.961  1.00  0.00    -0.124 C  
HETATM   27  C   UNL     1      -7.489   9.435  64.756  1.00  0.00    -0.107 C  
HETATM   28  O   UNL     1      -6.411   9.883  64.415  1.00  0.00    -0.109 OA 
HETATM   29  O   UNL     1      -8.110   8.444  64.073  1.00  0.00    -0.150 OA 
ENDBRANCH  25  26
ENDBRANCH  24  25
ENDBRANCH  23  24
ENDBRANCH  21  22
ENDBRANCH  19  21
ENDBRANCH  11  12
ENDBRANCH  10  11
ENDBRANCH   8  10
ENDBRANCH   7   8
ENDBRANCH   6   7
ENDBRANCH   5   6
ENDBRANCH   4   5
ENDBRANCH   3   4
ENDBRANCH   2   3
TORSDOF 14
ENDMDL
MODEL      149
REMARK 921   NORMALIZED FREE ENERGY PREDICTED BY IDOCK:   -4.29 KCAL/MOL
REMARK 922        TOTAL FREE ENERGY PREDICTED BY IDOCK:  -10.76 KCAL/MOL
REMARK 923 INTER-LIGAND FREE ENERGY PREDICTED BY IDOCK:   -8.49 KCAL/MOL
REMARK 924 INTRA-LIGAND FREE ENERGY PREDICTED BY IDOCK:   -2.27 KCAL/MOL
REMARK 927      BINDING AFFINITY PREDICTED BY RF-SCORE:    0.00 PKD
ROOT
HETATM    1  C   UNL     1     -13.347   9.844  71.580  1.00  0.00    -0.481 C  
HETATM    2  C   UNL     1     -12.853   8.513  72.116  1.00  0.00    -0.413 C  
ENDROOT
BRANCH   2   3
HETATM    3  C   UNL     1     -11.324   8.447  72.166  1.00  0.00    -0.437 C  
BRANCH   3   4
HETATM    4  C   UNL     1     -10.875   7.360  73.141  1.00  0.00    -0.435 C  
BRANCH   4   5
HETATM    5  C   UNL     1     -11.072   5.946  72.592  1.00  0.00    -0.322 C  
BRANCH   5   6
HETATM    6  C   UNL     1      -9.721   5.366  72.155  1.00  0.00    -0.196 C  
BRANCH   6   7
HETATM    7  C   UNL     1      -9.263   5.913  70.810  1.00  0.00    -0.167 C  
BRANCH   7   8
HETATM    8  C   UNL     1     -10.052   5.323  69.638  1.00  0.00    -0.257 C  
HETATM    9  O   UNL     1      -9.897   4.171  69.244  1.00  0.00    -0.180 OA 
BRANCH   8  10
HETATM   10  C   UNL     1     -11.064   6.268  69.021  1.00  0.00    -0.446 C  
BRANCH  10  11
HETATM   11  C   UNL     1     -10.959   6.533  67.512  1.00  0.00    -0.444 C  
BRANCH  11  12
HETATM   12  C   UNL     1      -9.621   7.239  67.167  1.00  0.00    -0.203 C  
HETATM   13  C   UNL     1      -8.891   6.532  66.013  1.00  0.00    -0.143 C  
HETATM   14  O   UNL     1      -8.189   5.375  66.435  1.00  0.00    -0.108 OA 
HETATM   15  C   UNL     1      -7.911   7.562  65.516  1.00  0.00    -0.114 C  
HETATM   16  H   UNL     1      -7.738   4.939  65.722  1.00  0.00     0.000 HD 
HETATM   17  C   UNL     1      -8.694   8.859  65.542  1.00  0.00    -0.183 C  
HETATM   18  O   UNL     1      -7.773   9.922  65.693  1.00  0.00    -0.111 OA 
HETATM   19  C   UNL     1      -9.744   8.720  66.685  1.00  0.00    -0.309 C  
HETATM   20  H   UNL     1      -8.264  10.736  65.709  1.00  0.00     0.000 HD 
BRANCH  19  21
HETATM   21  C   UNL     1      -9.598   9.731  67.840  1.00  0.00    -0.158 C  
BRANCH  21  22
HETATM   22  C   UNL     1     -10.882  10.031  68.571  1.00  0.00    -0.270 C  
HETATM   23  C   UNL     1     -11.539  11.196  68.667  1.00  0.00    -0.383 C  
BRANCH  23  24
HETATM   24  C   UNL     1     -11.115  12.517  68.100  1.00  0.00    -0.282 C  
BRANCH  24  25
HETATM   25  C   UNL     1     -12.029  12.989  66.967  1.00  0.00    -0.409 C  
BRANCH  25  26
HETATM   26  C   UNL     1     -11.693  12.357  65.614  1.00  0.00    -0.468 C  
HETATM   27  C   UNL     1     -12.145  13.235  64.467  1.00  0.00    -0.408 C  
HETATM   28  O   UNL     1     -12.707  14.308  64.573  1.00  0.00    -0.662 OA 
HETATM   29  O   UNL     1     -11.843  12.692  63.263  1.00  0.00    -0.504 OA 
ENDBRANCH  25  26
ENDBRANCH  24  25
ENDBRANCH  23  24
ENDBRANCH  21  22
ENDBRANCH  19  21
ENDBRANCH  11  12
ENDBRANCH  10  11
ENDBRANCH   8  10
ENDBRANCH   7   8
ENDBRANCH   6   7
ENDBRANCH   5   6
ENDBRANCH   4   5
ENDBRANCH   3   4
ENDBRANCH   2   3
TORSDOF 14
ENDMDL
MODEL      150
REMARK 921   NORMALIZED FREE ENERGY PREDICTED BY IDOCK:   -4.29 KCAL/MOL
REMARK 922        TOTAL FREE ENERGY PREDICTED BY IDOCK:  -10.76 KCAL/MOL
REMARK 923 INTER-LIGAND FREE ENERGY PREDICTED BY IDOCK:   -8.25 KCAL/MOL
REMARK 924 INTRA-LIGAND FREE ENERGY PREDICTED BY IDOCK:   -2.50 KCAL/MOL
REMARK 927      BINDING AFFINITY PREDICTED BY RF-SCORE:    0.00 PKD
ROOT
HETATM    1  C   UNL     1      -9.358   4.087  71.128  1.00  0.00    -0.216 C  
HETATM    2  C   UNL     1     -10.338   5.105  70.574  1.00  0.00    -0.314 C  
ENDROOT
BRANCH   2   3
HETATM    3  C   UNL     1     -10.122   5.353  69.079  1.00  0.00    -0.283 C  
BRANCH   3   4
HETATM    4  C   UNL     1     -11.200   6.292  68.540  1.00  0.00    -0.305 C  
BRANCH   4   5
HETATM    5  C   UNL     1     -10.905   6.788  67.123  1.00  0.00    -0.462 C  
BRANCH   5   6
HETATM    6  C   UNL     1      -9.396   6.736  66.858  1.00  0.00    -0.176 C  
BRANCH   6   7
HETATM    7  C   UNL     1      -8.719   8.078  67.097  1.00  0.00    -0.134 C  
BRANCH   7   8
HETATM    8  C   UNL     1      -9.677   9.258  66.920  1.00  0.00    -0.190 C  
HETATM    9  O   UNL     1     -10.093   9.621  65.823  1.00  0.00    -0.290 OA 
BRANCH   8  10
HETATM   10  C   UNL     1     -10.098   9.927  68.213  1.00  0.00    -0.185 C  
BRANCH  10  11
HETATM   11  C   UNL     1      -9.089   9.934  69.371  1.00  0.00    -0.216 C  
BRANCH  11  12
HETATM   12  C   UNL     1      -9.373   8.769  70.357  1.00  0.00    -0.205 C  
HETATM   13  C   UNL     1      -8.089   8.297  71.057  1.00  0.00    -0.110 C  
HETATM   14  O   UNL     1      -7.306   7.437  70.245  1.00  0.00    -0.074 OA 
HETATM   15  C   UNL     1      -8.587   7.537  72.259  1.00  0.00    -0.141 C  
HETATM   16  H   UNL     1      -6.512   7.145  70.677  1.00  0.00     0.000 HD 
HETATM   17  C   UNL     1      -9.739   8.375  72.773  1.00  0.00    -0.228 C  
HETATM   18  O   UNL     1     -10.628   7.518  73.463  1.00  0.00    -0.373 OA 
HETATM   19  C   UNL     1     -10.344   9.104  71.535  1.00  0.00    -0.414 C  
HETATM   20  H   UNL     1     -11.351   8.044  73.785  1.00  0.00     0.000 HD 
BRANCH  19  21
HETATM   21  C   UNL     1     -11.809   8.749  71.212  1.00  0.00    -0.358 C  
BRANCH  21  22
HETATM   22  C   UNL     1     -12.817   9.750  71.717  1.00  0.00    -0.530 C  
HETATM   23  C   UNL     1     -12.989  11.027  71.344  1.00  0.00    -0.517 C  
BRANCH  23  24
HETATM   24  C   UNL     1     -12.167  11.793  70.353  1.00  0.00    -0.416 C  
BRANCH  24  25
HETATM   25  C   UNL     1     -12.356  13.307  70.479  1.00  0.00    -0.389 C  
BRANCH  25  26
HETATM   26  C   UNL     1     -13.162  13.715  71.714  1.00  0.00    -0.477 C  
HETATM   27  C   UNL     1     -12.452  14.792  72.506  1.00  0.00    -0.327 C  
HETATM   28  O   UNL     1     -11.377  15.287  72.225  1.00  0.00    -0.449 OA 
HETATM   29  O   UNL     1     -13.160  15.171  73.597  1.00  0.00    -0.472 OA 
ENDBRANCH  25  26
ENDBRANCH  24  25
ENDBRANCH  23  24
ENDBRANCH  21  22
ENDBRANCH  19  21
ENDBRANCH  11  12
ENDBRANCH  10  11
ENDBRANCH   8  10
ENDBRANCH   7   8
ENDBRANCH   6   7
ENDBRANCH   5   6
ENDBRANCH   4   5
ENDBRANCH   3   4
ENDBRANCH   2   3
TORSDOF 14
ENDMDL
MODEL      151
REMARK 921   NORMALIZED FREE ENERGY PREDICTED BY IDOCK:   -4.29 KCAL/MOL
REMARK 922        TOTAL FREE ENERGY PREDICTED BY IDOCK:  -10.75 KCAL/MOL
REMARK 923 INTER-LIGAND FREE ENERGY PREDICTED BY IDOCK:   -8.28 KCAL/MOL
REMARK 924 INTRA-LIGAND FREE ENERGY PREDICTED BY IDOCK:   -2.48 KCAL/MOL
REMARK 927      BINDING AFFINITY PREDICTED BY RF-SCORE:    0.00 PKD
ROOT
HETATM    1  C   UNL     1      -7.292   8.448  66.218  1.00  0.00    -0.086 C  
HETATM    2  C   UNL     1      -7.577   9.578  65.245  1.00  0.00    -0.111 C  
ENDROOT
BRANCH   2   3
HETATM    3  C   UNL     1      -9.040   9.595  64.799  1.00  0.00    -0.283 C  
BRANCH   3   4
HETATM    4  C   UNL     1      -9.136   9.962  63.318  1.00  0.00    -0.294 C  
BRANCH   4   5
HETATM    5  C   UNL     1      -9.712  11.360  63.086  1.00  0.00    -0.413 C  
BRANCH   5   6
HETATM    6  C   UNL     1     -11.032  11.511  63.851  1.00  0.00    -0.474 C  
BRANCH   6   7
HETATM    7  C   UNL     1     -11.455  12.966  63.996  1.00  0.00    -0.478 C  
BRANCH   7   8
HETATM    8  C   UNL     1     -12.178  13.239  65.317  1.00  0.00    -0.448 C  
HETATM    9  O   UNL     1     -12.996  14.145  65.454  1.00  0.00    -0.706 OA 
BRANCH   8  10
HETATM   10  C   UNL     1     -11.827  12.281  66.437  1.00  0.00    -0.382 C  
BRANCH  10  11
HETATM   11  C   UNL     1     -12.053  12.760  67.878  1.00  0.00    -0.187 C  
BRANCH  11  12
HETATM   12  C   UNL     1     -11.160  11.968  68.870  1.00  0.00    -0.298 C  
HETATM   13  C   UNL     1     -11.973  10.921  69.649  1.00  0.00    -0.343 C  
HETATM   14  O   UNL     1     -12.698  11.484  70.730  1.00  0.00    -0.301 OA 
HETATM   15  C   UNL     1     -10.931   9.973  70.182  1.00  0.00    -0.368 C  
HETATM   16  H   UNL     1     -13.200  10.837  71.212  1.00  0.00     0.000 HD 
HETATM   17  C   UNL     1      -9.957   9.810  69.033  1.00  0.00    -0.184 C  
HETATM   18  O   UNL     1      -8.694   9.475  69.574  1.00  0.00    -0.147 OA 
HETATM   19  C   UNL     1     -10.002  11.141  68.223  1.00  0.00    -0.196 C  
HETATM   20  H   UNL     1      -8.084   9.373  68.853  1.00  0.00     0.000 HD 
BRANCH  19  21
HETATM   21  C   UNL     1      -8.676  11.925  68.169  1.00  0.00    -0.173 C  
BRANCH  21  22
HETATM   22  C   UNL     1      -8.603  12.951  67.067  1.00  0.00    -0.171 C  
HETATM   23  C   UNL     1      -8.892  14.259  67.120  1.00  0.00    -0.243 C  
BRANCH  23  24
HETATM   24  C   UNL     1      -9.415  15.018  68.302  1.00  0.00    -0.196 C  
BRANCH  24  25
HETATM   25  C   UNL     1      -8.877  16.449  68.366  1.00  0.00    -0.214 C  
BRANCH  25  26
HETATM   26  C   UNL     1      -9.885  17.497  67.886  1.00  0.00    -0.293 C  
HETATM   27  C   UNL     1      -9.574  17.959  66.479  1.00  0.00    -0.313 C  
HETATM   28  O   UNL     1      -8.649  17.569  65.793  1.00  0.00    -0.521 OA 
HETATM   29  O   UNL     1     -10.465  18.879  66.039  1.00  0.00    -0.455 OA 
ENDBRANCH  25  26
ENDBRANCH  24  25
ENDBRANCH  23  24
ENDBRANCH  21  22
ENDBRANCH  19  21
ENDBRANCH  11  12
ENDBRANCH  10  11
ENDBRANCH   8  10
ENDBRANCH   7   8
ENDBRANCH   6   7
ENDBRANCH   5   6
ENDBRANCH   4   5
ENDBRANCH   3   4
ENDBRANCH   2   3
TORSDOF 14
ENDMDL
MODEL      152
REMARK 921   NORMALIZED FREE ENERGY PREDICTED BY IDOCK:   -4.28 KCAL/MOL
REMARK 922        TOTAL FREE ENERGY PREDICTED BY IDOCK:  -10.75 KCAL/MOL
REMARK 923 INTER-LIGAND FREE ENERGY PREDICTED BY IDOCK:   -8.15 KCAL/MOL
REMARK 924 INTRA-LIGAND FREE ENERGY PREDICTED BY IDOCK:   -2.59 KCAL/MOL
REMARK 927      BINDING AFFINITY PREDICTED BY RF-SCORE:    0.00 PKD
ROOT
HETATM    1  C   UNL     1      -7.910  12.916  68.150  1.00  0.00    -0.147 C  
HETATM    2  C   UNL     1      -8.046  14.052  67.152  1.00  0.00    -0.121 C  
ENDROOT
BRANCH   2   3
HETATM    3  C   UNL     1      -9.052  15.107  67.617  1.00  0.00    -0.181 C  
BRANCH   3   4
HETATM    4  C   UNL     1     -10.436  14.479  67.782  1.00  0.00    -0.242 C  
BRANCH   4   5
HETATM    5  C   UNL     1     -10.962  14.563  69.216  1.00  0.00    -0.282 C  
BRANCH   5   6
HETATM    6  C   UNL     1     -12.233  13.715  69.353  1.00  0.00    -0.307 C  
BRANCH   6   7
HETATM    7  C   UNL     1     -12.019  12.490  70.230  1.00  0.00    -0.364 C  
BRANCH   7   8
HETATM    8  C   UNL     1     -11.824  11.211  69.413  1.00  0.00    -0.345 C  
HETATM    9  O   UNL     1     -12.186  11.105  68.244  1.00  0.00    -0.613 OA 
BRANCH   8  10
HETATM   10  C   UNL     1     -11.117  10.092  70.152  1.00  0.00    -0.378 C  
BRANCH  10  11
HETATM   11  C   UNL     1      -9.643   9.834  69.808  1.00  0.00    -0.256 C  
BRANCH  11  12
HETATM   12  C   UNL     1      -9.476   8.469  69.087  1.00  0.00    -0.154 C  
HETATM   13  C   UNL     1      -9.477   7.300  70.085  1.00  0.00    -0.165 C  
HETATM   14  O   UNL     1      -8.226   7.129  70.730  1.00  0.00    -0.117 OA 
HETATM   15  C   UNL     1      -9.772   6.094  69.233  1.00  0.00    -0.163 C  
HETATM   16  H   UNL     1      -8.226   6.407  71.347  1.00  0.00     0.000 HD 
HETATM   17  C   UNL     1     -10.843   6.573  68.274  1.00  0.00    -0.288 C  
HETATM   18  O   UNL     1     -10.761   5.788  67.101  1.00  0.00    -0.264 OA 
HETATM   19  C   UNL     1     -10.605   8.100  68.072  1.00  0.00    -0.188 C  
HETATM   20  H   UNL     1     -11.432   6.088  66.499  1.00  0.00     0.000 HD 
BRANCH  19  21
HETATM   21  C   UNL     1     -10.266   8.528  66.630  1.00  0.00    -0.345 C  
BRANCH  21  22
HETATM   22  C   UNL     1      -9.028   9.381  66.509  1.00  0.00    -0.176 C  
HETATM   23  C   UNL     1      -8.803  10.421  65.694  1.00  0.00    -0.190 C  
BRANCH  23  24
HETATM   24  C   UNL     1      -9.733  10.963  64.650  1.00  0.00    -0.333 C  
BRANCH  24  25
HETATM   25  C   UNL     1     -10.648  12.062  65.194  1.00  0.00    -0.330 C  
BRANCH  25  26
HETATM   26  C   UNL     1     -10.900  13.191  64.192  1.00  0.00    -0.407 C  
HETATM   27  C   UNL     1     -12.186  13.927  64.500  1.00  0.00    -0.417 C  
HETATM   28  O   UNL     1     -12.944  13.677  65.417  1.00  0.00    -0.683 OA 
HETATM   29  O   UNL     1     -12.415  14.937  63.626  1.00  0.00    -0.699 OA 
ENDBRANCH  25  26
ENDBRANCH  24  25
ENDBRANCH  23  24
ENDBRANCH  21  22
ENDBRANCH  19  21
ENDBRANCH  11  12
ENDBRANCH  10  11
ENDBRANCH   8  10
ENDBRANCH   7   8
ENDBRANCH   6   7
ENDBRANCH   5   6
ENDBRANCH   4   5
ENDBRANCH   3   4
ENDBRANCH   2   3
TORSDOF 14
ENDMDL
MODEL      153
REMARK 921   NORMALIZED FREE ENERGY PREDICTED BY IDOCK:   -4.27 KCAL/MOL
REMARK 922        TOTAL FREE ENERGY PREDICTED BY IDOCK:  -10.73 KCAL/MOL
REMARK 923 INTER-LIGAND FREE ENERGY PREDICTED BY IDOCK:   -8.63 KCAL/MOL
REMARK 924 INTRA-LIGAND FREE ENERGY PREDICTED BY IDOCK:   -2.10 KCAL/MOL
REMARK 927      BINDING AFFINITY PREDICTED BY RF-SCORE:    0.00 PKD
ROOT
HETATM    1  C   UNL     1     -10.255  19.553  68.400  1.00  0.00    -0.536 C  
HETATM    2  C   UNL     1     -10.038  18.050  68.367  1.00  0.00    -0.392 C  
ENDROOT
BRANCH   2   3
HETATM    3  C   UNL     1     -10.872  17.376  67.275  1.00  0.00    -0.126 C  
BRANCH   3   4
HETATM    4  C   UNL     1     -11.045  15.890  67.585  1.00  0.00    -0.266 C  
BRANCH   4   5
HETATM    5  C   UNL     1     -10.824  14.995  66.365  1.00  0.00    -0.326 C  
BRANCH   5   6
HETATM    6  C   UNL     1     -12.126  14.268  66.012  1.00  0.00    -0.423 C  
BRANCH   6   7
HETATM    7  C   UNL     1     -12.393  14.252  64.513  1.00  0.00    -0.432 C  
BRANCH   7   8
HETATM    8  C   UNL     1     -12.141  12.878  63.887  1.00  0.00    -0.480 C  
HETATM    9  O   UNL     1     -13.009  12.250  63.287  1.00  0.00    -0.707 OA 
BRANCH   8  10
HETATM   10  C   UNL     1     -10.722  12.368  64.039  1.00  0.00    -0.441 C  
BRANCH  10  11
HETATM   11  C   UNL     1     -10.506  10.848  63.986  1.00  0.00    -0.379 C  
BRANCH  11  12
HETATM   12  C   UNL     1      -9.605  10.378  65.160  1.00  0.00    -0.329 C  
HETATM   13  C   UNL     1      -8.251   9.852  64.656  1.00  0.00    -0.153 C  
HETATM   14  O   UNL     1      -8.328   8.523  64.164  1.00  0.00    -0.246 OA 
HETATM   15  C   UNL     1      -7.369   9.885  65.876  1.00  0.00    -0.108 C  
HETATM   16  H   UNL     1      -7.492   8.198  63.853  1.00  0.00     0.000 HD 
HETATM   17  C   UNL     1      -7.729  11.192  66.555  1.00  0.00    -0.146 C  
HETATM   18  O   UNL     1      -7.455  11.056  67.936  1.00  0.00    -0.090 OA 
HETATM   19  C   UNL     1      -9.218  11.481  66.197  1.00  0.00    -0.230 C  
HETATM   20  H   UNL     1      -7.680  11.875  68.362  1.00  0.00     0.000 HD 
BRANCH  19  21
HETATM   21  C   UNL     1     -10.186  11.530  67.396  1.00  0.00    -0.228 C  
BRANCH  21  22
HETATM   22  C   UNL     1     -10.892  10.228  67.679  1.00  0.00    -0.363 C  
HETATM   23  C   UNL     1     -11.301   9.735  68.856  1.00  0.00     0.006 C  
BRANCH  23  24
HETATM   24  C   UNL     1     -11.103  10.354  70.207  1.00  0.00    -0.379 C  
BRANCH  24  25
HETATM   25  C   UNL     1     -12.229  11.321  70.581  1.00  0.00    -0.489 C  
BRANCH  25  26
HETATM   26  C   UNL     1     -11.903  12.782  70.262  1.00  0.00    -0.292 C  
HETATM   27  C   UNL     1     -12.638  13.727  71.187  1.00  0.00    -0.373 C  
HETATM   28  O   UNL     1     -13.398  13.399  72.078  1.00  0.00    -0.415 OA 
HETATM   29  O   UNL     1     -12.349  15.024  70.922  1.00  0.00    -0.287 OA 
ENDBRANCH  25  26
ENDBRANCH  24  25
ENDBRANCH  23  24
ENDBRANCH  21  22
ENDBRANCH  19  21
ENDBRANCH  11  12
ENDBRANCH  10  11
ENDBRANCH   8  10
ENDBRANCH   7   8
ENDBRANCH   6   7
ENDBRANCH   5   6
ENDBRANCH   4   5
ENDBRANCH   3   4
ENDBRANCH   2   3
TORSDOF 14
ENDMDL
MODEL      154
REMARK 921   NORMALIZED FREE ENERGY PREDICTED BY IDOCK:   -4.27 KCAL/MOL
REMARK 922        TOTAL FREE ENERGY PREDICTED BY IDOCK:  -10.73 KCAL/MOL
REMARK 923 INTER-LIGAND FREE ENERGY PREDICTED BY IDOCK:   -9.09 KCAL/MOL
REMARK 924 INTRA-LIGAND FREE ENERGY PREDICTED BY IDOCK:   -1.64 KCAL/MOL
REMARK 927      BINDING AFFINITY PREDICTED BY RF-SCORE:    0.00 PKD
ROOT
HETATM    1  C   UNL     1      -8.601   6.534  72.869  1.00  0.00    -0.125 C  
HETATM    2  C   UNL     1      -8.470   7.546  71.745  1.00  0.00    -0.118 C  
ENDROOT
BRANCH   2   3
HETATM    3  C   UNL     1      -9.315   8.796  71.999  1.00  0.00    -0.322 C  
BRANCH   3   4
HETATM    4  C   UNL     1     -10.788   8.504  71.714  1.00  0.00    -0.374 C  
BRANCH   4   5
HETATM    5  C   UNL     1     -11.022   7.924  70.318  1.00  0.00    -0.249 C  
BRANCH   5   6
HETATM    6  C   UNL     1     -10.537   8.916  69.255  1.00  0.00    -0.219 C  
BRANCH   6   7
HETATM    7  C   UNL     1     -10.135   8.227  67.959  1.00  0.00    -0.243 C  
BRANCH   7   8
HETATM    8  C   UNL     1      -9.825   9.220  66.837  1.00  0.00    -0.214 C  
HETATM    9  O   UNL     1      -9.503   8.868  65.705  1.00  0.00    -0.238 OA 
BRANCH   8  10
HETATM   10  C   UNL     1      -9.977  10.677  67.226  1.00  0.00    -0.224 C  
BRANCH  10  11
HETATM   11  C   UNL     1      -9.195  11.716  66.408  1.00  0.00    -0.219 C  
BRANCH  11  12
HETATM   12  C   UNL     1     -10.162  12.635  65.615  1.00  0.00    -0.290 C  
HETATM   13  C   UNL     1     -10.537  12.020  64.256  1.00  0.00    -0.334 C  
HETATM   14  O   UNL     1      -9.532  12.206  63.274  1.00  0.00    -0.664 OA 
HETATM   15  C   UNL     1     -11.781  12.767  63.850  1.00  0.00    -0.530 C  
HETATM   16  H   UNL     1      -9.764  11.826  62.434  1.00  0.00     0.000 HD 
HETATM   17  C   UNL     1     -12.577  12.884  65.134  1.00  0.00    -0.471 C  
HETATM   18  O   UNL     1     -13.404  14.027  65.032  1.00  0.00    -0.578 OA 
HETATM   19  C   UNL     1     -11.540  12.914  66.297  1.00  0.00    -0.424 C  
HETATM   20  H   UNL     1     -13.903  14.100  65.837  1.00  0.00     0.000 HD 
BRANCH  19  21
HETATM   21  C   UNL     1     -11.531  14.205  67.139  1.00  0.00    -0.373 C  
BRANCH  21  22
HETATM   22  C   UNL     1     -10.900  14.056  68.500  1.00  0.00    -0.268 C  
HETATM   23  C   UNL     1     -10.681  14.997  69.430  1.00  0.00    -0.267 C  
BRANCH  23  24
HETATM   24  C   UNL     1     -10.972  16.463  69.311  1.00  0.00    -0.322 C  
BRANCH  24  25
HETATM   25  C   UNL     1      -9.992  17.182  68.381  1.00  0.00    -0.310 C  
BRANCH  25  26
HETATM   26  C   UNL     1     -10.650  18.277  67.537  1.00  0.00    -0.432 C  
HETATM   27  C   UNL     1     -10.489  18.006  66.057  1.00  0.00    -0.313 C  
HETATM   28  O   UNL     1      -9.914  17.052  65.569  1.00  0.00    -0.567 OA 
HETATM   29  O   UNL     1     -11.077  18.963  65.299  1.00  0.00    -0.397 OA 
ENDBRANCH  25  26
ENDBRANCH  24  25
ENDBRANCH  23  24
ENDBRANCH  21  22
ENDBRANCH  19  21
ENDBRANCH  11  12
ENDBRANCH  10  11
ENDBRANCH   8  10
ENDBRANCH   7   8
ENDBRANCH   6   7
ENDBRANCH   5   6
ENDBRANCH   4   5
ENDBRANCH   3   4
ENDBRANCH   2   3
TORSDOF 14
ENDMDL
MODEL      155
REMARK 921   NORMALIZED FREE ENERGY PREDICTED BY IDOCK:   -4.27 KCAL/MOL
REMARK 922        TOTAL FREE ENERGY PREDICTED BY IDOCK:  -10.72 KCAL/MOL
REMARK 923 INTER-LIGAND FREE ENERGY PREDICTED BY IDOCK:   -9.29 KCAL/MOL
REMARK 924 INTRA-LIGAND FREE ENERGY PREDICTED BY IDOCK:   -1.43 KCAL/MOL
REMARK 927      BINDING AFFINITY PREDICTED BY RF-SCORE:    0.00 PKD
ROOT
HETATM    1  C   UNL     1     -12.027  16.220  73.272  1.00  0.00    -0.525 C  
HETATM    2  C   UNL     1     -13.207  15.282  73.454  1.00  0.00    -0.531 C  
ENDROOT
BRANCH   2   3
HETATM    3  C   UNL     1     -14.162  15.324  72.259  1.00  0.00    -0.642 C  
BRANCH   3   4
HETATM    4  C   UNL     1     -14.152  13.981  71.529  1.00  0.00    -0.270 C  
BRANCH   4   5
HETATM    5  C   UNL     1     -13.280  12.932  72.221  1.00  0.00    -0.519 C  
BRANCH   5   6
HETATM    6  C   UNL     1     -12.673  11.989  71.174  1.00  0.00    -0.365 C  
BRANCH   6   7
HETATM    7  C   UNL     1     -11.613  12.673  70.324  1.00  0.00    -0.050 C  
BRANCH   7   8
HETATM    8  C   UNL     1     -11.987  12.715  68.841  1.00  0.00    -0.242 C  
HETATM    9  O   UNL     1     -12.410  11.736  68.232  1.00  0.00    -0.379 OA 
BRANCH   8  10
HETATM   10  C   UNL     1     -11.824  14.073  68.188  1.00  0.00    -0.402 C  
BRANCH  10  11
HETATM   11  C   UNL     1     -10.897  14.166  66.966  1.00  0.00    -0.295 C  
BRANCH  11  12
HETATM   12  C   UNL     1     -11.331  13.159  65.867  1.00  0.00    -0.338 C  
HETATM   13  C   UNL     1     -11.799  13.881  64.593  1.00  0.00    -0.407 C  
HETATM   14  O   UNL     1     -13.128  14.365  64.695  1.00  0.00    -0.481 OA 
HETATM   15  C   UNL     1     -11.730  12.820  63.527  1.00  0.00    -0.597 C  
HETATM   16  H   UNL     1     -13.418  14.811  63.907  1.00  0.00     0.000 HD 
HETATM   17  C   UNL     1     -10.442  12.080  63.825  1.00  0.00    -0.429 C  
HETATM   18  O   UNL     1     -10.568  10.763  63.324  1.00  0.00    -0.602 OA 
HETATM   19  C   UNL     1     -10.214  12.189  65.363  1.00  0.00    -0.299 C  
HETATM   20  H   UNL     1      -9.760  10.300  63.511  1.00  0.00     0.000 HD 
BRANCH  19  21
HETATM   21  C   UNL     1     -10.209  10.848  66.124  1.00  0.00    -0.304 C  
BRANCH  21  22
HETATM   22  C   UNL     1      -8.929  10.560  66.868  1.00  0.00    -0.151 C  
HETATM   23  C   UNL     1      -8.711   9.672  67.848  1.00  0.00    -0.119 C  
BRANCH  23  24
HETATM   24  C   UNL     1      -9.724   8.770  68.486  1.00  0.00    -0.173 C  
BRANCH  24  25
HETATM   25  C   UNL     1     -10.491   9.458  69.618  1.00  0.00    -0.236 C  
BRANCH  25  26
HETATM   26  C   UNL     1     -11.327   8.490  70.459  1.00  0.00    -0.235 C  
HETATM   27  C   UNL     1     -10.571   8.029  71.686  1.00  0.00    -0.227 C  
HETATM   28  O   UNL     1      -9.442   8.365  71.991  1.00  0.00    -0.214 OA 
HETATM   29  O   UNL     1     -11.304   7.180  72.445  1.00  0.00    -0.257 OA 
ENDBRANCH  25  26
ENDBRANCH  24  25
ENDBRANCH  23  24
ENDBRANCH  21  22
ENDBRANCH  19  21
ENDBRANCH  11  12
ENDBRANCH  10  11
ENDBRANCH   8  10
ENDBRANCH   7   8
ENDBRANCH   6   7
ENDBRANCH   5   6
ENDBRANCH   4   5
ENDBRANCH   3   4
ENDBRANCH   2   3
TORSDOF 14
ENDMDL
MODEL      156
REMARK 921   NORMALIZED FREE ENERGY PREDICTED BY IDOCK:   -4.24 KCAL/MOL
REMARK 922        TOTAL FREE ENERGY PREDICTED BY IDOCK:  -10.67 KCAL/MOL
REMARK 923 INTER-LIGAND FREE ENERGY PREDICTED BY IDOCK:   -9.33 KCAL/MOL
REMARK 924 INTRA-LIGAND FREE ENERGY PREDICTED BY IDOCK:   -1.34 KCAL/MOL
REMARK 927      BINDING AFFINITY PREDICTED BY RF-SCORE:    0.00 PKD
ROOT
HETATM    1  C   UNL     1     -13.018  10.398  71.038  1.00  0.00    -0.490 C  
HETATM    2  C   UNL     1     -11.554  10.003  71.108  1.00  0.00    -0.460 C  
ENDROOT
BRANCH   2   3
HETATM    3  C   UNL     1     -11.370   8.581  71.643  1.00  0.00    -0.362 C  
BRANCH   3   4
HETATM    4  C   UNL     1     -10.473   7.777  70.704  1.00  0.00    -0.213 C  
BRANCH   4   5
HETATM    5  C   UNL     1      -9.266   8.572  70.204  1.00  0.00    -0.159 C  
BRANCH   5   6
HETATM    6  C   UNL     1      -8.993   8.233  68.733  1.00  0.00    -0.144 C  
BRANCH   6   7
HETATM    7  C   UNL     1      -8.378   9.400  67.974  1.00  0.00    -0.119 C  
BRANCH   7   8
HETATM    8  C   UNL     1      -9.141   9.731  66.689  1.00  0.00    -0.147 C  
HETATM    9  O   UNL     1      -9.758   8.887  66.044  1.00  0.00    -0.260 OA 
BRANCH   8  10
HETATM   10  C   UNL     1      -9.101  11.192  66.291  1.00  0.00    -0.207 C  
BRANCH  10  11
HETATM   11  C   UNL     1     -10.371  12.026  66.521  1.00  0.00    -0.240 C  
BRANCH  11  12
HETATM   12  C   UNL     1     -10.699  12.888  65.272  1.00  0.00    -0.318 C  
HETATM   13  C   UNL     1     -11.927  12.350  64.522  1.00  0.00    -0.402 C  
HETATM   14  O   UNL     1     -11.621  11.240  63.693  1.00  0.00    -0.534 OA 
HETATM   15  C   UNL     1     -12.369  13.509  63.666  1.00  0.00    -0.377 C  
HETATM   16  H   UNL     1     -12.381  10.907  63.229  1.00  0.00     0.000 HD 
HETATM   17  C   UNL     1     -12.215  14.714  64.572  1.00  0.00    -0.456 C  
HETATM   18  O   UNL     1     -12.007  15.849  63.754  1.00  0.00    -1.238 OA 
HETATM   19  C   UNL     1     -11.055  14.382  65.558  1.00  0.00    -0.326 C  
HETATM   20  H   UNL     1     -11.910  16.605  64.322  1.00  0.00     0.000 HD 
BRANCH  19  21
HETATM   21  C   UNL     1      -9.827  15.310  65.468  1.00  0.00    -0.362 C  
BRANCH  21  22
HETATM   22  C   UNL     1      -9.015  15.393  66.736  1.00  0.00    -0.288 C  
HETATM   23  C   UNL     1      -7.968  16.184  67.010  1.00  0.00    -0.254 C  
BRANCH  23  24
HETATM   24  C   UNL     1      -7.309  17.157  66.080  1.00  0.00    -0.281 C  
BRANCH  24  25
HETATM   25  C   UNL     1      -7.468  18.608  66.542  1.00  0.00    -0.267 C  
BRANCH  25  26
HETATM   26  C   UNL     1      -8.068  18.735  67.944  1.00  0.00    -0.284 C  
HETATM   27  C   UNL     1      -9.247  19.683  67.957  1.00  0.00    -0.334 C  
HETATM   28  O   UNL     1      -9.686  20.283  66.994  1.00  0.00    -0.409 OA 
HETATM   29  O   UNL     1      -9.795  19.796  69.191  1.00  0.00    -0.396 OA 
ENDBRANCH  25  26
ENDBRANCH  24  25
ENDBRANCH  23  24
ENDBRANCH  21  22
ENDBRANCH  19  21
ENDBRANCH  11  12
ENDBRANCH  10  11
ENDBRANCH   8  10
ENDBRANCH   7   8
ENDBRANCH   6   7
ENDBRANCH   5   6
ENDBRANCH   4   5
ENDBRANCH   3   4
ENDBRANCH   2   3
TORSDOF 14
ENDMDL
MODEL      157
REMARK 921   NORMALIZED FREE ENERGY PREDICTED BY IDOCK:   -4.24 KCAL/MOL
REMARK 922        TOTAL FREE ENERGY PREDICTED BY IDOCK:  -10.66 KCAL/MOL
REMARK 923 INTER-LIGAND FREE ENERGY PREDICTED BY IDOCK:   -8.32 KCAL/MOL
REMARK 924 INTRA-LIGAND FREE ENERGY PREDICTED BY IDOCK:   -2.34 KCAL/MOL
REMARK 927      BINDING AFFINITY PREDICTED BY RF-SCORE:    0.00 PKD
ROOT
HETATM    1  C   UNL     1     -10.789  11.569  63.738  1.00  0.00    -0.486 C  
HETATM    2  C   UNL     1     -10.835  12.863  64.530  1.00  0.00    -0.385 C  
ENDROOT
BRANCH   2   3
HETATM    3  C   UNL     1     -12.244  13.172  65.041  1.00  0.00    -0.488 C  
BRANCH   3   4
HETATM    4  C   UNL     1     -12.232  13.323  66.562  1.00  0.00    -0.389 C  
BRANCH   4   5
HETATM    5  C   UNL     1     -10.820  13.438  67.139  1.00  0.00    -0.284 C  
BRANCH   5   6
HETATM    6  C   UNL     1     -10.784  12.830  68.546  1.00  0.00    -0.275 C  
BRANCH   6   7
HETATM    7  C   UNL     1     -11.720  11.638  68.687  1.00  0.00    -0.386 C  
BRANCH   7   8
HETATM    8  C   UNL     1     -11.076  10.328  68.226  1.00  0.00    -0.254 C  
HETATM    9  O   UNL     1     -10.677  10.150  67.079  1.00  0.00    -0.244 OA 
BRANCH   8  10
HETATM   10  C   UNL     1     -10.941   9.277  69.310  1.00  0.00    -0.105 C  
BRANCH  10  11
HETATM   11  C   UNL     1     -10.811   9.765  70.760  1.00  0.00    -0.403 C  
BRANCH  11  12
HETATM   12  C   UNL     1     -11.900   9.121  71.659  1.00  0.00    -0.443 C  
HETATM   13  C   UNL     1     -13.258   9.821  71.489  1.00  0.00    -0.404 C  
HETATM   14  O   UNL     1     -13.347  11.031  72.224  1.00  0.00    -0.633 OA 
HETATM   15  C   UNL     1     -14.251   8.828  72.034  1.00  0.00    -0.493 C  
HETATM   16  H   UNL     1     -14.186  11.463  72.120  1.00  0.00     0.000 HD 
HETATM   17  C   UNL     1     -13.758   7.492  71.516  1.00  0.00    -0.372 C  
HETATM   18  O   UNL     1     -14.201   6.488  72.408  1.00  0.00    -0.621 OA 
HETATM   19  C   UNL     1     -12.212   7.617  71.369  1.00  0.00    -0.351 C  
HETATM   20  H   UNL     1     -13.892   5.650  72.084  1.00  0.00     0.000 HD 
BRANCH  19  21
HETATM   21  C   UNL     1     -11.386   6.662  72.253  1.00  0.00    -0.311 C  
BRANCH  21  22
HETATM   22  C   UNL     1     -10.750   5.516  71.506  1.00  0.00    -0.290 C  
HETATM   23  C   UNL     1      -9.467   5.356  71.153  1.00  0.00    -0.200 C  
BRANCH  23  24
HETATM   24  C   UNL     1      -8.345   6.325  71.376  1.00  0.00    -0.123 C  
BRANCH  24  25
HETATM   25  C   UNL     1      -7.377   6.384  70.192  1.00  0.00    -0.086 C  
BRANCH  25  26
HETATM   26  C   UNL     1      -7.843   7.320  69.075  1.00  0.00    -0.118 C  
HETATM   27  C   UNL     1      -7.024   8.592  69.041  1.00  0.00    -0.064 C  
HETATM   28  O   UNL     1      -6.108   8.866  69.793  1.00  0.00    -0.034 OA 
HETATM   29  O   UNL     1      -7.420   9.425  68.048  1.00  0.00    -0.079 OA 
ENDBRANCH  25  26
ENDBRANCH  24  25
ENDBRANCH  23  24
ENDBRANCH  21  22
ENDBRANCH  19  21
ENDBRANCH  11  12
ENDBRANCH  10  11
ENDBRANCH   8  10
ENDBRANCH   7   8
ENDBRANCH   6   7
ENDBRANCH   5   6
ENDBRANCH   4   5
ENDBRANCH   3   4
ENDBRANCH   2   3
TORSDOF 14
ENDMDL
MODEL      158
REMARK 921   NORMALIZED FREE ENERGY PREDICTED BY IDOCK:   -4.22 KCAL/MOL
REMARK 922        TOTAL FREE ENERGY PREDICTED BY IDOCK:  -10.63 KCAL/MOL
REMARK 923 INTER-LIGAND FREE ENERGY PREDICTED BY IDOCK:   -8.45 KCAL/MOL
REMARK 924 INTRA-LIGAND FREE ENERGY PREDICTED BY IDOCK:   -2.18 KCAL/MOL
REMARK 927      BINDING AFFINITY PREDICTED BY RF-SCORE:    0.00 PKD
ROOT
HETATM    1  C   UNL     1     -13.105  11.002  71.622  1.00  0.00    -0.543 C  
HETATM    2  C   UNL     1     -13.301   9.507  71.796  1.00  0.00    -0.501 C  
ENDROOT
BRANCH   2   3
HETATM    3  C   UNL     1     -12.060   8.831  72.384  1.00  0.00    -0.379 C  
BRANCH   3   4
HETATM    4  C   UNL     1     -11.713   7.577  71.583  1.00  0.00    -0.313 C  
BRANCH   4   5
HETATM    5  C   UNL     1     -11.089   7.891  70.222  1.00  0.00    -0.232 C  
BRANCH   5   6
HETATM    6  C   UNL     1     -10.130   9.080  70.353  1.00  0.00    -0.248 C  
BRANCH   6   7
HETATM    7  C   UNL     1      -9.537   9.497  69.014  1.00  0.00    -0.166 C  
BRANCH   7   8
HETATM    8  C   UNL     1     -10.481  10.391  68.207  1.00  0.00    -0.191 C  
HETATM    9  O   UNL     1     -11.389   9.945  67.511  1.00  0.00    -0.136 OA 
BRANCH   8  10
HETATM   10  C   UNL     1     -10.226  11.877  68.360  1.00  0.00    -0.205 C  
BRANCH  10  11
HETATM   11  C   UNL     1      -9.379  12.567  67.281  1.00  0.00    -0.190 C  
BRANCH  11  12
HETATM   12  C   UNL     1      -9.648  14.095  67.261  1.00  0.00    -0.234 C  
HETATM   13  C   UNL     1      -8.366  14.898  67.533  1.00  0.00    -0.180 C  
HETATM   14  O   UNL     1      -8.039  14.959  68.912  1.00  0.00    -0.149 OA 
HETATM   15  C   UNL     1      -8.688  16.281  67.032  1.00  0.00    -0.220 C  
HETATM   16  H   UNL     1      -7.247  15.455  69.081  1.00  0.00     0.000 HD 
HETATM   17  C   UNL     1      -9.445  16.039  65.742  1.00  0.00    -0.247 C  
HETATM   18  O   UNL     1     -10.291  17.150  65.517  1.00  0.00    -0.599 OA 
HETATM   19  C   UNL     1     -10.173  14.671  65.907  1.00  0.00    -0.344 C  
HETATM   20  H   UNL     1     -10.766  16.998  64.708  1.00  0.00     0.000 HD 
BRANCH  19  21
HETATM   21  C   UNL     1     -11.713  14.733  65.848  1.00  0.00    -0.248 C  
BRANCH  21  22
HETATM   22  C   UNL     1     -12.388  13.385  65.795  1.00  0.00    -0.513 C  
HETATM   23  C   UNL     1     -12.384  12.485  64.802  1.00  0.00    -0.544 C  
BRANCH  23  24
HETATM   24  C   UNL     1     -11.735  12.630  63.459  1.00  0.00    -0.604 C  
BRANCH  24  25
HETATM   25  C   UNL     1     -10.442  11.821  63.342  1.00  0.00    -0.485 C  
BRANCH  25  26
HETATM   26  C   UNL     1     -10.308  10.734  64.411  1.00  0.00    -0.405 C  
HETATM   27  C   UNL     1      -8.949  10.072  64.360  1.00  0.00    -0.231 C  
HETATM   28  O   UNL     1      -8.056  10.344  63.580  1.00  0.00    -0.159 OA 
HETATM   29  O   UNL     1      -8.813   9.115  65.309  1.00  0.00    -0.179 OA 
ENDBRANCH  25  26
ENDBRANCH  24  25
ENDBRANCH  23  24
ENDBRANCH  21  22
ENDBRANCH  19  21
ENDBRANCH  11  12
ENDBRANCH  10  11
ENDBRANCH   8  10
ENDBRANCH   7   8
ENDBRANCH   6   7
ENDBRANCH   5   6
ENDBRANCH   4   5
ENDBRANCH   3   4
ENDBRANCH   2   3
TORSDOF 14
ENDMDL
MODEL      159
REMARK 921   NORMALIZED FREE ENERGY PREDICTED BY IDOCK:   -4.22 KCAL/MOL
REMARK 922        TOTAL FREE ENERGY PREDICTED BY IDOCK:  -10.63 KCAL/MOL
REMARK 923 INTER-LIGAND FREE ENERGY PREDICTED BY IDOCK:   -8.23 KCAL/MOL
REMARK 924 INTRA-LIGAND FREE ENERGY PREDICTED BY IDOCK:   -2.40 KCAL/MOL
REMARK 927      BINDING AFFINITY PREDICTED BY RF-SCORE:    0.00 PKD
ROOT
HETATM    1  C   UNL     1      -6.371   8.403  67.048  1.00  0.00    -0.057 C  
HETATM    2  C   UNL     1      -6.630   9.872  67.332  1.00  0.00    -0.069 C  
ENDROOT
BRANCH   2   3
HETATM    3  C   UNL     1      -7.235  10.591  66.124  1.00  0.00    -0.136 C  
BRANCH   3   4
HETATM    4  C   UNL     1      -7.509   9.593  65.000  1.00  0.00    -0.116 C  
BRANCH   4   5
HETATM    5  C   UNL     1      -8.988   9.513  64.619  1.00  0.00    -0.266 C  
BRANCH   5   6
HETATM    6  C   UNL     1      -9.848  10.081  65.755  1.00  0.00    -0.345 C  
BRANCH   6   7
HETATM    7  C   UNL     1     -10.483   8.987  66.602  1.00  0.00    -0.235 C  
BRANCH   7   8
HETATM    8  C   UNL     1     -10.496   9.334  68.093  1.00  0.00    -0.215 C  
HETATM    9  O   UNL     1      -9.748   8.800  68.908  1.00  0.00    -0.166 OA 
BRANCH   8  10
HETATM   10  C   UNL     1     -11.487  10.413  68.480  1.00  0.00    -0.231 C  
BRANCH  10  11
HETATM   11  C   UNL     1     -11.128  11.311  69.674  1.00  0.00    -0.273 C  
BRANCH  11  12
HETATM   12  C   UNL     1     -12.410  11.850  70.363  1.00  0.00    -0.334 C  
HETATM   13  C   UNL     1     -12.816  10.978  71.561  1.00  0.00    -0.450 C  
HETATM   14  O   UNL     1     -13.502   9.799  71.174  1.00  0.00    -0.441 OA 
HETATM   15  C   UNL     1     -13.741  11.859  72.358  1.00  0.00     0.154 C  
HETATM   16  H   UNL     1     -13.753   9.259  71.915  1.00  0.00     0.000 HD 
HETATM   17  C   UNL     1     -13.084  13.224  72.308  1.00  0.00    -0.371 C  
HETATM   18  O   UNL     1     -14.094  14.201  72.467  1.00  0.00    -0.590 OA 
HETATM   19  C   UNL     1     -12.299  13.289  70.964  1.00  0.00    -0.379 C  
HETATM   20  H   UNL     1     -13.682  15.057  72.435  1.00  0.00     0.000 HD 
BRANCH  19  21
HETATM   21  C   UNL     1     -12.770  14.378  69.978  1.00  0.00    -0.185 C  
BRANCH  21  22
HETATM   22  C   UNL     1     -11.696  15.356  69.573  1.00  0.00    -0.364 C  
HETATM   23  C   UNL     1     -10.877  15.309  68.512  1.00  0.00    -0.253 C  
BRANCH  23  24
HETATM   24  C   UNL     1     -10.800  14.222  67.483  1.00  0.00    -0.284 C  
BRANCH  24  25
HETATM   25  C   UNL     1     -11.863  14.371  66.392  1.00  0.00    -0.402 C  
BRANCH  25  26
HETATM   26  C   UNL     1     -12.248  13.043  65.736  1.00  0.00    -0.511 C  
HETATM   27  C   UNL     1     -12.657  13.238  64.292  1.00  0.00    -0.182 C  
HETATM   28  O   UNL     1     -12.689  14.300  63.701  1.00  0.00    -0.783 OA 
HETATM   29  O   UNL     1     -12.990  12.067  63.696  1.00  0.00    -0.747 OA 
ENDBRANCH  25  26
ENDBRANCH  24  25
ENDBRANCH  23  24
ENDBRANCH  21  22
ENDBRANCH  19  21
ENDBRANCH  11  12
ENDBRANCH  10  11
ENDBRANCH   8  10
ENDBRANCH   7   8
ENDBRANCH   6   7
ENDBRANCH   5   6
ENDBRANCH   4   5
ENDBRANCH   3   4
ENDBRANCH   2   3
TORSDOF 14
ENDMDL
MODEL      160
REMARK 921   NORMALIZED FREE ENERGY PREDICTED BY IDOCK:   -4.21 KCAL/MOL
REMARK 922        TOTAL FREE ENERGY PREDICTED BY IDOCK:  -10.61 KCAL/MOL
REMARK 923 INTER-LIGAND FREE ENERGY PREDICTED BY IDOCK:   -8.93 KCAL/MOL
REMARK 924 INTRA-LIGAND FREE ENERGY PREDICTED BY IDOCK:   -1.68 KCAL/MOL
REMARK 927      BINDING AFFINITY PREDICTED BY RF-SCORE:    0.00 PKD
ROOT
HETATM    1  C   UNL     1     -11.403  11.842  63.838  1.00  0.00    -0.509 C  
HETATM    2  C   UNL     1     -11.082  13.227  64.372  1.00  0.00    -0.407 C  
ENDROOT
BRANCH   2   3
HETATM    3  C   UNL     1     -12.339  13.968  64.833  1.00  0.00    -0.447 C  
BRANCH   3   4
HETATM    4  C   UNL     1     -12.273  14.233  66.337  1.00  0.00    -0.426 C  
BRANCH   4   5
HETATM    5  C   UNL     1     -10.885  13.978  66.928  1.00  0.00    -0.290 C  
BRANCH   5   6
HETATM    6  C   UNL     1     -11.012  13.151  68.213  1.00  0.00    -0.278 C  
BRANCH   6   7
HETATM    7  C   UNL     1     -11.896  11.926  68.029  1.00  0.00    -0.323 C  
BRANCH   7   8
HETATM    8  C   UNL     1     -11.088  10.652  67.775  1.00  0.00    -0.321 C  
HETATM    9  O   UNL     1     -10.437  10.469  66.750  1.00  0.00    -0.239 OA 
BRANCH   8  10
HETATM   10  C   UNL     1     -11.131   9.643  68.906  1.00  0.00    -0.097 C  
BRANCH  10  11
HETATM   11  C   UNL     1     -10.912  10.167  70.333  1.00  0.00    -0.386 C  
BRANCH  11  12
HETATM   12  C   UNL     1     -11.747   9.348  71.354  1.00  0.00    -0.448 C  
HETATM   13  C   UNL     1     -13.197   9.853  71.431  1.00  0.00    -0.400 C  
HETATM   14  O   UNL     1     -13.331  11.016  72.232  1.00  0.00    -0.633 OA 
HETATM   15  C   UNL     1     -13.946   8.713  72.071  1.00  0.00    -0.506 C  
HETATM   16  H   UNL     1     -14.227  11.327  72.279  1.00  0.00     0.000 HD 
HETATM   17  C   UNL     1     -13.365   7.476  71.416  1.00  0.00    -0.311 C  
HETATM   18  O   UNL     1     -13.519   6.394  72.314  1.00  0.00    -0.486 OA 
HETATM   19  C   UNL     1     -11.893   7.825  71.039  1.00  0.00    -0.290 C  
HETATM   20  H   UNL     1     -13.154   5.618  71.903  1.00  0.00     0.000 HD 
BRANCH  19  21
HETATM   21  C   UNL     1     -10.815   6.972  71.737  1.00  0.00    -0.250 C  
BRANCH  21  22
HETATM   22  C   UNL     1     -10.654   5.584  71.167  1.00  0.00    -0.303 C  
HETATM   23  C   UNL     1     -10.109   5.216  69.999  1.00  0.00    -0.345 C  
BRANCH  23  24
HETATM   24  C   UNL     1      -9.564   6.122  68.936  1.00  0.00    -0.144 C  
BRANCH  24  25
HETATM   25  C   UNL     1      -9.279   5.384  67.626  1.00  0.00    -0.116 C  
BRANCH  25  26
HETATM   26  C   UNL     1     -10.524   5.192  66.755  1.00  0.00    -0.306 C  
HETATM   27  C   UNL     1     -10.206   4.407  65.502  1.00  0.00    -0.241 C  
HETATM   28  O   UNL     1      -9.112   3.972  65.195  1.00  0.00    -0.126 OA 
HETATM   29  O   UNL     1     -11.302   4.221  64.727  1.00  0.00    -0.302 OA 
ENDBRANCH  25  26
ENDBRANCH  24  25
ENDBRANCH  23  24
ENDBRANCH  21  22
ENDBRANCH  19  21
ENDBRANCH  11  12
ENDBRANCH  10  11
ENDBRANCH   8  10
ENDBRANCH   7   8
ENDBRANCH   6   7
ENDBRANCH   5   6
ENDBRANCH   4   5
ENDBRANCH   3   4
ENDBRANCH   2   3
TORSDOF 14
ENDMDL
MODEL      161
REMARK 921   NORMALIZED FREE ENERGY PREDICTED BY IDOCK:   -4.20 KCAL/MOL
REMARK 922        TOTAL FREE ENERGY PREDICTED BY IDOCK:  -10.60 KCAL/MOL
REMARK 923 INTER-LIGAND FREE ENERGY PREDICTED BY IDOCK:   -7.65 KCAL/MOL
REMARK 924 INTRA-LIGAND FREE ENERGY PREDICTED BY IDOCK:   -2.95 KCAL/MOL
REMARK 927      BINDING AFFINITY PREDICTED BY RF-SCORE:    0.00 PKD
ROOT
HETATM    1  C   UNL     1     -12.197  15.005  64.154  1.00  0.00    -0.234 C  
HETATM    2  C   UNL     1     -11.546  13.677  64.494  1.00  0.00    -0.415 C  
ENDROOT
BRANCH   2   3
HETATM    3  C   UNL     1     -12.347  12.490  63.954  1.00  0.00    -0.576 C  
BRANCH   3   4
HETATM    4  C   UNL     1     -11.401  11.385  63.484  1.00  0.00    -0.257 C  
BRANCH   4   5
HETATM    5  C   UNL     1      -9.925  11.760  63.634  1.00  0.00    -0.404 C  
BRANCH   5   6
HETATM    6  C   UNL     1      -9.086  10.976  62.617  1.00  0.00    -0.375 C  
BRANCH   6   7
HETATM    7  C   UNL     1      -8.619   9.634  63.163  1.00  0.00    -0.208 C  
BRANCH   7   8
HETATM    8  C   UNL     1      -7.594   9.783  64.289  1.00  0.00    -0.135 C  
HETATM    9  O   UNL     1      -6.502  10.322  64.130  1.00  0.00    -0.132 OA 
BRANCH   8  10
HETATM   10  C   UNL     1      -8.047   9.239  65.629  1.00  0.00    -0.112 C  
BRANCH  10  11
HETATM   11  C   UNL     1      -9.438   8.593  65.700  1.00  0.00    -0.114 C  
BRANCH  11  12
HETATM   12  C   UNL     1     -10.103   8.864  67.076  1.00  0.00    -0.331 C  
HETATM   13  C   UNL     1     -10.445   7.555  67.805  1.00  0.00    -0.223 C  
HETATM   14  O   UNL     1     -11.640   6.958  67.329  1.00  0.00    -0.668 OA 
HETATM   15  C   UNL     1     -10.630   7.974  69.240  1.00  0.00    -0.193 C  
HETATM   16  H   UNL     1     -11.851   6.149  67.780  1.00  0.00     0.000 HD 
HETATM   17  C   UNL     1      -9.517   8.975  69.478  1.00  0.00    -0.164 C  
HETATM   18  O   UNL     1      -9.931   9.851  70.509  1.00  0.00    -0.345 OA 
HETATM   19  C   UNL     1      -9.230   9.652  68.104  1.00  0.00    -0.130 C  
HETATM   20  H   UNL     1      -9.233  10.479  70.658  1.00  0.00     0.000 HD 
BRANCH  19  21
HETATM   21  C   UNL     1      -9.484  11.172  68.053  1.00  0.00    -0.174 C  
BRANCH  21  22
HETATM   22  C   UNL     1     -10.796  11.562  67.419  1.00  0.00    -0.294 C  
HETATM   23  C   UNL     1     -11.666  12.506  67.807  1.00  0.00    -0.419 C  
BRANCH  23  24
HETATM   24  C   UNL     1     -11.562  13.381  69.020  1.00  0.00    -0.358 C  
BRANCH  24  25
HETATM   25  C   UNL     1     -10.437  14.411  68.905  1.00  0.00    -0.246 C  
BRANCH  25  26
HETATM   26  C   UNL     1     -10.575  15.326  67.686  1.00  0.00    -0.270 C  
HETATM   27  C   UNL     1      -9.277  15.419  66.914  1.00  0.00    -0.233 C  
HETATM   28  O   UNL     1      -8.239  14.853  67.200  1.00  0.00    -0.195 OA 
HETATM   29  O   UNL     1      -9.390  16.218  65.825  1.00  0.00    -0.442 OA 
ENDBRANCH  25  26
ENDBRANCH  24  25
ENDBRANCH  23  24
ENDBRANCH  21  22
ENDBRANCH  19  21
ENDBRANCH  11  12
ENDBRANCH  10  11
ENDBRANCH   8  10
ENDBRANCH   7   8
ENDBRANCH   6   7
ENDBRANCH   5   6
ENDBRANCH   4   5
ENDBRANCH   3   4
ENDBRANCH   2   3
TORSDOF 14
ENDMDL
MODEL      162
REMARK 921   NORMALIZED FREE ENERGY PREDICTED BY IDOCK:   -4.19 KCAL/MOL
REMARK 922        TOTAL FREE ENERGY PREDICTED BY IDOCK:  -10.58 KCAL/MOL
REMARK 923 INTER-LIGAND FREE ENERGY PREDICTED BY IDOCK:   -9.19 KCAL/MOL
REMARK 924 INTRA-LIGAND FREE ENERGY PREDICTED BY IDOCK:   -1.39 KCAL/MOL
REMARK 927      BINDING AFFINITY PREDICTED BY RF-SCORE:    0.00 PKD
ROOT
HETATM    1  C   UNL     1     -12.921  11.025  71.594  1.00  0.00    -0.561 C  
HETATM    2  C   UNL     1     -12.842   9.560  71.205  1.00  0.00    -0.361 C  
ENDROOT
BRANCH   2   3
HETATM    3  C   UNL     1     -12.199   8.710  72.303  1.00  0.00    -0.447 C  
BRANCH   3   4
HETATM    4  C   UNL     1     -10.735   8.430  71.965  1.00  0.00    -0.387 C  
BRANCH   4   5
HETATM    5  C   UNL     1     -10.453   8.464  70.462  1.00  0.00    -0.227 C  
BRANCH   5   6
HETATM    6  C   UNL     1      -9.206   9.314  70.187  1.00  0.00    -0.254 C  
BRANCH   6   7
HETATM    7  C   UNL     1      -9.399  10.263  69.013  1.00  0.00    -0.195 C  
BRANCH   7   8
HETATM    8  C   UNL     1      -9.012   9.629  67.675  1.00  0.00    -0.125 C  
HETATM    9  O   UNL     1      -8.137   8.774  67.572  1.00  0.00    -0.105 OA 
BRANCH   8  10
HETATM   10  C   UNL     1      -9.818  10.119  66.489  1.00  0.00    -0.268 C  
BRANCH  10  11
HETATM   11  C   UNL     1      -9.116  11.050  65.490  1.00  0.00    -0.225 C  
BRANCH  11  12
HETATM   12  C   UNL     1     -10.117  12.077  64.896  1.00  0.00    -0.289 C  
HETATM   13  C   UNL     1     -10.977  11.449  63.786  1.00  0.00    -0.370 C  
HETATM   14  O   UNL     1     -10.297  11.372  62.544  1.00  0.00    -0.460 OA 
HETATM   15  C   UNL     1     -12.149  12.386  63.659  1.00  0.00    -0.648 C  
HETATM   16  H   UNL     1     -10.827  10.985  61.858  1.00  0.00     0.000 HD 
HETATM   17  C   UNL     1     -12.493  12.741  65.092  1.00  0.00    -0.501 C  
HETATM   18  O   UNL     1     -13.120  14.010  65.088  1.00  0.00    -0.776 OA 
HETATM   19  C   UNL     1     -11.164  12.658  65.900  1.00  0.00    -0.350 C  
HETATM   20  H   UNL     1     -13.335  14.233  65.986  1.00  0.00     0.000 HD 
BRANCH  19  21
HETATM   21  C   UNL     1     -10.697  13.981  66.540  1.00  0.00    -0.281 C  
BRANCH  21  22
HETATM   22  C   UNL     1     -10.228  15.018  65.551  1.00  0.00    -0.406 C  
HETATM   23  C   UNL     1      -9.685  16.220  65.792  1.00  0.00    -0.299 C  
BRANCH  23  24
HETATM   24  C   UNL     1      -9.458  16.852  67.132  1.00  0.00    -0.241 C  
BRANCH  24  25
HETATM   25  C   UNL     1     -10.689  16.767  68.037  1.00  0.00    -0.355 C  
BRANCH  25  26
HETATM   26  C   UNL     1     -10.391  16.160  69.410  1.00  0.00    -0.277 C  
HETATM   27  C   UNL     1     -11.651  15.654  70.076  1.00  0.00    -0.350 C  
HETATM   28  O   UNL     1     -12.772  15.709  69.608  1.00  0.00    -0.103 OA 
HETATM   29  O   UNL     1     -11.399  15.104  71.289  1.00  0.00    -0.334 OA 
ENDBRANCH  25  26
ENDBRANCH  24  25
ENDBRANCH  23  24
ENDBRANCH  21  22
ENDBRANCH  19  21
ENDBRANCH  11  12
ENDBRANCH  10  11
ENDBRANCH   8  10
ENDBRANCH   7   8
ENDBRANCH   6   7
ENDBRANCH   5   6
ENDBRANCH   4   5
ENDBRANCH   3   4
ENDBRANCH   2   3
TORSDOF 14
ENDMDL
MODEL      163
REMARK 921   NORMALIZED FREE ENERGY PREDICTED BY IDOCK:   -4.19 KCAL/MOL
REMARK 922        TOTAL FREE ENERGY PREDICTED BY IDOCK:  -10.58 KCAL/MOL
REMARK 923 INTER-LIGAND FREE ENERGY PREDICTED BY IDOCK:   -7.91 KCAL/MOL
REMARK 924 INTRA-LIGAND FREE ENERGY PREDICTED BY IDOCK:   -2.67 KCAL/MOL
REMARK 927      BINDING AFFINITY PREDICTED BY RF-SCORE:    0.00 PKD
ROOT
HETATM    1  C   UNL     1     -12.283  13.462  63.978  1.00  0.00    -0.466 C  
HETATM    2  C   UNL     1     -11.778  12.068  63.653  1.00  0.00    -0.587 C  
ENDROOT
BRANCH   2   3
HETATM    3  C   UNL     1     -10.250  12.016  63.579  1.00  0.00    -0.477 C  
BRANCH   3   4
HETATM    4  C   UNL     1      -9.776  10.565  63.508  1.00  0.00    -0.374 C  
BRANCH   4   5
HETATM    5  C   UNL     1      -9.518   9.953  64.887  1.00  0.00    -0.355 C  
BRANCH   5   6
HETATM    6  C   UNL     1      -8.273  10.592  65.514  1.00  0.00    -0.162 C  
BRANCH   6   7
HETATM    7  C   UNL     1      -8.148  10.282  66.999  1.00  0.00    -0.121 C  
BRANCH   7   8
HETATM    8  C   UNL     1      -7.947  11.540  67.846  1.00  0.00    -0.126 C  
HETATM    9  O   UNL     1      -7.983  11.529  69.074  1.00  0.00    -0.094 OA 
BRANCH   8  10
HETATM   10  C   UNL     1      -7.668  12.798  67.049  1.00  0.00     0.003 C  
BRANCH  10  11
HETATM   11  C   UNL     1      -8.869  13.674  66.662  1.00  0.00    -0.084 C  
BRANCH  11  12
HETATM   12  C   UNL     1      -9.629  14.158  67.925  1.00  0.00    -0.223 C  
HETATM   13  C   UNL     1      -9.013  15.446  68.496  1.00  0.00    -0.192 C  
HETATM   14  O   UNL     1      -7.850  15.201  69.271  1.00  0.00    -0.180 OA 
HETATM   15  C   UNL     1     -10.096  16.009  69.378  1.00  0.00    -0.271 C  
HETATM   16  H   UNL     1      -7.470  15.997  69.623  1.00  0.00     0.000 HD 
HETATM   17  C   UNL     1     -11.368  15.791  68.584  1.00  0.00    -0.369 C  
HETATM   18  O   UNL     1     -12.443  15.704  69.499  1.00  0.00    -0.571 OA 
HETATM   19  C   UNL     1     -11.133  14.523  67.710  1.00  0.00    -0.295 C  
HETATM   20  H   UNL     1     -13.241  15.567  69.002  1.00  0.00     0.000 HD 
BRANCH  19  21
HETATM   21  C   UNL     1     -12.075  13.338  68.002  1.00  0.00    -0.260 C  
BRANCH  21  22
HETATM   22  C   UNL     1     -11.644  12.033  67.381  1.00  0.00    -0.388 C  
HETATM   23  C   UNL     1     -11.432  10.851  67.978  1.00  0.00    -0.356 C  
BRANCH  23  24
HETATM   24  C   UNL     1     -11.526  10.554  69.444  1.00  0.00    -0.329 C  
BRANCH  24  25
HETATM   25  C   UNL     1     -10.637   9.381  69.863  1.00  0.00    -0.258 C  
BRANCH  25  26
HETATM   26  C   UNL     1     -10.537   9.209  71.381  1.00  0.00    -0.412 C  
HETATM   27  C   UNL     1     -11.384   8.052  71.863  1.00  0.00    -0.283 C  
HETATM   28  O   UNL     1     -12.070   7.334  71.160  1.00  0.00    -0.316 OA 
HETATM   29  O   UNL     1     -11.296   7.882  73.204  1.00  0.00    -0.361 OA 
ENDBRANCH  25  26
ENDBRANCH  24  25
ENDBRANCH  23  24
ENDBRANCH  21  22
ENDBRANCH  19  21
ENDBRANCH  11  12
ENDBRANCH  10  11
ENDBRANCH   8  10
ENDBRANCH   7   8
ENDBRANCH   6   7
ENDBRANCH   5   6
ENDBRANCH   4   5
ENDBRANCH   3   4
ENDBRANCH   2   3
TORSDOF 14
ENDMDL
MODEL      164
REMARK 921   NORMALIZED FREE ENERGY PREDICTED BY IDOCK:   -4.19 KCAL/MOL
REMARK 922        TOTAL FREE ENERGY PREDICTED BY IDOCK:  -10.58 KCAL/MOL
REMARK 923 INTER-LIGAND FREE ENERGY PREDICTED BY IDOCK:   -8.19 KCAL/MOL
REMARK 924 INTRA-LIGAND FREE ENERGY PREDICTED BY IDOCK:   -2.38 KCAL/MOL
REMARK 927      BINDING AFFINITY PREDICTED BY RF-SCORE:    0.00 PKD
ROOT
HETATM    1  C   UNL     1     -12.306   7.304  71.846  1.00  0.00    -0.346 C  
HETATM    2  C   UNL     1     -12.452   8.795  72.092  1.00  0.00    -0.460 C  
ENDROOT
BRANCH   2   3
HETATM    3  C   UNL     1     -11.638   9.622  71.095  1.00  0.00    -0.456 C  
BRANCH   3   4
HETATM    4  C   UNL     1     -12.532  10.662  70.419  1.00  0.00    -0.421 C  
BRANCH   4   5
HETATM    5  C   UNL     1     -11.948  11.188  69.106  1.00  0.00    -0.413 C  
BRANCH   5   6
HETATM    6  C   UNL     1     -11.342  12.579  69.327  1.00  0.00    -0.307 C  
BRANCH   6   7
HETATM    7  C   UNL     1     -11.489  13.475  68.106  1.00  0.00    -0.338 C  
BRANCH   7   8
HETATM    8  C   UNL     1     -10.152  13.741  67.410  1.00  0.00    -0.244 C  
HETATM    9  O   UNL     1      -9.675  14.867  67.291  1.00  0.00    -0.224 OA 
BRANCH   8  10
HETATM   10  C   UNL     1      -9.445  12.499  66.906  1.00  0.00    -0.219 C  
BRANCH  10  11
HETATM   11  C   UNL     1      -8.025  12.231  67.425  1.00  0.00    -0.171 C  
BRANCH  11  12
HETATM   12  C   UNL     1      -7.831  10.725  67.748  1.00  0.00    -0.109 C  
HETATM   13  C   UNL     1      -8.408  10.365  69.126  1.00  0.00    -0.158 C  
HETATM   14  O   UNL     1      -7.543  10.719  70.192  1.00  0.00    -0.414 OA 
HETATM   15  C   UNL     1      -8.559   8.867  69.078  1.00  0.00    -0.138 C  
HETATM   16  H   UNL     1      -7.900  10.496  71.044  1.00  0.00     0.000 HD 
HETATM   17  C   UNL     1      -9.088   8.594  67.685  1.00  0.00    -0.134 C  
HETATM   18  O   UNL     1      -8.702   7.283  67.320  1.00  0.00    -0.120 OA 
HETATM   19  C   UNL     1      -8.536   9.729  66.771  1.00  0.00    -0.133 C  
HETATM   20  H   UNL     1      -9.034   7.112  66.446  1.00  0.00     0.000 HD 
BRANCH  19  21
HETATM   21  C   UNL     1      -7.609   9.265  65.631  1.00  0.00    -0.094 C  
BRANCH  21  22
HETATM   22  C   UNL     1      -8.332   8.757  64.408  1.00  0.00    -0.165 C  
HETATM   23  C   UNL     1      -9.000   9.456  63.480  1.00  0.00    -0.148 C  
BRANCH  23  24
HETATM   24  C   UNL     1      -9.236  10.936  63.465  1.00  0.00    -0.258 C  
BRANCH  24  25
HETATM   25  C   UNL     1     -10.715  11.296  63.619  1.00  0.00    -0.438 C  
BRANCH  25  26
HETATM   26  C   UNL     1     -10.957  12.794  63.818  1.00  0.00    -0.445 C  
HETATM   27  C   UNL     1     -12.387  13.075  64.226  1.00  0.00    -0.366 C  
HETATM   28  O   UNL     1     -13.257  12.239  64.381  1.00  0.00    -0.806 OA 
HETATM   29  O   UNL     1     -12.611  14.397  64.416  1.00  0.00    -0.668 OA 
ENDBRANCH  25  26
ENDBRANCH  24  25
ENDBRANCH  23  24
ENDBRANCH  21  22
ENDBRANCH  19  21
ENDBRANCH  11  12
ENDBRANCH  10  11
ENDBRANCH   8  10
ENDBRANCH   7   8
ENDBRANCH   6   7
ENDBRANCH   5   6
ENDBRANCH   4   5
ENDBRANCH   3   4
ENDBRANCH   2   3
TORSDOF 14
ENDMDL
MODEL      165
REMARK 921   NORMALIZED FREE ENERGY PREDICTED BY IDOCK:   -4.18 KCAL/MOL
REMARK 922        TOTAL FREE ENERGY PREDICTED BY IDOCK:  -10.56 KCAL/MOL
REMARK 923 INTER-LIGAND FREE ENERGY PREDICTED BY IDOCK:   -9.73 KCAL/MOL
REMARK 924 INTRA-LIGAND FREE ENERGY PREDICTED BY IDOCK:   -0.83 KCAL/MOL
REMARK 927      BINDING AFFINITY PREDICTED BY RF-SCORE:    0.00 PKD
ROOT
HETATM    1  C   UNL     1      -9.399   5.498  66.519  1.00  0.00    -0.154 C  
HETATM    2  C   UNL     1     -10.678   6.141  67.024  1.00  0.00    -0.423 C  
ENDROOT
BRANCH   2   3
HETATM    3  C   UNL     1     -10.403   7.192  68.102  1.00  0.00    -0.234 C  
BRANCH   3   4
HETATM    4  C   UNL     1     -11.041   6.770  69.424  1.00  0.00    -0.310 C  
BRANCH   4   5
HETATM    5  C   UNL     1     -10.258   7.254  70.646  1.00  0.00    -0.202 C  
BRANCH   5   6
HETATM    6  C   UNL     1     -11.178   8.068  71.563  1.00  0.00    -0.296 C  
BRANCH   6   7
HETATM    7  C   UNL     1     -12.039   9.057  70.790  1.00  0.00    -0.169 C  
BRANCH   7   8
HETATM    8  C   UNL     1     -13.264   9.515  71.585  1.00  0.00    -0.406 C  
HETATM    9  O   UNL     1     -14.017   8.732  72.158  1.00  0.00    -0.421 OA 
BRANCH   8  10
HETATM   10  C   UNL     1     -13.456  11.018  71.636  1.00  0.00    -0.190 C  
BRANCH  10  11
HETATM   11  C   UNL     1     -12.467  11.887  70.845  1.00  0.00    -0.397 C  
BRANCH  11  12
HETATM   12  C   UNL     1     -12.777  13.395  71.045  1.00  0.00    -0.387 C  
HETATM   13  C   UNL     1     -13.077  13.719  72.517  1.00  0.00    -0.419 C  
HETATM   14  O   UNL     1     -14.402  13.382  72.894  1.00  0.00    -0.494 OA 
HETATM   15  C   UNL     1     -12.893  15.211  72.607  1.00  0.00    -0.478 C  
HETATM   16  H   UNL     1     -14.587  13.582  73.804  1.00  0.00     0.000 HD 
HETATM   17  C   UNL     1     -11.660  15.481  71.769  1.00  0.00    -0.438 C  
HETATM   18  O   UNL     1     -11.742  16.809  71.288  1.00  0.00    -0.528 OA 
HETATM   19  C   UNL     1     -11.620  14.377  70.670  1.00  0.00    -0.243 C  
HETATM   20  H   UNL     1     -10.969  16.979  70.761  1.00  0.00     0.000 HD 
BRANCH  19  21
HETATM   21  C   UNL     1     -11.726  14.887  69.219  1.00  0.00    -0.344 C  
BRANCH  21  22
HETATM   22  C   UNL     1     -10.550  14.527  68.346  1.00  0.00    -0.244 C  
HETATM   23  C   UNL     1     -10.407  13.477  67.524  1.00  0.00    -0.237 C  
BRANCH  23  24
HETATM   24  C   UNL     1     -11.383  12.360  67.314  1.00  0.00    -0.384 C  
BRANCH  24  25
HETATM   25  C   UNL     1     -11.660  12.094  65.832  1.00  0.00    -0.425 C  
BRANCH  25  26
HETATM   26  C   UNL     1     -12.467  13.205  65.157  1.00  0.00    -0.539 C  
HETATM   27  C   UNL     1     -11.564  14.215  64.484  1.00  0.00    -0.389 C  
HETATM   28  O   UNL     1     -10.348  14.178  64.466  1.00  0.00    -0.390 OA 
HETATM   29  O   UNL     1     -12.267  15.199  63.874  1.00  0.00    -0.592 OA 
ENDBRANCH  25  26
ENDBRANCH  24  25
ENDBRANCH  23  24
ENDBRANCH  21  22
ENDBRANCH  19  21
ENDBRANCH  11  12
ENDBRANCH  10  11
ENDBRANCH   8  10
ENDBRANCH   7   8
ENDBRANCH   6   7
ENDBRANCH   5   6
ENDBRANCH   4   5
ENDBRANCH   3   4
ENDBRANCH   2   3
TORSDOF 14
ENDMDL
MODEL      166
REMARK 921   NORMALIZED FREE ENERGY PREDICTED BY IDOCK:   -4.18 KCAL/MOL
REMARK 922        TOTAL FREE ENERGY PREDICTED BY IDOCK:  -10.56 KCAL/MOL
REMARK 923 INTER-LIGAND FREE ENERGY PREDICTED BY IDOCK:   -8.55 KCAL/MOL
REMARK 924 INTRA-LIGAND FREE ENERGY PREDICTED BY IDOCK:   -2.01 KCAL/MOL
REMARK 927      BINDING AFFINITY PREDICTED BY RF-SCORE:    0.00 PKD
ROOT
HETATM    1  C   UNL     1     -10.708  18.993  66.667  1.00  0.00    -0.429 C  
HETATM    2  C   UNL     1      -9.665  17.981  66.226  1.00  0.00    -0.276 C  
ENDROOT
BRANCH   2   3
HETATM    3  C   UNL     1     -10.117  16.543  66.488  1.00  0.00    -0.307 C  
BRANCH   3   4
HETATM    4  C   UNL     1     -10.906  16.012  65.292  1.00  0.00    -0.376 C  
BRANCH   4   5
HETATM    5  C   UNL     1     -10.941  14.484  65.230  1.00  0.00    -0.366 C  
BRANCH   5   6
HETATM    6  C   UNL     1     -12.224  13.967  65.893  1.00  0.00    -0.481 C  
BRANCH   6   7
HETATM    7  C   UNL     1     -11.946  12.890  66.931  1.00  0.00    -0.402 C  
BRANCH   7   8
HETATM    8  C   UNL     1     -11.886  13.448  68.355  1.00  0.00    -0.366 C  
HETATM    9  O   UNL     1     -12.201  14.602  68.632  1.00  0.00    -0.227 OA 
BRANCH   8  10
HETATM   10  C   UNL     1     -11.434  12.452  69.404  1.00  0.00    -0.336 C  
BRANCH  10  11
HETATM   11  C   UNL     1     -11.955  11.012  69.286  1.00  0.00    -0.410 C  
BRANCH  11  12
HETATM   12  C   UNL     1     -11.847  10.274  70.647  1.00  0.00    -0.439 C  
HETATM   13  C   UNL     1     -13.158  10.367  71.445  1.00  0.00    -0.413 C  
HETATM   14  O   UNL     1     -13.306  11.609  72.114  1.00  0.00    -0.576 OA 
HETATM   15  C   UNL     1     -13.047   9.260  72.461  1.00  0.00    -0.416 C  
HETATM   16  H   UNL     1     -14.115  11.667  72.607  1.00  0.00     0.000 HD 
HETATM   17  C   UNL     1     -12.445   8.107  71.684  1.00  0.00    -0.319 C  
HETATM   18  O   UNL     1     -11.753   7.278  72.598  1.00  0.00    -0.470 OA 
HETATM   19  C   UNL     1     -11.566   8.739  70.563  1.00  0.00    -0.170 C  
HETATM   20  H   UNL     1     -11.376   6.555  72.111  1.00  0.00     0.000 HD 
BRANCH  19  21
HETATM   21  C   UNL     1     -10.062   8.410  70.640  1.00  0.00    -0.220 C  
BRANCH  21  22
HETATM   22  C   UNL     1      -9.615   7.315  69.704  1.00  0.00    -0.155 C  
HETATM   23  C   UNL     1      -9.833   7.199  68.386  1.00  0.00    -0.157 C  
BRANCH  23  24
HETATM   24  C   UNL     1     -10.635   8.125  67.522  1.00  0.00    -0.291 C  
BRANCH  24  25
HETATM   25  C   UNL     1      -9.754   9.043  66.672  1.00  0.00    -0.295 C  
BRANCH  25  26
HETATM   26  C   UNL     1      -9.083  10.156  67.480  1.00  0.00    -0.143 C  
HETATM   27  C   UNL     1      -8.779  11.360  66.615  1.00  0.00    -0.178 C  
HETATM   28  O   UNL     1      -9.023  11.461  65.428  1.00  0.00    -0.160 OA 
HETATM   29  O   UNL     1      -8.194  12.358  67.321  1.00  0.00    -0.169 OA 
ENDBRANCH  25  26
ENDBRANCH  24  25
ENDBRANCH  23  24
ENDBRANCH  21  22
ENDBRANCH  19  21
ENDBRANCH  11  12
ENDBRANCH  10  11
ENDBRANCH   8  10
ENDBRANCH   7   8
ENDBRANCH   6   7
ENDBRANCH   5   6
ENDBRANCH   4   5
ENDBRANCH   3   4
ENDBRANCH   2   3
TORSDOF 14
ENDMDL
MODEL      167
REMARK 921   NORMALIZED FREE ENERGY PREDICTED BY IDOCK:   -4.17 KCAL/MOL
REMARK 922        TOTAL FREE ENERGY PREDICTED BY IDOCK:  -10.55 KCAL/MOL
REMARK 923 INTER-LIGAND FREE ENERGY PREDICTED BY IDOCK:   -8.09 KCAL/MOL
REMARK 924 INTRA-LIGAND FREE ENERGY PREDICTED BY IDOCK:   -2.46 KCAL/MOL
REMARK 927      BINDING AFFINITY PREDICTED BY RF-SCORE:    0.00 PKD
ROOT
HETATM    1  C   UNL     1     -10.091  19.845  67.011  1.00  0.00    -0.578 C  
HETATM    2  C   UNL     1     -10.293  18.486  66.366  1.00  0.00    -0.456 C  
ENDROOT
BRANCH   2   3
HETATM    3  C   UNL     1     -10.510  17.385  67.406  1.00  0.00    -0.336 C  
BRANCH   3   4
HETATM    4  C   UNL     1      -9.803  16.102  66.969  1.00  0.00    -0.248 C  
BRANCH   4   5
HETATM    5  C   UNL     1     -10.191  15.657  65.558  1.00  0.00    -0.414 C  
BRANCH   5   6
HETATM    6  C   UNL     1     -11.530  14.910  65.599  1.00  0.00    -0.290 C  
BRANCH   6   7
HETATM    7  C   UNL     1     -12.063  14.599  64.207  1.00  0.00    -0.437 C  
BRANCH   7   8
HETATM    8  C   UNL     1     -12.031  13.102  63.888  1.00  0.00    -0.488 C  
HETATM    9  O   UNL     1     -13.047  12.417  63.808  1.00  0.00    -0.756 OA 
BRANCH   8  10
HETATM   10  C   UNL     1     -10.645  12.538  63.648  1.00  0.00    -0.446 C  
BRANCH  10  11
HETATM   11  C   UNL     1     -10.486  11.011  63.672  1.00  0.00    -0.388 C  
BRANCH  11  12
HETATM   12  C   UNL     1      -9.672  10.561  64.914  1.00  0.00    -0.360 C  
HETATM   13  C   UNL     1      -8.463   9.700  64.514  1.00  0.00    -0.178 C  
HETATM   14  O   UNL     1      -8.815   8.354  64.239  1.00  0.00    -0.409 OA 
HETATM   15  C   UNL     1      -7.565   9.748  65.723  1.00  0.00    -0.108 C  
HETATM   16  H   UNL     1      -8.068   7.822  63.992  1.00  0.00     0.000 HD 
HETATM   17  C   UNL     1      -7.641  11.190  66.181  1.00  0.00    -0.032 C  
HETATM   18  O   UNL     1      -7.369  11.221  67.569  1.00  0.00    -0.095 OA 
HETATM   19  C   UNL     1      -9.049  11.713  65.767  1.00  0.00    -0.128 C  
HETATM   20  H   UNL     1      -7.417  12.126  67.857  1.00  0.00     0.000 HD 
BRANCH  19  21
HETATM   21  C   UNL     1      -9.962  12.144  66.932  1.00  0.00    -0.217 C  
BRANCH  21  22
HETATM   22  C   UNL     1     -11.046  11.152  67.273  1.00  0.00    -0.366 C  
HETATM   23  C   UNL     1     -11.181  10.406  68.379  1.00  0.00    -0.318 C  
BRANCH  23  24
HETATM   24  C   UNL     1     -10.237  10.342  69.542  1.00  0.00    -0.261 C  
BRANCH  24  25
HETATM   25  C   UNL     1      -9.395   9.064  69.543  1.00  0.00    -0.160 C  
BRANCH  25  26
HETATM   26  C   UNL     1      -8.786   8.741  70.910  1.00  0.00    -0.235 C  
HETATM   27  C   UNL     1      -7.328   9.140  70.974  1.00  0.00    -0.098 C  
HETATM   28  O   UNL     1      -6.692   9.651  70.071  1.00  0.00    -0.058 OA 
HETATM   29  O   UNL     1      -6.779   8.870  72.183  1.00  0.00    -0.228 OA 
ENDBRANCH  25  26
ENDBRANCH  24  25
ENDBRANCH  23  24
ENDBRANCH  21  22
ENDBRANCH  19  21
ENDBRANCH  11  12
ENDBRANCH  10  11
ENDBRANCH   8  10
ENDBRANCH   7   8
ENDBRANCH   6   7
ENDBRANCH   5   6
ENDBRANCH   4   5
ENDBRANCH   3   4
ENDBRANCH   2   3
TORSDOF 14
ENDMDL
MODEL      168
REMARK 921   NORMALIZED FREE ENERGY PREDICTED BY IDOCK:   -4.17 KCAL/MOL
REMARK 922        TOTAL FREE ENERGY PREDICTED BY IDOCK:  -10.54 KCAL/MOL
REMARK 923 INTER-LIGAND FREE ENERGY PREDICTED BY IDOCK:   -8.76 KCAL/MOL
REMARK 924 INTRA-LIGAND FREE ENERGY PREDICTED BY IDOCK:   -1.78 KCAL/MOL
REMARK 927      BINDING AFFINITY PREDICTED BY RF-SCORE:    0.00 PKD
ROOT
HETATM    1  C   UNL     1      -9.417  20.268  66.765  1.00  0.00    -0.518 C  
HETATM    2  C   UNL     1     -10.559  19.389  67.242  1.00  0.00    -0.599 C  
ENDROOT
BRANCH   2   3
HETATM    3  C   UNL     1     -10.080  17.988  67.629  1.00  0.00    -0.352 C  
BRANCH   3   4
HETATM    4  C   UNL     1      -9.218  17.398  66.514  1.00  0.00    -0.286 C  
BRANCH   4   5
HETATM    5  C   UNL     1      -9.631  15.977  66.128  1.00  0.00    -0.366 C  
BRANCH   5   6
HETATM    6  C   UNL     1     -11.141  15.927  65.868  1.00  0.00    -0.053 C  
BRANCH   6   7
HETATM    7  C   UNL     1     -11.651  14.505  65.682  1.00  0.00    -0.344 C  
BRANCH   7   8
HETATM    8  C   UNL     1     -12.004  13.829  67.009  1.00  0.00    -0.413 C  
HETATM    9  O   UNL     1     -12.066  12.609  67.139  1.00  0.00    -0.466 OA 
BRANCH   8  10
HETATM   10  C   UNL     1     -12.241  14.786  68.159  1.00  0.00    -0.047 C  
BRANCH  10  11
HETATM   11  C   UNL     1     -11.163  14.865  69.251  1.00  0.00    -0.300 C  
BRANCH  11  12
HETATM   12  C   UNL     1     -11.783  14.644  70.656  1.00  0.00    -0.339 C  
HETATM   13  C   UNL     1     -12.463  15.919  71.180  1.00  0.00    -0.365 C  
HETATM   14  O   UNL     1     -11.539  16.850  71.719  1.00  0.00    -0.507 OA 
HETATM   15  C   UNL     1     -13.373  15.424  72.274  1.00  0.00    -0.548 C  
HETATM   16  H   UNL     1     -11.958  17.639  72.043  1.00  0.00     0.000 HD 
HETATM   17  C   UNL     1     -13.968  14.150  71.709  1.00  0.00    -0.421 C  
HETATM   18  O   UNL     1     -14.323  13.316  72.795  1.00  0.00    -0.639 OA 
HETATM   19  C   UNL     1     -12.905  13.559  70.735  1.00  0.00    -0.243 C  
HETATM   20  H   UNL     1     -14.696  12.517  72.442  1.00  0.00     0.000 HD 
BRANCH  19  21
HETATM   21  C   UNL     1     -12.358  12.170  71.121  1.00  0.00    -0.265 C  
BRANCH  21  22
HETATM   22  C   UNL     1     -12.342  11.171  69.992  1.00  0.00    -0.351 C  
HETATM   23  C   UNL     1     -11.949   9.889  70.013  1.00  0.00    -0.076 C  
BRANCH  23  24
HETATM   24  C   UNL     1     -11.372   9.144  71.178  1.00  0.00    -0.392 C  
BRANCH  24  25
HETATM   25  C   UNL     1      -9.875   9.404  71.357  1.00  0.00    -0.180 C  
BRANCH  25  26
HETATM   26  C   UNL     1      -9.090   9.351  70.044  1.00  0.00    -0.244 C  
HETATM   27  C   UNL     1      -7.598   9.297  70.293  1.00  0.00    -0.123 C  
HETATM   28  O   UNL     1      -7.061   9.298  71.384  1.00  0.00    -0.273 OA 
HETATM   29  O   UNL     1      -6.892   9.239  69.139  1.00  0.00    -0.049 OA 
ENDBRANCH  25  26
ENDBRANCH  24  25
ENDBRANCH  23  24
ENDBRANCH  21  22
ENDBRANCH  19  21
ENDBRANCH  11  12
ENDBRANCH  10  11
ENDBRANCH   8  10
ENDBRANCH   7   8
ENDBRANCH   6   7
ENDBRANCH   5   6
ENDBRANCH   4   5
ENDBRANCH   3   4
ENDBRANCH   2   3
TORSDOF 14
ENDMDL
MODEL      169
REMARK 921   NORMALIZED FREE ENERGY PREDICTED BY IDOCK:   -4.17 KCAL/MOL
REMARK 922        TOTAL FREE ENERGY PREDICTED BY IDOCK:  -10.54 KCAL/MOL
REMARK 923 INTER-LIGAND FREE ENERGY PREDICTED BY IDOCK:   -8.69 KCAL/MOL
REMARK 924 INTRA-LIGAND FREE ENERGY PREDICTED BY IDOCK:   -1.85 KCAL/MOL
REMARK 927      BINDING AFFINITY PREDICTED BY RF-SCORE:    0.00 PKD
ROOT
HETATM    1  C   UNL     1      -6.838   8.817  63.573  1.00  0.00    -0.089 C  
HETATM    2  C   UNL     1      -7.975   7.907  64.002  1.00  0.00    -0.124 C  
ENDROOT
BRANCH   2   3
HETATM    3  C   UNL     1      -8.138   7.874  65.523  1.00  0.00    -0.130 C  
BRANCH   3   4
HETATM    4  C   UNL     1      -6.837   8.301  66.203  1.00  0.00    -0.058 C  
BRANCH   4   5
HETATM    5  C   UNL     1      -7.053   8.850  67.614  1.00  0.00    -0.076 C  
BRANCH   5   6
HETATM    6  C   UNL     1      -8.545   8.802  67.967  1.00  0.00    -0.134 C  
BRANCH   6   7
HETATM    7  C   UNL     1      -8.842   9.445  69.315  1.00  0.00    -0.150 C  
BRANCH   7   8
HETATM    8  C   UNL     1     -10.058  10.374  69.266  1.00  0.00    -0.230 C  
HETATM    9  O   UNL     1     -10.917  10.392  70.143  1.00  0.00    -0.284 OA 
BRANCH   8  10
HETATM   10  C   UNL     1     -10.101  11.293  68.062  1.00  0.00    -0.192 C  
BRANCH  10  11
HETATM   11  C   UNL     1     -11.147  10.994  66.977  1.00  0.00    -0.311 C  
BRANCH  11  12
HETATM   12  C   UNL     1     -11.006  11.981  65.788  1.00  0.00    -0.351 C  
HETATM   13  C   UNL     1     -10.305  11.323  64.589  1.00  0.00    -0.315 C  
HETATM   14  O   UNL     1      -8.895  11.275  64.735  1.00  0.00    -0.378 OA 
HETATM   15  C   UNL     1     -10.660  12.212  63.426  1.00  0.00    -0.454 C  
HETATM   16  H   UNL     1      -8.462  10.869  63.994  1.00  0.00     0.000 HD 
HETATM   17  C   UNL     1     -12.119  12.550  63.653  1.00  0.00    -0.554 C  
HETATM   18  O   UNL     1     -12.381  13.793  63.029  1.00  0.00    -1.089 OA 
HETATM   19  C   UNL     1     -12.347  12.518  65.194  1.00  0.00    -0.496 C  
HETATM   20  H   UNL     1     -13.296  14.005  63.171  1.00  0.00     0.000 HD 
BRANCH  19  21
HETATM   21  C   UNL     1     -12.779  13.857  65.824  1.00  0.00    -0.503 C  
BRANCH  21  22
HETATM   22  C   UNL     1     -11.867  14.351  66.920  1.00  0.00    -0.433 C  
HETATM   23  C   UNL     1     -10.882  15.257  66.844  1.00  0.00    -0.317 C  
BRANCH  23  24
HETATM   24  C   UNL     1     -10.409  15.971  65.614  1.00  0.00    -0.414 C  
BRANCH  24  25
HETATM   25  C   UNL     1      -9.953  17.403  65.906  1.00  0.00    -0.166 C  
BRANCH  25  26
HETATM   26  C   UNL     1      -9.988  17.758  67.394  1.00  0.00    -0.323 C  
HETATM   27  C   UNL     1     -10.480  19.172  67.613  1.00  0.00    -0.441 C  
HETATM   28  O   UNL     1     -10.811  19.952  66.740  1.00  0.00    -0.442 OA 
HETATM   29  O   UNL     1     -10.527  19.496  68.928  1.00  0.00    -0.241 OA 
ENDBRANCH  25  26
ENDBRANCH  24  25
ENDBRANCH  23  24
ENDBRANCH  21  22
ENDBRANCH  19  21
ENDBRANCH  11  12
ENDBRANCH  10  11
ENDBRANCH   8  10
ENDBRANCH   7   8
ENDBRANCH   6   7
ENDBRANCH   5   6
ENDBRANCH   4   5
ENDBRANCH   3   4
ENDBRANCH   2   3
TORSDOF 14
ENDMDL
MODEL      170
REMARK 921   NORMALIZED FREE ENERGY PREDICTED BY IDOCK:   -4.17 KCAL/MOL
REMARK 922        TOTAL FREE ENERGY PREDICTED BY IDOCK:  -10.54 KCAL/MOL
REMARK 923 INTER-LIGAND FREE ENERGY PREDICTED BY IDOCK:   -8.54 KCAL/MOL
REMARK 924 INTRA-LIGAND FREE ENERGY PREDICTED BY IDOCK:   -2.00 KCAL/MOL
REMARK 927      BINDING AFFINITY PREDICTED BY RF-SCORE:    0.00 PKD
ROOT
HETATM    1  C   UNL     1     -13.469  12.864  71.987  1.00  0.00    -0.568 C  
HETATM    2  C   UNL     1     -14.144  14.203  72.224  1.00  0.00    -0.630 C  
ENDROOT
BRANCH   2   3
HETATM    3  C   UNL     1     -13.523  15.316  71.377  1.00  0.00    -0.588 C  
BRANCH   3   4
HETATM    4  C   UNL     1     -12.083  14.959  71.011  1.00  0.00    -0.380 C  
BRANCH   4   5
HETATM    5  C   UNL     1     -11.214  16.188  70.740  1.00  0.00    -0.356 C  
BRANCH   5   6
HETATM    6  C   UNL     1     -10.218  15.882  69.615  1.00  0.00    -0.280 C  
BRANCH   6   7
HETATM    7  C   UNL     1     -10.521  14.565  68.916  1.00  0.00    -0.246 C  
BRANCH   7   8
HETATM    8  C   UNL     1     -11.429  14.743  67.697  1.00  0.00    -0.347 C  
HETATM    9  O   UNL     1     -12.581  14.319  67.657  1.00  0.00     0.025 OA 
BRANCH   8  10
HETATM   10  C   UNL     1     -10.803  15.512  66.551  1.00  0.00    -0.284 C  
BRANCH  10  11
HETATM   11  C   UNL     1      -9.915  14.730  65.572  1.00  0.00    -0.390 C  
BRANCH  11  12
HETATM   12  C   UNL     1     -10.581  13.386  65.176  1.00  0.00    -0.353 C  
HETATM   13  C   UNL     1     -11.225  13.465  63.782  1.00  0.00    -0.098 C  
HETATM   14  O   UNL     1     -12.491  14.104  63.798  1.00  0.00    -0.910 OA 
HETATM   15  C   UNL     1     -11.396  12.024  63.377  1.00  0.00    -0.484 C  
HETATM   16  H   UNL     1     -12.889  14.153  62.937  1.00  0.00     0.000 HD 
HETATM   17  C   UNL     1     -10.114  11.358  63.836  1.00  0.00    -0.345 C  
HETATM   18  O   UNL     1     -10.392   9.991  64.068  1.00  0.00    -0.385 OA 
HETATM   19  C   UNL     1      -9.620  12.158  65.078  1.00  0.00    -0.027 C  
HETATM   20  H   UNL     1      -9.588   9.573  64.356  1.00  0.00     0.000 HD 
BRANCH  19  21
HETATM   21  C   UNL     1      -9.551  11.356  66.393  1.00  0.00    -0.228 C  
BRANCH  21  22
HETATM   22  C   UNL     1     -10.888  11.122  67.050  1.00  0.00    -0.338 C  
HETATM   23  C   UNL     1     -11.155  10.878  68.341  1.00  0.00    -0.320 C  
BRANCH  23  24
HETATM   24  C   UNL     1     -10.162  10.725  69.452  1.00  0.00    -0.187 C  
BRANCH  24  25
HETATM   25  C   UNL     1     -10.005   9.270  69.903  1.00  0.00    -0.226 C  
BRANCH  25  26
HETATM   26  C   UNL     1     -10.302   8.258  68.795  1.00  0.00    -0.223 C  
HETATM   27  C   UNL     1      -9.107   8.066  67.886  1.00  0.00    -0.132 C  
HETATM   28  O   UNL     1      -8.035   8.631  67.995  1.00  0.00    -0.105 OA 
HETATM   29  O   UNL     1      -9.353   7.163  66.907  1.00  0.00    -0.142 OA 
ENDBRANCH  25  26
ENDBRANCH  24  25
ENDBRANCH  23  24
ENDBRANCH  21  22
ENDBRANCH  19  21
ENDBRANCH  11  12
ENDBRANCH  10  11
ENDBRANCH   8  10
ENDBRANCH   7   8
ENDBRANCH   6   7
ENDBRANCH   5   6
ENDBRANCH   4   5
ENDBRANCH   3   4
ENDBRANCH   2   3
TORSDOF 14
ENDMDL
MODEL      171
REMARK 921   NORMALIZED FREE ENERGY PREDICTED BY IDOCK:   -4.16 KCAL/MOL
REMARK 922        TOTAL FREE ENERGY PREDICTED BY IDOCK:  -10.53 KCAL/MOL
REMARK 923 INTER-LIGAND FREE ENERGY PREDICTED BY IDOCK:   -8.97 KCAL/MOL
REMARK 924 INTRA-LIGAND FREE ENERGY PREDICTED BY IDOCK:   -1.56 KCAL/MOL
REMARK 927      BINDING AFFINITY PREDICTED BY RF-SCORE:    0.00 PKD
ROOT
HETATM    1  C   UNL     1      -9.877  20.546  66.780  1.00  0.00    -0.460 C  
HETATM    2  C   UNL     1     -10.364  19.691  67.937  1.00  0.00    -0.583 C  
ENDROOT
BRANCH   2   3
HETATM    3  C   UNL     1     -10.618  18.243  67.512  1.00  0.00    -0.432 C  
BRANCH   3   4
HETATM    4  C   UNL     1      -9.295  17.549  67.191  1.00  0.00    -0.250 C  
BRANCH   4   5
HETATM    5  C   UNL     1      -9.449  16.043  66.971  1.00  0.00    -0.230 C  
BRANCH   5   6
HETATM    6  C   UNL     1     -10.771  15.756  66.249  1.00  0.00    -0.282 C  
BRANCH   6   7
HETATM    7  C   UNL     1     -11.669  14.812  67.035  1.00  0.00    -0.330 C  
BRANCH   7   8
HETATM    8  C   UNL     1     -12.232  13.682  66.171  1.00  0.00    -0.444 C  
HETATM    9  O   UNL     1     -13.154  13.847  65.376  1.00  0.00    -0.752 OA 
BRANCH   8  10
HETATM   10  C   UNL     1     -11.540  12.346  66.350  1.00  0.00    -0.442 C  
BRANCH  10  11
HETATM   11  C   UNL     1     -10.107  12.211  65.815  1.00  0.00    -0.272 C  
BRANCH  11  12
HETATM   12  C   UNL     1      -9.889  10.818  65.166  1.00  0.00    -0.333 C  
HETATM   13  C   UNL     1      -9.697  10.928  63.645  1.00  0.00    -0.329 C  
HETATM   14  O   UNL     1     -10.922  11.077  62.947  1.00  0.00    -0.793 OA 
HETATM   15  C   UNL     1      -9.057   9.619  63.263  1.00  0.00    -0.223 C  
HETATM   16  H   UNL     1     -10.803  11.145  62.007  1.00  0.00     0.000 HD 
HETATM   17  C   UNL     1      -8.053   9.362  64.368  1.00  0.00    -0.138 C  
HETATM   18  O   UNL     1      -7.852   7.965  64.460  1.00  0.00    -0.121 OA 
HETATM   19  C   UNL     1      -8.625  10.038  65.651  1.00  0.00    -0.166 C  
HETATM   20  H   UNL     1      -7.222   7.804  65.153  1.00  0.00     0.000 HD 
BRANCH  19  21
HETATM   21  C   UNL     1      -8.934   9.079  66.818  1.00  0.00    -0.160 C  
BRANCH  21  22
HETATM   22  C   UNL     1     -10.372   8.629  66.889  1.00  0.00    -0.355 C  
HETATM   23  C   UNL     1     -10.856   7.381  66.969  1.00  0.00    -0.307 C  
BRANCH  23  24
HETATM   24  C   UNL     1     -10.067   6.107  66.954  1.00  0.00    -0.232 C  
BRANCH  24  25
HETATM   25  C   UNL     1      -9.928   5.487  68.346  1.00  0.00    -0.210 C  
BRANCH  25  26
HETATM   26  C   UNL     1     -10.881   6.094  69.378  1.00  0.00    -0.420 C  
HETATM   27  C   UNL     1     -10.592   5.576  70.770  1.00  0.00    -0.249 C  
HETATM   28  O   UNL     1      -9.722   4.778  71.063  1.00  0.00    -0.163 OA 
HETATM   29  O   UNL     1     -11.422   6.114  71.695  1.00  0.00    -0.286 OA 
ENDBRANCH  25  26
ENDBRANCH  24  25
ENDBRANCH  23  24
ENDBRANCH  21  22
ENDBRANCH  19  21
ENDBRANCH  11  12
ENDBRANCH  10  11
ENDBRANCH   8  10
ENDBRANCH   7   8
ENDBRANCH   6   7
ENDBRANCH   5   6
ENDBRANCH   4   5
ENDBRANCH   3   4
ENDBRANCH   2   3
TORSDOF 14
ENDMDL
MODEL      172
REMARK 921   NORMALIZED FREE ENERGY PREDICTED BY IDOCK:   -4.16 KCAL/MOL
REMARK 922        TOTAL FREE ENERGY PREDICTED BY IDOCK:  -10.52 KCAL/MOL
REMARK 923 INTER-LIGAND FREE ENERGY PREDICTED BY IDOCK:   -8.05 KCAL/MOL
REMARK 924 INTRA-LIGAND FREE ENERGY PREDICTED BY IDOCK:   -2.48 KCAL/MOL
REMARK 927      BINDING AFFINITY PREDICTED BY RF-SCORE:    0.00 PKD
ROOT
HETATM    1  C   UNL     1     -13.410  11.766  71.886  1.00  0.00    -0.401 C  
HETATM    2  C   UNL     1     -13.413  13.138  72.537  1.00  0.00    -0.579 C  
ENDROOT
BRANCH   2   3
HETATM    3  C   UNL     1     -13.998  14.209  71.613  1.00  0.00    -0.434 C  
BRANCH   3   4
HETATM    4  C   UNL     1     -13.339  15.560  71.888  1.00  0.00    -0.569 C  
BRANCH   4   5
HETATM    5  C   UNL     1     -11.968  15.701  71.224  1.00  0.00    -0.467 C  
BRANCH   5   6
HETATM    6  C   UNL     1     -12.107  15.539  69.706  1.00  0.00    -0.372 C  
BRANCH   6   7
HETATM    7  C   UNL     1     -11.315  16.587  68.936  1.00  0.00    -0.206 C  
BRANCH   7   8
HETATM    8  C   UNL     1     -10.465  15.976  67.819  1.00  0.00    -0.298 C  
HETATM    9  O   UNL     1      -9.808  16.655  67.035  1.00  0.00    -0.246 OA 
BRANCH   8  10
HETATM   10  C   UNL     1     -10.475  14.461  67.777  1.00  0.00    -0.245 C  
BRANCH  10  11
HETATM   11  C   UNL     1      -9.346  13.723  68.513  1.00  0.00    -0.144 C  
BRANCH  11  12
HETATM   12  C   UNL     1      -8.090  13.595  67.610  1.00  0.00    -0.179 C  
HETATM   13  C   UNL     1      -6.908  14.402  68.171  1.00  0.00    -0.123 C  
HETATM   14  O   UNL     1      -6.998  15.785  67.874  1.00  0.00    -0.119 OA 
HETATM   15  C   UNL     1      -5.705  13.816  67.478  1.00  0.00     0.083 C  
HETATM   16  H   UNL     1      -6.267  16.284  68.220  1.00  0.00     0.000 HD 
HETATM   17  C   UNL     1      -5.971  12.324  67.477  1.00  0.00    -0.136 C  
HETATM   18  O   UNL     1      -5.279  11.758  66.381  1.00  0.00    -0.302 OA 
HETATM   19  C   UNL     1      -7.519  12.149  67.450  1.00  0.00    -0.156 C  
HETATM   20  H   UNL     1      -5.445  10.823  66.380  1.00  0.00     0.000 HD 
BRANCH  19  21
HETATM   21  C   UNL     1      -8.079  11.428  66.208  1.00  0.00    -0.064 C  
BRANCH  21  22
HETATM   22  C   UNL     1      -9.055  10.321  66.518  1.00  0.00    -0.169 C  
HETATM   23  C   UNL     1     -10.395  10.353  66.490  1.00  0.00    -0.287 C  
BRANCH  23  24
HETATM   24  C   UNL     1     -11.260  11.539  66.186  1.00  0.00    -0.265 C  
BRANCH  24  25
HETATM   25  C   UNL     1     -11.270  11.892  64.697  1.00  0.00    -0.364 C  
BRANCH  25  26
HETATM   26  C   UNL     1     -10.902  13.351  64.417  1.00  0.00    -0.422 C  
HETATM   27  C   UNL     1     -12.087  14.269  64.622  1.00  0.00    -0.463 C  
HETATM   28  O   UNL     1     -13.202  13.922  64.963  1.00  0.00    -0.729 OA 
HETATM   29  O   UNL     1     -11.772  15.565  64.388  1.00  0.00    -0.389 OA 
ENDBRANCH  25  26
ENDBRANCH  24  25
ENDBRANCH  23  24
ENDBRANCH  21  22
ENDBRANCH  19  21
ENDBRANCH  11  12
ENDBRANCH  10  11
ENDBRANCH   8  10
ENDBRANCH   7   8
ENDBRANCH   6   7
ENDBRANCH   5   6
ENDBRANCH   4   5
ENDBRANCH   3   4
ENDBRANCH   2   3
TORSDOF 14
ENDMDL
MODEL      173
REMARK 921   NORMALIZED FREE ENERGY PREDICTED BY IDOCK:   -4.16 KCAL/MOL
REMARK 922        TOTAL FREE ENERGY PREDICTED BY IDOCK:  -10.52 KCAL/MOL
REMARK 923 INTER-LIGAND FREE ENERGY PREDICTED BY IDOCK:   -8.20 KCAL/MOL
REMARK 924 INTRA-LIGAND FREE ENERGY PREDICTED BY IDOCK:   -2.32 KCAL/MOL
REMARK 927      BINDING AFFINITY PREDICTED BY RF-SCORE:    0.00 PKD
ROOT
HETATM    1  C   UNL     1      -9.314  11.182  62.796  1.00  0.00    -0.377 C  
HETATM    2  C   UNL     1     -10.550  11.823  63.402  1.00  0.00    -0.479 C  
ENDROOT
BRANCH   2   3
HETATM    3  C   UNL     1     -10.830  11.306  64.814  1.00  0.00    -0.314 C  
BRANCH   3   4
HETATM    4  C   UNL     1      -9.678  10.419  65.288  1.00  0.00    -0.339 C  
BRANCH   4   5
HETATM    5  C   UNL     1      -9.211  10.755  66.706  1.00  0.00    -0.174 C  
BRANCH   5   6
HETATM    6  C   UNL     1      -8.010  11.705  66.646  1.00  0.00    -0.098 C  
BRANCH   6   7
HETATM    7  C   UNL     1      -8.344  13.096  67.167  1.00  0.00    -0.146 C  
BRANCH   7   8
HETATM    8  C   UNL     1      -7.094  13.929  67.459  1.00  0.00    -0.158 C  
HETATM    9  O   UNL     1      -5.957  13.470  67.393  1.00  0.00    -0.341 OA 
BRANCH   8  10
HETATM   10  C   UNL     1      -7.370  15.378  67.808  1.00  0.00    -0.180 C  
BRANCH  10  11
HETATM   11  C   UNL     1      -7.711  16.333  66.655  1.00  0.00    -0.286 C  
BRANCH  11  12
HETATM   12  C   UNL     1      -7.998  17.762  67.189  1.00  0.00    -0.229 C  
HETATM   13  C   UNL     1      -6.799  18.698  66.970  1.00  0.00    -0.195 C  
HETATM   14  O   UNL     1      -5.782  18.522  67.942  1.00  0.00    -0.166 OA 
HETATM   15  C   UNL     1      -7.385  20.079  67.099  1.00  0.00    -0.294 C  
HETATM   16  H   UNL     1      -5.040  19.101  67.807  1.00  0.00     0.000 HD 
HETATM   17  C   UNL     1      -8.710  19.986  66.371  1.00  0.00    -0.302 C  
HETATM   18  O   UNL     1      -9.579  20.958  66.920  1.00  0.00    -0.681 OA 
HETATM   19  C   UNL     1      -9.190  18.510  66.509  1.00  0.00    -0.312 C  
HETATM   20  H   UNL     1     -10.411  20.900  66.463  1.00  0.00     0.000 HD 
BRANCH  19  21
HETATM   21  C   UNL     1     -10.518  18.317  67.268  1.00  0.00    -0.419 C  
BRANCH  21  22
HETATM   22  C   UNL     1     -10.372  17.675  68.625  1.00  0.00    -0.359 C  
HETATM   23  C   UNL     1     -10.692  16.428  69.000  1.00  0.00    -0.322 C  
BRANCH  23  24
HETATM   24  C   UNL     1     -11.332  15.370  68.152  1.00  0.00    -0.353 C  
BRANCH  24  25
HETATM   25  C   UNL     1     -11.845  14.188  68.978  1.00  0.00    -0.384 C  
BRANCH  25  26
HETATM   26  C   UNL     1     -11.915  12.881  68.185  1.00  0.00    -0.306 C  
HETATM   27  C   UNL     1     -12.027  11.683  69.103  1.00  0.00    -0.313 C  
HETATM   28  O   UNL     1     -12.058  11.721  70.319  1.00  0.00    -0.338 OA 
HETATM   29  O   UNL     1     -12.102  10.519  68.413  1.00  0.00    -0.330 OA 
ENDBRANCH  25  26
ENDBRANCH  24  25
ENDBRANCH  23  24
ENDBRANCH  21  22
ENDBRANCH  19  21
ENDBRANCH  11  12
ENDBRANCH  10  11
ENDBRANCH   8  10
ENDBRANCH   7   8
ENDBRANCH   6   7
ENDBRANCH   5   6
ENDBRANCH   4   5
ENDBRANCH   3   4
ENDBRANCH   2   3
TORSDOF 14
ENDMDL
MODEL      174
REMARK 921   NORMALIZED FREE ENERGY PREDICTED BY IDOCK:   -4.16 KCAL/MOL
REMARK 922        TOTAL FREE ENERGY PREDICTED BY IDOCK:  -10.52 KCAL/MOL
REMARK 923 INTER-LIGAND FREE ENERGY PREDICTED BY IDOCK:   -9.37 KCAL/MOL
REMARK 924 INTRA-LIGAND FREE ENERGY PREDICTED BY IDOCK:   -1.15 KCAL/MOL
REMARK 927      BINDING AFFINITY PREDICTED BY RF-SCORE:    0.00 PKD
ROOT
HETATM    1  C   UNL     1      -7.738   8.702  65.799  1.00  0.00    -0.090 C  
HETATM    2  C   UNL     1      -8.481   8.908  64.491  1.00  0.00    -0.178 C  
ENDROOT
BRANCH   2   3
HETATM    3  C   UNL     1      -8.295  10.324  63.943  1.00  0.00    -0.165 C  
BRANCH   3   4
HETATM    4  C   UNL     1      -9.447  10.682  63.005  1.00  0.00    -0.363 C  
BRANCH   4   5
HETATM    5  C   UNL     1     -10.273  11.871  63.501  1.00  0.00    -0.485 C  
BRANCH   5   6
HETATM    6  C   UNL     1     -10.729  11.621  64.943  1.00  0.00    -0.352 C  
BRANCH   6   7
HETATM    7  C   UNL     1     -10.334  12.754  65.880  1.00  0.00    -0.298 C  
BRANCH   7   8
HETATM    8  C   UNL     1     -11.539  13.368  66.597  1.00  0.00    -0.362 C  
HETATM    9  O   UNL     1     -12.564  13.705  66.010  1.00  0.00    -0.441 OA 
BRANCH   8  10
HETATM   10  C   UNL     1     -11.378  13.500  68.098  1.00  0.00    -0.319 C  
BRANCH  10  11
HETATM   11  C   UNL     1     -12.506  14.196  68.875  1.00  0.00     0.089 C  
BRANCH  11  12
HETATM   12  C   UNL     1     -12.109  14.397  70.362  1.00  0.00    -0.399 C  
HETATM   13  C   UNL     1     -11.635  15.835  70.629  1.00  0.00    -0.390 C  
HETATM   14  O   UNL     1     -10.293  16.053  70.226  1.00  0.00    -0.200 OA 
HETATM   15  C   UNL     1     -11.741  15.981  72.125  1.00  0.00    -0.587 C  
HETATM   16  H   UNL     1      -9.999  16.941  70.392  1.00  0.00     0.000 HD 
HETATM   17  C   UNL     1     -13.045  15.292  72.471  1.00  0.00    -0.406 C  
HETATM   18  O   UNL     1     -12.957  14.838  73.808  1.00  0.00    -0.508 OA 
HETATM   19  C   UNL     1     -13.255  14.178  71.402  1.00  0.00    -0.418 C  
HETATM   20  H   UNL     1     -13.775  14.406  74.025  1.00  0.00     0.000 HD 
BRANCH  19  21
HETATM   21  C   UNL     1     -13.288  12.737  71.949  1.00  0.00    -0.510 C  
BRANCH  21  22
HETATM   22  C   UNL     1     -12.509  11.741  71.127  1.00  0.00    -0.390 C  
HETATM   23  C   UNL     1     -12.608  10.404  71.117  1.00  0.00    -0.512 C  
BRANCH  23  24
HETATM   24  C   UNL     1     -13.499   9.562  71.978  1.00  0.00    -0.522 C  
BRANCH  24  25
HETATM   25  C   UNL     1     -13.367   8.068  71.674  1.00  0.00    -0.364 C  
BRANCH  25  26
HETATM   26  C   UNL     1     -12.037   7.470  72.137  1.00  0.00    -0.305 C  
HETATM   27  C   UNL     1     -11.363   6.692  71.028  1.00  0.00    -0.315 C  
HETATM   28  O   UNL     1     -11.799   6.541  69.902  1.00  0.00    -0.381 OA 
HETATM   29  O   UNL     1     -10.178   6.167  71.422  1.00  0.00    -0.197 OA 
ENDBRANCH  25  26
ENDBRANCH  24  25
ENDBRANCH  23  24
ENDBRANCH  21  22
ENDBRANCH  19  21
ENDBRANCH  11  12
ENDBRANCH  10  11
ENDBRANCH   8  10
ENDBRANCH   7   8
ENDBRANCH   6   7
ENDBRANCH   5   6
ENDBRANCH   4   5
ENDBRANCH   3   4
ENDBRANCH   2   3
TORSDOF 14
ENDMDL
MODEL      175
REMARK 921   NORMALIZED FREE ENERGY PREDICTED BY IDOCK:   -4.15 KCAL/MOL
REMARK 922        TOTAL FREE ENERGY PREDICTED BY IDOCK:  -10.51 KCAL/MOL
REMARK 923 INTER-LIGAND FREE ENERGY PREDICTED BY IDOCK:   -8.10 KCAL/MOL
REMARK 924 INTRA-LIGAND FREE ENERGY PREDICTED BY IDOCK:   -2.40 KCAL/MOL
REMARK 927      BINDING AFFINITY PREDICTED BY RF-SCORE:    0.00 PKD
ROOT
HETATM    1  C   UNL     1     -12.315  12.566  63.578  1.00  0.00    -0.623 C  
HETATM    2  C   UNL     1     -11.068  12.110  64.314  1.00  0.00    -0.403 C  
ENDROOT
BRANCH   2   3
HETATM    3  C   UNL     1     -10.182  11.218  63.442  1.00  0.00    -0.454 C  
BRANCH   3   4
HETATM    4  C   UNL     1      -9.543  10.119  64.290  1.00  0.00    -0.354 C  
BRANCH   4   5
HETATM    5  C   UNL     1      -9.680  10.369  65.793  1.00  0.00    -0.285 C  
BRANCH   5   6
HETATM    6  C   UNL     1     -10.232   9.115  66.480  1.00  0.00    -0.322 C  
BRANCH   6   7
HETATM    7  C   UNL     1      -9.163   8.053  66.695  1.00  0.00    -0.225 C  
BRANCH   7   8
HETATM    8  C   UNL     1      -8.986   7.688  68.170  1.00  0.00    -0.126 C  
HETATM    9  O   UNL     1      -8.873   6.529  68.560  1.00  0.00    -0.122 OA 
BRANCH   8  10
HETATM   10  C   UNL     1      -8.929   8.874  69.111  1.00  0.00    -0.140 C  
BRANCH  10  11
HETATM   11  C   UNL     1      -9.379   8.652  70.562  1.00  0.00    -0.202 C  
BRANCH  11  12
HETATM   12  C   UNL     1     -10.928   8.597  70.657  1.00  0.00    -0.274 C  
HETATM   13  C   UNL     1     -11.417   7.205  71.090  1.00  0.00    -0.290 C  
HETATM   14  O   UNL     1     -11.434   6.273  70.021  1.00  0.00    -0.412 OA 
HETATM   15  C   UNL     1     -12.824   7.446  71.569  1.00  0.00    -0.416 C  
HETATM   16  H   UNL     1     -11.737   5.413  70.288  1.00  0.00     0.000 HD 
HETATM   17  C   UNL     1     -12.732   8.745  72.344  1.00  0.00    -0.368 C  
HETATM   18  O   UNL     1     -14.003   9.364  72.312  1.00  0.00    -0.447 OA 
HETATM   19  C   UNL     1     -11.575   9.565  71.698  1.00  0.00    -0.451 C  
HETATM   20  H   UNL     1     -13.946  10.179  72.797  1.00  0.00     0.000 HD 
BRANCH  19  21
HETATM   21  C   UNL     1     -11.992  10.912  71.073  1.00  0.00    -0.375 C  
BRANCH  21  22
HETATM   22  C   UNL     1     -12.107  10.890  69.569  1.00  0.00    -0.380 C  
HETATM   23  C   UNL     1     -11.713  11.818  68.685  1.00  0.00    -0.389 C  
BRANCH  23  24
HETATM   24  C   UNL     1     -11.098  13.149  68.993  1.00  0.00    -0.282 C  
BRANCH  24  25
HETATM   25  C   UNL     1     -10.169  13.638  67.879  1.00  0.00    -0.250 C  
BRANCH  25  26
HETATM   26  C   UNL     1      -9.180  12.571  67.403  1.00  0.00    -0.186 C  
HETATM   27  C   UNL     1      -7.842  12.710  68.095  1.00  0.00    -0.145 C  
HETATM   28  O   UNL     1      -7.556  13.551  68.926  1.00  0.00    -0.096 OA 
HETATM   29  O   UNL     1      -6.961  11.764  67.690  1.00  0.00    -0.087 OA 
ENDBRANCH  25  26
ENDBRANCH  24  25
ENDBRANCH  23  24
ENDBRANCH  21  22
ENDBRANCH  19  21
ENDBRANCH  11  12
ENDBRANCH  10  11
ENDBRANCH   8  10
ENDBRANCH   7   8
ENDBRANCH   6   7
ENDBRANCH   5   6
ENDBRANCH   4   5
ENDBRANCH   3   4
ENDBRANCH   2   3
TORSDOF 14
ENDMDL
MODEL      176
REMARK 921   NORMALIZED FREE ENERGY PREDICTED BY IDOCK:   -4.11 KCAL/MOL
REMARK 922        TOTAL FREE ENERGY PREDICTED BY IDOCK:  -10.44 KCAL/MOL
REMARK 923 INTER-LIGAND FREE ENERGY PREDICTED BY IDOCK:   -8.16 KCAL/MOL
REMARK 924 INTRA-LIGAND FREE ENERGY PREDICTED BY IDOCK:   -2.27 KCAL/MOL
REMARK 927      BINDING AFFINITY PREDICTED BY RF-SCORE:    0.00 PKD
ROOT
HETATM    1  C   UNL     1     -12.538  11.975  63.334  1.00  0.00    -0.592 C  
HETATM    2  C   UNL     1     -11.082  11.875  63.752  1.00  0.00    -0.510 C  
ENDROOT
BRANCH   2   3
HETATM    3  C   UNL     1     -10.592  13.156  64.431  1.00  0.00    -0.441 C  
BRANCH   3   4
HETATM    4  C   UNL     1     -11.726  14.177  64.510  1.00  0.00    -0.426 C  
BRANCH   4   5
HETATM    5  C   UNL     1     -11.230  15.601  64.771  1.00  0.00    -0.391 C  
BRANCH   5   6
HETATM    6  C   UNL     1     -10.127  15.579  65.836  1.00  0.00    -0.374 C  
BRANCH   6   7
HETATM    7  C   UNL     1     -10.507  16.368  67.081  1.00  0.00    -0.297 C  
BRANCH   7   8
HETATM    8  C   UNL     1     -11.080  15.479  68.187  1.00  0.00    -0.325 C  
HETATM    9  O   UNL     1     -11.777  15.916  69.099  1.00  0.00    -0.376 OA 
BRANCH   8  10
HETATM   10  C   UNL     1     -10.742  14.008  68.051  1.00  0.00    -0.253 C  
BRANCH  10  11
HETATM   11  C   UNL     1     -11.878  12.996  68.263  1.00  0.00    -0.381 C  
BRANCH  11  12
HETATM   12  C   UNL     1     -11.684  12.219  69.592  1.00  0.00    -0.386 C  
HETATM   13  C   UNL     1     -12.500  12.843  70.735  1.00  0.00    -0.286 C  
HETATM   14  O   UNL     1     -11.874  13.985  71.295  1.00  0.00    -0.465 OA 
HETATM   15  C   UNL     1     -12.572  11.751  71.770  1.00  0.00    -0.175 C  
HETATM   16  H   UNL     1     -12.379  14.371  72.002  1.00  0.00     0.000 HD 
HETATM   17  C   UNL     1     -12.809  10.491  70.962  1.00  0.00    -0.407 C  
HETATM   18  O   UNL     1     -12.301   9.397  71.700  1.00  0.00    -0.337 OA 
HETATM   19  C   UNL     1     -12.142  10.725  69.573  1.00  0.00    -0.344 C  
HETATM   20  H   UNL     1     -12.449   8.607  71.193  1.00  0.00     0.000 HD 
BRANCH  19  21
HETATM   21  C   UNL     1     -10.991   9.759  69.224  1.00  0.00    -0.222 C  
BRANCH  21  22
HETATM   22  C   UNL     1      -9.626  10.239  69.648  1.00  0.00    -0.192 C  
HETATM   23  C   UNL     1      -8.620   9.534  70.187  1.00  0.00    -0.250 C  
BRANCH  23  24
HETATM   24  C   UNL     1      -8.635   8.080  70.550  1.00  0.00    -0.134 C  
BRANCH  24  25
HETATM   25  C   UNL     1      -7.831   7.223  69.570  1.00  0.00    -0.118 C  
BRANCH  25  26
HETATM   26  C   UNL     1      -8.326   5.777  69.484  1.00  0.00    -0.112 C  
HETATM   27  C   UNL     1      -9.051   5.518  68.181  1.00  0.00    -0.108 C  
HETATM   28  O   UNL     1      -9.236   6.334  67.298  1.00  0.00    -0.118 OA 
HETATM   29  O   UNL     1      -9.485   4.238  68.087  1.00  0.00    -0.145 OA 
ENDBRANCH  25  26
ENDBRANCH  24  25
ENDBRANCH  23  24
ENDBRANCH  21  22
ENDBRANCH  19  21
ENDBRANCH  11  12
ENDBRANCH  10  11
ENDBRANCH   8  10
ENDBRANCH   7   8
ENDBRANCH   6   7
ENDBRANCH   5   6
ENDBRANCH   4   5
ENDBRANCH   3   4
ENDBRANCH   2   3
TORSDOF 14
ENDMDL
MODEL      177
REMARK 921   NORMALIZED FREE ENERGY PREDICTED BY IDOCK:   -4.11 KCAL/MOL
REMARK 922        TOTAL FREE ENERGY PREDICTED BY IDOCK:  -10.43 KCAL/MOL
REMARK 923 INTER-LIGAND FREE ENERGY PREDICTED BY IDOCK:   -8.84 KCAL/MOL
REMARK 924 INTRA-LIGAND FREE ENERGY PREDICTED BY IDOCK:   -1.59 KCAL/MOL
REMARK 927      BINDING AFFINITY PREDICTED BY RF-SCORE:    0.00 PKD
ROOT
HETATM    1  C   UNL     1      -7.997  19.476  68.776  1.00  0.00    -0.362 C  
HETATM    2  C   UNL     1      -8.893  20.043  67.690  1.00  0.00    -0.407 C  
ENDROOT
BRANCH   2   3
HETATM    3  C   UNL     1     -10.352  19.618  67.872  1.00  0.00    -0.583 C  
BRANCH   3   4
HETATM    4  C   UNL     1     -10.504  18.124  67.588  1.00  0.00    -0.432 C  
BRANCH   4   5
HETATM    5  C   UNL     1      -9.887  17.704  66.253  1.00  0.00    -0.297 C  
BRANCH   5   6
HETATM    6  C   UNL     1      -9.742  16.178  66.205  1.00  0.00    -0.352 C  
BRANCH   6   7
HETATM    7  C   UNL     1     -10.081  15.522  67.535  1.00  0.00    -0.241 C  
BRANCH   7   8
HETATM    8  C   UNL     1     -10.997  14.307  67.374  1.00  0.00    -0.295 C  
HETATM    9  O   UNL     1     -11.935  14.281  66.580  1.00  0.00    -0.410 OA 
BRANCH   8  10
HETATM   10  C   UNL     1     -10.638  13.125  68.251  1.00  0.00    -0.260 C  
BRANCH  10  11
HETATM   11  C   UNL     1     -11.724  12.068  68.498  1.00  0.00    -0.387 C  
BRANCH  11  12
HETATM   12  C   UNL     1     -11.815  11.712  70.006  1.00  0.00    -0.435 C  
HETATM   13  C   UNL     1     -12.644  12.749  70.781  1.00  0.00    -0.225 C  
HETATM   14  O   UNL     1     -11.908  13.921  71.087  1.00  0.00    -0.479 OA 
HETATM   15  C   UNL     1     -13.013  12.040  72.058  1.00  0.00    -0.374 C  
HETATM   16  H   UNL     1     -12.420  14.562  71.566  1.00  0.00     0.000 HD 
HETATM   17  C   UNL     1     -13.359  10.634  71.611  1.00  0.00    -0.307 C  
HETATM   18  O   UNL     1     -13.127   9.761  72.700  1.00  0.00    -0.476 OA 
HETATM   19  C   UNL     1     -12.507  10.351  70.338  1.00  0.00    -0.348 C  
HETATM   20  H   UNL     1     -13.344   8.879  72.421  1.00  0.00     0.000 HD 
BRANCH  19  21
HETATM   21  C   UNL     1     -11.499   9.191  70.464  1.00  0.00    -0.271 C  
BRANCH  21  22
HETATM   22  C   UNL     1     -10.091   9.544  70.055  1.00  0.00    -0.279 C  
HETATM   23  C   UNL     1      -9.305   8.942  69.151  1.00  0.00    -0.148 C  
BRANCH  23  24
HETATM   24  C   UNL     1      -9.630   7.716  68.351  1.00  0.00    -0.155 C  
BRANCH  24  25
HETATM   25  C   UNL     1      -9.473   7.940  66.845  1.00  0.00    -0.243 C  
BRANCH  25  26
HETATM   26  C   UNL     1     -10.077   9.261  66.363  1.00  0.00    -0.337 C  
HETATM   27  C   UNL     1      -9.509   9.672  65.023  1.00  0.00    -0.245 C  
HETATM   28  O   UNL     1      -8.676   9.055  64.386  1.00  0.00    -0.186 OA 
HETATM   29  O   UNL     1     -10.044  10.835  64.579  1.00  0.00    -0.303 OA 
ENDBRANCH  25  26
ENDBRANCH  24  25
ENDBRANCH  23  24
ENDBRANCH  21  22
ENDBRANCH  19  21
ENDBRANCH  11  12
ENDBRANCH  10  11
ENDBRANCH   8  10
ENDBRANCH   7   8
ENDBRANCH   6   7
ENDBRANCH   5   6
ENDBRANCH   4   5
ENDBRANCH   3   4
ENDBRANCH   2   3
TORSDOF 14
ENDMDL
MODEL      178
REMARK 921   NORMALIZED FREE ENERGY PREDICTED BY IDOCK:   -4.06 KCAL/MOL
REMARK 922        TOTAL FREE ENERGY PREDICTED BY IDOCK:  -10.35 KCAL/MOL
REMARK 923 INTER-LIGAND FREE ENERGY PREDICTED BY IDOCK:   -7.80 KCAL/MOL
REMARK 924 INTRA-LIGAND FREE ENERGY PREDICTED BY IDOCK:   -2.55 KCAL/MOL
REMARK 927      BINDING AFFINITY PREDICTED BY RF-SCORE:    0.00 PKD
ROOT
HETATM    1  C   UNL     1      -9.652   4.879  65.451  1.00  0.00    -0.115 C  
HETATM    2  C   UNL     1     -10.777   5.181  66.424  1.00  0.00    -0.275 C  
ENDROOT
BRANCH   2   3
HETATM    3  C   UNL     1     -10.592   6.537  67.109  1.00  0.00    -0.398 C  
BRANCH   3   4
HETATM    4  C   UNL     1     -11.083   6.469  68.555  1.00  0.00    -0.347 C  
BRANCH   4   5
HETATM    5  C   UNL     1     -10.574   5.233  69.300  1.00  0.00    -0.188 C  
BRANCH   5   6
HETATM    6  C   UNL     1      -9.057   5.334  69.499  1.00  0.00    -0.144 C  
BRANCH   6   7
HETATM    7  C   UNL     1      -8.628   4.922  70.900  1.00  0.00    -0.128 C  
BRANCH   7   8
HETATM    8  C   UNL     1      -9.065   5.928  71.967  1.00  0.00    -0.144 C  
HETATM    9  O   UNL     1      -9.703   5.605  72.965  1.00  0.00    -0.154 OA 
BRANCH   8  10
HETATM   10  C   UNL     1      -8.619   7.353  71.710  1.00  0.00    -0.124 C  
BRANCH  10  11
HETATM   11  C   UNL     1      -9.497   8.484  72.268  1.00  0.00    -0.365 C  
BRANCH  11  12
HETATM   12  C   UNL     1     -10.822   8.599  71.467  1.00  0.00    -0.352 C  
HETATM   13  C   UNL     1     -12.049   8.494  72.388  1.00  0.00    -0.367 C  
HETATM   14  O   UNL     1     -12.359   7.155  72.737  1.00  0.00    -0.431 OA 
HETATM   15  C   UNL     1     -13.171   9.072  71.567  1.00  0.00    -0.388 C  
HETATM   16  H   UNL     1     -13.117   7.090  73.306  1.00  0.00     0.000 HD 
HETATM   17  C   UNL     1     -12.549  10.274  70.886  1.00  0.00    -0.371 C  
HETATM   18  O   UNL     1     -13.262  10.516  69.689  1.00  0.00    -0.499 OA 
HETATM   19  C   UNL     1     -11.036   9.947  70.706  1.00  0.00    -0.407 C  
HETATM   20  H   UNL     1     -12.871  11.269  69.261  1.00  0.00     0.000 HD 
BRANCH  19  21
HETATM   21  C   UNL     1     -10.545   9.885  69.246  1.00  0.00    -0.245 C  
BRANCH  21  22
HETATM   22  C   UNL     1      -9.606  11.000  68.857  1.00  0.00    -0.174 C  
HETATM   23  C   UNL     1      -9.782  11.961  67.939  1.00  0.00    -0.192 C  
BRANCH  23  24
HETATM   24  C   UNL     1     -10.958  12.127  67.025  1.00  0.00    -0.319 C  
BRANCH  24  25
HETATM   25  C   UNL     1     -11.996  13.107  67.576  1.00  0.00    -0.367 C  
BRANCH  25  26
HETATM   26  C   UNL     1     -11.774  14.549  67.113  1.00  0.00    -0.420 C  
HETATM   27  C   UNL     1     -11.215  15.407  68.226  1.00  0.00    -0.323 C  
HETATM   28  O   UNL     1     -10.965  15.030  69.356  1.00  0.00    -0.244 OA 
HETATM   29  O   UNL     1     -11.003  16.684  67.826  1.00  0.00    -0.320 OA 
ENDBRANCH  25  26
ENDBRANCH  24  25
ENDBRANCH  23  24
ENDBRANCH  21  22
ENDBRANCH  19  21
ENDBRANCH  11  12
ENDBRANCH  10  11
ENDBRANCH   8  10
ENDBRANCH   7   8
ENDBRANCH   6   7
ENDBRANCH   5   6
ENDBRANCH   4   5
ENDBRANCH   3   4
ENDBRANCH   2   3
TORSDOF 14
ENDMDL
MODEL      179
REMARK 921   NORMALIZED FREE ENERGY PREDICTED BY IDOCK:   -4.06 KCAL/MOL
REMARK 922        TOTAL FREE ENERGY PREDICTED BY IDOCK:  -10.33 KCAL/MOL
REMARK 923 INTER-LIGAND FREE ENERGY PREDICTED BY IDOCK:   -7.78 KCAL/MOL
REMARK 924 INTRA-LIGAND FREE ENERGY PREDICTED BY IDOCK:   -2.55 KCAL/MOL
REMARK 927      BINDING AFFINITY PREDICTED BY RF-SCORE:    0.00 PKD
ROOT
HETATM    1  C   UNL     1     -13.505   7.318  71.421  1.00  0.00    -0.400 C  
HETATM    2  C   UNL     1     -12.222   6.578  71.756  1.00  0.00    -0.374 C  
ENDROOT
BRANCH   2   3
HETATM    3  C   UNL     1     -11.406   6.249  70.504  1.00  0.00    -0.428 C  
BRANCH   3   4
HETATM    4  C   UNL     1     -10.258   5.304  70.856  1.00  0.00    -0.304 C  
BRANCH   4   5
HETATM    5  C   UNL     1      -8.887   5.978  70.785  1.00  0.00    -0.139 C  
BRANCH   5   6
HETATM    6  C   UNL     1      -8.662   6.831  72.040  1.00  0.00    -0.126 C  
BRANCH   6   7
HETATM    7  C   UNL     1      -8.239   8.254  71.705  1.00  0.00    -0.174 C  
BRANCH   7   8
HETATM    8  C   UNL     1      -9.382   9.083  71.114  1.00  0.00    -0.266 C  
HETATM    9  O   UNL     1     -10.411   9.337  71.734  1.00  0.00    -0.328 OA 
BRANCH   8  10
HETATM   10  C   UNL     1      -9.129   9.593  69.709  1.00  0.00    -0.232 C  
BRANCH  10  11
HETATM   11  C   UNL     1      -7.831   9.152  69.016  1.00  0.00    -0.090 C  
BRANCH  11  12
HETATM   12  C   UNL     1      -8.140   8.327  67.739  1.00  0.00    -0.127 C  
HETATM   13  C   UNL     1      -7.165   7.149  67.579  1.00  0.00    -0.090 C  
HETATM   14  O   UNL     1      -5.914   7.543  67.039  1.00  0.00    -0.042 OA 
HETATM   15  C   UNL     1      -7.862   6.228  66.612  1.00  0.00    -0.104 C  
HETATM   16  H   UNL     1      -5.312   6.815  66.939  1.00  0.00     0.000 HD 
HETATM   17  C   UNL     1      -9.311   6.256  67.055  1.00  0.00    -0.126 C  
HETATM   18  O   UNL     1     -10.117   5.957  65.932  1.00  0.00    -0.394 OA 
HETATM   19  C   UNL     1      -9.552   7.657  67.693  1.00  0.00    -0.175 C  
HETATM   20  H   UNL     1     -11.025   5.975  66.210  1.00  0.00     0.000 HD 
BRANCH  19  21
HETATM   21  C   UNL     1     -10.599   8.535  66.980  1.00  0.00    -0.305 C  
BRANCH  21  22
HETATM   22  C   UNL     1     -10.013   9.628  66.120  1.00  0.00    -0.346 C  
HETATM   23  C   UNL     1     -10.144  10.956  66.250  1.00  0.00    -0.284 C  
BRANCH  23  24
HETATM   24  C   UNL     1     -10.964  11.683  67.271  1.00  0.00    -0.318 C  
BRANCH  24  25
HETATM   25  C   UNL     1     -11.714  12.878  66.678  1.00  0.00    -0.452 C  
BRANCH  25  26
HETATM   26  C   UNL     1     -12.177  12.649  65.238  1.00  0.00    -0.532 C  
HETATM   27  C   UNL     1     -12.092  13.920  64.421  1.00  0.00    -0.443 C  
HETATM   28  O   UNL     1     -11.711  15.001  64.828  1.00  0.00    -0.396 OA 
HETATM   29  O   UNL     1     -12.488  13.728  63.140  1.00  0.00    -0.786 OA 
ENDBRANCH  25  26
ENDBRANCH  24  25
ENDBRANCH  23  24
ENDBRANCH  21  22
ENDBRANCH  19  21
ENDBRANCH  11  12
ENDBRANCH  10  11
ENDBRANCH   8  10
ENDBRANCH   7   8
ENDBRANCH   6   7
ENDBRANCH   5   6
ENDBRANCH   4   5
ENDBRANCH   3   4
ENDBRANCH   2   3
TORSDOF 14
ENDMDL
MODEL      180
REMARK 921   NORMALIZED FREE ENERGY PREDICTED BY IDOCK:   -4.05 KCAL/MOL
REMARK 922        TOTAL FREE ENERGY PREDICTED BY IDOCK:  -10.33 KCAL/MOL
REMARK 923 INTER-LIGAND FREE ENERGY PREDICTED BY IDOCK:   -7.73 KCAL/MOL
REMARK 924 INTRA-LIGAND FREE ENERGY PREDICTED BY IDOCK:   -2.60 KCAL/MOL
REMARK 927      BINDING AFFINITY PREDICTED BY RF-SCORE:    0.00 PKD
ROOT
HETATM    1  C   UNL     1     -12.336  10.368  70.701  1.00  0.00    -0.438 C  
HETATM    2  C   UNL     1     -11.157   9.712  71.397  1.00  0.00    -0.397 C  
ENDROOT
BRANCH   2   3
HETATM    3  C   UNL     1     -11.585   8.503  72.232  1.00  0.00    -0.444 C  
BRANCH   3   4
HETATM    4  C   UNL     1     -10.516   7.413  72.168  1.00  0.00    -0.243 C  
BRANCH   4   5
HETATM    5  C   UNL     1     -11.021   6.116  71.534  1.00  0.00    -0.328 C  
BRANCH   5   6
HETATM    6  C   UNL     1     -11.616   6.411  70.152  1.00  0.00    -0.449 C  
BRANCH   6   7
HETATM    7  C   UNL     1     -10.795   5.799  69.025  1.00  0.00    -0.330 C  
BRANCH   7   8
HETATM    8  C   UNL     1     -10.712   6.710  67.798  1.00  0.00    -0.283 C  
HETATM    9  O   UNL     1     -10.878   6.301  66.652  1.00  0.00    -0.289 OA 
BRANCH   8  10
HETATM   10  C   UNL     1     -10.438   8.167  68.113  1.00  0.00    -0.225 C  
BRANCH  10  11
HETATM   11  C   UNL     1      -9.003   8.678  67.913  1.00  0.00    -0.142 C  
BRANCH  11  12
HETATM   12  C   UNL     1      -8.943  10.223  68.056  1.00  0.00    -0.132 C  
HETATM   13  C   UNL     1      -7.637  10.677  68.726  1.00  0.00    -0.109 C  
HETATM   14  O   UNL     1      -7.665  10.533  70.137  1.00  0.00    -0.388 OA 
HETATM   15  C   UNL     1      -7.534  12.138  68.372  1.00  0.00    -0.114 C  
HETATM   16  H   UNL     1      -6.858  10.814  70.551  1.00  0.00     0.000 HD 
HETATM   17  C   UNL     1      -7.971  12.197  66.923  1.00  0.00    -0.089 C  
HETATM   18  O   UNL     1      -8.488  13.490  66.676  1.00  0.00    -0.433 OA 
HETATM   19  C   UNL     1      -8.979  11.026  66.716  1.00  0.00    -0.163 C  
HETATM   20  H   UNL     1      -8.763  13.528  65.767  1.00  0.00     0.000 HD 
BRANCH  19  21
HETATM   21  C   UNL     1     -10.408  11.449  66.319  1.00  0.00    -0.287 C  
BRANCH  21  22
HETATM   22  C   UNL     1     -11.330  11.697  67.487  1.00  0.00    -0.364 C  
HETATM   23  C   UNL     1     -11.943  12.835  67.843  1.00  0.00    -0.320 C  
BRANCH  23  24
HETATM   24  C   UNL     1     -11.812  14.173  67.180  1.00  0.00    -0.454 C  
BRANCH  24  25
HETATM   25  C   UNL     1     -11.741  15.322  68.188  1.00  0.00    -0.297 C  
BRANCH  25  26
HETATM   26  C   UNL     1     -10.652  16.348  67.862  1.00  0.00    -0.320 C  
HETATM   27  C   UNL     1      -9.427  16.148  68.727  1.00  0.00    -0.230 C  
HETATM   28  O   UNL     1      -9.294  15.293  69.582  1.00  0.00    -0.238 OA 
HETATM   29  O   UNL     1      -8.451  17.043  68.440  1.00  0.00    -0.221 OA 
ENDBRANCH  25  26
ENDBRANCH  24  25
ENDBRANCH  23  24
ENDBRANCH  21  22
ENDBRANCH  19  21
ENDBRANCH  11  12
ENDBRANCH  10  11
ENDBRANCH   8  10
ENDBRANCH   7   8
ENDBRANCH   6   7
ENDBRANCH   5   6
ENDBRANCH   4   5
ENDBRANCH   3   4
ENDBRANCH   2   3
TORSDOF 14
ENDMDL
MODEL      181
REMARK 921   NORMALIZED FREE ENERGY PREDICTED BY IDOCK:   -4.05 KCAL/MOL
REMARK 922        TOTAL FREE ENERGY PREDICTED BY IDOCK:  -10.32 KCAL/MOL
REMARK 923 INTER-LIGAND FREE ENERGY PREDICTED BY IDOCK:   -8.12 KCAL/MOL
REMARK 924 INTRA-LIGAND FREE ENERGY PREDICTED BY IDOCK:   -2.20 KCAL/MOL
REMARK 927      BINDING AFFINITY PREDICTED BY RF-SCORE:    0.00 PKD
ROOT
HETATM    1  C   UNL     1     -12.299  11.614  71.083  1.00  0.00    -0.351 C  
HETATM    2  C   UNL     1     -13.405  10.580  70.972  1.00  0.00    -0.189 C  
ENDROOT
BRANCH   2   3
HETATM    3  C   UNL     1     -13.233   9.448  71.987  1.00  0.00    -0.529 C  
BRANCH   3   4
HETATM    4  C   UNL     1     -13.979   8.200  71.515  1.00  0.00    -0.417 C  
BRANCH   4   5
HETATM    5  C   UNL     1     -13.123   6.934  71.573  1.00  0.00    -0.341 C  
BRANCH   5   6
HETATM    6  C   UNL     1     -11.803   7.165  70.827  1.00  0.00    -0.367 C  
BRANCH   6   7
HETATM    7  C   UNL     1     -11.050   5.868  70.566  1.00  0.00    -0.347 C  
BRANCH   7   8
HETATM    8  C   UNL     1     -10.671   5.695  69.094  1.00  0.00    -0.255 C  
HETATM    9  O   UNL     1     -10.064   4.714  68.673  1.00  0.00    -0.112 OA 
BRANCH   8  10
HETATM   10  C   UNL     1     -11.132   6.819  68.188  1.00  0.00    -0.229 C  
BRANCH  10  11
HETATM   11  C   UNL     1     -10.305   7.097  66.924  1.00  0.00    -0.349 C  
BRANCH  11  12
HETATM   12  C   UNL     1      -9.467   8.393  67.086  1.00  0.00    -0.209 C  
HETATM   13  C   UNL     1      -8.034   8.084  67.550  1.00  0.00    -0.122 C  
HETATM   14  O   UNL     1      -7.950   7.838  68.944  1.00  0.00    -0.119 OA 
HETATM   15  C   UNL     1      -7.264   9.334  67.213  1.00  0.00    -0.087 C  
HETATM   16  H   UNL     1      -7.065   7.647  69.231  1.00  0.00     0.000 HD 
HETATM   17  C   UNL     1      -7.795   9.738  65.853  1.00  0.00    -0.108 C  
HETATM   18  O   UNL     1      -7.626  11.136  65.717  1.00  0.00    -0.357 OA 
HETATM   19  C   UNL     1      -9.268   9.236  65.785  1.00  0.00    -0.283 C  
HETATM   20  H   UNL     1      -7.959  11.390  64.864  1.00  0.00     0.000 HD 
BRANCH  19  21
HETATM   21  C   UNL     1     -10.334  10.339  65.629  1.00  0.00    -0.232 C  
BRANCH  21  22
HETATM   22  C   UNL     1     -11.135  10.612  66.877  1.00  0.00    -0.162 C  
HETATM   23  C   UNL     1     -11.224  11.747  67.584  1.00  0.00    -0.345 C  
BRANCH  23  24
HETATM   24  C   UNL     1     -10.489  13.027  67.326  1.00  0.00    -0.238 C  
BRANCH  24  25
HETATM   25  C   UNL     1     -11.429  14.181  66.966  1.00  0.00    -0.370 C  
BRANCH  25  26
HETATM   26  C   UNL     1     -12.376  13.852  65.809  1.00  0.00    -0.518 C  
HETATM   27  C   UNL     1     -11.931  14.517  64.525  1.00  0.00    -0.468 C  
HETATM   28  O   UNL     1     -10.952  15.228  64.396  1.00  0.00    -0.251 OA 
HETATM   29  O   UNL     1     -12.755  14.225  63.490  1.00  0.00    -0.767 OA 
ENDBRANCH  25  26
ENDBRANCH  24  25
ENDBRANCH  23  24
ENDBRANCH  21  22
ENDBRANCH  19  21
ENDBRANCH  11  12
ENDBRANCH  10  11
ENDBRANCH   8  10
ENDBRANCH   7   8
ENDBRANCH   6   7
ENDBRANCH   5   6
ENDBRANCH   4   5
ENDBRANCH   3   4
ENDBRANCH   2   3
TORSDOF 14
ENDMDL
MODEL      182
REMARK 921   NORMALIZED FREE ENERGY PREDICTED BY IDOCK:   -4.03 KCAL/MOL
REMARK 922        TOTAL FREE ENERGY PREDICTED BY IDOCK:  -10.29 KCAL/MOL
REMARK 923 INTER-LIGAND FREE ENERGY PREDICTED BY IDOCK:   -8.61 KCAL/MOL
REMARK 924 INTRA-LIGAND FREE ENERGY PREDICTED BY IDOCK:   -1.68 KCAL/MOL
REMARK 927      BINDING AFFINITY PREDICTED BY RF-SCORE:    0.00 PKD
ROOT
HETATM    1  C   UNL     1      -7.988   3.466  65.992  1.00  0.00    -0.092 C  
HETATM    2  C   UNL     1      -9.386   3.728  66.523  1.00  0.00    -0.204 C  
ENDROOT
BRANCH   2   3
HETATM    3  C   UNL     1      -9.812   5.184  66.321  1.00  0.00    -0.209 C  
BRANCH   3   4
HETATM    4  C   UNL     1     -10.380   5.752  67.621  1.00  0.00    -0.270 C  
BRANCH   4   5
HETATM    5  C   UNL     1     -11.283   6.966  67.398  1.00  0.00    -0.217 C  
BRANCH   5   6
HETATM    6  C   UNL     1     -10.468   8.117  66.796  1.00  0.00    -0.316 C  
BRANCH   6   7
HETATM    7  C   UNL     1     -10.428   9.337  67.706  1.00  0.00    -0.313 C  
BRANCH   7   8
HETATM    8  C   UNL     1     -10.680  10.642  66.948  1.00  0.00    -0.237 C  
HETATM    9  O   UNL     1     -10.500  10.756  65.739  1.00  0.00    -0.242 OA 
BRANCH   8  10
HETATM   10  C   UNL     1     -11.201  11.778  67.806  1.00  0.00    -0.331 C  
BRANCH  10  11
HETATM   11  C   UNL     1     -10.952  11.696  69.320  1.00  0.00    -0.246 C  
BRANCH  11  12
HETATM   12  C   UNL     1     -12.276  11.887  70.107  1.00  0.00    -0.319 C  
HETATM   13  C   UNL     1     -12.512  10.737  71.100  1.00  0.00    -0.414 C  
HETATM   14  O   UNL     1     -13.033   9.574  70.478  1.00  0.00    -0.523 OA 
HETATM   15  C   UNL     1     -13.530  11.290  72.063  1.00  0.00    -0.289 C  
HETATM   16  H   UNL     1     -13.179   8.863  71.092  1.00  0.00     0.000 HD 
HETATM   17  C   UNL     1     -13.079  12.718  72.296  1.00  0.00    -0.295 C  
HETATM   18  O   UNL     1     -14.215  13.481  72.655  1.00  0.00    -0.751 OA 
HETATM   19  C   UNL     1     -12.356  13.172  70.993  1.00  0.00    -0.355 C  
HETATM   20  H   UNL     1     -13.932  14.376  72.800  1.00  0.00     0.000 HD 
BRANCH  19  21
HETATM   21  C   UNL     1     -13.010  14.357  70.255  1.00  0.00    -0.120 C  
BRANCH  21  22
HETATM   22  C   UNL     1     -12.314  15.679  70.459  1.00  0.00    -0.443 C  
HETATM   23  C   UNL     1     -11.232  16.162  69.831  1.00  0.00    -0.349 C  
BRANCH  23  24
HETATM   24  C   UNL     1     -10.412  15.465  68.788  1.00  0.00    -0.231 C  
BRANCH  24  25
HETATM   25  C   UNL     1     -10.841  15.827  67.365  1.00  0.00    -0.306 C  
BRANCH  25  26
HETATM   26  C   UNL     1      -9.767  16.588  66.583  1.00  0.00    -0.275 C  
HETATM   27  C   UNL     1      -9.983  18.084  66.660  1.00  0.00    -0.362 C  
HETATM   28  O   UNL     1     -10.886  18.640  67.255  1.00  0.00    -0.426 OA 
HETATM   29  O   UNL     1      -9.033  18.770  65.981  1.00  0.00    -0.479 OA 
ENDBRANCH  25  26
ENDBRANCH  24  25
ENDBRANCH  23  24
ENDBRANCH  21  22
ENDBRANCH  19  21
ENDBRANCH  11  12
ENDBRANCH  10  11
ENDBRANCH   8  10
ENDBRANCH   7   8
ENDBRANCH   6   7
ENDBRANCH   5   6
ENDBRANCH   4   5
ENDBRANCH   3   4
ENDBRANCH   2   3
TORSDOF 14
ENDMDL
MODEL      183
REMARK 921   NORMALIZED FREE ENERGY PREDICTED BY IDOCK:   -4.03 KCAL/MOL
REMARK 922        TOTAL FREE ENERGY PREDICTED BY IDOCK:  -10.29 KCAL/MOL
REMARK 923 INTER-LIGAND FREE ENERGY PREDICTED BY IDOCK:   -8.62 KCAL/MOL
REMARK 924 INTRA-LIGAND FREE ENERGY PREDICTED BY IDOCK:   -1.67 KCAL/MOL
REMARK 927      BINDING AFFINITY PREDICTED BY RF-SCORE:    0.00 PKD
ROOT
HETATM    1  C   UNL     1     -10.101  19.688  68.467  1.00  0.00    -0.557 C  
HETATM    2  C   UNL     1     -10.522  19.870  67.020  1.00  0.00    -0.570 C  
ENDROOT
BRANCH   2   3
HETATM    3  C   UNL     1     -10.056  18.710  66.138  1.00  0.00    -0.399 C  
BRANCH   3   4
HETATM    4  C   UNL     1     -10.262  17.380  66.862  1.00  0.00    -0.322 C  
BRANCH   4   5
HETATM    5  C   UNL     1     -10.033  16.167  65.959  1.00  0.00    -0.373 C  
BRANCH   5   6
HETATM    6  C   UNL     1     -10.629  14.914  66.612  1.00  0.00    -0.305 C  
BRANCH   6   7
HETATM    7  C   UNL     1     -10.396  13.660  65.781  1.00  0.00    -0.304 C  
BRANCH   7   8
HETATM    8  C   UNL     1     -11.225  12.470  66.268  1.00  0.00    -0.315 C  
HETATM    9  O   UNL     1     -12.377  12.264  65.895  1.00  0.00    -0.618 OA 
BRANCH   8  10
HETATM   10  C   UNL     1     -10.500  11.547  67.226  1.00  0.00    -0.246 C  
BRANCH  10  11
HETATM   11  C   UNL     1     -11.261  10.313  67.735  1.00  0.00    -0.262 C  
BRANCH  11  12
HETATM   12  C   UNL     1     -10.275   9.172  68.105  1.00  0.00    -0.249 C  
HETATM   13  C   UNL     1      -9.684   8.508  66.851  1.00  0.00    -0.221 C  
HETATM   14  O   UNL     1     -10.569   7.571  66.259  1.00  0.00    -0.342 OA 
HETATM   15  C   UNL     1      -8.461   7.792  67.361  1.00  0.00    -0.119 C  
HETATM   16  H   UNL     1     -10.203   7.160  65.484  1.00  0.00     0.000 HD 
HETATM   17  C   UNL     1      -7.846   8.767  68.344  1.00  0.00    -0.104 C  
HETATM   18  O   UNL     1      -7.104   8.022  69.290  1.00  0.00    -0.064 OA 
HETATM   19  C   UNL     1      -9.021   9.605  68.930  1.00  0.00    -0.144 C  
HETATM   20  H   UNL     1      -6.718   8.633  69.907  1.00  0.00     0.000 HD 
BRANCH  19  21
HETATM   21  C   UNL     1      -9.236   9.465  70.450  1.00  0.00    -0.305 C  
BRANCH  21  22
HETATM   22  C   UNL     1     -10.666   9.646  70.895  1.00  0.00    -0.402 C  
HETATM   23  C   UNL     1     -11.320   9.023  71.886  1.00  0.00    -0.438 C  
BRANCH  23  24
HETATM   24  C   UNL     1     -10.787   7.938  72.773  1.00  0.00    -0.451 C  
BRANCH  24  25
HETATM   25  C   UNL     1     -11.278   6.549  72.360  1.00  0.00    -0.310 C  
BRANCH  25  26
HETATM   26  C   UNL     1     -11.769   6.486  70.912  1.00  0.00    -0.416 C  
HETATM   27  C   UNL     1     -10.700   5.942  69.989  1.00  0.00    -0.326 C  
HETATM   28  O   UNL     1      -9.584   5.593  70.325  1.00  0.00    -0.158 OA 
HETATM   29  O   UNL     1     -11.125   5.870  68.705  1.00  0.00    -0.297 OA 
ENDBRANCH  25  26
ENDBRANCH  24  25
ENDBRANCH  23  24
ENDBRANCH  21  22
ENDBRANCH  19  21
ENDBRANCH  11  12
ENDBRANCH  10  11
ENDBRANCH   8  10
ENDBRANCH   7   8
ENDBRANCH   6   7
ENDBRANCH   5   6
ENDBRANCH   4   5
ENDBRANCH   3   4
ENDBRANCH   2   3
TORSDOF 14
ENDMDL
MODEL      184
REMARK 921   NORMALIZED FREE ENERGY PREDICTED BY IDOCK:   -4.03 KCAL/MOL
REMARK 922        TOTAL FREE ENERGY PREDICTED BY IDOCK:  -10.28 KCAL/MOL
REMARK 923 INTER-LIGAND FREE ENERGY PREDICTED BY IDOCK:   -7.16 KCAL/MOL
REMARK 924 INTRA-LIGAND FREE ENERGY PREDICTED BY IDOCK:   -3.11 KCAL/MOL
REMARK 927      BINDING AFFINITY PREDICTED BY RF-SCORE:    0.00 PKD
ROOT
HETATM    1  C   UNL     1      -5.787   9.998  65.972  1.00  0.00    -0.065 C  
HETATM    2  C   UNL     1      -6.266  11.341  66.494  1.00  0.00    -0.130 C  
ENDROOT
BRANCH   2   3
HETATM    3  C   UNL     1      -7.014  11.205  67.822  1.00  0.00    -0.078 C  
BRANCH   3   4
HETATM    4  C   UNL     1      -6.054  10.763  68.926  1.00  0.00    -0.040 C  
BRANCH   4   5
HETATM    5  C   UNL     1      -6.763  10.459  70.247  1.00  0.00    -0.140 C  
BRANCH   5   6
HETATM    6  C   UNL     1      -7.631   9.204  70.094  1.00  0.00    -0.093 C  
BRANCH   6   7
HETATM    7  C   UNL     1      -9.055   9.421  70.584  1.00  0.00    -0.292 C  
BRANCH   7   8
HETATM    8  C   UNL     1     -10.077   9.401  69.445  1.00  0.00    -0.198 C  
HETATM    9  O   UNL     1     -10.486   8.361  68.936  1.00  0.00    -0.218 OA 
BRANCH   8  10
HETATM   10  C   UNL     1     -10.570  10.768  69.016  1.00  0.00    -0.250 C  
BRANCH  10  11
HETATM   11  C   UNL     1     -11.392  10.853  67.722  1.00  0.00    -0.366 C  
BRANCH  11  12
HETATM   12  C   UNL     1     -10.480  11.179  66.509  1.00  0.00    -0.305 C  
HETATM   13  C   UNL     1     -10.152   9.917  65.695  1.00  0.00    -0.237 C  
HETATM   14  O   UNL     1      -9.120   9.140  66.280  1.00  0.00    -0.155 OA 
HETATM   15  C   UNL     1      -9.685  10.452  64.366  1.00  0.00    -0.396 C  
HETATM   16  H   UNL     1      -8.917   8.360  65.777  1.00  0.00     0.000 HD 
HETATM   17  C   UNL     1     -10.636  11.594  64.075  1.00  0.00    -0.373 C  
HETATM   18  O   UNL     1      -9.969  12.513  63.231  1.00  0.00    -0.558 OA 
HETATM   19  C   UNL     1     -11.084  12.162  65.455  1.00  0.00    -0.361 C  
HETATM   20  H   UNL     1     -10.565  13.230  63.048  1.00  0.00     0.000 HD 
BRANCH  19  21
HETATM   21  C   UNL     1     -10.692  13.628  65.723  1.00  0.00    -0.280 C  
BRANCH  21  22
HETATM   22  C   UNL     1      -9.500  13.798  66.632  1.00  0.00    -0.289 C  
HETATM   23  C   UNL     1      -9.445  14.371  67.843  1.00  0.00    -0.214 C  
BRANCH  23  24
HETATM   24  C   UNL     1     -10.571  15.039  68.574  1.00  0.00    -0.235 C  
BRANCH  24  25
HETATM   25  C   UNL     1     -10.765  16.495  68.147  1.00  0.00    -0.343 C  
BRANCH  25  26
HETATM   26  C   UNL     1      -9.448  17.227  67.873  1.00  0.00    -0.266 C  
HETATM   27  C   UNL     1      -9.359  17.685  66.434  1.00  0.00    -0.248 C  
HETATM   28  O   UNL     1     -10.207  17.508  65.579  1.00  0.00    -0.608 OA 
HETATM   29  O   UNL     1      -8.203  18.344  66.181  1.00  0.00    -0.424 OA 
ENDBRANCH  25  26
ENDBRANCH  24  25
ENDBRANCH  23  24
ENDBRANCH  21  22
ENDBRANCH  19  21
ENDBRANCH  11  12
ENDBRANCH  10  11
ENDBRANCH   8  10
ENDBRANCH   7   8
ENDBRANCH   6   7
ENDBRANCH   5   6
ENDBRANCH   4   5
ENDBRANCH   3   4
ENDBRANCH   2   3
TORSDOF 14
ENDMDL
MODEL      185
REMARK 921   NORMALIZED FREE ENERGY PREDICTED BY IDOCK:   -4.03 KCAL/MOL
REMARK 922        TOTAL FREE ENERGY PREDICTED BY IDOCK:  -10.28 KCAL/MOL
REMARK 923 INTER-LIGAND FREE ENERGY PREDICTED BY IDOCK:   -8.10 KCAL/MOL
REMARK 924 INTRA-LIGAND FREE ENERGY PREDICTED BY IDOCK:   -2.18 KCAL/MOL
REMARK 927      BINDING AFFINITY PREDICTED BY RF-SCORE:    0.00 PKD
ROOT
HETATM    1  C   UNL     1      -7.456   7.224  70.417  1.00  0.00    -0.083 C  
HETATM    2  C   UNL     1      -6.501   6.837  69.302  1.00  0.00    -0.043 C  
ENDROOT
BRANCH   2   3
HETATM    3  C   UNL     1      -7.217   6.108  68.162  1.00  0.00    -0.084 C  
BRANCH   3   4
HETATM    4  C   UNL     1      -6.967   6.827  66.837  1.00  0.00    -0.070 C  
BRANCH   4   5
HETATM    5  C   UNL     1      -7.724   8.152  66.725  1.00  0.00    -0.095 C  
BRANCH   5   6
HETATM    6  C   UNL     1      -9.070   7.922  66.027  1.00  0.00    -0.181 C  
BRANCH   6   7
HETATM    7  C   UNL     1     -10.221   7.798  67.015  1.00  0.00    -0.375 C  
BRANCH   7   8
HETATM    8  C   UNL     1     -10.408   9.060  67.860  1.00  0.00    -0.235 C  
HETATM    9  O   UNL     1     -10.161   9.099  69.063  1.00  0.00    -0.195 OA 
BRANCH   8  10
HETATM   10  C   UNL     1     -10.895  10.269  67.088  1.00  0.00    -0.278 C  
BRANCH  10  11
HETATM   11  C   UNL     1      -9.900  11.419  66.870  1.00  0.00    -0.218 C  
BRANCH  11  12
HETATM   12  C   UNL     1     -10.255  12.220  65.588  1.00  0.00    -0.287 C  
HETATM   13  C   UNL     1     -10.209  11.329  64.336  1.00  0.00    -0.320 C  
HETATM   14  O   UNL     1      -8.890  11.121  63.859  1.00  0.00    -0.376 OA 
HETATM   15  C   UNL     1     -10.999  12.100  63.311  1.00  0.00    -0.398 C  
HETATM   16  H   UNL     1      -8.862  10.571  63.085  1.00  0.00     0.000 HD 
HETATM   17  C   UNL     1     -12.177  12.648  64.090  1.00  0.00    -0.450 C  
HETATM   18  O   UNL     1     -12.621  13.824  63.440  1.00  0.00    -0.959 OA 
HETATM   19  C   UNL     1     -11.687  12.843  65.556  1.00  0.00    -0.423 C  
HETATM   20  H   UNL     1     -13.360  14.168  63.929  1.00  0.00     0.000 HD 
BRANCH  19  21
HETATM   21  C   UNL     1     -11.711  14.296  66.072  1.00  0.00    -0.384 C  
BRANCH  21  22
HETATM   22  C   UNL     1     -12.029  14.430  67.540  1.00  0.00    -0.389 C  
HETATM   23  C   UNL     1     -11.207  14.757  68.548  1.00  0.00    -0.291 C  
BRANCH  23  24
HETATM   24  C   UNL     1      -9.735  15.020  68.459  1.00  0.00    -0.217 C  
BRANCH  24  25
HETATM   25  C   UNL     1      -9.411  16.513  68.360  1.00  0.00    -0.221 C  
BRANCH  25  26
HETATM   26  C   UNL     1      -9.662  17.096  66.968  1.00  0.00    -0.265 C  
HETATM   27  C   UNL     1     -10.403  18.413  67.045  1.00  0.00    -0.393 C  
HETATM   28  O   UNL     1     -10.768  18.962  68.067  1.00  0.00    -0.337 OA 
HETATM   29  O   UNL     1     -10.622  18.946  65.819  1.00  0.00    -0.532 OA 
ENDBRANCH  25  26
ENDBRANCH  24  25
ENDBRANCH  23  24
ENDBRANCH  21  22
ENDBRANCH  19  21
ENDBRANCH  11  12
ENDBRANCH  10  11
ENDBRANCH   8  10
ENDBRANCH   7   8
ENDBRANCH   6   7
ENDBRANCH   5   6
ENDBRANCH   4   5
ENDBRANCH   3   4
ENDBRANCH   2   3
TORSDOF 14
ENDMDL
MODEL      186
REMARK 921   NORMALIZED FREE ENERGY PREDICTED BY IDOCK:   -4.02 KCAL/MOL
REMARK 922        TOTAL FREE ENERGY PREDICTED BY IDOCK:  -10.26 KCAL/MOL
REMARK 923 INTER-LIGAND FREE ENERGY PREDICTED BY IDOCK:   -7.43 KCAL/MOL
REMARK 924 INTRA-LIGAND FREE ENERGY PREDICTED BY IDOCK:   -2.83 KCAL/MOL
REMARK 927      BINDING AFFINITY PREDICTED BY RF-SCORE:    0.00 PKD
ROOT
HETATM    1  C   UNL     1     -11.677  15.830  64.231  1.00  0.00    -0.162 C  
HETATM    2  C   UNL     1     -11.618  14.822  65.365  1.00  0.00    -0.316 C  
ENDROOT
BRANCH   2   3
HETATM    3  C   UNL     1     -12.626  13.686  65.174  1.00  0.00    -0.474 C  
BRANCH   3   4
HETATM    4  C   UNL     1     -11.893  12.374  64.892  1.00  0.00    -0.442 C  
BRANCH   4   5
HETATM    5  C   UNL     1     -10.421  12.578  64.530  1.00  0.00    -0.366 C  
BRANCH   5   6
HETATM    6  C   UNL     1     -10.095  11.823  63.236  1.00  0.00    -0.448 C  
BRANCH   6   7
HETATM    7  C   UNL     1      -9.906  10.331  63.468  1.00  0.00    -0.156 C  
BRANCH   7   8
HETATM    8  C   UNL     1      -8.730  10.025  64.399  1.00  0.00    -0.199 C  
HETATM    9  O   UNL     1      -7.610  10.504  64.236  1.00  0.00    -0.070 OA 
BRANCH   8  10
HETATM   10  C   UNL     1      -9.064   9.108  65.557  1.00  0.00    -0.275 C  
BRANCH  10  11
HETATM   11  C   UNL     1     -10.285   9.467  66.418  1.00  0.00    -0.302 C  
BRANCH  11  12
HETATM   12  C   UNL     1      -9.842  10.094  67.767  1.00  0.00    -0.190 C  
HETATM   13  C   UNL     1     -10.007   9.102  68.931  1.00  0.00    -0.180 C  
HETATM   14  O   UNL     1     -11.345   9.018  69.393  1.00  0.00    -0.439 OA 
HETATM   15  C   UNL     1      -9.135   9.670  70.020  1.00  0.00    -0.269 C  
HETATM   16  H   UNL     1     -11.448   8.405  70.112  1.00  0.00     0.000 HD 
HETATM   17  C   UNL     1      -7.891  10.136  69.290  1.00  0.00    -0.134 C  
HETATM   18  O   UNL     1      -7.309  11.181  70.045  1.00  0.00    -0.392 OA 
HETATM   19  C   UNL     1      -8.343  10.527  67.851  1.00  0.00    -0.115 C  
HETATM   20  H   UNL     1      -6.529  11.474  69.588  1.00  0.00     0.000 HD 
BRANCH  19  21
HETATM   21  C   UNL     1      -8.134  12.007  67.474  1.00  0.00    -0.159 C  
BRANCH  21  22
HETATM   22  C   UNL     1      -9.279  12.913  67.852  1.00  0.00    -0.208 C  
HETATM   23  C   UNL     1      -9.331  14.252  67.829  1.00  0.00    -0.198 C  
BRANCH  23  24
HETATM   24  C   UNL     1      -8.219  15.189  67.463  1.00  0.00    -0.196 C  
BRANCH  24  25
HETATM   25  C   UNL     1      -8.605  16.658  67.650  1.00  0.00    -0.207 C  
BRANCH  25  26
HETATM   26  C   UNL     1      -9.019  17.347  66.347  1.00  0.00    -0.274 C  
HETATM   27  C   UNL     1     -10.085  18.393  66.589  1.00  0.00    -0.380 C  
HETATM   28  O   UNL     1     -10.572  18.672  67.668  1.00  0.00    -0.407 OA 
HETATM   29  O   UNL     1     -10.453  19.018  65.445  1.00  0.00    -0.475 OA 
ENDBRANCH  25  26
ENDBRANCH  24  25
ENDBRANCH  23  24
ENDBRANCH  21  22
ENDBRANCH  19  21
ENDBRANCH  11  12
ENDBRANCH  10  11
ENDBRANCH   8  10
ENDBRANCH   7   8
ENDBRANCH   6   7
ENDBRANCH   5   6
ENDBRANCH   4   5
ENDBRANCH   3   4
ENDBRANCH   2   3
TORSDOF 14
ENDMDL
MODEL      187
REMARK 921   NORMALIZED FREE ENERGY PREDICTED BY IDOCK:   -4.01 KCAL/MOL
REMARK 922        TOTAL FREE ENERGY PREDICTED BY IDOCK:  -10.25 KCAL/MOL
REMARK 923 INTER-LIGAND FREE ENERGY PREDICTED BY IDOCK:   -7.46 KCAL/MOL
REMARK 924 INTRA-LIGAND FREE ENERGY PREDICTED BY IDOCK:   -2.79 KCAL/MOL
REMARK 927      BINDING AFFINITY PREDICTED BY RF-SCORE:    0.00 PKD
ROOT
HETATM    1  C   UNL     1      -9.542  19.752  68.726  1.00  0.00    -0.391 C  
HETATM    2  C   UNL     1     -10.053  18.343  68.479  1.00  0.00    -0.413 C  
ENDROOT
BRANCH   2   3
HETATM    3  C   UNL     1     -10.667  18.193  67.086  1.00  0.00    -0.309 C  
BRANCH   3   4
HETATM    4  C   UNL     1      -9.926  17.114  66.297  1.00  0.00    -0.316 C  
BRANCH   4   5
HETATM    5  C   UNL     1     -10.689  16.653  65.054  1.00  0.00    -0.171 C  
BRANCH   5   6
HETATM    6  C   UNL     1     -10.705  15.121  64.993  1.00  0.00    -0.451 C  
BRANCH   6   7
HETATM    7  C   UNL     1     -12.081  14.569  64.651  1.00  0.00    -0.486 C  
BRANCH   7   8
HETATM    8  C   UNL     1     -12.379  13.250  65.368  1.00  0.00    -0.479 C  
HETATM    9  O   UNL     1     -12.955  12.311  64.825  1.00  0.00    -0.713 OA 
BRANCH   8  10
HETATM   10  C   UNL     1     -11.878  13.182  66.797  1.00  0.00    -0.444 C  
BRANCH  10  11
HETATM   11  C   UNL     1     -11.553  11.795  67.370  1.00  0.00    -0.352 C  
BRANCH  11  12
HETATM   12  C   UNL     1     -10.226  11.828  68.175  1.00  0.00    -0.210 C  
HETATM   13  C   UNL     1     -10.049  10.558  69.023  1.00  0.00    -0.217 C  
HETATM   14  O   UNL     1     -10.797  10.594  70.227  1.00  0.00    -0.437 OA 
HETATM   15  C   UNL     1      -8.578  10.538  69.346  1.00  0.00    -0.100 C  
HETATM   16  H   UNL     1     -10.688   9.809  70.752  1.00  0.00     0.000 HD 
HETATM   17  C   UNL     1      -7.911  10.962  68.053  1.00  0.00    -0.109 C  
HETATM   18  O   UNL     1      -6.667  11.552  68.377  1.00  0.00    -0.061 OA 
HETATM   19  C   UNL     1      -8.920  11.896  67.320  1.00  0.00    -0.176 C  
HETATM   20  H   UNL     1      -6.248  11.818  67.567  1.00  0.00     0.000 HD 
BRANCH  19  21
HETATM   21  C   UNL     1      -8.436  13.343  67.097  1.00  0.00    -0.179 C  
BRANCH  21  22
HETATM   22  C   UNL     1      -8.887  14.320  68.153  1.00  0.00    -0.183 C  
HETATM   23  C   UNL     1      -8.148  14.970  69.064  1.00  0.00    -0.178 C  
BRANCH  23  24
HETATM   24  C   UNL     1      -6.672  14.836  69.286  1.00  0.00    -0.137 C  
BRANCH  24  25
HETATM   25  C   UNL     1      -5.859  15.807  68.427  1.00  0.00    -0.109 C  
BRANCH  25  26
HETATM   26  C   UNL     1      -6.584  17.127  68.153  1.00  0.00    -0.159 C  
HETATM   27  C   UNL     1      -6.179  17.714  66.819  1.00  0.00    -0.170 C  
HETATM   28  O   UNL     1      -5.381  17.225  66.042  1.00  0.00    -0.317 OA 
HETATM   29  O   UNL     1      -6.822  18.878  66.559  1.00  0.00    -0.193 OA 
ENDBRANCH  25  26
ENDBRANCH  24  25
ENDBRANCH  23  24
ENDBRANCH  21  22
ENDBRANCH  19  21
ENDBRANCH  11  12
ENDBRANCH  10  11
ENDBRANCH   8  10
ENDBRANCH   7   8
ENDBRANCH   6   7
ENDBRANCH   5   6
ENDBRANCH   4   5
ENDBRANCH   3   4
ENDBRANCH   2   3
TORSDOF 14
ENDMDL
MODEL      188
REMARK 921   NORMALIZED FREE ENERGY PREDICTED BY IDOCK:   -4.01 KCAL/MOL
REMARK 922        TOTAL FREE ENERGY PREDICTED BY IDOCK:  -10.25 KCAL/MOL
REMARK 923 INTER-LIGAND FREE ENERGY PREDICTED BY IDOCK:   -9.20 KCAL/MOL
REMARK 924 INTRA-LIGAND FREE ENERGY PREDICTED BY IDOCK:   -1.05 KCAL/MOL
REMARK 927      BINDING AFFINITY PREDICTED BY RF-SCORE:    0.00 PKD
ROOT
HETATM    1  C   UNL     1      -8.631  17.377  68.106  1.00  0.00    -0.248 C  
HETATM    2  C   UNL     1      -8.459  17.072  66.629  1.00  0.00    -0.283 C  
ENDROOT
BRANCH   2   3
HETATM    3  C   UNL     1      -8.787  15.613  66.304  1.00  0.00    -0.364 C  
BRANCH   3   4
HETATM    4  C   UNL     1      -9.649  15.007  67.411  1.00  0.00    -0.205 C  
BRANCH   4   5
HETATM    5  C   UNL     1      -8.951  13.866  68.154  1.00  0.00    -0.185 C  
BRANCH   5   6
HETATM    6  C   UNL     1      -9.222  12.538  67.438  1.00  0.00    -0.186 C  
BRANCH   6   7
HETATM    7  C   UNL     1      -8.721  11.339  68.231  1.00  0.00    -0.158 C  
BRANCH   7   8
HETATM    8  C   UNL     1      -8.944  10.015  67.496  1.00  0.00    -0.134 C  
HETATM    9  O   UNL     1      -8.302   9.689  66.501  1.00  0.00    -0.118 OA 
BRANCH   8  10
HETATM   10  C   UNL     1     -10.001   9.122  68.113  1.00  0.00    -0.206 C  
BRANCH  10  11
HETATM   11  C   UNL     1      -9.920   8.866  69.626  1.00  0.00    -0.193 C  
BRANCH  11  12
HETATM   12  C   UNL     1     -11.329   8.598  70.217  1.00  0.00    -0.146 C  
HETATM   13  C   UNL     1     -11.487   7.134  70.658  1.00  0.00    -0.308 C  
HETATM   14  O   UNL     1     -11.759   6.261  69.574  1.00  0.00    -0.544 OA 
HETATM   15  C   UNL     1     -12.669   7.159  71.592  1.00  0.00    -0.415 C  
HETATM   16  H   UNL     1     -11.857   5.356  69.847  1.00  0.00     0.000 HD 
HETATM   17  C   UNL     1     -12.466   8.420  72.408  1.00  0.00    -0.331 C  
HETATM   18  O   UNL     1     -13.735   8.862  72.849  1.00  0.00    -0.848 OA 
HETATM   19  C   UNL     1     -11.693   9.419  71.496  1.00  0.00    -0.465 C  
HETATM   20  H   UNL     1     -13.608   9.653  73.361  1.00  0.00     0.000 HD 
BRANCH  19  21
HETATM   21  C   UNL     1     -12.442  10.725  71.166  1.00  0.00    -0.519 C  
BRANCH  21  22
HETATM   22  C   UNL     1     -11.801  11.554  70.081  1.00  0.00    -0.440 C  
HETATM   23  C   UNL     1     -12.011  12.842  69.775  1.00  0.00    -0.362 C  
BRANCH  23  24
HETATM   24  C   UNL     1     -12.995  13.770  70.422  1.00  0.00    -0.048 C  
BRANCH  24  25
HETATM   25  C   UNL     1     -13.221  13.448  71.901  1.00  0.00    -0.522 C  
BRANCH  25  26
HETATM   26  C   UNL     1     -13.827  14.612  72.688  1.00  0.00    -0.490 C  
HETATM   27  C   UNL     1     -12.752  15.471  73.319  1.00  0.00    -0.509 C  
HETATM   28  O   UNL     1     -11.554  15.286  73.232  1.00  0.00    -0.379 OA 
HETATM   29  O   UNL     1     -13.275  16.512  74.010  1.00  0.00    -0.591 OA 
ENDBRANCH  25  26
ENDBRANCH  24  25
ENDBRANCH  23  24
ENDBRANCH  21  22
ENDBRANCH  19  21
ENDBRANCH  11  12
ENDBRANCH  10  11
ENDBRANCH   8  10
ENDBRANCH   7   8
ENDBRANCH   6   7
ENDBRANCH   5   6
ENDBRANCH   4   5
ENDBRANCH   3   4
ENDBRANCH   2   3
TORSDOF 14
ENDMDL
MODEL      189
REMARK 921   NORMALIZED FREE ENERGY PREDICTED BY IDOCK:   -4.01 KCAL/MOL
REMARK 922        TOTAL FREE ENERGY PREDICTED BY IDOCK:  -10.25 KCAL/MOL
REMARK 923 INTER-LIGAND FREE ENERGY PREDICTED BY IDOCK:   -8.81 KCAL/MOL
REMARK 924 INTRA-LIGAND FREE ENERGY PREDICTED BY IDOCK:   -1.44 KCAL/MOL
REMARK 927      BINDING AFFINITY PREDICTED BY RF-SCORE:    0.00 PKD
ROOT
HETATM    1  C   UNL     1     -13.041  13.130  71.611  1.00  0.00    -0.444 C  
HETATM    2  C   UNL     1     -13.576  14.548  71.523  1.00  0.00    -0.465 C  
ENDROOT
BRANCH   2   3
HETATM    3  C   UNL     1     -12.696  15.437  70.642  1.00  0.00    -0.490 C  
BRANCH   3   4
HETATM    4  C   UNL     1     -11.549  14.621  70.047  1.00  0.00    -0.335 C  
BRANCH   4   5
HETATM    5  C   UNL     1     -10.175  15.235  70.319  1.00  0.00    -0.098 C  
BRANCH   5   6
HETATM    6  C   UNL     1      -9.152  14.683  69.319  1.00  0.00     0.042 C  
BRANCH   6   7
HETATM    7  C   UNL     1      -9.804  13.856  68.220  1.00  0.00    -0.231 C  
BRANCH   7   8
HETATM    8  C   UNL     1      -9.090  12.523  67.987  1.00  0.00    -0.200 C  
HETATM    9  O   UNL     1      -7.902  12.447  67.685  1.00  0.00    -0.139 OA 
BRANCH   8  10
HETATM   10  C   UNL     1      -9.960  11.298  68.188  1.00  0.00    -0.191 C  
BRANCH  10  11
HETATM   11  C   UNL     1     -11.166  11.123  67.253  1.00  0.00    -0.347 C  
BRANCH  11  12
HETATM   12  C   UNL     1     -10.980  11.949  65.952  1.00  0.00    -0.354 C  
HETATM   13  C   UNL     1     -10.512  11.065  64.784  1.00  0.00    -0.316 C  
HETATM   14  O   UNL     1      -9.121  10.792  64.827  1.00  0.00    -0.196 OA 
HETATM   15  C   UNL     1     -10.826  11.884  63.559  1.00  0.00    -0.502 C  
HETATM   16  H   UNL     1      -8.831  10.246  64.105  1.00  0.00     0.000 HD 
HETATM   17  C   UNL     1     -12.184  12.487  63.857  1.00  0.00    -0.503 C  
HETATM   18  O   UNL     1     -12.299  13.688  63.119  1.00  0.00    -1.045 OA 
HETATM   19  C   UNL     1     -12.267  12.646  65.405  1.00  0.00    -0.517 C  
HETATM   20  H   UNL     1     -13.150  14.067  63.306  1.00  0.00     0.000 HD 
BRANCH  19  21
HETATM   21  C   UNL     1     -12.415  14.095  65.912  1.00  0.00    -0.479 C  
BRANCH  21  22
HETATM   22  C   UNL     1     -11.397  15.057  65.351  1.00  0.00    -0.328 C  
HETATM   23  C   UNL     1     -10.880  16.155  65.920  1.00  0.00    -0.179 C  
BRANCH  23  24
HETATM   24  C   UNL     1     -11.238  16.728  67.257  1.00  0.00     0.204 C  
BRANCH  24  25
HETATM   25  C   UNL     1     -10.730  18.161  67.437  1.00  0.00    -0.355 C  
BRANCH  25  26
HETATM   26  C   UNL     1     -10.053  18.725  66.185  1.00  0.00    -0.421 C  
HETATM   27  C   UNL     1      -8.714  19.347  66.514  1.00  0.00    -0.351 C  
HETATM   28  O   UNL     1      -8.213  19.409  67.621  1.00  0.00    -0.282 OA 
HETATM   29  O   UNL     1      -8.099  19.840  65.412  1.00  0.00    -0.285 OA 
ENDBRANCH  25  26
ENDBRANCH  24  25
ENDBRANCH  23  24
ENDBRANCH  21  22
ENDBRANCH  19  21
ENDBRANCH  11  12
ENDBRANCH  10  11
ENDBRANCH   8  10
ENDBRANCH   7   8
ENDBRANCH   6   7
ENDBRANCH   5   6
ENDBRANCH   4   5
ENDBRANCH   3   4
ENDBRANCH   2   3
TORSDOF 14
ENDMDL
MODEL      190
REMARK 921   NORMALIZED FREE ENERGY PREDICTED BY IDOCK:   -4.01 KCAL/MOL
REMARK 922        TOTAL FREE ENERGY PREDICTED BY IDOCK:  -10.24 KCAL/MOL
REMARK 923 INTER-LIGAND FREE ENERGY PREDICTED BY IDOCK:   -8.16 KCAL/MOL
REMARK 924 INTRA-LIGAND FREE ENERGY PREDICTED BY IDOCK:   -2.08 KCAL/MOL
REMARK 927      BINDING AFFINITY PREDICTED BY RF-SCORE:    0.00 PKD
ROOT
HETATM    1  C   UNL     1      -7.793   4.589  71.343  1.00  0.00    -0.086 C  
HETATM    2  C   UNL     1      -9.027   5.027  72.111  1.00  0.00    -0.144 C  
ENDROOT
BRANCH   2   3
HETATM    3  C   UNL     1     -10.091   5.629  71.191  1.00  0.00    -0.262 C  
BRANCH   3   4
HETATM    4  C   UNL     1     -11.325   6.026  72.001  1.00  0.00    -0.345 C  
BRANCH   4   5
HETATM    5  C   UNL     1     -11.104   7.281  72.848  1.00  0.00    -0.369 C  
BRANCH   5   6
HETATM    6  C   UNL     1     -12.113   8.363  72.447  1.00  0.00    -0.443 C  
BRANCH   6   7
HETATM    7  C   UNL     1     -11.944   8.805  71.000  1.00  0.00    -0.291 C  
BRANCH   7   8
HETATM    8  C   UNL     1     -12.067  10.321  70.832  1.00  0.00    -0.368 C  
HETATM    9  O   UNL     1     -12.934  10.986  71.392  1.00  0.00    -0.400 OA 
BRANCH   8  10
HETATM   10  C   UNL     1     -11.011  10.944  69.942  1.00  0.00    -0.266 C  
BRANCH  10  11
HETATM   11  C   UNL     1      -9.712  10.154  69.721  1.00  0.00    -0.232 C  
BRANCH  11  12
HETATM   12  C   UNL     1      -9.318  10.149  68.220  1.00  0.00    -0.136 C  
HETATM   13  C   UNL     1     -10.038   9.029  67.451  1.00  0.00    -0.230 C  
HETATM   14  O   UNL     1      -9.429   7.761  67.630  1.00  0.00    -0.140 OA 
HETATM   15  C   UNL     1      -9.921   9.444  66.008  1.00  0.00    -0.352 C  
HETATM   16  H   UNL     1      -9.874   7.069  67.155  1.00  0.00     0.000 HD 
HETATM   17  C   UNL     1     -10.165  10.939  66.033  1.00  0.00    -0.254 C  
HETATM   18  O   UNL     1      -9.507  11.507  64.917  1.00  0.00    -0.318 OA 
HETATM   19  C   UNL     1      -9.676  11.445  67.423  1.00  0.00    -0.196 C  
HETATM   20  H   UNL     1      -9.660  12.445  64.933  1.00  0.00     0.000 HD 
BRANCH  19  21
HETATM   21  C   UNL     1      -8.513  12.455  67.385  1.00  0.00    -0.179 C  
BRANCH  21  22
HETATM   22  C   UNL     1      -8.829  13.792  68.007  1.00  0.00    -0.182 C  
HETATM   23  C   UNL     1      -9.229  14.922  67.406  1.00  0.00    -0.198 C  
BRANCH  23  24
HETATM   24  C   UNL     1      -9.411  15.142  65.934  1.00  0.00    -0.334 C  
BRANCH  24  25
HETATM   25  C   UNL     1     -10.850  15.515  65.571  1.00  0.00    -0.372 C  
BRANCH  25  26
HETATM   26  C   UNL     1     -11.539  14.478  64.681  1.00  0.00    -0.413 C  
HETATM   27  C   UNL     1     -12.442  13.570  65.487  1.00  0.00    -0.491 C  
HETATM   28  O   UNL     1     -12.618  13.630  66.689  1.00  0.00    -0.306 OA 
HETATM   29  O   UNL     1     -13.066  12.654  64.708  1.00  0.00    -0.852 OA 
ENDBRANCH  25  26
ENDBRANCH  24  25
ENDBRANCH  23  24
ENDBRANCH  21  22
ENDBRANCH  19  21
ENDBRANCH  11  12
ENDBRANCH  10  11
ENDBRANCH   8  10
ENDBRANCH   7   8
ENDBRANCH   6   7
ENDBRANCH   5   6
ENDBRANCH   4   5
ENDBRANCH   3   4
ENDBRANCH   2   3
TORSDOF 14
ENDMDL
MODEL      191
REMARK 921   NORMALIZED FREE ENERGY PREDICTED BY IDOCK:   -3.99 KCAL/MOL
REMARK 922        TOTAL FREE ENERGY PREDICTED BY IDOCK:  -10.20 KCAL/MOL
REMARK 923 INTER-LIGAND FREE ENERGY PREDICTED BY IDOCK:   -8.18 KCAL/MOL
REMARK 924 INTRA-LIGAND FREE ENERGY PREDICTED BY IDOCK:   -2.02 KCAL/MOL
REMARK 927      BINDING AFFINITY PREDICTED BY RF-SCORE:    0.00 PKD
ROOT
HETATM    1  C   UNL     1     -12.744  10.587  71.014  1.00  0.00    -0.504 C  
HETATM    2  C   UNL     1     -11.853   9.515  71.615  1.00  0.00    -0.468 C  
ENDROOT
BRANCH   2   3
HETATM    3  C   UNL     1     -12.561   8.161  71.696  1.00  0.00    -0.347 C  
BRANCH   3   4
HETATM    4  C   UNL     1     -11.540   7.045  71.917  1.00  0.00    -0.320 C  
BRANCH   4   5
HETATM    5  C   UNL     1     -10.827   7.146  73.266  1.00  0.00    -0.378 C  
BRANCH   5   6
HETATM    6  C   UNL     1      -9.325   6.905  73.079  1.00  0.00    -0.162 C  
BRANCH   6   7
HETATM    7  C   UNL     1      -8.524   8.199  73.091  1.00  0.00    -0.279 C  
BRANCH   7   8
HETATM    8  C   UNL     1      -7.261   8.115  72.232  1.00  0.00    -0.093 C  
HETATM    9  O   UNL     1      -6.240   7.541  72.602  1.00  0.00    -0.053 OA 
BRANCH   8  10
HETATM   10  C   UNL     1      -7.379   8.772  70.871  1.00  0.00    -0.087 C  
BRANCH  10  11
HETATM   11  C   UNL     1      -8.792   9.065  70.345  1.00  0.00    -0.228 C  
BRANCH  11  12
HETATM   12  C   UNL     1      -9.096   8.218  69.080  1.00  0.00    -0.148 C  
HETATM   13  C   UNL     1      -9.030   6.712  69.380  1.00  0.00    -0.133 C  
HETATM   14  O   UNL     1      -7.702   6.217  69.410  1.00  0.00    -0.095 OA 
HETATM   15  C   UNL     1      -9.777   6.079  68.235  1.00  0.00    -0.138 C  
HETATM   16  H   UNL     1      -7.661   5.286  69.596  1.00  0.00     0.000 HD 
HETATM   17  C   UNL     1     -10.967   6.991  68.023  1.00  0.00    -0.113 C  
HETATM   18  O   UNL     1     -11.372   6.873  66.672  1.00  0.00    -0.575 OA 
HETATM   19  C   UNL     1     -10.517   8.417  68.460  1.00  0.00    -0.201 C  
HETATM   20  H   UNL     1     -12.119   7.445  66.538  1.00  0.00     0.000 HD 
BRANCH  19  21
HETATM   21  C   UNL     1     -10.530   9.483  67.345  1.00  0.00    -0.336 C  
BRANCH  21  22
HETATM   22  C   UNL     1     -11.052  10.830  67.779  1.00  0.00    -0.381 C  
HETATM   23  C   UNL     1     -11.467  11.852  67.017  1.00  0.00    -0.384 C  
BRANCH  23  24
HETATM   24  C   UNL     1     -11.461  11.918  65.519  1.00  0.00    -0.311 C  
BRANCH  24  25
HETATM   25  C   UNL     1     -10.604  13.069  64.986  1.00  0.00    -0.336 C  
BRANCH  25  26
HETATM   26  C   UNL     1     -11.428  14.210  64.386  1.00  0.00    -0.344 C  
HETATM   27  C   UNL     1     -10.842  15.560  64.739  1.00  0.00    -0.363 C  
HETATM   28  O   UNL     1      -9.847  15.747  65.412  1.00  0.00    -0.355 OA 
HETATM   29  O   UNL     1     -11.557  16.579  64.204  1.00  0.00    -1.052 OA 
ENDBRANCH  25  26
ENDBRANCH  24  25
ENDBRANCH  23  24
ENDBRANCH  21  22
ENDBRANCH  19  21
ENDBRANCH  11  12
ENDBRANCH  10  11
ENDBRANCH   8  10
ENDBRANCH   7   8
ENDBRANCH   6   7
ENDBRANCH   5   6
ENDBRANCH   4   5
ENDBRANCH   3   4
ENDBRANCH   2   3
TORSDOF 14
ENDMDL
MODEL      192
REMARK 921   NORMALIZED FREE ENERGY PREDICTED BY IDOCK:   -3.98 KCAL/MOL
REMARK 922        TOTAL FREE ENERGY PREDICTED BY IDOCK:  -10.20 KCAL/MOL
REMARK 923 INTER-LIGAND FREE ENERGY PREDICTED BY IDOCK:   -8.02 KCAL/MOL
REMARK 924 INTRA-LIGAND FREE ENERGY PREDICTED BY IDOCK:   -2.17 KCAL/MOL
REMARK 927      BINDING AFFINITY PREDICTED BY RF-SCORE:    0.00 PKD
ROOT
HETATM    1  C   UNL     1     -12.173  14.206  64.558  1.00  0.00    -0.468 C  
HETATM    2  C   UNL     1     -11.701  13.976  65.982  1.00  0.00    -0.378 C  
ENDROOT
BRANCH   2   3
HETATM    3  C   UNL     1     -11.893  12.522  66.421  1.00  0.00    -0.445 C  
BRANCH   3   4
HETATM    4  C   UNL     1     -10.537  11.868  66.681  1.00  0.00    -0.273 C  
BRANCH   4   5
HETATM    5  C   UNL     1      -9.588  12.758  67.485  1.00  0.00    -0.192 C  
BRANCH   5   6
HETATM    6  C   UNL     1      -8.167  12.185  67.431  1.00  0.00    -0.175 C  
BRANCH   6   7
HETATM    7  C   UNL     1      -8.158  10.673  67.253  1.00  0.00    -0.116 C  
BRANCH   7   8
HETATM    8  C   UNL     1      -8.320   9.925  68.578  1.00  0.00    -0.108 C  
HETATM    9  O   UNL     1      -7.929  10.378  69.651  1.00  0.00    -0.161 OA 
BRANCH   8  10
HETATM   10  C   UNL     1      -9.030   8.591  68.466  1.00  0.00    -0.139 C  
BRANCH  10  11
HETATM   11  C   UNL     1     -10.530   8.555  68.795  1.00  0.00    -0.208 C  
BRANCH  11  12
HETATM   12  C   UNL     1     -10.832   7.476  69.869  1.00  0.00    -0.250 C  
HETATM   13  C   UNL     1      -9.626   6.551  70.095  1.00  0.00    -0.160 C  
HETATM   14  O   UNL     1      -9.510   5.548  69.099  1.00  0.00    -0.120 OA 
HETATM   15  C   UNL     1      -9.905   5.906  71.428  1.00  0.00    -0.205 C  
HETATM   16  H   UNL     1      -8.765   4.976  69.239  1.00  0.00     0.000 HD 
HETATM   17  C   UNL     1     -10.455   7.035  72.275  1.00  0.00    -0.208 C  
HETATM   18  O   UNL     1     -11.285   6.469  73.271  1.00  0.00    -0.467 OA 
HETATM   19  C   UNL     1     -11.164   8.019  71.297  1.00  0.00    -0.287 C  
HETATM   20  H   UNL     1     -11.631   7.177  73.802  1.00  0.00     0.000 HD 
BRANCH  19  21
HETATM   21  C   UNL     1     -12.679   8.196  71.523  1.00  0.00    -0.327 C  
BRANCH  21  22
HETATM   22  C   UNL     1     -13.063   9.504  72.170  1.00  0.00    -0.522 C  
HETATM   23  C   UNL     1     -13.053  10.735  71.640  1.00  0.00    -0.551 C  
BRANCH  23  24
HETATM   24  C   UNL     1     -12.600  11.118  70.264  1.00  0.00    -0.288 C  
BRANCH  24  25
HETATM   25  C   UNL     1     -11.938  12.498  70.227  1.00  0.00    -0.364 C  
BRANCH  25  26
HETATM   26  C   UNL     1     -12.672  13.544  71.069  1.00  0.00    -0.399 C  
HETATM   27  C   UNL     1     -12.657  14.901  70.399  1.00  0.00    -0.343 C  
HETATM   28  O   UNL     1     -12.136  15.159  69.331  1.00  0.00    -0.302 OA 
HETATM   29  O   UNL     1     -13.314  15.835  71.129  1.00  0.00    -0.564 OA 
ENDBRANCH  25  26
ENDBRANCH  24  25
ENDBRANCH  23  24
ENDBRANCH  21  22
ENDBRANCH  19  21
ENDBRANCH  11  12
ENDBRANCH  10  11
ENDBRANCH   8  10
ENDBRANCH   7   8
ENDBRANCH   6   7
ENDBRANCH   5   6
ENDBRANCH   4   5
ENDBRANCH   3   4
ENDBRANCH   2   3
TORSDOF 14
ENDMDL
MODEL      193
REMARK 921   NORMALIZED FREE ENERGY PREDICTED BY IDOCK:   -3.98 KCAL/MOL
REMARK 922        TOTAL FREE ENERGY PREDICTED BY IDOCK:  -10.19 KCAL/MOL
REMARK 923 INTER-LIGAND FREE ENERGY PREDICTED BY IDOCK:   -7.19 KCAL/MOL
REMARK 924 INTRA-LIGAND FREE ENERGY PREDICTED BY IDOCK:   -3.00 KCAL/MOL
REMARK 927      BINDING AFFINITY PREDICTED BY RF-SCORE:    0.00 PKD
ROOT
HETATM    1  C   UNL     1     -11.861  11.853  68.389  1.00  0.00    -0.352 C  
HETATM    2  C   UNL     1     -11.254  10.476  68.591  1.00  0.00    -0.328 C  
ENDROOT
BRANCH   2   3
HETATM    3  C   UNL     1     -10.696  10.299  70.005  1.00  0.00    -0.345 C  
BRANCH   3   4
HETATM    4  C   UNL     1      -9.746   9.103  70.050  1.00  0.00    -0.217 C  
BRANCH   4   5
HETATM    5  C   UNL     1      -8.505   9.292  69.175  1.00  0.00    -0.133 C  
BRANCH   5   6
HETATM    6  C   UNL     1      -7.781  10.583  69.573  1.00  0.00    -0.141 C  
BRANCH   6   7
HETATM    7  C   UNL     1      -6.634  10.919  68.631  1.00  0.00    -0.057 C  
BRANCH   7   8
HETATM    8  C   UNL     1      -7.117  11.535  67.315  1.00  0.00    -0.128 C  
HETATM    9  O   UNL     1      -6.700  11.175  66.218  1.00  0.00    -0.127 OA 
BRANCH   8  10
HETATM   10  C   UNL     1      -8.176  12.608  67.473  1.00  0.00    -0.178 C  
BRANCH  10  11
HETATM   11  C   UNL     1      -7.796  14.044  67.083  1.00  0.00    -0.049 C  
BRANCH  11  12
HETATM   12  C   UNL     1      -8.963  15.023  67.379  1.00  0.00    -0.196 C  
HETATM   13  C   UNL     1      -8.715  15.824  68.667  1.00  0.00    -0.195 C  
HETATM   14  O   UNL     1      -9.018  15.085  69.839  1.00  0.00    -0.451 OA 
HETATM   15  C   UNL     1      -9.654  16.996  68.555  1.00  0.00    -0.273 C  
HETATM   16  H   UNL     1      -8.864  15.580  70.636  1.00  0.00     0.000 HD 
HETATM   17  C   UNL     1      -9.555  17.410  67.101  1.00  0.00    -0.265 C  
HETATM   18  O   UNL     1     -10.767  18.044  66.744  1.00  0.00    -0.299 OA 
HETATM   19  C   UNL     1      -9.216  16.120  66.295  1.00  0.00    -0.366 C  
HETATM   20  H   UNL     1     -10.705  18.304  65.832  1.00  0.00     0.000 HD 
BRANCH  19  21
HETATM   21  C   UNL     1     -10.274  15.694  65.259  1.00  0.00    -0.358 C  
BRANCH  21  22
HETATM   22  C   UNL     1     -11.327  14.756  65.794  1.00  0.00    -0.336 C  
HETATM   23  C   UNL     1     -11.880  13.690  65.199  1.00  0.00    -0.364 C  
BRANCH  23  24
HETATM   24  C   UNL     1     -11.614  13.197  63.808  1.00  0.00    -0.481 C  
BRANCH  24  25
HETATM   25  C   UNL     1     -10.495  12.154  63.759  1.00  0.00    -0.470 C  
BRANCH  25  26
HETATM   26  C   UNL     1     -10.488  11.216  64.969  1.00  0.00    -0.357 C  
HETATM   27  C   UNL     1      -9.512  10.076  64.778  1.00  0.00    -0.304 C  
HETATM   28  O   UNL     1      -8.811   9.898  63.800  1.00  0.00    -0.196 OA 
HETATM   29  O   UNL     1      -9.488   9.244  65.847  1.00  0.00    -0.220 OA 
ENDBRANCH  25  26
ENDBRANCH  24  25
ENDBRANCH  23  24
ENDBRANCH  21  22
ENDBRANCH  19  21
ENDBRANCH  11  12
ENDBRANCH  10  11
ENDBRANCH   8  10
ENDBRANCH   7   8
ENDBRANCH   6   7
ENDBRANCH   5   6
ENDBRANCH   4   5
ENDBRANCH   3   4
ENDBRANCH   2   3
TORSDOF 14
ENDMDL
MODEL      194
REMARK 921   NORMALIZED FREE ENERGY PREDICTED BY IDOCK:   -3.98 KCAL/MOL
REMARK 922        TOTAL FREE ENERGY PREDICTED BY IDOCK:  -10.19 KCAL/MOL
REMARK 923 INTER-LIGAND FREE ENERGY PREDICTED BY IDOCK:   -8.70 KCAL/MOL
REMARK 924 INTRA-LIGAND FREE ENERGY PREDICTED BY IDOCK:   -1.49 KCAL/MOL
REMARK 927      BINDING AFFINITY PREDICTED BY RF-SCORE:    0.00 PKD
ROOT
HETATM    1  C   UNL     1      -9.297  19.355  67.249  1.00  0.00    -0.386 C  
HETATM    2  C   UNL     1      -9.755  18.771  68.573  1.00  0.00    -0.426 C  
ENDROOT
BRANCH   2   3
HETATM    3  C   UNL     1     -10.396  17.392  68.400  1.00  0.00    -0.379 C  
BRANCH   3   4
HETATM    4  C   UNL     1      -9.338  16.298  68.541  1.00  0.00    -0.213 C  
BRANCH   4   5
HETATM    5  C   UNL     1      -9.460  15.209  67.474  1.00  0.00    -0.206 C  
BRANCH   5   6
HETATM    6  C   UNL     1     -10.628  14.276  67.815  1.00  0.00    -0.253 C  
BRANCH   6   7
HETATM    7  C   UNL     1     -10.228  12.808  67.777  1.00  0.00    -0.223 C  
BRANCH   7   8
HETATM    8  C   UNL     1     -11.384  11.896  67.362  1.00  0.00    -0.324 C  
HETATM    9  O   UNL     1     -12.122  12.145  66.412  1.00  0.00    -0.630 OA 
BRANCH   8  10
HETATM   10  C   UNL     1     -11.528  10.641  68.199  1.00  0.00    -0.303 C  
BRANCH  10  11
HETATM   11  C   UNL     1     -10.520  10.428  69.338  1.00  0.00    -0.261 C  
BRANCH  11  12
HETATM   12  C   UNL     1     -11.238  10.399  70.713  1.00  0.00    -0.293 C  
HETATM   13  C   UNL     1     -12.424  11.376  70.750  1.00  0.00    -0.365 C  
HETATM   14  O   UNL     1     -12.022  12.718  70.973  1.00  0.00    -0.395 OA 
HETATM   15  C   UNL     1     -13.252  10.900  71.915  1.00  0.00    -0.508 C  
HETATM   16  H   UNL     1     -12.754  13.322  70.996  1.00  0.00     0.000 HD 
HETATM   17  C   UNL     1     -13.222   9.390  71.796  1.00  0.00    -0.411 C  
HETATM   18  O   UNL     1     -13.416   8.847  73.088  1.00  0.00    -0.968 OA 
HETATM   19  C   UNL     1     -11.868   9.026  71.117  1.00  0.00    -0.362 C  
HETATM   20  H   UNL     1     -13.397   7.900  73.014  1.00  0.00     0.000 HD 
BRANCH  19  21
HETATM   21  C   UNL     1     -10.913   8.167  71.969  1.00  0.00    -0.350 C  
BRANCH  21  22
HETATM   22  C   UNL     1     -11.205   6.688  71.931  1.00  0.00    -0.302 C  
HETATM   23  C   UNL     1     -11.126   5.845  70.892  1.00  0.00    -0.312 C  
BRANCH  23  24
HETATM   24  C   UNL     1     -10.771   6.192  69.478  1.00  0.00    -0.386 C  
BRANCH  24  25
HETATM   25  C   UNL     1      -9.382   6.824  69.360  1.00  0.00    -0.148 C  
BRANCH  25  26
HETATM   26  C   UNL     1      -8.320   6.114  70.203  1.00  0.00    -0.128 C  
HETATM   27  C   UNL     1      -7.315   7.095  70.765  1.00  0.00    -0.072 C  
HETATM   28  O   UNL     1      -7.321   8.298  70.586  1.00  0.00    -0.053 OA 
HETATM   29  O   UNL     1      -6.375   6.481  71.523  1.00  0.00    -0.041 OA 
ENDBRANCH  25  26
ENDBRANCH  24  25
ENDBRANCH  23  24
ENDBRANCH  21  22
ENDBRANCH  19  21
ENDBRANCH  11  12
ENDBRANCH  10  11
ENDBRANCH   8  10
ENDBRANCH   7   8
ENDBRANCH   6   7
ENDBRANCH   5   6
ENDBRANCH   4   5
ENDBRANCH   3   4
ENDBRANCH   2   3
TORSDOF 14
ENDMDL
MODEL      195
REMARK 921   NORMALIZED FREE ENERGY PREDICTED BY IDOCK:   -3.97 KCAL/MOL
REMARK 922        TOTAL FREE ENERGY PREDICTED BY IDOCK:  -10.18 KCAL/MOL
REMARK 923 INTER-LIGAND FREE ENERGY PREDICTED BY IDOCK:   -8.26 KCAL/MOL
REMARK 924 INTRA-LIGAND FREE ENERGY PREDICTED BY IDOCK:   -1.92 KCAL/MOL
REMARK 927      BINDING AFFINITY PREDICTED BY RF-SCORE:    0.00 PKD
ROOT
HETATM    1  C   UNL     1     -12.769  10.880  71.132  1.00  0.00    -0.530 C  
HETATM    2  C   UNL     1     -11.675   9.945  71.614  1.00  0.00    -0.327 C  
ENDROOT
BRANCH   2   3
HETATM    3  C   UNL     1     -12.237   8.782  72.436  1.00  0.00    -0.396 C  
BRANCH   3   4
HETATM    4  C   UNL     1     -11.126   7.786  72.768  1.00  0.00    -0.457 C  
BRANCH   4   5
HETATM    5  C   UNL     1     -11.325   6.425  72.100  1.00  0.00    -0.332 C  
BRANCH   5   6
HETATM    6  C   UNL     1     -11.972   6.612  70.722  1.00  0.00    -0.412 C  
BRANCH   6   7
HETATM    7  C   UNL     1     -11.127   6.026  69.600  1.00  0.00    -0.474 C  
BRANCH   7   8
HETATM    8  C   UNL     1     -10.510   7.103  68.705  1.00  0.00    -0.202 C  
HETATM    9  O   UNL     1     -10.886   7.308  67.554  1.00  0.00    -0.249 OA 
BRANCH   8  10
HETATM   10  C   UNL     1      -9.417   7.921  69.364  1.00  0.00    -0.156 C  
BRANCH  10  11
HETATM   11  C   UNL     1      -8.187   8.276  68.516  1.00  0.00    -0.131 C  
BRANCH  11  12
HETATM   12  C   UNL     1      -7.974   9.813  68.471  1.00  0.00    -0.089 C  
HETATM   13  C   UNL     1      -6.802  10.246  69.368  1.00  0.00    -0.076 C  
HETATM   14  O   UNL     1      -7.159  10.321  70.738  1.00  0.00    -0.398 OA 
HETATM   15  C   UNL     1      -6.448  11.621  68.865  1.00  0.00    -0.071 C  
HETATM   16  H   UNL     1      -6.435  10.589  71.292  1.00  0.00     0.000 HD 
HETATM   17  C   UNL     1      -6.544  11.499  67.358  1.00  0.00    -0.101 C  
HETATM   18  O   UNL     1      -6.833  12.780  66.834  1.00  0.00    -0.398 OA 
HETATM   19  C   UNL     1      -7.616  10.405  67.070  1.00  0.00    -0.101 C  
HETATM   20  H   UNL     1      -6.894  12.704  65.889  1.00  0.00     0.000 HD 
BRANCH  19  21
HETATM   21  C   UNL     1      -8.859  10.887  66.298  1.00  0.00    -0.187 C  
BRANCH  21  22
HETATM   22  C   UNL     1     -10.054  11.189  67.167  1.00  0.00    -0.223 C  
HETATM   23  C   UNL     1     -11.255  11.661  66.806  1.00  0.00    -0.371 C  
BRANCH  23  24
HETATM   24  C   UNL     1     -11.688  12.060  65.427  1.00  0.00    -0.317 C  
BRANCH  24  25
HETATM   25  C   UNL     1     -12.527  13.339  65.423  1.00  0.00    -0.543 C  
BRANCH  25  26
HETATM   26  C   UNL     1     -11.971  14.425  64.498  1.00  0.00    -0.487 C  
HETATM   27  C   UNL     1     -11.293  15.526  65.284  1.00  0.00    -0.189 C  
HETATM   28  O   UNL     1     -11.188  15.572  66.494  1.00  0.00    -0.243 OA 
HETATM   29  O   UNL     1     -10.786  16.488  64.476  1.00  0.00    -0.802 OA 
ENDBRANCH  25  26
ENDBRANCH  24  25
ENDBRANCH  23  24
ENDBRANCH  21  22
ENDBRANCH  19  21
ENDBRANCH  11  12
ENDBRANCH  10  11
ENDBRANCH   8  10
ENDBRANCH   7   8
ENDBRANCH   6   7
ENDBRANCH   5   6
ENDBRANCH   4   5
ENDBRANCH   3   4
ENDBRANCH   2   3
TORSDOF 14
ENDMDL
MODEL      196
REMARK 921   NORMALIZED FREE ENERGY PREDICTED BY IDOCK:   -3.97 KCAL/MOL
REMARK 922        TOTAL FREE ENERGY PREDICTED BY IDOCK:  -10.18 KCAL/MOL
REMARK 923 INTER-LIGAND FREE ENERGY PREDICTED BY IDOCK:   -7.34 KCAL/MOL
REMARK 924 INTRA-LIGAND FREE ENERGY PREDICTED BY IDOCK:   -2.84 KCAL/MOL
REMARK 927      BINDING AFFINITY PREDICTED BY RF-SCORE:    0.00 PKD
ROOT
HETATM    1  C   UNL     1     -12.522  11.872  63.442  1.00  0.00    -0.582 C  
HETATM    2  C   UNL     1     -11.434  12.796  63.958  1.00  0.00    -0.476 C  
ENDROOT
BRANCH   2   3
HETATM    3  C   UNL     1     -11.977  14.185  64.303  1.00  0.00    -0.460 C  
BRANCH   3   4
HETATM    4  C   UNL     1     -11.069  14.867  65.326  1.00  0.00    -0.382 C  
BRANCH   4   5
HETATM    5  C   UNL     1     -10.801  14.001  66.558  1.00  0.00    -0.300 C  
BRANCH   5   6
HETATM    6  C   UNL     1      -9.294  13.943  66.834  1.00  0.00    -0.265 C  
BRANCH   6   7
HETATM    7  C   UNL     1      -8.977  13.348  68.199  1.00  0.00    -0.188 C  
BRANCH   7   8
HETATM    8  C   UNL     1      -7.599  12.686  68.245  1.00  0.00    -0.133 C  
HETATM    9  O   UNL     1      -6.575  13.251  67.870  1.00  0.00    -0.110 OA 
BRANCH   8  10
HETATM   10  C   UNL     1      -7.592  11.283  68.820  1.00  0.00    -0.130 C  
BRANCH  10  11
HETATM   11  C   UNL     1      -7.116  10.144  67.906  1.00  0.00    -0.085 C  
BRANCH  11  12
HETATM   12  C   UNL     1      -7.595  10.370  66.448  1.00  0.00    -0.123 C  
HETATM   13  C   UNL     1      -6.421  10.329  65.456  1.00  0.00    -0.121 C  
HETATM   14  O   UNL     1      -5.691  11.545  65.420  1.00  0.00    -0.429 OA 
HETATM   15  C   UNL     1      -7.079  10.099  64.121  1.00  0.00    -0.100 C  
HETATM   16  H   UNL     1      -4.965  11.520  64.808  1.00  0.00     0.000 HD 
HETATM   17  C   UNL     1      -8.159   9.078  64.414  1.00  0.00    -0.146 C  
HETATM   18  O   UNL     1      -9.183   9.237  63.450  1.00  0.00    -0.414 OA 
HETATM   19  C   UNL     1      -8.595   9.305  65.892  1.00  0.00    -0.163 C  
HETATM   20  H   UNL     1      -9.861   8.597  63.634  1.00  0.00     0.000 HD 
BRANCH  19  21
HETATM   21  C   UNL     1     -10.067   9.719  66.089  1.00  0.00    -0.315 C  
BRANCH  21  22
HETATM   22  C   UNL     1     -10.776   8.986  67.200  1.00  0.00    -0.206 C  
HETATM   23  C   UNL     1     -11.399   9.492  68.274  1.00  0.00     0.211 C  
BRANCH  23  24
HETATM   24  C   UNL     1     -11.495  10.937  68.660  1.00  0.00    -0.380 C  
BRANCH  24  25
HETATM   25  C   UNL     1     -11.483  11.142  70.176  1.00  0.00    -0.361 C  
BRANCH  25  26
HETATM   26  C   UNL     1     -12.175  10.014  70.945  1.00  0.00    -0.441 C  
HETATM   27  C   UNL     1     -13.178  10.558  71.940  1.00  0.00    -0.420 C  
HETATM   28  O   UNL     1     -13.423  11.735  72.129  1.00  0.00    -0.446 OA 
HETATM   29  O   UNL     1     -13.807   9.569  72.619  1.00  0.00    -0.370 OA 
ENDBRANCH  25  26
ENDBRANCH  24  25
ENDBRANCH  23  24
ENDBRANCH  21  22
ENDBRANCH  19  21
ENDBRANCH  11  12
ENDBRANCH  10  11
ENDBRANCH   8  10
ENDBRANCH   7   8
ENDBRANCH   6   7
ENDBRANCH   5   6
ENDBRANCH   4   5
ENDBRANCH   3   4
ENDBRANCH   2   3
TORSDOF 14
ENDMDL
MODEL      197
REMARK 921   NORMALIZED FREE ENERGY PREDICTED BY IDOCK:   -3.97 KCAL/MOL
REMARK 922        TOTAL FREE ENERGY PREDICTED BY IDOCK:  -10.17 KCAL/MOL
REMARK 923 INTER-LIGAND FREE ENERGY PREDICTED BY IDOCK:   -8.26 KCAL/MOL
REMARK 924 INTRA-LIGAND FREE ENERGY PREDICTED BY IDOCK:   -1.92 KCAL/MOL
REMARK 927      BINDING AFFINITY PREDICTED BY RF-SCORE:    0.00 PKD
ROOT
HETATM    1  C   UNL     1      -9.264   8.262  72.430  1.00  0.00    -0.326 C  
HETATM    2  C   UNL     1     -10.346   7.584  73.251  1.00  0.00    -0.412 C  
ENDROOT
BRANCH   2   3
HETATM    3  C   UNL     1     -11.547   7.180  72.394  1.00  0.00    -0.292 C  
BRANCH   3   4
HETATM    4  C   UNL     1     -11.119   6.173  71.327  1.00  0.00    -0.351 C  
BRANCH   4   5
HETATM    5  C   UNL     1     -11.623   6.534  69.928  1.00  0.00    -0.433 C  
BRANCH   5   6
HETATM    6  C   UNL     1     -10.746   5.856  68.869  1.00  0.00    -0.370 C  
BRANCH   6   7
HETATM    7  C   UNL     1     -10.870   6.517  67.504  1.00  0.00    -0.433 C  
BRANCH   7   8
HETATM    8  C   UNL     1      -9.841   7.630  67.295  1.00  0.00    -0.186 C  
HETATM    9  O   UNL     1      -8.630   7.427  67.296  1.00  0.00    -0.117 OA 
BRANCH   8  10
HETATM   10  C   UNL     1     -10.437   9.003  67.055  1.00  0.00    -0.316 C  
BRANCH  10  11
HETATM   11  C   UNL     1     -10.749   9.867  68.286  1.00  0.00    -0.276 C  
BRANCH  11  12
HETATM   12  C   UNL     1     -10.149  11.289  68.128  1.00  0.00    -0.195 C  
HETATM   13  C   UNL     1      -8.612  11.253  68.095  1.00  0.00    -0.150 C  
HETATM   14  O   UNL     1      -8.039  11.139  69.387  1.00  0.00    -0.369 OA 
HETATM   15  C   UNL     1      -8.229  12.578  67.490  1.00  0.00    -0.175 C  
HETATM   16  H   UNL     1      -7.089  11.117  69.367  1.00  0.00     0.000 HD 
HETATM   17  C   UNL     1      -9.235  12.779  66.376  1.00  0.00    -0.145 C  
HETATM   18  O   UNL     1      -9.372  14.170  66.157  1.00  0.00    -0.452 OA 
HETATM   19  C   UNL     1     -10.536  12.043  66.815  1.00  0.00    -0.260 C  
HETATM   20  H   UNL     1     -10.003  14.297  65.458  1.00  0.00     0.000 HD 
BRANCH  19  21
HETATM   21  C   UNL     1     -11.774  12.945  66.996  1.00  0.00    -0.447 C  
BRANCH  21  22
HETATM   22  C   UNL     1     -12.033  13.368  68.420  1.00  0.00    -0.359 C  
HETATM   23  C   UNL     1     -11.855  14.572  68.982  1.00  0.00    -0.354 C  
BRANCH  23  24
HETATM   24  C   UNL     1     -11.296  15.797  68.325  1.00  0.00    -0.354 C  
BRANCH  24  25
HETATM   25  C   UNL     1     -10.450  16.642  69.281  1.00  0.00    -0.333 C  
BRANCH  25  26
HETATM   26  C   UNL     1      -9.014  16.851  68.795  1.00  0.00    -0.256 C  
HETATM   27  C   UNL     1      -8.749  18.303  68.461  1.00  0.00    -0.308 C  
HETATM   28  O   UNL     1      -9.554  19.210  68.554  1.00  0.00    -0.348 OA 
HETATM   29  O   UNL     1      -7.477  18.504  68.041  1.00  0.00    -0.239 OA 
ENDBRANCH  25  26
ENDBRANCH  24  25
ENDBRANCH  23  24
ENDBRANCH  21  22
ENDBRANCH  19  21
ENDBRANCH  11  12
ENDBRANCH  10  11
ENDBRANCH   8  10
ENDBRANCH   7   8
ENDBRANCH   6   7
ENDBRANCH   5   6
ENDBRANCH   4   5
ENDBRANCH   3   4
ENDBRANCH   2   3
TORSDOF 14
ENDMDL
MODEL      198
REMARK 921   NORMALIZED FREE ENERGY PREDICTED BY IDOCK:   -3.97 KCAL/MOL
REMARK 922        TOTAL FREE ENERGY PREDICTED BY IDOCK:  -10.17 KCAL/MOL
REMARK 923 INTER-LIGAND FREE ENERGY PREDICTED BY IDOCK:   -8.37 KCAL/MOL
REMARK 924 INTRA-LIGAND FREE ENERGY PREDICTED BY IDOCK:   -1.80 KCAL/MOL
REMARK 927      BINDING AFFINITY PREDICTED BY RF-SCORE:    0.00 PKD
ROOT
HETATM    1  C   UNL     1     -12.169  10.996  70.344  1.00  0.00    -0.461 C  
HETATM    2  C   UNL     1     -12.410   9.907  71.373  1.00  0.00    -0.498 C  
ENDROOT
BRANCH   2   3
HETATM    3  C   UNL     1     -11.145   9.092  71.651  1.00  0.00    -0.433 C  
BRANCH   3   4
HETATM    4  C   UNL     1     -11.400   8.091  72.778  1.00  0.00    -0.439 C  
BRANCH   4   5
HETATM    5  C   UNL     1     -10.742   6.733  72.531  1.00  0.00    -0.261 C  
BRANCH   5   6
HETATM    6  C   UNL     1     -10.174   6.682  71.107  1.00  0.00    -0.216 C  
BRANCH   6   7
HETATM    7  C   UNL     1     -10.784   5.560  70.279  1.00  0.00    -0.333 C  
BRANCH   7   8
HETATM    8  C   UNL     1     -10.602   5.775  68.775  1.00  0.00    -0.251 C  
HETATM    9  O   UNL     1     -10.246   4.880  68.013  1.00  0.00    -0.122 OA 
BRANCH   8  10
HETATM   10  C   UNL     1     -10.926   7.175  68.295  1.00  0.00    -0.092 C  
BRANCH  10  11
HETATM   11  C   UNL     1     -10.511   7.548  66.863  1.00  0.00    -0.385 C  
BRANCH  11  12
HETATM   12  C   UNL     1      -9.451   8.682  66.874  1.00  0.00    -0.235 C  
HETATM   13  C   UNL     1      -8.047   8.138  67.183  1.00  0.00    -0.116 C  
HETATM   14  O   UNL     1      -7.840   7.911  68.568  1.00  0.00    -0.115 OA 
HETATM   15  C   UNL     1      -7.121   9.227  66.708  1.00  0.00    -0.082 C  
HETATM   16  H   UNL     1      -6.972   7.576  68.759  1.00  0.00     0.000 HD 
HETATM   17  C   UNL     1      -7.735   9.688  65.402  1.00  0.00    -0.117 C  
HETATM   18  O   UNL     1      -7.348  11.032  65.188  1.00  0.00    -0.348 OA 
HETATM   19  C   UNL     1      -9.270   9.449  65.524  1.00  0.00    -0.292 C  
HETATM   20  H   UNL     1      -7.733  11.322  64.369  1.00  0.00     0.000 HD 
BRANCH  19  21
HETATM   21  C   UNL     1     -10.143  10.717  65.444  1.00  0.00    -0.356 C  
BRANCH  21  22
HETATM   22  C   UNL     1     -10.429  11.188  64.040  1.00  0.00    -0.447 C  
HETATM   23  C   UNL     1     -11.442  11.949  63.602  1.00  0.00    -0.551 C  
BRANCH  23  24
HETATM   24  C   UNL     1     -12.583  12.482  64.415  1.00  0.00    -0.497 C  
BRANCH  24  25
HETATM   25  C   UNL     1     -12.323  13.897  64.935  1.00  0.00    -0.445 C  
BRANCH  25  26
HETATM   26  C   UNL     1     -11.960  13.939  66.421  1.00  0.00    -0.467 C  
HETATM   27  C   UNL     1     -10.487  14.223  66.623  1.00  0.00    -0.278 C  
HETATM   28  O   UNL     1      -9.671  14.399  65.738  1.00  0.00    -0.304 OA 
HETATM   29  O   UNL     1     -10.155  14.273  67.935  1.00  0.00    -0.227 OA 
ENDBRANCH  25  26
ENDBRANCH  24  25
ENDBRANCH  23  24
ENDBRANCH  21  22
ENDBRANCH  19  21
ENDBRANCH  11  12
ENDBRANCH  10  11
ENDBRANCH   8  10
ENDBRANCH   7   8
ENDBRANCH   6   7
ENDBRANCH   5   6
ENDBRANCH   4   5
ENDBRANCH   3   4
ENDBRANCH   2   3
TORSDOF 14
ENDMDL
MODEL      199
REMARK 921   NORMALIZED FREE ENERGY PREDICTED BY IDOCK:   -3.94 KCAL/MOL
REMARK 922        TOTAL FREE ENERGY PREDICTED BY IDOCK:  -10.12 KCAL/MOL
REMARK 923 INTER-LIGAND FREE ENERGY PREDICTED BY IDOCK:   -8.50 KCAL/MOL
REMARK 924 INTRA-LIGAND FREE ENERGY PREDICTED BY IDOCK:   -1.62 KCAL/MOL
REMARK 927      BINDING AFFINITY PREDICTED BY RF-SCORE:    0.00 PKD
ROOT
HETATM    1  C   UNL     1      -7.586  16.411  68.964  1.00  0.00    -0.232 C  
HETATM    2  C   UNL     1      -8.462  17.323  68.123  1.00  0.00    -0.238 C  
ENDROOT
BRANCH   2   3
HETATM    3  C   UNL     1      -9.843  17.528  68.750  1.00  0.00    -0.326 C  
BRANCH   3   4
HETATM    4  C   UNL     1     -10.846  16.544  68.149  1.00  0.00    -0.345 C  
BRANCH   4   5
HETATM    5  C   UNL     1     -10.594  16.266  66.666  1.00  0.00    -0.252 C  
BRANCH   5   6
HETATM    6  C   UNL     1     -11.108  14.867  66.305  1.00  0.00    -0.340 C  
BRANCH   6   7
HETATM    7  C   UNL     1     -11.703  14.141  67.504  1.00  0.00    -0.418 C  
BRANCH   7   8
HETATM    8  C   UNL     1     -11.550  12.622  67.405  1.00  0.00    -0.360 C  
HETATM    9  O   UNL     1     -12.023  11.963  66.483  1.00  0.00    -0.588 OA 
BRANCH   8  10
HETATM   10  C   UNL     1     -10.740  11.996  68.522  1.00  0.00    -0.261 C  
BRANCH  10  11
HETATM   11  C   UNL     1     -11.110  10.569  68.954  1.00  0.00    -0.312 C  
BRANCH  11  12
HETATM   12  C   UNL     1     -11.575  10.545  70.435  1.00  0.00    -0.430 C  
HETATM   13  C   UNL     1     -12.619  11.637  70.716  1.00  0.00    -0.273 C  
HETATM   14  O   UNL     1     -12.037  12.916  70.905  1.00  0.00    -0.462 OA 
HETATM   15  C   UNL     1     -13.278  11.191  71.996  1.00  0.00    -0.428 C  
HETATM   16  H   UNL     1     -12.682  13.592  71.079  1.00  0.00     0.000 HD 
HETATM   17  C   UNL     1     -13.437   9.694  71.825  1.00  0.00    -0.394 C  
HETATM   18  O   UNL     1     -13.460   9.108  73.113  1.00  0.00    -0.899 OA 
HETATM   19  C   UNL     1     -12.272   9.227  70.902  1.00  0.00    -0.264 C  
HETATM   20  H   UNL     1     -13.560   8.169  73.006  1.00  0.00     0.000 HD 
BRANCH  19  21
HETATM   21  C   UNL     1     -11.284   8.230  71.541  1.00  0.00    -0.316 C  
BRANCH  21  22
HETATM   22  C   UNL     1      -9.931   8.814  71.860  1.00  0.00    -0.401 C  
HETATM   23  C   UNL     1      -8.750   8.558  71.279  1.00  0.00    -0.228 C  
BRANCH  23  24
HETATM   24  C   UNL     1      -8.482   7.571  70.184  1.00  0.00    -0.136 C  
BRANCH  24  25
HETATM   25  C   UNL     1      -8.753   8.149  68.793  1.00  0.00    -0.138 C  
BRANCH  25  26
HETATM   26  C   UNL     1      -7.622   9.041  68.277  1.00  0.00    -0.091 C  
HETATM   27  C   UNL     1      -8.036   9.793  67.031  1.00  0.00    -0.105 C  
HETATM   28  O   UNL     1      -9.119   9.718  66.484  1.00  0.00    -0.147 OA 
HETATM   29  O   UNL     1      -7.046  10.596  66.570  1.00  0.00    -0.117 OA 
ENDBRANCH  25  26
ENDBRANCH  24  25
ENDBRANCH  23  24
ENDBRANCH  21  22
ENDBRANCH  19  21
ENDBRANCH  11  12
ENDBRANCH  10  11
ENDBRANCH   8  10
ENDBRANCH   7   8
ENDBRANCH   6   7
ENDBRANCH   5   6
ENDBRANCH   4   5
ENDBRANCH   3   4
ENDBRANCH   2   3
TORSDOF 14
ENDMDL
MODEL      200
REMARK 921   NORMALIZED FREE ENERGY PREDICTED BY IDOCK:   -3.92 KCAL/MOL
REMARK 922        TOTAL FREE ENERGY PREDICTED BY IDOCK:  -10.09 KCAL/MOL
REMARK 923 INTER-LIGAND FREE ENERGY PREDICTED BY IDOCK:   -7.38 KCAL/MOL
REMARK 924 INTRA-LIGAND FREE ENERGY PREDICTED BY IDOCK:   -2.70 KCAL/MOL
REMARK 927      BINDING AFFINITY PREDICTED BY RF-SCORE:    0.00 PKD
ROOT
HETATM    1  C   UNL     1      -9.446   7.668  73.083  1.00  0.00    -0.300 C  
HETATM    2  C   UNL     1      -9.060   8.606  71.953  1.00  0.00    -0.326 C  
ENDROOT
BRANCH   2   3
HETATM    3  C   UNL     1      -9.756   8.237  70.641  1.00  0.00    -0.191 C  
BRANCH   3   4
HETATM    4  C   UNL     1     -11.092   7.553  70.927  1.00  0.00    -0.279 C  
BRANCH   4   5
HETATM    5  C   UNL     1     -11.220   6.185  70.252  1.00  0.00    -0.439 C  
BRANCH   5   6
HETATM    6  C   UNL     1     -11.128   6.347  68.730  1.00  0.00    -0.404 C  
BRANCH   6   7
HETATM    7  C   UNL     1     -10.016   5.503  68.124  1.00  0.00    -0.197 C  
BRANCH   7   8
HETATM    8  C   UNL     1     -10.019   5.540  66.594  1.00  0.00    -0.186 C  
HETATM    9  O   UNL     1     -10.930   5.069  65.918  1.00  0.00    -0.218 OA 
BRANCH   8  10
HETATM   10  C   UNL     1      -8.819   6.232  65.979  1.00  0.00    -0.159 C  
BRANCH  10  11
HETATM   11  C   UNL     1      -8.067   7.254  66.844  1.00  0.00    -0.120 C  
BRANCH  11  12
HETATM   12  C   UNL     1      -8.261   8.692  66.294  1.00  0.00    -0.116 C  
HETATM   13  C   UNL     1      -7.514   8.892  64.965  1.00  0.00    -0.097 C  
HETATM   14  O   UNL     1      -6.128   9.133  65.146  1.00  0.00    -0.059 OA 
HETATM   15  C   UNL     1      -8.161  10.112  64.363  1.00  0.00    -0.165 C  
HETATM   16  H   UNL     1      -5.666   9.257  64.325  1.00  0.00     0.000 HD 
HETATM   17  C   UNL     1      -9.637   9.923  64.646  1.00  0.00    -0.252 C  
HETATM   18  O   UNL     1     -10.240  11.202  64.691  1.00  0.00    -0.272 OA 
HETATM   19  C   UNL     1      -9.734   9.095  65.963  1.00  0.00    -0.358 C  
HETATM   20  H   UNL     1     -11.166  11.084  64.869  1.00  0.00     0.000 HD 
BRANCH  19  21
HETATM   21  C   UNL     1     -10.429   9.808  67.140  1.00  0.00    -0.316 C  
BRANCH  21  22
HETATM   22  C   UNL     1      -9.539  10.751  67.910  1.00  0.00    -0.171 C  
HETATM   23  C   UNL     1      -9.859  11.912  68.500  1.00  0.00    -0.187 C  
BRANCH  23  24
HETATM   24  C   UNL     1     -11.198  12.587  68.489  1.00  0.00    -0.322 C  
BRANCH  24  25
HETATM   25  C   UNL     1     -11.873  12.573  69.862  1.00  0.00    -0.373 C  
BRANCH  25  26
HETATM   26  C   UNL     1     -12.143  11.162  70.389  1.00  0.00    -0.475 C  
HETATM   27  C   UNL     1     -12.975  11.194  71.653  1.00  0.00    -0.443 C  
HETATM   28  O   UNL     1     -13.390  12.196  72.204  1.00  0.00    -0.522 OA 
HETATM   29  O   UNL     1     -13.231   9.950  72.124  1.00  0.00    -0.438 OA 
ENDBRANCH  25  26
ENDBRANCH  24  25
ENDBRANCH  23  24
ENDBRANCH  21  22
ENDBRANCH  19  21
ENDBRANCH  11  12
ENDBRANCH  10  11
ENDBRANCH   8  10
ENDBRANCH   7   8
ENDBRANCH   6   7
ENDBRANCH   5   6
ENDBRANCH   4   5
ENDBRANCH   3   4
ENDBRANCH   2   3
TORSDOF 14
ENDMDL
MODEL      201
REMARK 921   NORMALIZED FREE ENERGY PREDICTED BY IDOCK:   -3.91 KCAL/MOL
REMARK 922        TOTAL FREE ENERGY PREDICTED BY IDOCK:  -10.06 KCAL/MOL
REMARK 923 INTER-LIGAND FREE ENERGY PREDICTED BY IDOCK:   -7.34 KCAL/MOL
REMARK 924 INTRA-LIGAND FREE ENERGY PREDICTED BY IDOCK:   -2.72 KCAL/MOL
REMARK 927      BINDING AFFINITY PREDICTED BY RF-SCORE:    0.00 PKD
ROOT
HETATM    1  C   UNL     1     -12.630  12.619  64.681  1.00  0.00    -0.517 C  
HETATM    2  C   UNL     1     -11.358  12.161  65.372  1.00  0.00    -0.388 C  
ENDROOT
BRANCH   2   3
HETATM    3  C   UNL     1     -11.306  12.613  66.833  1.00  0.00    -0.373 C  
BRANCH   3   4
HETATM    4  C   UNL     1     -11.982  13.974  66.988  1.00  0.00    -0.472 C  
BRANCH   4   5
HETATM    5  C   UNL     1     -12.001  14.470  68.435  1.00  0.00    -0.309 C  
BRANCH   5   6
HETATM    6  C   UNL     1     -11.529  13.353  69.373  1.00  0.00    -0.333 C  
BRANCH   6   7
HETATM    7  C   UNL     1     -12.523  13.079  70.494  1.00  0.00    -0.306 C  
BRANCH   7   8
HETATM    8  C   UNL     1     -12.431  11.646  71.022  1.00  0.00    -0.334 C  
HETATM    9  O   UNL     1     -13.181  11.207  71.890  1.00  0.00    -0.470 OA 
BRANCH   8  10
HETATM   10  C   UNL     1     -11.360  10.799  70.365  1.00  0.00    -0.342 C  
BRANCH  10  11
HETATM   11  C   UNL     1     -11.762   9.400  69.875  1.00  0.00     0.111 C  
BRANCH  11  12
HETATM   12  C   UNL     1     -11.312   8.311  70.885  1.00  0.00    -0.292 C  
HETATM   13  C   UNL     1     -12.517   7.627  71.550  1.00  0.00    -0.336 C  
HETATM   14  O   UNL     1     -13.072   8.396  72.604  1.00  0.00    -0.599 OA 
HETATM   15  C   UNL     1     -11.948   6.348  72.107  1.00  0.00    -0.346 C  
HETATM   16  H   UNL     1     -13.817   7.973  73.015  1.00  0.00     0.000 HD 
HETATM   17  C   UNL     1     -11.010   5.859  71.022  1.00  0.00    -0.266 C  
HETATM   18  O   UNL     1     -10.011   5.066  71.634  1.00  0.00    -0.173 OA 
HETATM   19  C   UNL     1     -10.491   7.127  70.280  1.00  0.00    -0.232 C  
HETATM   20  H   UNL     1      -9.423   4.759  70.954  1.00  0.00     0.000 HD 
BRANCH  19  21
HETATM   21  C   UNL     1      -8.970   7.361  70.361  1.00  0.00    -0.150 C  
BRANCH  21  22
HETATM   22  C   UNL     1      -8.576   8.738  70.836  1.00  0.00    -0.229 C  
HETATM   23  C   UNL     1      -7.742   9.616  70.261  1.00  0.00    -0.184 C  
BRANCH  23  24
HETATM   24  C   UNL     1      -6.946   9.412  69.008  1.00  0.00    -0.059 C  
BRANCH  24  25
HETATM   25  C   UNL     1      -7.509  10.198  67.821  1.00  0.00    -0.089 C  
BRANCH  25  26
HETATM   26  C   UNL     1      -9.023  10.044  67.656  1.00  0.00    -0.135 C  
HETATM   27  C   UNL     1      -9.373   8.755  66.945  1.00  0.00    -0.167 C  
HETATM   28  O   UNL     1      -8.577   7.928  66.542  1.00  0.00    -0.129 OA 
HETATM   29  O   UNL     1     -10.712   8.602  66.803  1.00  0.00    -0.221 OA 
ENDBRANCH  25  26
ENDBRANCH  24  25
ENDBRANCH  23  24
ENDBRANCH  21  22
ENDBRANCH  19  21
ENDBRANCH  11  12
ENDBRANCH  10  11
ENDBRANCH   8  10
ENDBRANCH   7   8
ENDBRANCH   6   7
ENDBRANCH   5   6
ENDBRANCH   4   5
ENDBRANCH   3   4
ENDBRANCH   2   3
TORSDOF 14
ENDMDL
MODEL      202
REMARK 921   NORMALIZED FREE ENERGY PREDICTED BY IDOCK:   -3.90 KCAL/MOL
REMARK 922        TOTAL FREE ENERGY PREDICTED BY IDOCK:  -10.05 KCAL/MOL
REMARK 923 INTER-LIGAND FREE ENERGY PREDICTED BY IDOCK:   -8.28 KCAL/MOL
REMARK 924 INTRA-LIGAND FREE ENERGY PREDICTED BY IDOCK:   -1.77 KCAL/MOL
REMARK 927      BINDING AFFINITY PREDICTED BY RF-SCORE:    0.00 PKD
ROOT
HETATM    1  C   UNL     1     -11.714   7.395  72.549  1.00  0.00    -0.277 C  
HETATM    2  C   UNL     1     -12.319   8.774  72.352  1.00  0.00    -0.414 C  
ENDROOT
BRANCH   2   3
HETATM    3  C   UNL     1     -11.895   9.401  71.022  1.00  0.00    -0.396 C  
BRANCH   3   4
HETATM    4  C   UNL     1     -12.318  10.868  70.972  1.00  0.00    -0.498 C  
BRANCH   4   5
HETATM    5  C   UNL     1     -11.567  11.670  69.907  1.00  0.00    -0.366 C  
BRANCH   5   6
HETATM    6  C   UNL     1     -11.383  10.815  68.648  1.00  0.00    -0.356 C  
BRANCH   6   7
HETATM    7  C   UNL     1      -9.954  10.857  68.124  1.00  0.00    -0.188 C  
BRANCH   7   8
HETATM    8  C   UNL     1      -9.815  11.720  66.868  1.00  0.00    -0.203 C  
HETATM    9  O   UNL     1     -10.339  11.428  65.796  1.00  0.00    -0.239 OA 
BRANCH   8  10
HETATM   10  C   UNL     1      -9.002  12.985  67.060  1.00  0.00    -0.225 C  
BRANCH  10  11
HETATM   11  C   UNL     1      -9.460  14.244  66.310  1.00  0.00    -0.277 C  
BRANCH  11  12
HETATM   12  C   UNL     1     -10.357  15.130  67.215  1.00  0.00    -0.261 C  
HETATM   13  C   UNL     1     -11.622  14.379  67.662  1.00  0.00    -0.370 C  
HETATM   14  O   UNL     1     -12.628  14.357  66.663  1.00  0.00    -0.534 OA 
HETATM   15  C   UNL     1     -12.112  15.165  68.850  1.00  0.00    -0.227 C  
HETATM   16  H   UNL     1     -13.410  13.893  66.939  1.00  0.00     0.000 HD 
HETATM   17  C   UNL     1     -10.847  15.508  69.611  1.00  0.00    -0.283 C  
HETATM   18  O   UNL     1     -11.089  16.692  70.348  1.00  0.00    -0.450 OA 
HETATM   19  C   UNL     1      -9.706  15.603  68.555  1.00  0.00    -0.202 C  
HETATM   20  H   UNL     1     -10.296  16.907  70.825  1.00  0.00     0.000 HD 
BRANCH  19  21
HETATM   21  C   UNL     1      -9.037  16.986  68.429  1.00  0.00    -0.256 C  
BRANCH  21  22
HETATM   22  C   UNL     1      -8.851  17.462  67.010  1.00  0.00    -0.248 C  
HETATM   23  C   UNL     1      -7.723  17.528  66.290  1.00  0.00    -0.334 C  
BRANCH  23  24
HETATM   24  C   UNL     1      -6.339  17.187  66.753  1.00  0.00    -0.248 C  
BRANCH  24  25
HETATM   25  C   UNL     1      -5.570  18.411  67.257  1.00  0.00    -0.147 C  
BRANCH  25  26
HETATM   26  C   UNL     1      -5.787  18.692  68.745  1.00  0.00    -0.214 C  
HETATM   27  C   UNL     1      -6.104  20.151  68.992  1.00  0.00    -0.317 C  
HETATM   28  O   UNL     1      -6.182  21.014  68.139  1.00  0.00    -0.341 OA 
HETATM   29  O   UNL     1      -6.309  20.411  70.306  1.00  0.00    -0.408 OA 
ENDBRANCH  25  26
ENDBRANCH  24  25
ENDBRANCH  23  24
ENDBRANCH  21  22
ENDBRANCH  19  21
ENDBRANCH  11  12
ENDBRANCH  10  11
ENDBRANCH   8  10
ENDBRANCH   7   8
ENDBRANCH   6   7
ENDBRANCH   5   6
ENDBRANCH   4   5
ENDBRANCH   3   4
ENDBRANCH   2   3
TORSDOF 14
ENDMDL
MODEL      203
REMARK 921   NORMALIZED FREE ENERGY PREDICTED BY IDOCK:   -3.87 KCAL/MOL
REMARK 922        TOTAL FREE ENERGY PREDICTED BY IDOCK:  -10.00 KCAL/MOL
REMARK 923 INTER-LIGAND FREE ENERGY PREDICTED BY IDOCK:   -7.94 KCAL/MOL
REMARK 924 INTRA-LIGAND FREE ENERGY PREDICTED BY IDOCK:   -2.06 KCAL/MOL
REMARK 927      BINDING AFFINITY PREDICTED BY RF-SCORE:    0.00 PKD
ROOT
HETATM    1  C   UNL     1     -11.460   6.242  70.135  1.00  0.00    -0.452 C  
HETATM    2  C   UNL     1     -10.854   6.407  71.517  1.00  0.00    -0.299 C  
ENDROOT
BRANCH   2   3
HETATM    3  C   UNL     1     -10.906   7.859  71.996  1.00  0.00    -0.312 C  
BRANCH   3   4
HETATM    4  C   UNL     1     -12.245   8.491  71.616  1.00  0.00    -0.371 C  
BRANCH   4   5
HETATM    5  C   UNL     1     -12.121   9.968  71.234  1.00  0.00    -0.487 C  
BRANCH   5   6
HETATM    6  C   UNL     1     -11.064  10.133  70.137  1.00  0.00    -0.378 C  
BRANCH   6   7
HETATM    7  C   UNL     1     -11.621  10.811  68.893  1.00  0.00    -0.361 C  
BRANCH   7   8
HETATM    8  C   UNL     1     -11.257  12.296  68.821  1.00  0.00    -0.265 C  
HETATM    9  O   UNL     1     -12.006  13.185  69.218  1.00  0.00    -0.311 OA 
BRANCH   8  10
HETATM   10  C   UNL     1      -9.883  12.581  68.249  1.00  0.00    -0.227 C  
BRANCH  10  11
HETATM   11  C   UNL     1      -9.810  13.106  66.807  1.00  0.00    -0.251 C  
BRANCH  11  12
HETATM   12  C   UNL     1     -11.020  12.604  65.975  1.00  0.00    -0.313 C  
HETATM   13  C   UNL     1     -11.959  13.759  65.590  1.00  0.00    -0.388 C  
HETATM   14  O   UNL     1     -12.825  14.137  66.648  1.00  0.00    -0.454 OA 
HETATM   15  C   UNL     1     -12.771  13.204  64.450  1.00  0.00    -0.235 C  
HETATM   16  H   UNL     1     -13.405  14.850  66.411  1.00  0.00     0.000 HD 
HETATM   17  C   UNL     1     -11.764  12.433  63.620  1.00  0.00    -0.514 C  
HETATM   18  O   UNL     1     -12.459  11.417  62.924  1.00  0.00    -0.949 OA 
HETATM   19  C   UNL     1     -10.668  11.933  64.608  1.00  0.00    -0.356 C  
HETATM   20  H   UNL     1     -11.828  10.934  62.404  1.00  0.00     0.000 HD 
BRANCH  19  21
HETATM   21  C   UNL     1     -10.531  10.402  64.720  1.00  0.00    -0.087 C  
BRANCH  21  22
HETATM   22  C   UNL     1      -9.900   9.925  66.004  1.00  0.00    -0.330 C  
HETATM   23  C   UNL     1      -8.671   9.427  66.200  1.00  0.00    -0.165 C  
BRANCH  23  24
HETATM   24  C   UNL     1      -7.628   9.171  65.155  1.00  0.00    -0.098 C  
BRANCH  24  25
HETATM   25  C   UNL     1      -6.228   9.590  65.609  1.00  0.00    -0.065 C  
BRANCH  25  26
HETATM   26  C   UNL     1      -6.135  11.067  66.000  1.00  0.00    -0.094 C  
HETATM   27  C   UNL     1      -5.917  11.232  67.488  1.00  0.00    -0.055 C  
HETATM   28  O   UNL     1      -5.825  10.328  68.296  1.00  0.00    -0.041 OA 
HETATM   29  O   UNL     1      -5.822  12.536  67.846  1.00  0.00    -0.076 OA 
ENDBRANCH  25  26
ENDBRANCH  24  25
ENDBRANCH  23  24
ENDBRANCH  21  22
ENDBRANCH  19  21
ENDBRANCH  11  12
ENDBRANCH  10  11
ENDBRANCH   8  10
ENDBRANCH   7   8
ENDBRANCH   6   7
ENDBRANCH   5   6
ENDBRANCH   4   5
ENDBRANCH   3   4
ENDBRANCH   2   3
TORSDOF 14
ENDMDL
MODEL      204
REMARK 921   NORMALIZED FREE ENERGY PREDICTED BY IDOCK:   -3.87 KCAL/MOL
REMARK 922        TOTAL FREE ENERGY PREDICTED BY IDOCK:  -10.00 KCAL/MOL
REMARK 923 INTER-LIGAND FREE ENERGY PREDICTED BY IDOCK:   -8.07 KCAL/MOL
REMARK 924 INTRA-LIGAND FREE ENERGY PREDICTED BY IDOCK:   -1.92 KCAL/MOL
REMARK 927      BINDING AFFINITY PREDICTED BY RF-SCORE:    0.00 PKD
ROOT
HETATM    1  C   UNL     1      -6.069  13.601  68.871  1.00  0.00    -0.088 C  
HETATM    2  C   UNL     1      -6.486  14.342  67.614  1.00  0.00    -0.151 C  
ENDROOT
BRANCH   2   3
HETATM    3  C   UNL     1      -7.539  15.414  67.904  1.00  0.00    -0.149 C  
BRANCH   3   4
HETATM    4  C   UNL     1      -8.855  15.061  67.212  1.00  0.00    -0.216 C  
BRANCH   4   5
HETATM    5  C   UNL     1      -9.116  15.900  65.960  1.00  0.00    -0.363 C  
BRANCH   5   6
HETATM    6  C   UNL     1     -10.388  15.408  65.260  1.00  0.00    -0.420 C  
BRANCH   6   7
HETATM    7  C   UNL     1     -11.442  14.926  66.247  1.00  0.00    -0.269 C  
BRANCH   7   8
HETATM    8  C   UNL     1     -12.208  13.703  65.737  1.00  0.00    -0.464 C  
HETATM    9  O   UNL     1     -13.023  13.762  64.820  1.00  0.00    -0.684 OA 
BRANCH   8  10
HETATM   10  C   UNL     1     -11.857  12.404  66.434  1.00  0.00    -0.421 C  
BRANCH  10  11
HETATM   11  C   UNL     1     -10.404  11.915  66.335  1.00  0.00    -0.252 C  
BRANCH  11  12
HETATM   12  C   UNL     1     -10.275  10.777  65.287  1.00  0.00    -0.351 C  
HETATM   13  C   UNL     1      -9.900  11.326  63.901  1.00  0.00    -0.300 C  
HETATM   14  O   UNL     1     -11.013  11.862  63.204  1.00  0.00    -0.650 OA 
HETATM   15  C   UNL     1      -9.376  10.123  63.162  1.00  0.00    -0.333 C  
HETATM   16  H   UNL     1     -10.782  12.201  62.348  1.00  0.00     0.000 HD 
HETATM   17  C   UNL     1      -8.540   9.393  64.194  1.00  0.00    -0.198 C  
HETATM   18  O   UNL     1      -8.511   8.023  63.842  1.00  0.00    -0.383 OA 
HETATM   19  C   UNL     1      -9.172   9.710  65.582  1.00  0.00    -0.270 C  
HETATM   20  H   UNL     1      -7.988   7.565  64.488  1.00  0.00     0.000 HD 
BRANCH  19  21
HETATM   21  C   UNL     1      -9.720   8.492  66.351  1.00  0.00    -0.328 C  
BRANCH  21  22
HETATM   22  C   UNL     1      -8.778   7.936  67.390  1.00  0.00    -0.128 C  
HETATM   23  C   UNL     1      -9.037   7.600  68.661  1.00  0.00    -0.135 C  
BRANCH  23  24
HETATM   24  C   UNL     1     -10.343   7.748  69.383  1.00  0.00    -0.219 C  
BRANCH  24  25
HETATM   25  C   UNL     1     -10.261   8.737  70.547  1.00  0.00    -0.240 C  
BRANCH  25  26
HETATM   26  C   UNL     1     -11.466   9.677  70.630  1.00  0.00    -0.376 C  
HETATM   27  C   UNL     1     -11.212  10.969  69.884  1.00  0.00    -0.252 C  
HETATM   28  O   UNL     1     -10.191  11.255  69.287  1.00  0.00    -0.154 OA 
HETATM   29  O   UNL     1     -12.276  11.806  69.941  1.00  0.00    -0.277 OA 
ENDBRANCH  25  26
ENDBRANCH  24  25
ENDBRANCH  23  24
ENDBRANCH  21  22
ENDBRANCH  19  21
ENDBRANCH  11  12
ENDBRANCH  10  11
ENDBRANCH   8  10
ENDBRANCH   7   8
ENDBRANCH   6   7
ENDBRANCH   5   6
ENDBRANCH   4   5
ENDBRANCH   3   4
ENDBRANCH   2   3
TORSDOF 14
ENDMDL
MODEL      205
REMARK 921   NORMALIZED FREE ENERGY PREDICTED BY IDOCK:   -3.85 KCAL/MOL
REMARK 922        TOTAL FREE ENERGY PREDICTED BY IDOCK:   -9.96 KCAL/MOL
REMARK 923 INTER-LIGAND FREE ENERGY PREDICTED BY IDOCK:   -7.05 KCAL/MOL
REMARK 924 INTRA-LIGAND FREE ENERGY PREDICTED BY IDOCK:   -2.91 KCAL/MOL
REMARK 927      BINDING AFFINITY PREDICTED BY RF-SCORE:    0.00 PKD
ROOT
HETATM    1  C   UNL     1     -10.339  13.084  68.184  1.00  0.00    -0.244 C  
HETATM    2  C   UNL     1      -8.831  13.256  68.234  1.00  0.00    -0.168 C  
ENDROOT
BRANCH   2   3
HETATM    3  C   UNL     1      -8.130  12.493  67.107  1.00  0.00    -0.156 C  
BRANCH   3   4
HETATM    4  C   UNL     1      -7.389  11.282  67.672  1.00  0.00    -0.100 C  
BRANCH   4   5
HETATM    5  C   UNL     1      -6.848  11.518  69.083  1.00  0.00    -0.112 C  
BRANCH   5   6
HETATM    6  C   UNL     1      -7.163  10.306  69.969  1.00  0.00    -0.164 C  
BRANCH   6   7
HETATM    7  C   UNL     1      -8.626   9.894  69.887  1.00  0.00    -0.216 C  
BRANCH   7   8
HETATM    8  C   UNL     1      -8.979   8.786  70.883  1.00  0.00    -0.201 C  
HETATM    9  O   UNL     1      -9.132   8.993  72.084  1.00  0.00    -0.372 OA 
BRANCH   8  10
HETATM   10  C   UNL     1      -9.157   7.415  70.262  1.00  0.00    -0.151 C  
BRANCH  10  11
HETATM   11  C   UNL     1      -7.986   6.849  69.445  1.00  0.00    -0.115 C  
BRANCH  11  12
HETATM   12  C   UNL     1      -8.502   6.128  68.170  1.00  0.00    -0.116 C  
HETATM   13  C   UNL     1      -8.816   4.649  68.446  1.00  0.00    -0.105 C  
HETATM   14  O   UNL     1      -7.655   3.834  68.455  1.00  0.00    -0.061 OA 
HETATM   15  C   UNL     1      -9.705   4.245  67.299  1.00  0.00    -0.216 C  
HETATM   16  H   UNL     1      -7.849   2.920  68.625  1.00  0.00     0.000 HD 
HETATM   17  C   UNL     1     -10.628   5.432  67.113  1.00  0.00    -0.201 C  
HETATM   18  O   UNL     1     -11.058   5.443  65.765  1.00  0.00    -0.729 OA 
HETATM   19  C   UNL     1      -9.829   6.690  67.567  1.00  0.00    -0.158 C  
HETATM   20  H   UNL     1     -11.637   6.188  65.648  1.00  0.00     0.000 HD 
BRANCH  19  21
HETATM   21  C   UNL     1      -9.580   7.744  66.470  1.00  0.00    -0.270 C  
BRANCH  21  22
HETATM   22  C   UNL     1     -10.283   9.059  66.699  1.00  0.00    -0.333 C  
HETATM   23  C   UNL     1     -10.363  10.119  65.882  1.00  0.00    -0.221 C  
BRANCH  23  24
HETATM   24  C   UNL     1      -9.714  10.272  64.540  1.00  0.00    -0.395 C  
BRANCH  24  25
HETATM   25  C   UNL     1     -10.316  11.419  63.725  1.00  0.00    -0.447 C  
BRANCH  25  26
HETATM   26  C   UNL     1     -11.672  11.892  64.253  1.00  0.00    -0.388 C  
HETATM   27  C   UNL     1     -11.595  13.307  64.783  1.00  0.00    -0.332 C  
HETATM   28  O   UNL     1     -10.599  14.005  64.802  1.00  0.00    -0.397 OA 
HETATM   29  O   UNL     1     -12.793  13.743  65.244  1.00  0.00    -0.681 OA 
ENDBRANCH  25  26
ENDBRANCH  24  25
ENDBRANCH  23  24
ENDBRANCH  21  22
ENDBRANCH  19  21
ENDBRANCH  11  12
ENDBRANCH  10  11
ENDBRANCH   8  10
ENDBRANCH   7   8
ENDBRANCH   6   7
ENDBRANCH   5   6
ENDBRANCH   4   5
ENDBRANCH   3   4
ENDBRANCH   2   3
TORSDOF 14
ENDMDL
MODEL      206
REMARK 921   NORMALIZED FREE ENERGY PREDICTED BY IDOCK:   -3.85 KCAL/MOL
REMARK 922        TOTAL FREE ENERGY PREDICTED BY IDOCK:   -9.96 KCAL/MOL
REMARK 923 INTER-LIGAND FREE ENERGY PREDICTED BY IDOCK:   -7.29 KCAL/MOL
REMARK 924 INTRA-LIGAND FREE ENERGY PREDICTED BY IDOCK:   -2.67 KCAL/MOL
REMARK 927      BINDING AFFINITY PREDICTED BY RF-SCORE:    0.00 PKD
ROOT
HETATM    1  C   UNL     1     -12.357  14.877  70.955  1.00  0.00    -0.388 C  
HETATM    2  C   UNL     1     -10.858  15.110  70.884  1.00  0.00    -0.159 C  
ENDROOT
BRANCH   2   3
HETATM    3  C   UNL     1     -10.479  16.057  69.743  1.00  0.00    -0.300 C  
BRANCH   3   4
HETATM    4  C   UNL     1     -11.506  15.961  68.615  1.00  0.00    -0.391 C  
BRANCH   4   5
HETATM    5  C   UNL     1     -10.867  15.957  67.225  1.00  0.00    -0.279 C  
BRANCH   5   6
HETATM    6  C   UNL     1     -11.314  14.710  66.452  1.00  0.00    -0.348 C  
BRANCH   6   7
HETATM    7  C   UNL     1     -12.144  13.764  67.308  1.00  0.00    -0.393 C  
BRANCH   7   8
HETATM    8  C   UNL     1     -11.766  12.297  67.096  1.00  0.00    -0.326 C  
HETATM    9  O   UNL     1     -12.138  11.398  67.846  1.00  0.00    -0.646 OA 
BRANCH   8  10
HETATM   10  C   UNL     1     -10.918  12.035  65.867  1.00  0.00    -0.342 C  
BRANCH  10  11
HETATM   11  C   UNL     1      -9.496  11.498  66.087  1.00  0.00    -0.239 C  
BRANCH  11  12
HETATM   12  C   UNL     1      -9.159  11.431  67.601  1.00  0.00    -0.155 C  
HETATM   13  C   UNL     1      -9.034   9.978  68.087  1.00  0.00    -0.122 C  
HETATM   14  O   UNL     1     -10.292   9.369  68.325  1.00  0.00    -0.195 OA 
HETATM   15  C   UNL     1      -8.277  10.092  69.385  1.00  0.00    -0.171 C  
HETATM   16  H   UNL     1     -10.215   8.471  68.625  1.00  0.00     0.000 HD 
HETATM   17  C   UNL     1      -7.213  11.133  69.101  1.00  0.00    -0.123 C  
HETATM   18  O   UNL     1      -6.866  11.748  70.326  1.00  0.00    -0.447 OA 
HETATM   19  C   UNL     1      -7.805  12.088  68.021  1.00  0.00    -0.145 C  
HETATM   20  H   UNL     1      -6.199  12.401  70.149  1.00  0.00     0.000 HD 
BRANCH  19  21
HETATM   21  C   UNL     1      -7.972  13.556  68.461  1.00  0.00    -0.119 C  
BRANCH  21  22
HETATM   22  C   UNL     1      -6.708  14.375  68.391  1.00  0.00    -0.103 C  
HETATM   23  C   UNL     1      -6.490  15.526  67.739  1.00  0.00    -0.186 C  
BRANCH  23  24
HETATM   24  C   UNL     1      -7.459  16.261  66.863  1.00  0.00    -0.271 C  
BRANCH  24  25
HETATM   25  C   UNL     1      -7.679  17.707  67.316  1.00  0.00    -0.222 C  
BRANCH  25  26
HETATM   26  C   UNL     1      -7.110  17.999  68.707  1.00  0.00    -0.279 C  
HETATM   27  C   UNL     1      -6.941  19.486  68.933  1.00  0.00    -0.351 C  
HETATM   28  O   UNL     1      -7.211  20.360  68.132  1.00  0.00    -0.271 OA 
HETATM   29  O   UNL     1      -6.449  19.759  70.165  1.00  0.00    -0.315 OA 
ENDBRANCH  25  26
ENDBRANCH  24  25
ENDBRANCH  23  24
ENDBRANCH  21  22
ENDBRANCH  19  21
ENDBRANCH  11  12
ENDBRANCH  10  11
ENDBRANCH   8  10
ENDBRANCH   7   8
ENDBRANCH   6   7
ENDBRANCH   5   6
ENDBRANCH   4   5
ENDBRANCH   3   4
ENDBRANCH   2   3
TORSDOF 14
ENDMDL
MODEL      207
REMARK 921   NORMALIZED FREE ENERGY PREDICTED BY IDOCK:   -3.85 KCAL/MOL
REMARK 922        TOTAL FREE ENERGY PREDICTED BY IDOCK:   -9.96 KCAL/MOL
REMARK 923 INTER-LIGAND FREE ENERGY PREDICTED BY IDOCK:   -7.29 KCAL/MOL
REMARK 924 INTRA-LIGAND FREE ENERGY PREDICTED BY IDOCK:   -2.67 KCAL/MOL
REMARK 927      BINDING AFFINITY PREDICTED BY RF-SCORE:    0.00 PKD
ROOT
HETATM    1  C   UNL     1     -12.221   8.121  72.107  1.00  0.00    -0.398 C  
HETATM    2  C   UNL     1     -11.897   9.551  71.716  1.00  0.00    -0.430 C  
ENDROOT
BRANCH   2   3
HETATM    3  C   UNL     1     -11.028   9.618  70.458  1.00  0.00    -0.374 C  
BRANCH   3   4
HETATM    4  C   UNL     1     -10.738   8.209  69.943  1.00  0.00    -0.241 C  
BRANCH   4   5
HETATM    5  C   UNL     1      -9.928   8.202  68.645  1.00  0.00    -0.201 C  
BRANCH   5   6
HETATM    6  C   UNL     1      -8.836   9.277  68.709  1.00  0.00    -0.132 C  
BRANCH   6   7
HETATM    7  C   UNL     1      -7.446   8.706  68.467  1.00  0.00    -0.093 C  
BRANCH   7   8
HETATM    8  C   UNL     1      -7.427   7.667  67.344  1.00  0.00    -0.100 C  
HETATM    9  O   UNL     1      -7.529   6.460  67.551  1.00  0.00    -0.088 OA 
BRANCH   8  10
HETATM   10  C   UNL     1      -7.302   8.247  65.949  1.00  0.00    -0.076 C  
BRANCH  10  11
HETATM   11  C   UNL     1      -8.595   8.441  65.143  1.00  0.00    -0.159 C  
BRANCH  11  12
HETATM   12  C   UNL     1      -8.669   9.876  64.556  1.00  0.00    -0.219 C  
HETATM   13  C   UNL     1      -8.484   9.872  63.030  1.00  0.00    -0.175 C  
HETATM   14  O   UNL     1      -7.123   9.768  62.643  1.00  0.00    -0.107 OA 
HETATM   15  C   UNL     1      -9.030  11.206  62.593  1.00  0.00    -0.347 C  
HETATM   16  H   UNL     1      -7.008   9.766  61.700  1.00  0.00     0.000 HD 
HETATM   17  C   UNL     1     -10.277  11.387  63.435  1.00  0.00    -0.411 C  
HETATM   18  O   UNL     1     -10.515  12.775  63.568  1.00  0.00    -0.466 OA 
HETATM   19  C   UNL     1     -10.024  10.623  64.769  1.00  0.00    -0.391 C  
HETATM   20  H   UNL     1     -11.297  12.889  64.096  1.00  0.00     0.000 HD 
BRANCH  19  21
HETATM   21  C   UNL     1     -10.023  11.498  66.039  1.00  0.00    -0.258 C  
BRANCH  21  22
HETATM   22  C   UNL     1     -11.275  11.390  66.871  1.00  0.00    -0.331 C  
HETATM   23  C   UNL     1     -11.620  12.090  67.961  1.00  0.00    -0.407 C  
BRANCH  23  24
HETATM   24  C   UNL     1     -10.799  13.134  68.656  1.00  0.00    -0.287 C  
BRANCH  24  25
HETATM   25  C   UNL     1     -11.323  14.551  68.410  1.00  0.00    -0.311 C  
BRANCH  25  26
HETATM   26  C   UNL     1     -11.844  14.766  66.987  1.00  0.00    -0.290 C  
HETATM   27  C   UNL     1     -10.733  15.189  66.050  1.00  0.00    -0.329 C  
HETATM   28  O   UNL     1      -9.567  15.348  66.357  1.00  0.00    -0.252 OA 
HETATM   29  O   UNL     1     -11.180  15.371  64.784  1.00  0.00    -0.413 OA 
ENDBRANCH  25  26
ENDBRANCH  24  25
ENDBRANCH  23  24
ENDBRANCH  21  22
ENDBRANCH  19  21
ENDBRANCH  11  12
ENDBRANCH  10  11
ENDBRANCH   8  10
ENDBRANCH   7   8
ENDBRANCH   6   7
ENDBRANCH   5   6
ENDBRANCH   4   5
ENDBRANCH   3   4
ENDBRANCH   2   3
TORSDOF 14
ENDMDL
MODEL      208
REMARK 921   NORMALIZED FREE ENERGY PREDICTED BY IDOCK:   -3.84 KCAL/MOL
REMARK 922        TOTAL FREE ENERGY PREDICTED BY IDOCK:   -9.94 KCAL/MOL
REMARK 923 INTER-LIGAND FREE ENERGY PREDICTED BY IDOCK:   -6.88 KCAL/MOL
REMARK 924 INTRA-LIGAND FREE ENERGY PREDICTED BY IDOCK:   -3.06 KCAL/MOL
REMARK 927      BINDING AFFINITY PREDICTED BY RF-SCORE:    0.00 PKD
ROOT
HETATM    1  C   UNL     1      -6.321   8.985  66.657  1.00  0.00    -0.066 C  
HETATM    2  C   UNL     1      -6.457  10.212  65.774  1.00  0.00    -0.107 C  
ENDROOT
BRANCH   2   3
HETATM    3  C   UNL     1      -6.660  11.488  66.593  1.00  0.00    -0.081 C  
BRANCH   3   4
HETATM    4  C   UNL     1      -7.061  11.137  68.025  1.00  0.00    -0.073 C  
BRANCH   4   5
HETATM    5  C   UNL     1      -8.182  12.027  68.566  1.00  0.00    -0.113 C  
BRANCH   5   6
HETATM    6  C   UNL     1      -9.543  11.380  68.279  1.00  0.00    -0.192 C  
BRANCH   6   7
HETATM    7  C   UNL     1     -10.662  12.406  68.177  1.00  0.00    -0.243 C  
BRANCH   7   8
HETATM    8  C   UNL     1     -11.615  12.356  69.374  1.00  0.00    -0.307 C  
HETATM    9  O   UNL     1     -12.133  13.360  69.855  1.00  0.00    -0.324 OA 
BRANCH   8  10
HETATM   10  C   UNL     1     -11.893  10.963  69.900  1.00  0.00    -0.427 C  
BRANCH  10  11
HETATM   11  C   UNL     1     -12.385  10.836  71.350  1.00  0.00    -0.433 C  
BRANCH  11  12
HETATM   12  C   UNL     1     -12.152   9.399  71.887  1.00  0.00    -0.427 C  
HETATM   13  C   UNL     1     -13.412   8.531  71.740  1.00  0.00    -0.371 C  
HETATM   14  O   UNL     1     -14.367   8.773  72.760  1.00  0.00    -0.920 OA 
HETATM   15  C   UNL     1     -12.899   7.120  71.858  1.00  0.00    -0.297 C  
HETATM   16  H   UNL     1     -15.146   8.237  72.669  1.00  0.00     0.000 HD 
HETATM   17  C   UNL     1     -11.609   7.129  71.063  1.00  0.00    -0.309 C  
HETATM   18  O   UNL     1     -10.769   6.115  71.581  1.00  0.00    -0.229 OA 
HETATM   19  C   UNL     1     -11.041   8.577  71.159  1.00  0.00    -0.312 C  
HETATM   20  H   UNL     1      -9.960   6.121  71.083  1.00  0.00     0.000 HD 
BRANCH  19  21
HETATM   21  C   UNL     1      -9.667   8.702  71.848  1.00  0.00    -0.383 C  
BRANCH  21  22
HETATM   22  C   UNL     1      -8.536   9.066  70.919  1.00  0.00    -0.253 C  
HETATM   23  C   UNL     1      -7.701   8.252  70.256  1.00  0.00    -0.084 C  
BRANCH  23  24
HETATM   24  C   UNL     1      -7.663   6.755  70.323  1.00  0.00    -0.101 C  
BRANCH  24  25
HETATM   25  C   UNL     1      -7.599   6.108  68.938  1.00  0.00    -0.092 C  
BRANCH  25  26
HETATM   26  C   UNL     1      -8.744   6.534  68.016  1.00  0.00    -0.116 C  
HETATM   27  C   UNL     1      -9.942   5.622  68.164  1.00  0.00    -0.147 C  
HETATM   28  O   UNL     1     -10.016   4.663  68.910  1.00  0.00    -0.164 OA 
HETATM   29  O   UNL     1     -10.967   5.995  67.362  1.00  0.00    -0.308 OA 
ENDBRANCH  25  26
ENDBRANCH  24  25
ENDBRANCH  23  24
ENDBRANCH  21  22
ENDBRANCH  19  21
ENDBRANCH  11  12
ENDBRANCH  10  11
ENDBRANCH   8  10
ENDBRANCH   7   8
ENDBRANCH   6   7
ENDBRANCH   5   6
ENDBRANCH   4   5
ENDBRANCH   3   4
ENDBRANCH   2   3
TORSDOF 14
ENDMDL
MODEL      209
REMARK 921   NORMALIZED FREE ENERGY PREDICTED BY IDOCK:   -3.83 KCAL/MOL
REMARK 922        TOTAL FREE ENERGY PREDICTED BY IDOCK:   -9.93 KCAL/MOL
REMARK 923 INTER-LIGAND FREE ENERGY PREDICTED BY IDOCK:   -7.30 KCAL/MOL
REMARK 924 INTRA-LIGAND FREE ENERGY PREDICTED BY IDOCK:   -2.63 KCAL/MOL
REMARK 927      BINDING AFFINITY PREDICTED BY RF-SCORE:    0.00 PKD
ROOT
HETATM    1  C   UNL     1      -8.692   3.331  69.214  1.00  0.00    -0.135 C  
HETATM    2  C   UNL     1      -9.294   3.773  67.892  1.00  0.00    -0.236 C  
ENDROOT
BRANCH   2   3
HETATM    3  C   UNL     1      -9.293   5.296  67.743  1.00  0.00    -0.130 C  
BRANCH   3   4
HETATM    4  C   UNL     1     -10.685   5.855  68.037  1.00  0.00    -0.332 C  
BRANCH   4   5
HETATM    5  C   UNL     1     -11.019   7.093  67.203  1.00  0.00    -0.342 C  
BRANCH   5   6
HETATM    6  C   UNL     1      -9.748   7.623  66.528  1.00  0.00    -0.251 C  
BRANCH   6   7
HETATM    7  C   UNL     1      -9.716   9.144  66.466  1.00  0.00    -0.306 C  
BRANCH   7   8
HETATM    8  C   UNL     1      -8.552   9.739  67.262  1.00  0.00    -0.128 C  
HETATM    9  O   UNL     1      -7.999  10.790  66.949  1.00  0.00    -0.123 OA 
BRANCH   8  10
HETATM   10  C   UNL     1      -8.154   8.941  68.488  1.00  0.00    -0.108 C  
BRANCH  10  11
HETATM   11  C   UNL     1      -8.599   9.475  69.858  1.00  0.00    -0.217 C  
BRANCH  11  12
HETATM   12  C   UNL     1      -9.488   8.437  70.592  1.00  0.00    -0.191 C  
HETATM   13  C   UNL     1      -8.645   7.479  71.450  1.00  0.00    -0.120 C  
HETATM   14  O   UNL     1      -8.042   6.446  70.688  1.00  0.00    -0.110 OA 
HETATM   15  C   UNL     1      -9.638   6.880  72.411  1.00  0.00    -0.167 C  
HETATM   16  H   UNL     1      -7.522   5.854  71.218  1.00  0.00     0.000 HD 
HETATM   17  C   UNL     1     -10.516   8.049  72.810  1.00  0.00    -0.345 C  
HETATM   18  O   UNL     1     -11.780   7.538  73.186  1.00  0.00    -0.604 OA 
HETATM   19  C   UNL     1     -10.527   9.028  71.598  1.00  0.00    -0.426 C  
HETATM   20  H   UNL     1     -12.331   8.271  73.436  1.00  0.00     0.000 HD 
BRANCH  19  21
HETATM   21  C   UNL     1     -11.908   9.261  70.952  1.00  0.00    -0.346 C  
BRANCH  21  22
HETATM   22  C   UNL     1     -12.369  10.696  70.968  1.00  0.00    -0.507 C  
HETATM   23  C   UNL     1     -12.285  11.615  69.995  1.00  0.00    -0.338 C  
BRANCH  23  24
HETATM   24  C   UNL     1     -11.651  11.442  68.648  1.00  0.00    -0.384 C  
BRANCH  24  25
HETATM   25  C   UNL     1     -11.831  12.670  67.752  1.00  0.00    -0.381 C  
BRANCH  25  26
HETATM   26  C   UNL     1     -10.590  13.001  66.921  1.00  0.00    -0.260 C  
HETATM   27  C   UNL     1     -10.242  14.471  67.009  1.00  0.00    -0.262 C  
HETATM   28  O   UNL     1     -10.852  15.307  67.649  1.00  0.00    -0.279 OA 
HETATM   29  O   UNL     1      -9.138  14.776  66.286  1.00  0.00    -0.269 OA 
ENDBRANCH  25  26
ENDBRANCH  24  25
ENDBRANCH  23  24
ENDBRANCH  21  22
ENDBRANCH  19  21
ENDBRANCH  11  12
ENDBRANCH  10  11
ENDBRANCH   8  10
ENDBRANCH   7   8
ENDBRANCH   6   7
ENDBRANCH   5   6
ENDBRANCH   4   5
ENDBRANCH   3   4
ENDBRANCH   2   3
TORSDOF 14
ENDMDL
MODEL      210
REMARK 921   NORMALIZED FREE ENERGY PREDICTED BY IDOCK:   -3.83 KCAL/MOL
REMARK 922        TOTAL FREE ENERGY PREDICTED BY IDOCK:   -9.92 KCAL/MOL
REMARK 923 INTER-LIGAND FREE ENERGY PREDICTED BY IDOCK:   -8.46 KCAL/MOL
REMARK 924 INTRA-LIGAND FREE ENERGY PREDICTED BY IDOCK:   -1.47 KCAL/MOL
REMARK 927      BINDING AFFINITY PREDICTED BY RF-SCORE:    0.00 PKD
ROOT
HETATM    1  C   UNL     1      -9.732  20.521  67.400  1.00  0.00    -0.587 C  
HETATM    2  C   UNL     1     -10.530  19.520  66.584  1.00  0.00    -0.593 C  
ENDROOT
BRANCH   2   3
HETATM    3  C   UNL     1     -10.451  18.110  67.172  1.00  0.00    -0.392 C  
BRANCH   3   4
HETATM    4  C   UNL     1      -9.147  17.434  66.750  1.00  0.00    -0.276 C  
BRANCH   4   5
HETATM    5  C   UNL     1      -9.372  16.143  65.961  1.00  0.00    -0.368 C  
BRANCH   5   6
HETATM    6  C   UNL     1     -10.695  16.229  65.191  1.00  0.00    -0.350 C  
BRANCH   6   7
HETATM    7  C   UNL     1     -11.193  14.863  64.740  1.00  0.00    -0.393 C  
BRANCH   7   8
HETATM    8  C   UNL     1     -11.234  13.846  65.884  1.00  0.00    -0.297 C  
HETATM    9  O   UNL     1     -11.960  13.977  66.865  1.00  0.00    -0.407 OA 
BRANCH   8  10
HETATM   10  C   UNL     1     -10.328  12.647  65.693  1.00  0.00    -0.293 C  
BRANCH  10  11
HETATM   11  C   UNL     1     -10.885  11.268  66.078  1.00  0.00    -0.273 C  
BRANCH  11  12
HETATM   12  C   UNL     1      -9.931  10.544  67.065  1.00  0.00    -0.244 C  
HETATM   13  C   UNL     1      -8.480  10.558  66.559  1.00  0.00    -0.139 C  
HETATM   14  O   UNL     1      -8.234   9.569  65.573  1.00  0.00    -0.119 OA 
HETATM   15  C   UNL     1      -7.662  10.256  67.788  1.00  0.00    -0.090 C  
HETATM   16  H   UNL     1      -7.336   9.577  65.260  1.00  0.00     0.000 HD 
HETATM   17  C   UNL     1      -8.333  11.060  68.883  1.00  0.00    -0.123 C  
HETATM   18  O   UNL     1      -8.072  10.419  70.117  1.00  0.00    -0.359 OA 
HETATM   19  C   UNL     1      -9.839  11.167  68.495  1.00  0.00    -0.199 C  
HETATM   20  H   UNL     1      -8.493  10.923  70.804  1.00  0.00     0.000 HD 
BRANCH  19  21
HETATM   21  C   UNL     1     -10.823  10.517  69.487  1.00  0.00    -0.298 C  
BRANCH  21  22
HETATM   22  C   UNL     1     -11.677  11.499  70.250  1.00  0.00    -0.379 C  
HETATM   23  C   UNL     1     -12.779  11.264  70.976  1.00  0.00    -0.457 C  
BRANCH  23  24
HETATM   24  C   UNL     1     -13.469   9.946  71.163  1.00  0.00    -0.308 C  
BRANCH  24  25
HETATM   25  C   UNL     1     -13.062   9.250  72.464  1.00  0.00    -0.416 C  
BRANCH  25  26
HETATM   26  C   UNL     1     -12.020   8.148  72.261  1.00  0.00    -0.434 C  
HETATM   27  C   UNL     1     -12.673   6.827  71.915  1.00  0.00    -0.255 C  
HETATM   28  O   UNL     1     -13.869   6.634  71.807  1.00  0.00    -0.171 OA 
HETATM   29  O   UNL     1     -11.760   5.845  71.722  1.00  0.00    -0.235 OA 
ENDBRANCH  25  26
ENDBRANCH  24  25
ENDBRANCH  23  24
ENDBRANCH  21  22
ENDBRANCH  19  21
ENDBRANCH  11  12
ENDBRANCH  10  11
ENDBRANCH   8  10
ENDBRANCH   7   8
ENDBRANCH   6   7
ENDBRANCH   5   6
ENDBRANCH   4   5
ENDBRANCH   3   4
ENDBRANCH   2   3
TORSDOF 14
ENDMDL
MODEL      211
REMARK 921   NORMALIZED FREE ENERGY PREDICTED BY IDOCK:   -3.82 KCAL/MOL
REMARK 922        TOTAL FREE ENERGY PREDICTED BY IDOCK:   -9.91 KCAL/MOL
REMARK 923 INTER-LIGAND FREE ENERGY PREDICTED BY IDOCK:   -7.09 KCAL/MOL
REMARK 924 INTRA-LIGAND FREE ENERGY PREDICTED BY IDOCK:   -2.82 KCAL/MOL
REMARK 927      BINDING AFFINITY PREDICTED BY RF-SCORE:    0.00 PKD
ROOT
HETATM    1  C   UNL     1      -9.605   4.879  65.978  1.00  0.00    -0.185 C  
HETATM    2  C   UNL     1      -9.466   5.803  67.175  1.00  0.00    -0.121 C  
ENDROOT
BRANCH   2   3
HETATM    3  C   UNL     1      -8.754   5.121  68.345  1.00  0.00    -0.104 C  
BRANCH   3   4
HETATM    4  C   UNL     1      -7.401   5.785  68.599  1.00  0.00    -0.084 C  
BRANCH   4   5
HETATM    5  C   UNL     1      -7.201   7.063  67.783  1.00  0.00    -0.091 C  
BRANCH   5   6
HETATM    6  C   UNL     1      -6.341   8.055  68.575  1.00  0.00    -0.053 C  
BRANCH   6   7
HETATM    7  C   UNL     1      -6.435   7.833  70.078  1.00  0.00    -0.034 C  
BRANCH   7   8
HETATM    8  C   UNL     1      -7.270   8.907  70.778  1.00  0.00    -0.083 C  
HETATM    9  O   UNL     1      -7.205  10.098  70.485  1.00  0.00    -0.284 OA 
BRANCH   8  10
HETATM   10  C   UNL     1      -8.209   8.379  71.844  1.00  0.00    -0.210 C  
BRANCH  10  11
HETATM   11  C   UNL     1      -9.077   7.163  71.487  1.00  0.00    -0.143 C  
BRANCH  11  12
HETATM   12  C   UNL     1     -10.519   7.605  71.118  1.00  0.00    -0.220 C  
HETATM   13  C   UNL     1     -11.376   7.839  72.372  1.00  0.00    -0.346 C  
HETATM   14  O   UNL     1     -11.872   6.633  72.930  1.00  0.00    -0.482 OA 
HETATM   15  C   UNL     1     -12.527   8.674  71.876  1.00  0.00    -0.412 C  
HETATM   16  H   UNL     1     -12.402   6.777  73.705  1.00  0.00     0.000 HD 
HETATM   17  C   UNL     1     -11.883   9.660  70.923  1.00  0.00    -0.323 C  
HETATM   18  O   UNL     1     -12.859  10.057  69.980  1.00  0.00    -0.536 OA 
HETATM   19  C   UNL     1     -10.632   8.948  70.327  1.00  0.00    -0.246 C  
HETATM   20  H   UNL     1     -12.456  10.675  69.382  1.00  0.00     0.000 HD 
BRANCH  19  21
HETATM   21  C   UNL     1     -10.661   8.734  68.801  1.00  0.00    -0.174 C  
BRANCH  21  22
HETATM   22  C   UNL     1      -9.653   9.556  68.038  1.00  0.00    -0.155 C  
HETATM   23  C   UNL     1      -9.808  10.765  67.480  1.00  0.00    -0.197 C  
BRANCH  23  24
HETATM   24  C   UNL     1     -11.064  11.582  67.438  1.00  0.00    -0.339 C  
BRANCH  24  25
HETATM   25  C   UNL     1     -10.947  12.790  66.506  1.00  0.00    -0.291 C  
BRANCH  25  26
HETATM   26  C   UNL     1     -12.168  12.978  65.602  1.00  0.00    -0.521 C  
HETATM   27  C   UNL     1     -11.820  12.741  64.148  1.00  0.00    -0.413 C  
HETATM   28  O   UNL     1     -10.721  12.442  63.721  1.00  0.00    -0.388 OA 
HETATM   29  O   UNL     1     -12.895  12.893  63.337  1.00  0.00    -0.650 OA 
ENDBRANCH  25  26
ENDBRANCH  24  25
ENDBRANCH  23  24
ENDBRANCH  21  22
ENDBRANCH  19  21
ENDBRANCH  11  12
ENDBRANCH  10  11
ENDBRANCH   8  10
ENDBRANCH   7   8
ENDBRANCH   6   7
ENDBRANCH   5   6
ENDBRANCH   4   5
ENDBRANCH   3   4
ENDBRANCH   2   3
TORSDOF 14
ENDMDL
MODEL      212
REMARK 921   NORMALIZED FREE ENERGY PREDICTED BY IDOCK:   -3.80 KCAL/MOL
REMARK 922        TOTAL FREE ENERGY PREDICTED BY IDOCK:   -9.87 KCAL/MOL
REMARK 923 INTER-LIGAND FREE ENERGY PREDICTED BY IDOCK:   -8.38 KCAL/MOL
REMARK 924 INTRA-LIGAND FREE ENERGY PREDICTED BY IDOCK:   -1.50 KCAL/MOL
REMARK 927      BINDING AFFINITY PREDICTED BY RF-SCORE:    0.00 PKD
ROOT
HETATM    1  C   UNL     1      -9.544   6.561  71.413  1.00  0.00    -0.174 C  
HETATM    2  C   UNL     1      -8.824   7.821  70.968  1.00  0.00    -0.145 C  
ENDROOT
BRANCH   2   3
HETATM    3  C   UNL     1      -9.459   8.432  69.717  1.00  0.00    -0.162 C  
BRANCH   3   4
HETATM    4  C   UNL     1     -10.448   9.528  70.110  1.00  0.00    -0.299 C  
BRANCH   4   5
HETATM    5  C   UNL     1     -10.821  10.442  68.941  1.00  0.00    -0.273 C  
BRANCH   5   6
HETATM    6  C   UNL     1     -10.010  10.055  67.699  1.00  0.00    -0.214 C  
BRANCH   6   7
HETATM    7  C   UNL     1      -8.916  11.065  67.384  1.00  0.00    -0.141 C  
BRANCH   7   8
HETATM    8  C   UNL     1      -9.446  12.291  66.638  1.00  0.00    -0.226 C  
HETATM    9  O   UNL     1     -10.251  12.212  65.713  1.00  0.00    -0.240 OA 
BRANCH   8  10
HETATM   10  C   UNL     1      -8.923  13.617  67.152  1.00  0.00    -0.235 C  
BRANCH  10  11
HETATM   11  C   UNL     1      -9.627  14.894  66.669  1.00  0.00    -0.284 C  
BRANCH  11  12
HETATM   12  C   UNL     1     -10.697  15.355  67.695  1.00  0.00    -0.292 C  
HETATM   13  C   UNL     1     -11.498  14.165  68.248  1.00  0.00    -0.304 C  
HETATM   14  O   UNL     1     -12.515  13.730  67.360  1.00  0.00    -0.411 OA 
HETATM   15  C   UNL     1     -12.126  14.702  69.507  1.00  0.00    -0.335 C  
HETATM   16  H   UNL     1     -13.011  12.995  67.702  1.00  0.00     0.000 HD 
HETATM   17  C   UNL     1     -11.028  15.532  70.141  1.00  0.00    -0.321 C  
HETATM   18  O   UNL     1     -11.640  16.528  70.939  1.00  0.00    -0.585 OA 
HETATM   19  C   UNL     1     -10.145  16.065  68.973  1.00  0.00    -0.239 C  
HETATM   20  H   UNL     1     -10.952  17.049  71.336  1.00  0.00     0.000 HD 
BRANCH  19  21
HETATM   21  C   UNL     1     -10.104  17.599  68.825  1.00  0.00    -0.377 C  
BRANCH  21  22
HETATM   22  C   UNL     1     -10.607  18.110  67.498  1.00  0.00    -0.419 C  
HETATM   23  C   UNL     1     -10.355  19.285  66.903  1.00  0.00    -0.524 C  
BRANCH  23  24
HETATM   24  C   UNL     1      -9.538  20.414  67.452  1.00  0.00    -0.584 C  
BRANCH  24  25
HETATM   25  C   UNL     1      -8.036  20.123  67.416  1.00  0.00    -0.357 C  
BRANCH  25  26
HETATM   26  C   UNL     1      -7.448  20.144  66.003  1.00  0.00    -0.300 C  
HETATM   27  C   UNL     1      -6.752  18.842  65.674  1.00  0.00    -0.275 C  
HETATM   28  O   UNL     1      -6.652  17.884  66.417  1.00  0.00    -0.188 OA 
HETATM   29  O   UNL     1      -6.237  18.844  64.421  1.00  0.00    -0.475 OA 
ENDBRANCH  25  26
ENDBRANCH  24  25
ENDBRANCH  23  24
ENDBRANCH  21  22
ENDBRANCH  19  21
ENDBRANCH  11  12
ENDBRANCH  10  11
ENDBRANCH   8  10
ENDBRANCH   7   8
ENDBRANCH   6   7
ENDBRANCH   5   6
ENDBRANCH   4   5
ENDBRANCH   3   4
ENDBRANCH   2   3
TORSDOF 14
ENDMDL
MODEL      213
REMARK 921   NORMALIZED FREE ENERGY PREDICTED BY IDOCK:   -3.80 KCAL/MOL
REMARK 922        TOTAL FREE ENERGY PREDICTED BY IDOCK:   -9.87 KCAL/MOL
REMARK 923 INTER-LIGAND FREE ENERGY PREDICTED BY IDOCK:   -7.51 KCAL/MOL
REMARK 924 INTRA-LIGAND FREE ENERGY PREDICTED BY IDOCK:   -2.35 KCAL/MOL
REMARK 927      BINDING AFFINITY PREDICTED BY RF-SCORE:    0.00 PKD
ROOT
HETATM    1  C   UNL     1     -11.322   8.871  71.574  1.00  0.00    -0.395 C  
HETATM    2  C   UNL     1      -9.909   8.702  72.102  1.00  0.00    -0.387 C  
ENDROOT
BRANCH   2   3
HETATM    3  C   UNL     1      -9.586   7.240  72.417  1.00  0.00    -0.180 C  
BRANCH   3   4
HETATM    4  C   UNL     1      -8.439   6.752  71.533  1.00  0.00    -0.119 C  
BRANCH   4   5
HETATM    5  C   UNL     1      -8.500   5.249  71.252  1.00  0.00    -0.124 C  
BRANCH   5   6
HETATM    6  C   UNL     1      -9.693   4.940  70.340  1.00  0.00    -0.284 C  
BRANCH   6   7
HETATM    7  C   UNL     1      -9.539   5.556  68.956  1.00  0.00    -0.180 C  
BRANCH   7   8
HETATM    8  C   UNL     1     -10.661   6.543  68.626  1.00  0.00    -0.271 C  
HETATM    9  O   UNL     1     -11.777   6.477  69.134  1.00  0.00    -0.193 OA 
BRANCH   8  10
HETATM   10  C   UNL     1     -10.275   7.630  67.643  1.00  0.00    -0.277 C  
BRANCH  10  11
HETATM   11  C   UNL     1      -9.572   8.876  68.202  1.00  0.00    -0.161 C  
BRANCH  11  12
HETATM   12  C   UNL     1      -9.011   9.755  67.053  1.00  0.00    -0.152 C  
HETATM   13  C   UNL     1      -7.878   9.040  66.299  1.00  0.00    -0.099 C  
HETATM   14  O   UNL     1      -6.636   9.111  66.979  1.00  0.00    -0.063 OA 
HETATM   15  C   UNL     1      -7.780   9.788  64.994  1.00  0.00    -0.126 C  
HETATM   16  H   UNL     1      -5.935   8.670  66.513  1.00  0.00     0.000 HD 
HETATM   17  C   UNL     1      -9.222  10.037  64.603  1.00  0.00    -0.258 C  
HETATM   18  O   UNL     1      -9.260  11.192  63.788  1.00  0.00    -0.303 OA 
HETATM   19  C   UNL     1     -10.031  10.132  65.931  1.00  0.00    -0.334 C  
HETATM   20  H   UNL     1     -10.164  11.348  63.542  1.00  0.00     0.000 HD 
BRANCH  19  21
HETATM   21  C   UNL     1     -10.717  11.489  66.189  1.00  0.00    -0.324 C  
BRANCH  21  22
HETATM   22  C   UNL     1      -9.892  12.459  66.998  1.00  0.00    -0.214 C  
HETATM   23  C   UNL     1     -10.288  13.275  67.985  1.00  0.00    -0.243 C  
BRANCH  23  24
HETATM   24  C   UNL     1     -11.686  13.458  68.494  1.00  0.00    -0.392 C  
BRANCH  24  25
HETATM   25  C   UNL     1     -11.905  12.794  69.855  1.00  0.00    -0.371 C  
BRANCH  25  26
HETATM   26  C   UNL     1     -12.612  13.702  70.865  1.00  0.00    -0.421 C  
HETATM   27  C   UNL     1     -13.347  12.896  71.914  1.00  0.00    -0.435 C  
HETATM   28  O   UNL     1     -13.391  11.682  71.973  1.00  0.00    -0.481 OA 
HETATM   29  O   UNL     1     -13.968  13.688  72.821  1.00  0.00    -0.725 OA 
ENDBRANCH  25  26
ENDBRANCH  24  25
ENDBRANCH  23  24
ENDBRANCH  21  22
ENDBRANCH  19  21
ENDBRANCH  11  12
ENDBRANCH  10  11
ENDBRANCH   8  10
ENDBRANCH   7   8
ENDBRANCH   6   7
ENDBRANCH   5   6
ENDBRANCH   4   5
ENDBRANCH   3   4
ENDBRANCH   2   3
TORSDOF 14
ENDMDL
MODEL      214
REMARK 921   NORMALIZED FREE ENERGY PREDICTED BY IDOCK:   -3.80 KCAL/MOL
REMARK 922        TOTAL FREE ENERGY PREDICTED BY IDOCK:   -9.86 KCAL/MOL
REMARK 923 INTER-LIGAND FREE ENERGY PREDICTED BY IDOCK:   -8.47 KCAL/MOL
REMARK 924 INTRA-LIGAND FREE ENERGY PREDICTED BY IDOCK:   -1.39 KCAL/MOL
REMARK 927      BINDING AFFINITY PREDICTED BY RF-SCORE:    0.00 PKD
ROOT
HETATM    1  C   UNL     1      -7.749   3.819  63.560  1.00  0.00    -0.071 C  
HETATM    2  C   UNL     1      -7.873   3.852  65.073  1.00  0.00    -0.086 C  
ENDROOT
BRANCH   2   3
HETATM    3  C   UNL     1      -9.267   4.293  65.524  1.00  0.00    -0.150 C  
BRANCH   3   4
HETATM    4  C   UNL     1      -9.173   5.583  66.339  1.00  0.00    -0.155 C  
BRANCH   4   5
HETATM    5  C   UNL     1     -10.282   5.709  67.385  1.00  0.00    -0.249 C  
BRANCH   5   6
HETATM    6  C   UNL     1     -10.988   7.062  67.232  1.00  0.00    -0.372 C  
BRANCH   6   7
HETATM    7  C   UNL     1     -10.164   8.212  67.791  1.00  0.00    -0.288 C  
BRANCH   7   8
HETATM    8  C   UNL     1      -9.897   9.302  66.750  1.00  0.00    -0.225 C  
HETATM    9  O   UNL     1      -9.233   9.106  65.735  1.00  0.00    -0.201 OA 
BRANCH   8  10
HETATM   10  C   UNL     1     -10.543  10.638  67.056  1.00  0.00    -0.317 C  
BRANCH  10  11
HETATM   11  C   UNL     1     -10.328  11.226  68.459  1.00  0.00    -0.217 C  
BRANCH  11  12
HETATM   12  C   UNL     1     -11.661  11.768  69.040  1.00  0.00    -0.372 C  
HETATM   13  C   UNL     1     -12.042  11.048  70.344  1.00  0.00    -0.373 C  
HETATM   14  O   UNL     1     -12.639   9.782  70.116  1.00  0.00    -0.490 OA 
HETATM   15  C   UNL     1     -13.045  11.968  70.989  1.00  0.00    -0.022 C  
HETATM   16  H   UNL     1     -12.874   9.336  70.922  1.00  0.00     0.000 HD 
HETATM   17  C   UNL     1     -12.477  13.353  70.757  1.00  0.00    -0.341 C  
HETATM   18  O   UNL     1     -13.553  14.271  70.756  1.00  0.00    -0.357 OA 
HETATM   19  C   UNL     1     -11.661  13.281  69.431  1.00  0.00    -0.383 C  
HETATM   20  H   UNL     1     -13.197  15.140  70.610  1.00  0.00     0.000 HD 
BRANCH  19  21
HETATM   21  C   UNL     1     -12.174  14.185  68.292  1.00  0.00    -0.196 C  
BRANCH  21  22
HETATM   22  C   UNL     1     -11.772  15.633  68.418  1.00  0.00    -0.301 C  
HETATM   23  C   UNL     1     -10.616  16.215  68.070  1.00  0.00    -0.304 C  
BRANCH  23  24
HETATM   24  C   UNL     1      -9.402  15.538  67.509  1.00  0.00    -0.207 C  
BRANCH  24  25
HETATM   25  C   UNL     1      -9.205  15.827  66.019  1.00  0.00    -0.379 C  
BRANCH  25  26
HETATM   26  C   UNL     1     -10.346  15.303  65.144  1.00  0.00    -0.413 C  
HETATM   27  C   UNL     1     -11.193  16.435  64.604  1.00  0.00    -0.192 C  
HETATM   28  O   UNL     1     -11.017  17.618  64.821  1.00  0.00    -0.917 OA 
HETATM   29  O   UNL     1     -12.201  15.984  63.819  1.00  0.00    -0.895 OA 
ENDBRANCH  25  26
ENDBRANCH  24  25
ENDBRANCH  23  24
ENDBRANCH  21  22
ENDBRANCH  19  21
ENDBRANCH  11  12
ENDBRANCH  10  11
ENDBRANCH   8  10
ENDBRANCH   7   8
ENDBRANCH   6   7
ENDBRANCH   5   6
ENDBRANCH   4   5
ENDBRANCH   3   4
ENDBRANCH   2   3
TORSDOF 14
ENDMDL
MODEL      215
REMARK 921   NORMALIZED FREE ENERGY PREDICTED BY IDOCK:   -3.79 KCAL/MOL
REMARK 922        TOTAL FREE ENERGY PREDICTED BY IDOCK:   -9.85 KCAL/MOL
REMARK 923 INTER-LIGAND FREE ENERGY PREDICTED BY IDOCK:   -7.73 KCAL/MOL
REMARK 924 INTRA-LIGAND FREE ENERGY PREDICTED BY IDOCK:   -2.13 KCAL/MOL
REMARK 927      BINDING AFFINITY PREDICTED BY RF-SCORE:    0.00 PKD
ROOT
HETATM    1  C   UNL     1      -5.819   7.169  63.465  1.00  0.00    -0.040 C  
HETATM    2  C   UNL     1      -6.940   7.590  64.397  1.00  0.00    -0.056 C  
ENDROOT
BRANCH   2   3
HETATM    3  C   UNL     1      -6.601   7.313  65.863  1.00  0.00    -0.052 C  
BRANCH   3   4
HETATM    4  C   UNL     1      -5.249   7.931  66.217  1.00  0.00    -0.025 C  
BRANCH   4   5
HETATM    5  C   UNL     1      -5.357   9.051  67.253  1.00  0.00    -0.037 C  
BRANCH   5   6
HETATM    6  C   UNL     1      -6.654   8.893  68.055  1.00  0.00    -0.061 C  
BRANCH   6   7
HETATM    7  C   UNL     1      -7.356  10.223  68.291  1.00  0.00    -0.085 C  
BRANCH   7   8
HETATM    8  C   UNL     1      -8.878  10.079  68.358  1.00  0.00    -0.117 C  
HETATM    9  O   UNL     1      -9.435   9.029  68.668  1.00  0.00    -0.145 OA 
BRANCH   8  10
HETATM   10  C   UNL     1      -9.645  11.347  68.041  1.00  0.00    -0.184 C  
BRANCH  10  11
HETATM   11  C   UNL     1     -10.929  11.211  67.209  1.00  0.00    -0.354 C  
BRANCH  11  12
HETATM   12  C   UNL     1     -10.853  12.087  65.930  1.00  0.00    -0.329 C  
HETATM   13  C   UNL     1     -10.417  11.264  64.708  1.00  0.00    -0.323 C  
HETATM   14  O   UNL     1      -9.016  11.050  64.662  1.00  0.00    -0.304 OA 
HETATM   15  C   UNL     1     -10.835  12.108  63.532  1.00  0.00    -0.518 C  
HETATM   16  H   UNL     1      -8.746  10.541  63.906  1.00  0.00     0.000 HD 
HETATM   17  C   UNL     1     -12.197  12.642  63.927  1.00  0.00    -0.481 C  
HETATM   18  O   UNL     1     -12.403  13.861  63.240  1.00  0.00    -1.115 OA 
HETATM   19  C   UNL     1     -12.197  12.746  65.482  1.00  0.00    -0.519 C  
HETATM   20  H   UNL     1     -13.257  14.196  63.488  1.00  0.00     0.000 HD 
BRANCH  19  21
HETATM   21  C   UNL     1     -12.374  14.169  66.047  1.00  0.00    -0.470 C  
BRANCH  21  22
HETATM   22  C   UNL     1     -11.082  14.910  66.286  1.00  0.00    -0.340 C  
HETATM   23  C   UNL     1     -10.676  15.551  67.391  1.00  0.00    -0.301 C  
BRANCH  23  24
HETATM   24  C   UNL     1     -11.450  15.733  68.661  1.00  0.00    -0.389 C  
BRANCH  24  25
HETATM   25  C   UNL     1     -11.002  14.770  69.763  1.00  0.00    -0.261 C  
BRANCH  25  26
HETATM   26  C   UNL     1     -12.048  13.702  70.096  1.00  0.00    -0.431 C  
HETATM   27  C   UNL     1     -12.964  14.155  71.212  1.00  0.00    -0.356 C  
HETATM   28  O   UNL     1     -12.902  15.222  71.792  1.00  0.00    -0.326 OA 
HETATM   29  O   UNL     1     -13.901  13.223  71.509  1.00  0.00    -0.104 OA 
ENDBRANCH  25  26
ENDBRANCH  24  25
ENDBRANCH  23  24
ENDBRANCH  21  22
ENDBRANCH  19  21
ENDBRANCH  11  12
ENDBRANCH  10  11
ENDBRANCH   8  10
ENDBRANCH   7   8
ENDBRANCH   6   7
ENDBRANCH   5   6
ENDBRANCH   4   5
ENDBRANCH   3   4
ENDBRANCH   2   3
TORSDOF 14
ENDMDL
MODEL      216
REMARK 921   NORMALIZED FREE ENERGY PREDICTED BY IDOCK:   -3.79 KCAL/MOL
REMARK 922        TOTAL FREE ENERGY PREDICTED BY IDOCK:   -9.84 KCAL/MOL
REMARK 923 INTER-LIGAND FREE ENERGY PREDICTED BY IDOCK:   -7.93 KCAL/MOL
REMARK 924 INTRA-LIGAND FREE ENERGY PREDICTED BY IDOCK:   -1.91 KCAL/MOL
REMARK 927      BINDING AFFINITY PREDICTED BY RF-SCORE:    0.00 PKD
ROOT
HETATM    1  C   UNL     1     -10.544  19.515  67.276  1.00  0.00    -0.610 C  
HETATM    2  C   UNL     1      -9.939  18.774  68.455  1.00  0.00    -0.441 C  
ENDROOT
BRANCH   2   3
HETATM    3  C   UNL     1     -10.380  17.309  68.498  1.00  0.00    -0.371 C  
BRANCH   3   4
HETATM    4  C   UNL     1     -10.270  16.685  67.107  1.00  0.00    -0.290 C  
BRANCH   4   5
HETATM    5  C   UNL     1      -9.620  15.300  67.124  1.00  0.00    -0.223 C  
BRANCH   5   6
HETATM    6  C   UNL     1     -10.698  14.222  67.289  1.00  0.00    -0.277 C  
BRANCH   6   7
HETATM    7  C   UNL     1     -10.155  12.953  67.929  1.00  0.00    -0.232 C  
BRANCH   7   8
HETATM    8  C   UNL     1     -10.561  11.690  67.165  1.00  0.00    -0.232 C  
HETATM    9  O   UNL     1     -11.376  11.700  66.247  1.00  0.00    -0.314 OA 
BRANCH   8  10
HETATM   10  C   UNL     1      -9.851  10.428  67.612  1.00  0.00    -0.197 C  
BRANCH  10  11
HETATM   11  C   UNL     1     -10.648   9.116  67.578  1.00  0.00    -0.317 C  
BRANCH  11  12
HETATM   12  C   UNL     1      -9.718   7.899  67.833  1.00  0.00    -0.184 C  
HETATM   13  C   UNL     1      -8.817   7.614  66.621  1.00  0.00    -0.142 C  
HETATM   14  O   UNL     1      -9.489   6.904  65.594  1.00  0.00    -0.373 OA 
HETATM   15  C   UNL     1      -7.711   6.760  67.182  1.00  0.00    -0.104 C  
HETATM   16  H   UNL     1      -8.932   6.727  64.844  1.00  0.00     0.000 HD 
HETATM   17  C   UNL     1      -7.393   7.399  68.518  1.00  0.00    -0.100 C  
HETATM   18  O   UNL     1      -6.855   6.400  69.363  1.00  0.00    -0.060 OA 
HETATM   19  C   UNL     1      -8.715   8.054  69.021  1.00  0.00    -0.137 C  
HETATM   20  H   UNL     1      -6.656   6.800  70.201  1.00  0.00     0.000 HD 
BRANCH  19  21
HETATM   21  C   UNL     1      -9.271   7.486  70.342  1.00  0.00    -0.157 C  
BRANCH  21  22
HETATM   22  C   UNL     1      -9.463   8.513  71.430  1.00  0.00    -0.279 C  
HETATM   23  C   UNL     1     -10.607   8.994  71.935  1.00  0.00    -0.388 C  
BRANCH  23  24
HETATM   24  C   UNL     1     -11.999   8.656  71.491  1.00  0.00    -0.362 C  
BRANCH  24  25
HETATM   25  C   UNL     1     -12.911   9.884  71.435  1.00  0.00    -0.505 C  
BRANCH  25  26
HETATM   26  C   UNL     1     -12.286  11.069  70.694  1.00  0.00    -0.480 C  
HETATM   27  C   UNL     1     -12.723  12.388  71.294  1.00  0.00    -0.248 C  
HETATM   28  O   UNL     1     -13.473  12.522  72.242  1.00  0.00    -0.556 OA 
HETATM   29  O   UNL     1     -12.168  13.445  70.654  1.00  0.00    -0.356 OA 
ENDBRANCH  25  26
ENDBRANCH  24  25
ENDBRANCH  23  24
ENDBRANCH  21  22
ENDBRANCH  19  21
ENDBRANCH  11  12
ENDBRANCH  10  11
ENDBRANCH   8  10
ENDBRANCH   7   8
ENDBRANCH   6   7
ENDBRANCH   5   6
ENDBRANCH   4   5
ENDBRANCH   3   4
ENDBRANCH   2   3
TORSDOF 14
ENDMDL
MODEL      217
REMARK 921   NORMALIZED FREE ENERGY PREDICTED BY IDOCK:   -3.78 KCAL/MOL
REMARK 922        TOTAL FREE ENERGY PREDICTED BY IDOCK:   -9.82 KCAL/MOL
REMARK 923 INTER-LIGAND FREE ENERGY PREDICTED BY IDOCK:   -7.35 KCAL/MOL
REMARK 924 INTRA-LIGAND FREE ENERGY PREDICTED BY IDOCK:   -2.47 KCAL/MOL
REMARK 927      BINDING AFFINITY PREDICTED BY RF-SCORE:    0.00 PKD
ROOT
HETATM    1  C   UNL     1     -13.254  12.042  71.961  1.00  0.00    -0.481 C  
HETATM    2  C   UNL     1     -13.523  13.470  72.399  1.00  0.00    -0.685 C  
ENDROOT
BRANCH   2   3
HETATM    3  C   UNL     1     -13.985  14.349  71.235  1.00  0.00    -0.307 C  
BRANCH   3   4
HETATM    4  C   UNL     1     -13.087  15.579  71.114  1.00  0.00    -0.573 C  
BRANCH   4   5
HETATM    5  C   UNL     1     -11.680  15.243  70.616  1.00  0.00    -0.371 C  
BRANCH   5   6
HETATM    6  C   UNL     1     -11.685  15.121  69.087  1.00  0.00    -0.349 C  
BRANCH   6   7
HETATM    7  C   UNL     1     -10.543  15.891  68.440  1.00  0.00    -0.266 C  
BRANCH   7   8
HETATM    8  C   UNL     1      -9.781  15.055  67.410  1.00  0.00    -0.216 C  
HETATM    9  O   UNL     1      -8.995  15.545  66.604  1.00  0.00    -0.239 OA 
BRANCH   8  10
HETATM   10  C   UNL     1     -10.050  13.565  67.484  1.00  0.00    -0.234 C  
BRANCH  10  11
HETATM   11  C   UNL     1      -9.004  12.689  68.189  1.00  0.00    -0.199 C  
BRANCH  11  12
HETATM   12  C   UNL     1      -7.920  12.210  67.186  1.00  0.00    -0.170 C  
HETATM   13  C   UNL     1      -6.539  12.790  67.529  1.00  0.00    -0.158 C  
HETATM   14  O   UNL     1      -6.380  14.128  67.085  1.00  0.00    -0.373 OA 
HETATM   15  C   UNL     1      -5.575  11.898  66.792  1.00  0.00    -0.059 C  
HETATM   16  H   UNL     1      -5.526  14.486  67.297  1.00  0.00     0.000 HD 
HETATM   17  C   UNL     1      -6.137  10.505  66.990  1.00  0.00    -0.058 C  
HETATM   18  O   UNL     1      -5.714   9.705  65.902  1.00  0.00    -0.047 OA 
HETATM   19  C   UNL     1      -7.680  10.667  67.137  1.00  0.00    -0.110 C  
HETATM   20  H   UNL     1      -6.067   8.832  66.026  1.00  0.00     0.000 HD 
BRANCH  19  21
HETATM   21  C   UNL     1      -8.522   9.973  66.048  1.00  0.00    -0.137 C  
BRANCH  21  22
HETATM   22  C   UNL     1     -10.002  10.252  66.133  1.00  0.00    -0.300 C  
HETATM   23  C   UNL     1     -10.887   9.811  67.038  1.00  0.00    -0.165 C  
BRANCH  23  24
HETATM   24  C   UNL     1     -10.619   8.872  68.175  1.00  0.00    -0.211 C  
BRANCH  24  25
HETATM   25  C   UNL     1     -10.722   9.558  69.539  1.00  0.00    -0.246 C  
BRANCH  25  26
HETATM   26  C   UNL     1      -9.472   9.379  70.404  1.00  0.00    -0.319 C  
HETATM   27  C   UNL     1      -9.830   8.948  71.810  1.00  0.00    -0.315 C  
HETATM   28  O   UNL     1     -10.956   8.762  72.230  1.00  0.00    -0.359 OA 
HETATM   29  O   UNL     1      -8.730   8.775  72.583  1.00  0.00    -0.408 OA 
ENDBRANCH  25  26
ENDBRANCH  24  25
ENDBRANCH  23  24
ENDBRANCH  21  22
ENDBRANCH  19  21
ENDBRANCH  11  12
ENDBRANCH  10  11
ENDBRANCH   8  10
ENDBRANCH   7   8
ENDBRANCH   6   7
ENDBRANCH   5   6
ENDBRANCH   4   5
ENDBRANCH   3   4
ENDBRANCH   2   3
TORSDOF 14
ENDMDL
MODEL      218
REMARK 921   NORMALIZED FREE ENERGY PREDICTED BY IDOCK:   -3.77 KCAL/MOL
REMARK 922        TOTAL FREE ENERGY PREDICTED BY IDOCK:   -9.81 KCAL/MOL
REMARK 923 INTER-LIGAND FREE ENERGY PREDICTED BY IDOCK:   -8.25 KCAL/MOL
REMARK 924 INTRA-LIGAND FREE ENERGY PREDICTED BY IDOCK:   -1.56 KCAL/MOL
REMARK 927      BINDING AFFINITY PREDICTED BY RF-SCORE:    0.00 PKD
ROOT
HETATM    1  C   UNL     1     -10.161   7.955  72.395  1.00  0.00    -0.310 C  
HETATM    2  C   UNL     1     -11.496   7.240  72.290  1.00  0.00    -0.316 C  
ENDROOT
BRANCH   2   3
HETATM    3  C   UNL     1     -11.855   6.907  70.841  1.00  0.00    -0.424 C  
BRANCH   3   4
HETATM    4  C   UNL     1     -10.887   5.864  70.283  1.00  0.00    -0.391 C  
BRANCH   4   5
HETATM    5  C   UNL     1     -10.847   5.843  68.754  1.00  0.00    -0.353 C  
BRANCH   5   6
HETATM    6  C   UNL     1      -9.617   5.061  68.278  1.00  0.00    -0.187 C  
BRANCH   6   7
HETATM    7  C   UNL     1      -9.078   5.580  66.953  1.00  0.00    -0.115 C  
BRANCH   7   8
HETATM    8  C   UNL     1      -8.525   7.003  67.062  1.00  0.00    -0.121 C  
HETATM    9  O   UNL     1      -7.526   7.281  67.721  1.00  0.00    -0.096 OA 
BRANCH   8  10
HETATM   10  C   UNL     1      -9.290   8.039  66.264  1.00  0.00    -0.246 C  
BRANCH  10  11
HETATM   11  C   UNL     1     -10.532   8.664  66.919  1.00  0.00    -0.329 C  
BRANCH  11  12
HETATM   12  C   UNL     1     -10.291  10.163  67.240  1.00  0.00    -0.291 C  
HETATM   13  C   UNL     1      -9.350  10.338  68.443  1.00  0.00    -0.143 C  
HETATM   14  O   UNL     1     -10.010  10.163  69.685  1.00  0.00    -0.223 OA 
HETATM   15  C   UNL     1      -8.869  11.761  68.325  1.00  0.00    -0.172 C  
HETATM   16  H   UNL     1      -9.429  10.272  70.429  1.00  0.00     0.000 HD 
HETATM   17  C   UNL     1      -8.619  11.944  66.842  1.00  0.00    -0.185 C  
HETATM   18  O   UNL     1      -8.761  13.319  66.542  1.00  0.00    -0.431 OA 
HETATM   19  C   UNL     1      -9.612  10.996  66.105  1.00  0.00    -0.240 C  
HETATM   20  H   UNL     1      -8.605  13.434  65.612  1.00  0.00     0.000 HD 
BRANCH  19  21
HETATM   21  C   UNL     1     -10.638  11.697  65.192  1.00  0.00    -0.343 C  
BRANCH  21  22
HETATM   22  C   UNL     1     -11.758  12.386  65.930  1.00  0.00    -0.476 C  
HETATM   23  C   UNL     1     -12.394  13.524  65.615  1.00  0.00    -0.522 C  
BRANCH  23  24
HETATM   24  C   UNL     1     -12.099  14.427  64.455  1.00  0.00    -0.498 C  
BRANCH  24  25
HETATM   25  C   UNL     1     -11.014  15.458  64.775  1.00  0.00    -0.411 C  
BRANCH  25  26
HETATM   26  C   UNL     1     -10.901  15.775  66.268  1.00  0.00    -0.232 C  
HETATM   27  C   UNL     1     -10.401  17.184  66.498  1.00  0.00    -0.306 C  
HETATM   28  O   UNL     1     -10.115  17.986  65.629  1.00  0.00    -0.551 OA 
HETATM   29  O   UNL     1     -10.307  17.482  67.816  1.00  0.00    -0.335 OA 
ENDBRANCH  25  26
ENDBRANCH  24  25
ENDBRANCH  23  24
ENDBRANCH  21  22
ENDBRANCH  19  21
ENDBRANCH  11  12
ENDBRANCH  10  11
ENDBRANCH   8  10
ENDBRANCH   7   8
ENDBRANCH   6   7
ENDBRANCH   5   6
ENDBRANCH   4   5
ENDBRANCH   3   4
ENDBRANCH   2   3
TORSDOF 14
ENDMDL
MODEL      219
REMARK 921   NORMALIZED FREE ENERGY PREDICTED BY IDOCK:   -3.74 KCAL/MOL
REMARK 922        TOTAL FREE ENERGY PREDICTED BY IDOCK:   -9.76 KCAL/MOL
REMARK 923 INTER-LIGAND FREE ENERGY PREDICTED BY IDOCK:   -7.82 KCAL/MOL
REMARK 924 INTRA-LIGAND FREE ENERGY PREDICTED BY IDOCK:   -1.94 KCAL/MOL
REMARK 927      BINDING AFFINITY PREDICTED BY RF-SCORE:    0.00 PKD
ROOT
HETATM    1  C   UNL     1      -7.529   6.369  69.268  1.00  0.00    -0.094 C  
HETATM    2  C   UNL     1      -8.305   6.874  68.065  1.00  0.00    -0.121 C  
ENDROOT
BRANCH   2   3
HETATM    3  C   UNL     1      -7.912   8.304  67.689  1.00  0.00    -0.118 C  
BRANCH   3   4
HETATM    4  C   UNL     1      -8.281   8.587  66.233  1.00  0.00    -0.109 C  
BRANCH   4   5
HETATM    5  C   UNL     1      -9.727   9.055  66.064  1.00  0.00    -0.339 C  
BRANCH   5   6
HETATM    6  C   UNL     1      -9.825  10.021  64.877  1.00  0.00    -0.352 C  
BRANCH   6   7
HETATM    7  C   UNL     1     -10.044  11.461  65.318  1.00  0.00    -0.315 C  
BRANCH   7   8
HETATM    8  C   UNL     1     -11.172  12.147  64.544  1.00  0.00    -0.331 C  
HETATM    9  O   UNL     1     -11.232  12.150  63.317  1.00  0.00    -0.402 OA 
BRANCH   8  10
HETATM   10  C   UNL     1     -12.229  12.796  65.414  1.00  0.00    -0.532 C  
BRANCH  10  11
HETATM   11  C   UNL     1     -12.247  14.330  65.483  1.00  0.00    -0.408 C  
BRANCH  11  12
HETATM   12  C   UNL     1     -11.362  14.840  66.651  1.00  0.00    -0.347 C  
HETATM   13  C   UNL     1     -11.446  13.908  67.871  1.00  0.00    -0.318 C  
HETATM   14  O   UNL     1     -12.615  14.121  68.645  1.00  0.00    -0.462 OA 
HETATM   15  C   UNL     1     -10.231  14.265  68.687  1.00  0.00    -0.246 C  
HETATM   16  H   UNL     1     -12.666  13.545  69.398  1.00  0.00     0.000 HD 
HETATM   17  C   UNL     1      -9.135  14.446  67.656  1.00  0.00    -0.194 C  
HETATM   18  O   UNL     1      -8.173  15.334  68.193  1.00  0.00    -0.136 OA 
HETATM   19  C   UNL     1      -9.831  14.930  66.349  1.00  0.00    -0.292 C  
HETATM   20  H   UNL     1      -7.486  15.448  67.547  1.00  0.00     0.000 HD 
BRANCH  19  21
HETATM   21  C   UNL     1      -9.408  16.328  65.855  1.00  0.00    -0.299 C  
BRANCH  21  22
HETATM   22  C   UNL     1     -10.400  17.422  66.161  1.00  0.00    -0.329 C  
HETATM   23  C   UNL     1     -10.397  18.296  67.178  1.00  0.00    -0.402 C  
BRANCH  23  24
HETATM   24  C   UNL     1      -9.413  18.359  68.306  1.00  0.00    -0.342 C  
BRANCH  24  25
HETATM   25  C   UNL     1      -8.048  18.893  67.865  1.00  0.00    -0.300 C  
BRANCH  25  26
HETATM   26  C   UNL     1      -7.235  19.499  69.011  1.00  0.00    -0.397 C  
HETATM   27  C   UNL     1      -6.328  18.471  69.650  1.00  0.00    -0.203 C  
HETATM   28  O   UNL     1      -6.236  17.304  69.320  1.00  0.00    -0.210 OA 
HETATM   29  O   UNL     1      -5.595  18.998  70.660  1.00  0.00    -0.223 OA 
ENDBRANCH  25  26
ENDBRANCH  24  25
ENDBRANCH  23  24
ENDBRANCH  21  22
ENDBRANCH  19  21
ENDBRANCH  11  12
ENDBRANCH  10  11
ENDBRANCH   8  10
ENDBRANCH   7   8
ENDBRANCH   6   7
ENDBRANCH   5   6
ENDBRANCH   4   5
ENDBRANCH   3   4
ENDBRANCH   2   3
TORSDOF 14
ENDMDL
MODEL      220
REMARK 921   NORMALIZED FREE ENERGY PREDICTED BY IDOCK:   -3.73 KCAL/MOL
REMARK 922        TOTAL FREE ENERGY PREDICTED BY IDOCK:   -9.75 KCAL/MOL
REMARK 923 INTER-LIGAND FREE ENERGY PREDICTED BY IDOCK:   -8.05 KCAL/MOL
REMARK 924 INTRA-LIGAND FREE ENERGY PREDICTED BY IDOCK:   -1.69 KCAL/MOL
REMARK 927      BINDING AFFINITY PREDICTED BY RF-SCORE:    0.00 PKD
ROOT
HETATM    1  C   UNL     1     -10.668  19.814  65.710  1.00  0.00    -0.474 C  
HETATM    2  C   UNL     1      -9.582  20.045  66.745  1.00  0.00    -0.543 C  
ENDROOT
BRANCH   2   3
HETATM    3  C   UNL     1      -9.939  19.426  68.098  1.00  0.00    -0.510 C  
BRANCH   3   4
HETATM    4  C   UNL     1      -9.245  18.074  68.260  1.00  0.00    -0.298 C  
BRANCH   4   5
HETATM    5  C   UNL     1      -7.720  18.186  68.289  1.00  0.00    -0.291 C  
BRANCH   5   6
HETATM    6  C   UNL     1      -7.144  17.171  69.283  1.00  0.00    -0.162 C  
BRANCH   6   7
HETATM    7  C   UNL     1      -6.216  16.167  68.614  1.00  0.00    -0.117 C  
BRANCH   7   8
HETATM    8  C   UNL     1      -6.942  15.285  67.595  1.00  0.00    -0.185 C  
HETATM    9  O   UNL     1      -7.261  15.683  66.478  1.00  0.00    -0.061 OA 
BRANCH   8  10
HETATM   10  C   UNL     1      -7.208  13.869  68.065  1.00  0.00    -0.141 C  
BRANCH  10  11
HETATM   11  C   UNL     1      -8.248  13.048  67.287  1.00  0.00    -0.174 C  
BRANCH  11  12
HETATM   12  C   UNL     1      -9.369  12.540  68.233  1.00  0.00    -0.193 C  
HETATM   13  C   UNL     1     -10.319  13.676  68.643  1.00  0.00    -0.219 C  
HETATM   14  O   UNL     1      -9.790  14.486  69.681  1.00  0.00    -0.417 OA 
HETATM   15  C   UNL     1     -11.548  12.962  69.140  1.00  0.00    -0.375 C  
HETATM   16  H   UNL     1     -10.377  15.188  69.935  1.00  0.00     0.000 HD 
HETATM   17  C   UNL     1     -11.737  11.825  68.157  1.00  0.00    -0.307 C  
HETATM   18  O   UNL     1     -12.429  10.785  68.820  1.00  0.00    -0.793 OA 
HETATM   19  C   UNL     1     -10.318  11.453  67.633  1.00  0.00    -0.209 C  
HETATM   20  H   UNL     1     -12.547  10.072  68.204  1.00  0.00     0.000 HD 
BRANCH  19  21
HETATM   21  C   UNL     1      -9.851  10.019  67.955  1.00  0.00    -0.164 C  
BRANCH  21  22
HETATM   22  C   UNL     1     -10.081   9.025  66.844  1.00  0.00    -0.338 C  
HETATM   23  C   UNL     1      -9.391   8.867  65.706  1.00  0.00    -0.286 C  
BRANCH  23  24
HETATM   24  C   UNL     1      -8.234   9.695  65.233  1.00  0.00    -0.131 C  
BRANCH  24  25
HETATM   25  C   UNL     1      -8.665  10.826  64.298  1.00  0.00    -0.080 C  
BRANCH  25  26
HETATM   26  C   UNL     1     -10.116  10.703  63.826  1.00  0.00    -0.336 C  
HETATM   27  C   UNL     1     -10.868  12.003  64.004  1.00  0.00    -0.378 C  
HETATM   28  O   UNL     1     -10.408  13.032  64.463  1.00  0.00    -0.366 OA 
HETATM   29  O   UNL     1     -12.151  11.911  63.580  1.00  0.00    -0.504 OA 
ENDBRANCH  25  26
ENDBRANCH  24  25
ENDBRANCH  23  24
ENDBRANCH  21  22
ENDBRANCH  19  21
ENDBRANCH  11  12
ENDBRANCH  10  11
ENDBRANCH   8  10
ENDBRANCH   7   8
ENDBRANCH   6   7
ENDBRANCH   5   6
ENDBRANCH   4   5
ENDBRANCH   3   4
ENDBRANCH   2   3
TORSDOF 14
ENDMDL
MODEL      221
REMARK 921   NORMALIZED FREE ENERGY PREDICTED BY IDOCK:   -3.73 KCAL/MOL
REMARK 922        TOTAL FREE ENERGY PREDICTED BY IDOCK:   -9.73 KCAL/MOL
REMARK 923 INTER-LIGAND FREE ENERGY PREDICTED BY IDOCK:   -9.01 KCAL/MOL
REMARK 924 INTRA-LIGAND FREE ENERGY PREDICTED BY IDOCK:   -0.72 KCAL/MOL
REMARK 927      BINDING AFFINITY PREDICTED BY RF-SCORE:    0.00 PKD
ROOT
HETATM    1  C   UNL     1     -12.033  16.225  73.235  1.00  0.00    -0.525 C  
HETATM    2  C   UNL     1     -13.233  15.303  73.364  1.00  0.00    -0.531 C  
ENDROOT
BRANCH   2   3
HETATM    3  C   UNL     1     -14.145  15.375  72.138  1.00  0.00    -0.651 C  
BRANCH   3   4
HETATM    4  C   UNL     1     -14.164  14.028  71.415  1.00  0.00    -0.098 C  
BRANCH   4   5
HETATM    5  C   UNL     1     -13.377  12.944  72.153  1.00  0.00    -0.615 C  
BRANCH   5   6
HETATM    6  C   UNL     1     -12.776  11.960  71.142  1.00  0.00    -0.384 C  
BRANCH   6   7
HETATM    7  C   UNL     1     -11.667  12.589  70.310  1.00  0.00    -0.200 C  
BRANCH   7   8
HETATM    8  C   UNL     1     -11.968  12.554  68.810  1.00  0.00    -0.238 C  
HETATM    9  O   UNL     1     -12.333  11.537  68.226  1.00  0.00    -0.468 OA 
BRANCH   8  10
HETATM   10  C   UNL     1     -11.809  13.886  68.104  1.00  0.00    -0.407 C  
BRANCH  10  11
HETATM   11  C   UNL     1     -10.817  13.955  66.933  1.00  0.00    -0.286 C  
BRANCH  11  12
HETATM   12  C   UNL     1     -11.175  12.907  65.846  1.00  0.00    -0.323 C  
HETATM   13  C   UNL     1     -11.609  13.580  64.534  1.00  0.00    -0.381 C  
HETATM   14  O   UNL     1     -12.955  14.027  64.567  1.00  0.00    -0.586 OA 
HETATM   15  C   UNL     1     -11.465  12.494  63.501  1.00  0.00    -0.570 C  
HETATM   16  H   UNL     1     -13.224  14.443  63.756  1.00  0.00     0.000 HD 
HETATM   17  C   UNL     1     -10.169  11.802  63.872  1.00  0.00    -0.373 C  
HETATM   18  O   UNL     1     -10.237  10.469  63.403  1.00  0.00    -0.493 OA 
HETATM   19  C   UNL     1     -10.010  11.958  65.415  1.00  0.00    -0.281 C  
HETATM   20  H   UNL     1      -9.424  10.034  63.636  1.00  0.00     0.000 HD 
BRANCH  19  21
HETATM   21  C   UNL     1      -9.998  10.638  66.212  1.00  0.00    -0.274 C  
BRANCH  21  22
HETATM   22  C   UNL     1      -8.751  10.417  67.030  1.00  0.00    -0.132 C  
HETATM   23  C   UNL     1      -7.881  11.326  67.495  1.00  0.00    -0.123 C  
BRANCH  23  24
HETATM   24  C   UNL     1      -7.917  12.806  67.262  1.00  0.00    -0.156 C  
BRANCH  24  25
HETATM   25  C   UNL     1      -6.599  13.490  67.632  1.00  0.00    -0.177 C  
BRANCH  25  26
HETATM   26  C   UNL     1      -6.699  15.017  67.671  1.00  0.00    -0.201 C  
HETATM   27  C   UNL     1      -6.976  15.516  69.073  1.00  0.00    -0.141 C  
HETATM   28  O   UNL     1      -7.109  14.820  70.061  1.00  0.00    -0.165 OA 
HETATM   29  O   UNL     1      -7.056  16.868  69.124  1.00  0.00    -0.228 OA 
ENDBRANCH  25  26
ENDBRANCH  24  25
ENDBRANCH  23  24
ENDBRANCH  21  22
ENDBRANCH  19  21
ENDBRANCH  11  12
ENDBRANCH  10  11
ENDBRANCH   8  10
ENDBRANCH   7   8
ENDBRANCH   6   7
ENDBRANCH   5   6
ENDBRANCH   4   5
ENDBRANCH   3   4
ENDBRANCH   2   3
TORSDOF 14
ENDMDL
MODEL      222
REMARK 921   NORMALIZED FREE ENERGY PREDICTED BY IDOCK:   -3.71 KCAL/MOL
REMARK 922        TOTAL FREE ENERGY PREDICTED BY IDOCK:   -9.70 KCAL/MOL
REMARK 923 INTER-LIGAND FREE ENERGY PREDICTED BY IDOCK:   -7.54 KCAL/MOL
REMARK 924 INTRA-LIGAND FREE ENERGY PREDICTED BY IDOCK:   -2.15 KCAL/MOL
REMARK 927      BINDING AFFINITY PREDICTED BY RF-SCORE:    0.00 PKD
ROOT
HETATM    1  C   UNL     1     -12.212  10.399  70.763  1.00  0.00    -0.457 C  
HETATM    2  C   UNL     1     -11.589   9.367  71.685  1.00  0.00    -0.466 C  
ENDROOT
BRANCH   2   3
HETATM    3  C   UNL     1     -10.294   8.791  71.109  1.00  0.00    -0.315 C  
BRANCH   3   4
HETATM    4  C   UNL     1     -10.455   7.295  70.843  1.00  0.00    -0.225 C  
BRANCH   4   5
HETATM    5  C   UNL     1     -10.781   6.980  69.382  1.00  0.00    -0.259 C  
BRANCH   5   6
HETATM    6  C   UNL     1     -10.281   8.117  68.482  1.00  0.00    -0.233 C  
BRANCH   6   7
HETATM    7  C   UNL     1     -10.501   7.826  67.004  1.00  0.00    -0.419 C  
BRANCH   7   8
HETATM    8  C   UNL     1      -9.545   8.610  66.103  1.00  0.00    -0.235 C  
HETATM    9  O   UNL     1      -8.498   8.136  65.670  1.00  0.00    -0.141 OA 
BRANCH   8  10
HETATM   10  C   UNL     1     -10.009  10.011  65.760  1.00  0.00    -0.346 C  
BRANCH  10  11
HETATM   11  C   UNL     1      -8.935  11.102  65.627  1.00  0.00    -0.195 C  
BRANCH  11  12
HETATM   12  C   UNL     1      -8.271  11.393  66.999  1.00  0.00    -0.160 C  
HETATM   13  C   UNL     1      -6.758  11.120  66.963  1.00  0.00    -0.115 C  
HETATM   14  O   UNL     1      -6.446   9.743  67.087  1.00  0.00    -0.068 OA 
HETATM   15  C   UNL     1      -6.225  11.866  68.158  1.00  0.00    -0.051 C  
HETATM   16  H   UNL     1      -5.512   9.574  67.065  1.00  0.00     0.000 HD 
HETATM   17  C   UNL     1      -6.993  13.173  68.149  1.00  0.00    -0.108 C  
HETATM   18  O   UNL     1      -7.041  13.659  69.477  1.00  0.00    -0.308 OA 
HETATM   19  C   UNL     1      -8.377  12.869  67.501  1.00  0.00    -0.183 C  
HETATM   20  H   UNL     1      -7.522  14.478  69.472  1.00  0.00     0.000 HD 
BRANCH  19  21
HETATM   21  C   UNL     1      -9.597  13.095  68.416  1.00  0.00    -0.186 C  
BRANCH  21  22
HETATM   22  C   UNL     1     -10.225  14.460  68.290  1.00  0.00    -0.241 C  
HETATM   23  C   UNL     1     -11.416  14.880  68.740  1.00  0.00    -0.328 C  
BRANCH  23  24
HETATM   24  C   UNL     1     -12.451  14.057  69.446  1.00  0.00    -0.108 C  
BRANCH  24  25
HETATM   25  C   UNL     1     -12.190  13.952  70.951  1.00  0.00    -0.436 C  
BRANCH  25  26
HETATM   26  C   UNL     1     -13.349  14.473  71.804  1.00  0.00    -0.445 C  
HETATM   27  C   UNL     1     -13.001  15.789  72.465  1.00  0.00    -0.470 C  
HETATM   28  O   UNL     1     -11.945  16.381  72.353  1.00  0.00    -0.530 OA 
HETATM   29  O   UNL     1     -14.024  16.267  73.215  1.00  0.00    -0.511 OA 
ENDBRANCH  25  26
ENDBRANCH  24  25
ENDBRANCH  23  24
ENDBRANCH  21  22
ENDBRANCH  19  21
ENDBRANCH  11  12
ENDBRANCH  10  11
ENDBRANCH   8  10
ENDBRANCH   7   8
ENDBRANCH   6   7
ENDBRANCH   5   6
ENDBRANCH   4   5
ENDBRANCH   3   4
ENDBRANCH   2   3
TORSDOF 14
ENDMDL
MODEL      223
REMARK 921   NORMALIZED FREE ENERGY PREDICTED BY IDOCK:   -3.70 KCAL/MOL
REMARK 922        TOTAL FREE ENERGY PREDICTED BY IDOCK:   -9.68 KCAL/MOL
REMARK 923 INTER-LIGAND FREE ENERGY PREDICTED BY IDOCK:   -7.69 KCAL/MOL
REMARK 924 INTRA-LIGAND FREE ENERGY PREDICTED BY IDOCK:   -1.99 KCAL/MOL
REMARK 927      BINDING AFFINITY PREDICTED BY RF-SCORE:    0.00 PKD
ROOT
HETATM    1  C   UNL     1     -10.387  19.589  66.130  1.00  0.00    -0.614 C  
HETATM    2  C   UNL     1      -8.921  19.984  66.128  1.00  0.00    -0.338 C  
ENDROOT
BRANCH   2   3
HETATM    3  C   UNL     1      -8.334  20.015  67.541  1.00  0.00    -0.381 C  
BRANCH   3   4
HETATM    4  C   UNL     1      -8.311  18.607  68.133  1.00  0.00    -0.332 C  
BRANCH   4   5
HETATM    5  C   UNL     1      -6.894  18.098  68.408  1.00  0.00    -0.231 C  
BRANCH   5   6
HETATM    6  C   UNL     1      -6.946  16.932  69.402  1.00  0.00    -0.164 C  
BRANCH   6   7
HETATM    7  C   UNL     1      -6.382  15.645  68.815  1.00  0.00    -0.104 C  
BRANCH   7   8
HETATM    8  C   UNL     1      -7.344  14.979  67.829  1.00  0.00    -0.166 C  
HETATM    9  O   UNL     1      -7.629  15.472  66.741  1.00  0.00    -0.179 OA 
BRANCH   8  10
HETATM   10  C   UNL     1      -7.894  13.644  68.289  1.00  0.00    -0.141 C  
BRANCH  10  11
HETATM   11  C   UNL     1      -7.970  12.512  67.254  1.00  0.00    -0.173 C  
BRANCH  11  12
HETATM   12  C   UNL     1      -9.091  11.503  67.621  1.00  0.00    -0.168 C  
HETATM   13  C   UNL     1      -8.795  10.792  68.952  1.00  0.00    -0.150 C  
HETATM   14  O   UNL     1      -7.865   9.731  68.812  1.00  0.00    -0.079 OA 
HETATM   15  C   UNL     1     -10.131  10.238  69.374  1.00  0.00    -0.255 C  
HETATM   16  H   UNL     1      -7.683   9.291  69.634  1.00  0.00     0.000 HD 
HETATM   17  C   UNL     1     -11.110  11.345  69.043  1.00  0.00    -0.243 C  
HETATM   18  O   UNL     1     -12.376  10.755  68.818  1.00  0.00    -0.812 OA 
HETATM   19  C   UNL     1     -10.512  12.119  67.830  1.00  0.00    -0.222 C  
HETATM   20  H   UNL     1     -12.991  11.449  68.610  1.00  0.00     0.000 HD 
BRANCH  19  21
HETATM   21  C   UNL     1     -11.362  12.089  66.544  1.00  0.00    -0.413 C  
BRANCH  21  22
HETATM   22  C   UNL     1     -12.316  13.248  66.402  1.00  0.00    -0.347 C  
HETATM   23  C   UNL     1     -12.115  14.540  66.698  1.00  0.00    -0.319 C  
BRANCH  23  24
HETATM   24  C   UNL     1     -10.883  15.142  67.304  1.00  0.00    -0.316 C  
BRANCH  24  25
HETATM   25  C   UNL     1     -11.205  16.262  68.297  1.00  0.00    -0.324 C  
BRANCH  25  26
HETATM   26  C   UNL     1     -10.632  16.016  69.694  1.00  0.00    -0.311 C  
HETATM   27  C   UNL     1     -11.599  15.237  70.559  1.00  0.00    -0.306 C  
HETATM   28  O   UNL     1     -12.699  14.845  70.218  1.00  0.00    -0.328 OA 
HETATM   29  O   UNL     1     -11.099  15.003  71.796  1.00  0.00    -0.276 OA 
ENDBRANCH  25  26
ENDBRANCH  24  25
ENDBRANCH  23  24
ENDBRANCH  21  22
ENDBRANCH  19  21
ENDBRANCH  11  12
ENDBRANCH  10  11
ENDBRANCH   8  10
ENDBRANCH   7   8
ENDBRANCH   6   7
ENDBRANCH   5   6
ENDBRANCH   4   5
ENDBRANCH   3   4
ENDBRANCH   2   3
TORSDOF 14
ENDMDL
MODEL      224
REMARK 921   NORMALIZED FREE ENERGY PREDICTED BY IDOCK:   -3.70 KCAL/MOL
REMARK 922        TOTAL FREE ENERGY PREDICTED BY IDOCK:   -9.68 KCAL/MOL
REMARK 923 INTER-LIGAND FREE ENERGY PREDICTED BY IDOCK:   -8.60 KCAL/MOL
REMARK 924 INTRA-LIGAND FREE ENERGY PREDICTED BY IDOCK:   -1.07 KCAL/MOL
REMARK 927      BINDING AFFINITY PREDICTED BY RF-SCORE:    0.00 PKD
ROOT
HETATM    1  C   UNL     1      -9.510   5.540  66.771  1.00  0.00    -0.147 C  
HETATM    2  C   UNL     1     -10.800   6.072  67.371  1.00  0.00    -0.394 C  
ENDROOT
BRANCH   2   3
HETATM    3  C   UNL     1     -10.554   7.283  68.273  1.00  0.00    -0.217 C  
BRANCH   3   4
HETATM    4  C   UNL     1     -10.753   6.898  69.738  1.00  0.00    -0.276 C  
BRANCH   4   5
HETATM    5  C   UNL     1      -9.915   7.744  70.698  1.00  0.00    -0.186 C  
BRANCH   5   6
HETATM    6  C   UNL     1     -10.836   8.545  71.625  1.00  0.00    -0.356 C  
BRANCH   6   7
HETATM    7  C   UNL     1     -12.013   9.161  70.882  1.00  0.00    -0.299 C  
BRANCH   7   8
HETATM    8  C   UNL     1     -13.051   9.770  71.827  1.00  0.00    -0.431 C  
HETATM    9  O   UNL     1     -13.688   9.101  72.637  1.00  0.00    -0.470 OA 
BRANCH   8  10
HETATM   10  C   UNL     1     -13.209  11.272  71.707  1.00  0.00    -0.480 C  
BRANCH  10  11
HETATM   11  C   UNL     1     -12.325  11.999  70.682  1.00  0.00    -0.394 C  
BRANCH  11  12
HETATM   12  C   UNL     1     -12.583  13.529  70.719  1.00  0.00    -0.382 C  
HETATM   13  C   UNL     1     -12.683  14.050  72.162  1.00  0.00    -0.260 C  
HETATM   14  O   UNL     1     -13.952  13.808  72.745  1.00  0.00    -0.714 OA 
HETATM   15  C   UNL     1     -12.466  15.535  72.029  1.00  0.00    -0.476 C  
HETATM   16  H   UNL     1     -14.015  14.130  73.637  1.00  0.00     0.000 HD 
HETATM   17  C   UNL     1     -11.350  15.655  71.012  1.00  0.00    -0.381 C  
HETATM   18  O   UNL     1     -11.474  16.911  70.374  1.00  0.00    -0.334 OA 
HETATM   19  C   UNL     1     -11.470  14.417  70.073  1.00  0.00    -0.295 C  
HETATM   20  H   UNL     1     -10.774  16.987  69.736  1.00  0.00     0.000 HD 
BRANCH  19  21
HETATM   21  C   UNL     1     -11.756  14.738  68.593  1.00  0.00    -0.356 C  
BRANCH  21  22
HETATM   22  C   UNL     1     -10.530  14.778  67.716  1.00  0.00    -0.254 C  
HETATM   23  C   UNL     1     -10.201  13.970  66.698  1.00  0.00    -0.275 C  
BRANCH  23  24
HETATM   24  C   UNL     1     -10.969  12.778  66.212  1.00  0.00    -0.307 C  
BRANCH  24  25
HETATM   25  C   UNL     1     -10.087  11.782  65.455  1.00  0.00    -0.285 C  
BRANCH  25  26
HETATM   26  C   UNL     1      -8.960  11.199  66.311  1.00  0.00    -0.202 C  
HETATM   27  C   UNL     1      -8.756   9.727  66.028  1.00  0.00    -0.141 C  
HETATM   28  O   UNL     1      -9.391   9.063  65.231  1.00  0.00    -0.197 OA 
HETATM   29  O   UNL     1      -7.752   9.201  66.772  1.00  0.00    -0.096 OA 
ENDBRANCH  25  26
ENDBRANCH  24  25
ENDBRANCH  23  24
ENDBRANCH  21  22
ENDBRANCH  19  21
ENDBRANCH  11  12
ENDBRANCH  10  11
ENDBRANCH   8  10
ENDBRANCH   7   8
ENDBRANCH   6   7
ENDBRANCH   5   6
ENDBRANCH   4   5
ENDBRANCH   3   4
ENDBRANCH   2   3
TORSDOF 14
ENDMDL
MODEL      225
REMARK 921   NORMALIZED FREE ENERGY PREDICTED BY IDOCK:   -3.69 KCAL/MOL
REMARK 922        TOTAL FREE ENERGY PREDICTED BY IDOCK:   -9.66 KCAL/MOL
REMARK 923 INTER-LIGAND FREE ENERGY PREDICTED BY IDOCK:   -7.00 KCAL/MOL
REMARK 924 INTRA-LIGAND FREE ENERGY PREDICTED BY IDOCK:   -2.66 KCAL/MOL
REMARK 927      BINDING AFFINITY PREDICTED BY RF-SCORE:    0.00 PKD
ROOT
HETATM    1  C   UNL     1     -11.887  14.385  68.052  1.00  0.00    -0.361 C  
HETATM    2  C   UNL     1     -12.044  13.381  66.924  1.00  0.00    -0.406 C  
ENDROOT
BRANCH   2   3
HETATM    3  C   UNL     1     -12.673  14.012  65.680  1.00  0.00    -0.515 C  
BRANCH   3   4
HETATM    4  C   UNL     1     -11.585  14.578  64.768  1.00  0.00    -0.414 C  
BRANCH   4   5
HETATM    5  C   UNL     1     -10.479  13.568  64.459  1.00  0.00    -0.426 C  
BRANCH   5   6
HETATM    6  C   UNL     1     -11.023  12.468  63.540  1.00  0.00    -0.472 C  
BRANCH   6   7
HETATM    7  C   UNL     1     -11.019  11.100  64.208  1.00  0.00    -0.276 C  
BRANCH   7   8
HETATM    8  C   UNL     1      -9.615  10.499  64.304  1.00  0.00    -0.307 C  
HETATM    9  O   UNL     1      -8.736  10.722  63.475  1.00  0.00    -0.167 OA 
BRANCH   8  10
HETATM   10  C   UNL     1      -9.384   9.629  65.524  1.00  0.00    -0.309 C  
BRANCH  10  11
HETATM   11  C   UNL     1     -10.163   9.977  66.801  1.00  0.00    -0.295 C  
BRANCH  11  12
HETATM   12  C   UNL     1      -9.832   8.974  67.939  1.00  0.00    -0.207 C  
HETATM   13  C   UNL     1     -10.007   7.519  67.477  1.00  0.00    -0.174 C  
HETATM   14  O   UNL     1     -11.363   7.101  67.484  1.00  0.00    -0.551 OA 
HETATM   15  C   UNL     1      -9.230   6.718  68.489  1.00  0.00    -0.128 C  
HETATM   16  H   UNL     1     -11.471   6.201  67.198  1.00  0.00     0.000 HD 
HETATM   17  C   UNL     1      -7.975   7.536  68.719  1.00  0.00    -0.126 C  
HETATM   18  O   UNL     1      -7.494   7.240  70.016  1.00  0.00    -0.081 OA 
HETATM   19  C   UNL     1      -8.366   9.025  68.477  1.00  0.00    -0.124 C  
HETATM   20  H   UNL     1      -6.707   7.753  70.161  1.00  0.00     0.000 HD 
BRANCH  19  21
HETATM   21  C   UNL     1      -8.218   9.952  69.700  1.00  0.00    -0.178 C  
BRANCH  21  22
HETATM   22  C   UNL     1      -7.126  10.984  69.570  1.00  0.00    -0.113 C  
HETATM   23  C   UNL     1      -7.185  12.198  69.004  1.00  0.00    -0.037 C  
BRANCH  23  24
HETATM   24  C   UNL     1      -8.361  12.808  68.304  1.00  0.00    -0.161 C  
BRANCH  24  25
HETATM   25  C   UNL     1      -8.264  14.333  68.214  1.00  0.00    -0.148 C  
BRANCH  25  26
HETATM   26  C   UNL     1      -8.378  14.864  66.783  1.00  0.00    -0.158 C  
HETATM   27  C   UNL     1      -9.027  16.230  66.750  1.00  0.00    -0.231 C  
HETATM   28  O   UNL     1      -9.421  16.852  67.719  1.00  0.00    -0.232 OA 
HETATM   29  O   UNL     1      -9.124  16.717  65.490  1.00  0.00    -0.405 OA 
ENDBRANCH  25  26
ENDBRANCH  24  25
ENDBRANCH  23  24
ENDBRANCH  21  22
ENDBRANCH  19  21
ENDBRANCH  11  12
ENDBRANCH  10  11
ENDBRANCH   8  10
ENDBRANCH   7   8
ENDBRANCH   6   7
ENDBRANCH   5   6
ENDBRANCH   4   5
ENDBRANCH   3   4
ENDBRANCH   2   3
TORSDOF 14
ENDMDL
MODEL      226
REMARK 921   NORMALIZED FREE ENERGY PREDICTED BY IDOCK:   -3.69 KCAL/MOL
REMARK 922        TOTAL FREE ENERGY PREDICTED BY IDOCK:   -9.66 KCAL/MOL
REMARK 923 INTER-LIGAND FREE ENERGY PREDICTED BY IDOCK:   -7.71 KCAL/MOL
REMARK 924 INTRA-LIGAND FREE ENERGY PREDICTED BY IDOCK:   -1.95 KCAL/MOL
REMARK 927      BINDING AFFINITY PREDICTED BY RF-SCORE:    0.00 PKD
ROOT
HETATM    1  C   UNL     1      -8.617  18.770  68.534  1.00  0.00    -0.378 C  
HETATM    2  C   UNL     1      -9.041  17.314  68.486  1.00  0.00    -0.269 C  
ENDROOT
BRANCH   2   3
HETATM    3  C   UNL     1     -10.248  17.099  67.569  1.00  0.00    -0.323 C  
BRANCH   3   4
HETATM    4  C   UNL     1      -9.786  16.602  66.199  1.00  0.00    -0.340 C  
BRANCH   4   5
HETATM    5  C   UNL     1     -10.898  16.631  65.148  1.00  0.00    -0.199 C  
BRANCH   5   6
HETATM    6  C   UNL     1     -11.058  15.239  64.524  1.00  0.00    -0.260 C  
BRANCH   6   7
HETATM    7  C   UNL     1     -12.370  14.576  64.917  1.00  0.00    -0.378 C  
BRANCH   7   8
HETATM    8  C   UNL     1     -12.162  13.212  65.580  1.00  0.00    -0.466 C  
HETATM    9  O   UNL     1     -12.680  12.181  65.161  1.00  0.00    -0.468 OA 
BRANCH   8  10
HETATM   10  C   UNL     1     -11.239  13.230  66.782  1.00  0.00    -0.331 C  
BRANCH  10  11
HETATM   11  C   UNL     1     -11.820  13.718  68.117  1.00  0.00    -0.411 C  
BRANCH  11  12
HETATM   12  C   UNL     1     -11.592  12.666  69.235  1.00  0.00    -0.376 C  
HETATM   13  C   UNL     1     -12.393  13.006  70.502  1.00  0.00    -0.287 C  
HETATM   14  O   UNL     1     -11.769  14.004  71.294  1.00  0.00    -0.459 OA 
HETATM   15  C   UNL     1     -12.432  11.710  71.268  1.00  0.00    -0.371 C  
HETATM   16  H   UNL     1     -12.263  14.214  72.077  1.00  0.00     0.000 HD 
HETATM   17  C   UNL     1     -12.671  10.660  70.202  1.00  0.00    -0.159 C  
HETATM   18  O   UNL     1     -12.137   9.435  70.668  1.00  0.00    -0.420 OA 
HETATM   19  C   UNL     1     -12.034  11.207  68.890  1.00  0.00    -0.367 C  
HETATM   20  H   UNL     1     -12.287   8.777  70.000  1.00  0.00     0.000 HD 
BRANCH  19  21
HETATM   21  C   UNL     1     -10.880  10.361  68.315  1.00  0.00    -0.299 C  
BRANCH  21  22
HETATM   22  C   UNL     1      -9.514  10.741  68.829  1.00  0.00    -0.187 C  
HETATM   23  C   UNL     1      -8.645   9.998  69.529  1.00  0.00    -0.197 C  
BRANCH  23  24
HETATM   24  C   UNL     1      -8.853   8.598  70.023  1.00  0.00    -0.142 C  
BRANCH  24  25
HETATM   25  C   UNL     1      -8.001   7.577  69.267  1.00  0.00    -0.121 C  
BRANCH  25  26
HETATM   26  C   UNL     1      -8.458   7.356  67.823  1.00  0.00    -0.118 C  
HETATM   27  C   UNL     1      -9.245   6.071  67.682  1.00  0.00    -0.107 C  
HETATM   28  O   UNL     1      -9.496   5.291  68.581  1.00  0.00    -0.116 OA 
HETATM   29  O   UNL     1      -9.665   5.870  66.410  1.00  0.00    -0.157 OA 
ENDBRANCH  25  26
ENDBRANCH  24  25
ENDBRANCH  23  24
ENDBRANCH  21  22
ENDBRANCH  19  21
ENDBRANCH  11  12
ENDBRANCH  10  11
ENDBRANCH   8  10
ENDBRANCH   7   8
ENDBRANCH   6   7
ENDBRANCH   5   6
ENDBRANCH   4   5
ENDBRANCH   3   4
ENDBRANCH   2   3
TORSDOF 14
ENDMDL
MODEL      227
REMARK 921   NORMALIZED FREE ENERGY PREDICTED BY IDOCK:   -3.67 KCAL/MOL
REMARK 922        TOTAL FREE ENERGY PREDICTED BY IDOCK:   -9.64 KCAL/MOL
REMARK 923 INTER-LIGAND FREE ENERGY PREDICTED BY IDOCK:   -7.46 KCAL/MOL
REMARK 924 INTRA-LIGAND FREE ENERGY PREDICTED BY IDOCK:   -2.17 KCAL/MOL
REMARK 927      BINDING AFFINITY PREDICTED BY RF-SCORE:    0.00 PKD
ROOT
HETATM    1  C   UNL     1      -5.867  10.071  66.346  1.00  0.00    -0.060 C  
HETATM    2  C   UNL     1      -5.620  10.375  67.813  1.00  0.00    -0.044 C  
ENDROOT
BRANCH   2   3
HETATM    3  C   UNL     1      -6.487  11.533  68.312  1.00  0.00    -0.054 C  
BRANCH   3   4
HETATM    4  C   UNL     1      -6.910  12.417  67.140  1.00  0.00    -0.077 C  
BRANCH   4   5
HETATM    5  C   UNL     1      -8.417  12.678  67.102  1.00  0.00    -0.186 C  
BRANCH   5   6
HETATM    6  C   UNL     1      -9.170  11.449  67.625  1.00  0.00    -0.158 C  
BRANCH   6   7
HETATM    7  C   UNL     1     -10.129  10.874  66.593  1.00  0.00    -0.264 C  
BRANCH   7   8
HETATM    8  C   UNL     1     -10.014   9.353  66.468  1.00  0.00    -0.269 C  
HETATM    9  O   UNL     1      -9.339   8.804  65.601  1.00  0.00    -0.214 OA 
BRANCH   8  10
HETATM   10  C   UNL     1     -10.777   8.575  67.522  1.00  0.00    -0.211 C  
BRANCH  10  11
HETATM   11  C   UNL     1     -10.268   8.653  68.969  1.00  0.00    -0.218 C  
BRANCH  11  12
HETATM   12  C   UNL     1     -11.402   8.314  69.972  1.00  0.00    -0.001 C  
HETATM   13  C   UNL     1     -11.107   7.015  70.739  1.00  0.00    -0.273 C  
HETATM   14  O   UNL     1     -11.407   5.853  69.984  1.00  0.00    -0.352 OA 
HETATM   15  C   UNL     1     -12.018   7.084  71.938  1.00  0.00    -0.355 C  
HETATM   16  H   UNL     1     -11.225   5.049  70.458  1.00  0.00     0.000 HD 
HETATM   17  C   UNL     1     -11.935   8.531  72.379  1.00  0.00    -0.364 C  
HETATM   18  O   UNL     1     -13.137   8.851  73.053  1.00  0.00    -0.759 OA 
HETATM   19  C   UNL     1     -11.646   9.370  71.098  1.00  0.00    -0.415 C  
HETATM   20  H   UNL     1     -13.086   9.759  73.330  1.00  0.00     0.000 HD 
BRANCH  19  21
HETATM   21  C   UNL     1     -12.736  10.394  70.721  1.00  0.00    -0.460 C  
BRANCH  21  22
HETATM   22  C   UNL     1     -12.391  11.822  71.060  1.00  0.00    -0.386 C  
HETATM   23  C   UNL     1     -12.161  12.849  70.229  1.00  0.00    -0.362 C  
BRANCH  23  24
HETATM   24  C   UNL     1     -12.141  12.805  68.731  1.00  0.00    -0.165 C  
BRANCH  24  25
HETATM   25  C   UNL     1     -11.788  14.159  68.109  1.00  0.00    -0.387 C  
BRANCH  25  26
HETATM   26  C   UNL     1     -11.937  14.183  66.586  1.00  0.00    -0.470 C  
HETATM   27  C   UNL     1     -11.102  15.283  65.967  1.00  0.00    -0.278 C  
HETATM   28  O   UNL     1     -10.395  16.064  66.574  1.00  0.00    -0.284 OA 
HETATM   29  O   UNL     1     -11.217  15.308  64.617  1.00  0.00    -0.396 OA 
ENDBRANCH  25  26
ENDBRANCH  24  25
ENDBRANCH  23  24
ENDBRANCH  21  22
ENDBRANCH  19  21
ENDBRANCH  11  12
ENDBRANCH  10  11
ENDBRANCH   8  10
ENDBRANCH   7   8
ENDBRANCH   6   7
ENDBRANCH   5   6
ENDBRANCH   4   5
ENDBRANCH   3   4
ENDBRANCH   2   3
TORSDOF 14
ENDMDL
MODEL      228
REMARK 921   NORMALIZED FREE ENERGY PREDICTED BY IDOCK:   -3.67 KCAL/MOL
REMARK 922        TOTAL FREE ENERGY PREDICTED BY IDOCK:   -9.63 KCAL/MOL
REMARK 923 INTER-LIGAND FREE ENERGY PREDICTED BY IDOCK:   -7.30 KCAL/MOL
REMARK 924 INTRA-LIGAND FREE ENERGY PREDICTED BY IDOCK:   -2.33 KCAL/MOL
REMARK 927      BINDING AFFINITY PREDICTED BY RF-SCORE:    0.00 PKD
ROOT
HETATM    1  C   UNL     1      -7.771   5.475  64.799  1.00  0.00    -0.092 C  
HETATM    2  C   UNL     1      -9.071   5.143  65.509  1.00  0.00    -0.157 C  
ENDROOT
BRANCH   2   3
HETATM    3  C   UNL     1      -9.497   6.254  66.472  1.00  0.00    -0.181 C  
BRANCH   3   4
HETATM    4  C   UNL     1     -10.488   5.709  67.500  1.00  0.00    -0.294 C  
BRANCH   4   5
HETATM    5  C   UNL     1      -9.825   4.823  68.556  1.00  0.00    -0.198 C  
BRANCH   5   6
HETATM    6  C   UNL     1      -8.841   5.653  69.388  1.00  0.00    -0.114 C  
BRANCH   6   7
HETATM    7  C   UNL     1      -8.784   5.201  70.840  1.00  0.00    -0.142 C  
BRANCH   7   8
HETATM    8  C   UNL     1      -9.816   5.914  71.717  1.00  0.00    -0.163 C  
HETATM    9  O   UNL     1     -10.820   5.355  72.153  1.00  0.00    -0.226 OA 
BRANCH   8  10
HETATM   10  C   UNL     1      -9.486   7.359  72.031  1.00  0.00    -0.162 C  
BRANCH  10  11
HETATM   11  C   UNL     1     -10.586   8.214  72.677  1.00  0.00    -0.414 C  
BRANCH  11  12
HETATM   12  C   UNL     1     -11.593   8.717  71.609  1.00  0.00    -0.390 C  
HETATM   13  C   UNL     1     -12.698   9.581  72.237  1.00  0.00    -0.311 C  
HETATM   14  O   UNL     1     -13.716   8.808  72.852  1.00  0.00    -0.804 OA 
HETATM   15  C   UNL     1     -13.278  10.337  71.070  1.00  0.00    -0.399 C  
HETATM   16  H   UNL     1     -14.399   9.341  73.240  1.00  0.00     0.000 HD 
HETATM   17  C   UNL     1     -12.068  10.729  70.247  1.00  0.00    -0.348 C  
HETATM   18  O   UNL     1     -12.484  10.880  68.904  1.00  0.00    -0.745 OA 
HETATM   19  C   UNL     1     -10.991   9.629  70.491  1.00  0.00    -0.374 C  
HETATM   20  H   UNL     1     -11.725  11.126  68.387  1.00  0.00     0.000 HD 
BRANCH  19  21
HETATM   21  C   UNL     1     -10.571   8.831  69.241  1.00  0.00    -0.210 C  
BRANCH  21  22
HETATM   22  C   UNL     1      -9.305   9.323  68.585  1.00  0.00    -0.139 C  
HETATM   23  C   UNL     1      -9.146   9.855  67.365  1.00  0.00    -0.147 C  
BRANCH  23  24
HETATM   24  C   UNL     1     -10.205  10.043  66.321  1.00  0.00    -0.285 C  
BRANCH  24  25
HETATM   25  C   UNL     1      -9.707  10.850  65.119  1.00  0.00    -0.312 C  
BRANCH  25  26
HETATM   26  C   UNL     1      -9.382   9.984  63.900  1.00  0.00    -0.315 C  
HETATM   27  C   UNL     1      -7.888   9.820  63.722  1.00  0.00    -0.143 C  
HETATM   28  O   UNL     1      -7.031  10.303  64.437  1.00  0.00    -0.126 OA 
HETATM   29  O   UNL     1      -7.586   9.046  62.652  1.00  0.00    -0.106 OA 
ENDBRANCH  25  26
ENDBRANCH  24  25
ENDBRANCH  23  24
ENDBRANCH  21  22
ENDBRANCH  19  21
ENDBRANCH  11  12
ENDBRANCH  10  11
ENDBRANCH   8  10
ENDBRANCH   7   8
ENDBRANCH   6   7
ENDBRANCH   5   6
ENDBRANCH   4   5
ENDBRANCH   3   4
ENDBRANCH   2   3
TORSDOF 14
ENDMDL
MODEL      229
REMARK 921   NORMALIZED FREE ENERGY PREDICTED BY IDOCK:   -3.66 KCAL/MOL
REMARK 922        TOTAL FREE ENERGY PREDICTED BY IDOCK:   -9.61 KCAL/MOL
REMARK 923 INTER-LIGAND FREE ENERGY PREDICTED BY IDOCK:   -7.81 KCAL/MOL
REMARK 924 INTRA-LIGAND FREE ENERGY PREDICTED BY IDOCK:   -1.81 KCAL/MOL
REMARK 927      BINDING AFFINITY PREDICTED BY RF-SCORE:    0.00 PKD
ROOT
HETATM    1  C   UNL     1      -5.510  13.213  69.186  1.00  0.00    -0.071 C  
HETATM    2  C   UNL     1      -6.104  13.979  68.017  1.00  0.00    -0.144 C  
ENDROOT
BRANCH   2   3
HETATM    3  C   UNL     1      -7.384  14.720  68.410  1.00  0.00    -0.116 C  
BRANCH   3   4
HETATM    4  C   UNL     1      -8.471  14.485  67.362  1.00  0.00    -0.220 C  
BRANCH   4   5
HETATM    5  C   UNL     1      -8.855  15.758  66.605  1.00  0.00    -0.324 C  
BRANCH   5   6
HETATM    6  C   UNL     1     -10.284  15.628  66.063  1.00  0.00    -0.354 C  
BRANCH   6   7
HETATM    7  C   UNL     1     -11.274  15.200  67.136  1.00  0.00    -0.320 C  
BRANCH   7   8
HETATM    8  C   UNL     1     -12.152  14.028  66.691  1.00  0.00    -0.456 C  
HETATM    9  O   UNL     1     -12.905  14.090  65.722  1.00  0.00    -0.516 OA 
BRANCH   8  10
HETATM   10  C   UNL     1     -11.996  12.772  67.524  1.00  0.00    -0.342 C  
BRANCH  10  11
HETATM   11  C   UNL     1     -10.620  12.090  67.529  1.00  0.00    -0.250 C  
BRANCH  11  12
HETATM   12  C   UNL     1     -10.520  11.041  66.390  1.00  0.00    -0.312 C  
HETATM   13  C   UNL     1      -9.789  11.610  65.162  1.00  0.00    -0.249 C  
HETATM   14  O   UNL     1     -10.623  12.426  64.357  1.00  0.00    -0.296 OA 
HETATM   15  C   UNL     1      -9.380  10.387  64.383  1.00  0.00    -0.321 C  
HETATM   16  H   UNL     1     -10.172  12.778  63.599  1.00  0.00     0.000 HD 
HETATM   17  C   UNL     1      -8.913   9.412  65.445  1.00  0.00    -0.206 C  
HETATM   18  O   UNL     1      -9.087   8.102  64.941  1.00  0.00    -0.370 OA 
HETATM   19  C   UNL     1      -9.723   9.742  66.735  1.00  0.00    -0.248 C  
HETATM   20  H   UNL     1      -8.795   7.490  65.607  1.00  0.00     0.000 HD 
BRANCH  19  21
HETATM   21  C   UNL     1     -10.634   8.610  67.249  1.00  0.00    -0.308 C  
BRANCH  21  22
HETATM   22  C   UNL     1     -10.117   7.904  68.477  1.00  0.00    -0.216 C  
HETATM   23  C   UNL     1     -10.304   8.220  69.767  1.00  0.00    -0.216 C  
BRANCH  23  24
HETATM   24  C   UNL     1     -11.047   9.406  70.303  1.00  0.00    -0.299 C  
BRANCH  24  25
HETATM   25  C   UNL     1     -11.959   9.045  71.478  1.00  0.00    -0.414 C  
BRANCH  25  26
HETATM   26  C   UNL     1     -12.090   7.537  71.703  1.00  0.00    -0.341 C  
HETATM   27  C   UNL     1     -11.121   7.049  72.757  1.00  0.00    -0.284 C  
HETATM   28  O   UNL     1     -10.326   7.741  73.365  1.00  0.00    -0.332 OA 
HETATM   29  O   UNL     1     -11.234   5.716  72.974  1.00  0.00    -0.280 OA 
ENDBRANCH  25  26
ENDBRANCH  24  25
ENDBRANCH  23  24
ENDBRANCH  21  22
ENDBRANCH  19  21
ENDBRANCH  11  12
ENDBRANCH  10  11
ENDBRANCH   8  10
ENDBRANCH   7   8
ENDBRANCH   6   7
ENDBRANCH   5   6
ENDBRANCH   4   5
ENDBRANCH   3   4
ENDBRANCH   2   3
TORSDOF 14
ENDMDL
MODEL      230
REMARK 921   NORMALIZED FREE ENERGY PREDICTED BY IDOCK:   -3.65 KCAL/MOL
REMARK 922        TOTAL FREE ENERGY PREDICTED BY IDOCK:   -9.60 KCAL/MOL
REMARK 923 INTER-LIGAND FREE ENERGY PREDICTED BY IDOCK:   -7.92 KCAL/MOL
REMARK 924 INTRA-LIGAND FREE ENERGY PREDICTED BY IDOCK:   -1.68 KCAL/MOL
REMARK 927      BINDING AFFINITY PREDICTED BY RF-SCORE:    0.00 PKD
ROOT
HETATM    1  C   UNL     1     -10.010   4.603  68.171  1.00  0.00    -0.127 C  
HETATM    2  C   UNL     1     -10.627   5.746  68.957  1.00  0.00    -0.351 C  
ENDROOT
BRANCH   2   3
HETATM    3  C   UNL     1     -10.579   5.495  70.466  1.00  0.00    -0.339 C  
BRANCH   3   4
HETATM    4  C   UNL     1     -10.041   6.729  71.189  1.00  0.00    -0.198 C  
BRANCH   4   5
HETATM    5  C   UNL     1      -8.535   6.922  71.000  1.00  0.00    -0.131 C  
BRANCH   5   6
HETATM    6  C   UNL     1      -8.201   8.418  70.988  1.00  0.00    -0.145 C  
BRANCH   6   7
HETATM    7  C   UNL     1      -7.832   8.918  69.598  1.00  0.00    -0.090 C  
BRANCH   7   8
HETATM    8  C   UNL     1      -8.697  10.099  69.150  1.00  0.00    -0.170 C  
HETATM    9  O   UNL     1      -8.386  10.838  68.220  1.00  0.00    -0.115 OA 
BRANCH   8  10
HETATM   10  C   UNL     1      -9.988  10.265  69.927  1.00  0.00    -0.183 C  
BRANCH  10  11
HETATM   11  C   UNL     1     -11.303  10.224  69.136  1.00  0.00    -0.244 C  
BRANCH  11  12
HETATM   12  C   UNL     1     -12.225  11.407  69.536  1.00  0.00    -0.303 C  
HETATM   13  C   UNL     1     -12.439  11.465  71.057  1.00  0.00    -0.383 C  
HETATM   14  O   UNL     1     -13.410  10.537  71.511  1.00  0.00    -0.356 OA 
HETATM   15  C   UNL     1     -12.931  12.868  71.302  1.00  0.00    -0.317 C  
HETATM   16  H   UNL     1     -13.542  10.573  72.451  1.00  0.00     0.000 HD 
HETATM   17  C   UNL     1     -12.074  13.724  70.392  1.00  0.00    -0.350 C  
HETATM   18  O   UNL     1     -12.805  14.894  70.078  1.00  0.00    -0.578 OA 
HETATM   19  C   UNL     1     -11.691  12.830  69.175  1.00  0.00    -0.375 C  
HETATM   20  H   UNL     1     -12.267  15.430  69.507  1.00  0.00     0.000 HD 
BRANCH  19  21
HETATM   21  C   UNL     1     -12.206  13.324  67.808  1.00  0.00    -0.158 C  
BRANCH  21  22
HETATM   22  C   UNL     1     -11.267  14.263  67.091  1.00  0.00    -0.333 C  
HETATM   23  C   UNL     1     -11.252  14.604  65.795  1.00  0.00    -0.336 C  
BRANCH  23  24
HETATM   24  C   UNL     1     -12.151  14.080  64.716  1.00  0.00    -0.455 C  
BRANCH  24  25
HETATM   25  C   UNL     1     -12.320  12.561  64.779  1.00  0.00    -0.544 C  
BRANCH  25  26
HETATM   26  C   UNL     1     -11.337  11.804  63.883  1.00  0.00    -0.494 C  
HETATM   27  C   UNL     1     -10.330  11.026  64.701  1.00  0.00    -0.345 C  
HETATM   28  O   UNL     1     -10.280  10.988  65.916  1.00  0.00    -0.239 OA 
HETATM   29  O   UNL     1      -9.460  10.342  63.919  1.00  0.00    -0.259 OA 
ENDBRANCH  25  26
ENDBRANCH  24  25
ENDBRANCH  23  24
ENDBRANCH  21  22
ENDBRANCH  19  21
ENDBRANCH  11  12
ENDBRANCH  10  11
ENDBRANCH   8  10
ENDBRANCH   7   8
ENDBRANCH   6   7
ENDBRANCH   5   6
ENDBRANCH   4   5
ENDBRANCH   3   4
ENDBRANCH   2   3
TORSDOF 14
ENDMDL
MODEL      231
REMARK 921   NORMALIZED FREE ENERGY PREDICTED BY IDOCK:   -3.65 KCAL/MOL
REMARK 922        TOTAL FREE ENERGY PREDICTED BY IDOCK:   -9.59 KCAL/MOL
REMARK 923 INTER-LIGAND FREE ENERGY PREDICTED BY IDOCK:   -8.07 KCAL/MOL
REMARK 924 INTRA-LIGAND FREE ENERGY PREDICTED BY IDOCK:   -1.52 KCAL/MOL
REMARK 927      BINDING AFFINITY PREDICTED BY RF-SCORE:    0.00 PKD
ROOT
HETATM    1  C   UNL     1      -9.166   4.377  68.547  1.00  0.00    -0.186 C  
HETATM    2  C   UNL     1      -9.820   4.290  69.914  1.00  0.00    -0.267 C  
ENDROOT
BRANCH   2   3
HETATM    3  C   UNL     1      -9.517   2.962  70.610  1.00  0.00    -0.218 C  
BRANCH   3   4
HETATM    4  C   UNL     1      -9.640   3.120  72.125  1.00  0.00    -0.209 C  
BRANCH   4   5
HETATM    5  C   UNL     1      -8.546   4.005  72.724  1.00  0.00    -0.101 C  
BRANCH   5   6
HETATM    6  C   UNL     1      -9.181   5.134  73.545  1.00  0.00    -0.130 C  
BRANCH   6   7
HETATM    7  C   UNL     1      -8.370   6.420  73.487  1.00  0.00    -0.121 C  
BRANCH   7   8
HETATM    8  C   UNL     1      -9.081   7.527  72.705  1.00  0.00    -0.152 C  
HETATM    9  O   UNL     1      -8.532   8.582  72.396  1.00  0.00    -0.263 OA 
BRANCH   8  10
HETATM   10  C   UNL     1     -10.509   7.206  72.314  1.00  0.00    -0.236 C  
BRANCH  10  11
HETATM   11  C   UNL     1     -10.933   7.502  70.868  1.00  0.00    -0.267 C  
BRANCH  11  12
HETATM   12  C   UNL     1     -12.046   8.583  70.830  1.00  0.00    -0.159 C  
HETATM   13  C   UNL     1     -12.969   8.485  72.056  1.00  0.00    -0.371 C  
HETATM   14  O   UNL     1     -13.941   7.459  71.930  1.00  0.00    -0.491 OA 
HETATM   15  C   UNL     1     -13.656   9.825  72.103  1.00  0.00    -0.432 C  
HETATM   16  H   UNL     1     -14.511   7.399  72.688  1.00  0.00     0.000 HD 
HETATM   17  C   UNL     1     -12.558  10.814  71.771  1.00  0.00    -0.277 C  
HETATM   18  O   UNL     1     -13.160  11.960  71.203  1.00  0.00    -0.235 OA 
HETATM   19  C   UNL     1     -11.550  10.064  70.849  1.00  0.00    -0.463 C  
HETATM   20  H   UNL     1     -12.471  12.581  70.994  1.00  0.00     0.000 HD 
BRANCH  19  21
HETATM   21  C   UNL     1     -11.391  10.651  69.432  1.00  0.00    -0.348 C  
BRANCH  21  22
HETATM   22  C   UNL     1     -10.049  10.388  68.796  1.00  0.00    -0.198 C  
HETATM   23  C   UNL     1      -9.681  10.552  67.518  1.00  0.00    -0.190 C  
BRANCH  23  24
HETATM   24  C   UNL     1     -10.552  10.997  66.382  1.00  0.00    -0.308 C  
BRANCH  24  25
HETATM   25  C   UNL     1     -11.245  12.333  66.662  1.00  0.00    -0.367 C  
BRANCH  25  26
HETATM   26  C   UNL     1     -11.164  13.315  65.492  1.00  0.00    -0.307 C  
HETATM   27  C   UNL     1     -12.296  13.101  64.511  1.00  0.00    -0.385 C  
HETATM   28  O   UNL     1     -13.172  12.263  64.610  1.00  0.00    -0.763 OA 
HETATM   29  O   UNL     1     -12.242  13.973  63.475  1.00  0.00    -0.626 OA 
ENDBRANCH  25  26
ENDBRANCH  24  25
ENDBRANCH  23  24
ENDBRANCH  21  22
ENDBRANCH  19  21
ENDBRANCH  11  12
ENDBRANCH  10  11
ENDBRANCH   8  10
ENDBRANCH   7   8
ENDBRANCH   6   7
ENDBRANCH   5   6
ENDBRANCH   4   5
ENDBRANCH   3   4
ENDBRANCH   2   3
TORSDOF 14
ENDMDL
MODEL      232
REMARK 921   NORMALIZED FREE ENERGY PREDICTED BY IDOCK:   -3.63 KCAL/MOL
REMARK 922        TOTAL FREE ENERGY PREDICTED BY IDOCK:   -9.55 KCAL/MOL
REMARK 923 INTER-LIGAND FREE ENERGY PREDICTED BY IDOCK:   -6.91 KCAL/MOL
REMARK 924 INTRA-LIGAND FREE ENERGY PREDICTED BY IDOCK:   -2.64 KCAL/MOL
REMARK 927      BINDING AFFINITY PREDICTED BY RF-SCORE:    0.00 PKD
ROOT
HETATM    1  C   UNL     1      -8.078   4.433  70.936  1.00  0.00    -0.068 C  
HETATM    2  C   UNL     1      -9.322   4.248  70.087  1.00  0.00    -0.228 C  
ENDROOT
BRANCH   2   3
HETATM    3  C   UNL     1      -9.353   5.211  68.898  1.00  0.00    -0.168 C  
BRANCH   3   4
HETATM    4  C   UNL     1     -10.734   5.852  68.774  1.00  0.00    -0.354 C  
BRANCH   4   5
HETATM    5  C   UNL     1     -10.773   6.996  67.759  1.00  0.00    -0.300 C  
BRANCH   5   6
HETATM    6  C   UNL     1      -9.344   7.384  67.360  1.00  0.00    -0.154 C  
BRANCH   6   7
HETATM    7  C   UNL     1      -9.155   8.892  67.276  1.00  0.00    -0.153 C  
BRANCH   7   8
HETATM    8  C   UNL     1      -8.060   9.400  68.217  1.00  0.00    -0.109 C  
HETATM    9  O   UNL     1      -7.319  10.337  67.931  1.00  0.00    -0.085 OA 
BRANCH   8  10
HETATM   10  C   UNL     1      -7.983   8.674  69.544  1.00  0.00    -0.097 C  
BRANCH  10  11
HETATM   11  C   UNL     1      -8.721   9.297  70.738  1.00  0.00    -0.272 C  
BRANCH  11  12
HETATM   12  C   UNL     1     -10.229   8.930  70.707  1.00  0.00    -0.282 C  
HETATM   13  C   UNL     1     -10.670   8.243  72.010  1.00  0.00    -0.297 C  
HETATM   14  O   UNL     1     -10.321   6.869  72.050  1.00  0.00    -0.198 OA 
HETATM   15  C   UNL     1     -12.170   8.381  72.005  1.00  0.00    -0.419 C  
HETATM   16  H   UNL     1     -10.594   6.444  72.855  1.00  0.00     0.000 HD 
HETATM   17  C   UNL     1     -12.408   9.791  71.504  1.00  0.00    -0.405 C  
HETATM   18  O   UNL     1     -13.685   9.827  70.896  1.00  0.00    -0.511 OA 
HETATM   19  C   UNL     1     -11.214  10.135  70.564  1.00  0.00    -0.411 C  
HETATM   20  H   UNL     1     -13.835  10.711  70.581  1.00  0.00     0.000 HD 
BRANCH  19  21
HETATM   21  C   UNL     1     -11.591  10.417  69.096  1.00  0.00    -0.234 C  
BRANCH  21  22
HETATM   22  C   UNL     1     -11.982  11.847  68.818  1.00  0.00    -0.307 C  
HETATM   23  C   UNL     1     -11.295  12.791  68.159  1.00  0.00    -0.329 C  
BRANCH  23  24
HETATM   24  C   UNL     1      -9.921  12.659  67.573  1.00  0.00    -0.205 C  
BRANCH  24  25
HETATM   25  C   UNL     1      -9.516  13.883  66.748  1.00  0.00    -0.287 C  
BRANCH  25  26
HETATM   26  C   UNL     1     -10.522  15.033  66.836  1.00  0.00    -0.279 C  
HETATM   27  C   UNL     1      -9.921  16.240  67.523  1.00  0.00    -0.248 C  
HETATM   28  O   UNL     1      -8.790  16.317  67.962  1.00  0.00    -0.179 OA 
HETATM   29  O   UNL     1     -10.798  17.270  67.598  1.00  0.00    -0.335 OA 
ENDBRANCH  25  26
ENDBRANCH  24  25
ENDBRANCH  23  24
ENDBRANCH  21  22
ENDBRANCH  19  21
ENDBRANCH  11  12
ENDBRANCH  10  11
ENDBRANCH   8  10
ENDBRANCH   7   8
ENDBRANCH   6   7
ENDBRANCH   5   6
ENDBRANCH   4   5
ENDBRANCH   3   4
ENDBRANCH   2   3
TORSDOF 14
ENDMDL
MODEL      233
REMARK 921   NORMALIZED FREE ENERGY PREDICTED BY IDOCK:   -3.63 KCAL/MOL
REMARK 922        TOTAL FREE ENERGY PREDICTED BY IDOCK:   -9.55 KCAL/MOL
REMARK 923 INTER-LIGAND FREE ENERGY PREDICTED BY IDOCK:   -7.74 KCAL/MOL
REMARK 924 INTRA-LIGAND FREE ENERGY PREDICTED BY IDOCK:   -1.81 KCAL/MOL
REMARK 927      BINDING AFFINITY PREDICTED BY RF-SCORE:    0.00 PKD
ROOT
HETATM    1  C   UNL     1      -8.697   5.451  70.140  1.00  0.00    -0.134 C  
HETATM    2  C   UNL     1     -10.149   5.791  70.427  1.00  0.00    -0.271 C  
ENDROOT
BRANCH   2   3
HETATM    3  C   UNL     1     -10.324   6.436  71.803  1.00  0.00    -0.231 C  
BRANCH   3   4
HETATM    4  C   UNL     1      -9.670   7.817  71.826  1.00  0.00    -0.206 C  
BRANCH   4   5
HETATM    5  C   UNL     1     -10.584   8.919  71.287  1.00  0.00    -0.351 C  
BRANCH   5   6
HETATM    6  C   UNL     1      -9.815   9.788  70.284  1.00  0.00    -0.296 C  
BRANCH   6   7
HETATM    7  C   UNL     1     -10.031   9.341  68.845  1.00  0.00    -0.190 C  
BRANCH   7   8
HETATM    8  C   UNL     1      -9.239  10.184  67.844  1.00  0.00    -0.138 C  
HETATM    9  O   UNL     1      -9.094   9.860  66.668  1.00  0.00    -0.144 OA 
BRANCH   8  10
HETATM   10  C   UNL     1      -8.671  11.469  68.412  1.00  0.00    -0.160 C  
BRANCH  10  11
HETATM   11  C   UNL     1      -8.658  12.705  67.499  1.00  0.00    -0.185 C  
BRANCH  11  12
HETATM   12  C   UNL     1      -9.186  13.954  68.254  1.00  0.00    -0.207 C  
HETATM   13  C   UNL     1      -8.034  14.849  68.739  1.00  0.00    -0.156 C  
HETATM   14  O   UNL     1      -7.429  14.368  69.928  1.00  0.00    -0.385 OA 
HETATM   15  C   UNL     1      -8.693  16.176  69.011  1.00  0.00    -0.254 C  
HETATM   16  H   UNL     1      -6.717  14.921  70.227  1.00  0.00     0.000 HD 
HETATM   17  C   UNL     1      -9.660  16.350  67.858  1.00  0.00    -0.228 C  
HETATM   18  O   UNL     1     -10.714  17.187  68.296  1.00  0.00    -0.366 OA 
HETATM   19  C   UNL     1     -10.087  14.918  67.417  1.00  0.00    -0.228 C  
HETATM   20  H   UNL     1     -11.321  17.296  67.573  1.00  0.00     0.000 HD 
BRANCH  19  21
HETATM   21  C   UNL     1     -11.588  14.602  67.566  1.00  0.00    -0.396 C  
BRANCH  21  22
HETATM   22  C   UNL     1     -11.909  13.131  67.650  1.00  0.00    -0.405 C  
HETATM   23  C   UNL     1     -12.084  12.373  68.742  1.00  0.00    -0.158 C  
BRANCH  23  24
HETATM   24  C   UNL     1     -11.947  12.807  70.170  1.00  0.00    -0.371 C  
BRANCH  24  25
HETATM   25  C   UNL     1     -12.712  14.099  70.466  1.00  0.00    -0.374 C  
BRANCH  25  26
HETATM   26  C   UNL     1     -12.034  14.977  71.521  1.00  0.00    -0.416 C  
HETATM   27  C   UNL     1     -13.051  15.651  72.416  1.00  0.00    -0.460 C  
HETATM   28  O   UNL     1     -14.259  15.532  72.332  1.00  0.00    -0.553 OA 
HETATM   29  O   UNL     1     -12.463  16.423  73.361  1.00  0.00    -0.477 OA 
ENDBRANCH  25  26
ENDBRANCH  24  25
ENDBRANCH  23  24
ENDBRANCH  21  22
ENDBRANCH  19  21
ENDBRANCH  11  12
ENDBRANCH  10  11
ENDBRANCH   8  10
ENDBRANCH   7   8
ENDBRANCH   6   7
ENDBRANCH   5   6
ENDBRANCH   4   5
ENDBRANCH   3   4
ENDBRANCH   2   3
TORSDOF 14
ENDMDL
MODEL      234
REMARK 921   NORMALIZED FREE ENERGY PREDICTED BY IDOCK:   -3.62 KCAL/MOL
REMARK 922        TOTAL FREE ENERGY PREDICTED BY IDOCK:   -9.54 KCAL/MOL
REMARK 923 INTER-LIGAND FREE ENERGY PREDICTED BY IDOCK:   -7.18 KCAL/MOL
REMARK 924 INTRA-LIGAND FREE ENERGY PREDICTED BY IDOCK:   -2.36 KCAL/MOL
REMARK 927      BINDING AFFINITY PREDICTED BY RF-SCORE:    0.00 PKD
ROOT
HETATM    1  C   UNL     1     -12.329   8.436  72.177  1.00  0.00    -0.426 C  
HETATM    2  C   UNL     1     -12.449   9.845  71.624  1.00  0.00    -0.507 C  
ENDROOT
BRANCH   2   3
HETATM    3  C   UNL     1     -11.420  10.119  70.525  1.00  0.00    -0.417 C  
BRANCH   3   4
HETATM    4  C   UNL     1     -10.542   8.887  70.306  1.00  0.00    -0.246 C  
BRANCH   4   5
HETATM    5  C   UNL     1      -9.725   8.958  69.015  1.00  0.00    -0.171 C  
BRANCH   5   6
HETATM    6  C   UNL     1      -8.851  10.218  69.023  1.00  0.00    -0.170 C  
BRANCH   6   7
HETATM    7  C   UNL     1      -7.371   9.899  68.870  1.00  0.00    -0.078 C  
BRANCH   7   8
HETATM    8  C   UNL     1      -7.114   8.781  67.856  1.00  0.00    -0.079 C  
HETATM    9  O   UNL     1      -6.948   7.609  68.184  1.00  0.00    -0.071 OA 
BRANCH   8  10
HETATM   10  C   UNL     1      -7.110   9.232  66.409  1.00  0.00    -0.088 C  
BRANCH  10  11
HETATM   11  C   UNL     1      -8.418   9.086  65.617  1.00  0.00    -0.163 C  
BRANCH  11  12
HETATM   12  C   UNL     1      -8.727  10.381  64.820  1.00  0.00    -0.198 C  
HETATM   13  C   UNL     1      -8.542  10.172  63.308  1.00  0.00    -0.198 C  
HETATM   14  O   UNL     1      -7.183  10.233  62.909  1.00  0.00    -0.138 OA 
HETATM   15  C   UNL     1      -9.301  11.314  62.686  1.00  0.00    -0.313 C  
HETATM   16  H   UNL     1      -7.068  10.104  61.975  1.00  0.00     0.000 HD 
HETATM   17  C   UNL     1     -10.562  11.417  63.521  1.00  0.00    -0.402 C  
HETATM   18  O   UNL     1     -11.026  12.751  63.446  1.00  0.00    -0.537 OA 
HETATM   19  C   UNL     1     -10.188  10.921  64.950  1.00  0.00    -0.381 C  
HETATM   20  H   UNL     1     -11.816  12.816  63.970  1.00  0.00     0.000 HD 
BRANCH  19  21
HETATM   21  C   UNL     1     -10.332  11.970  66.070  1.00  0.00    -0.271 C  
BRANCH  21  22
HETATM   22  C   UNL     1     -11.489  11.725  67.007  1.00  0.00    -0.368 C  
HETATM   23  C   UNL     1     -11.977  12.529  67.963  1.00  0.00    -0.281 C  
BRANCH  23  24
HETATM   24  C   UNL     1     -11.445  13.870  68.369  1.00  0.00    -0.346 C  
BRANCH  24  25
HETATM   25  C   UNL     1     -10.839  13.858  69.775  1.00  0.00     0.115 C  
BRANCH  25  26
HETATM   26  C   UNL     1     -11.819  14.308  70.861  1.00  0.00    -0.322 C  
HETATM   27  C   UNL     1     -11.764  15.806  71.068  1.00  0.00    -0.422 C  
HETATM   28  O   UNL     1     -11.044  16.580  70.467  1.00  0.00    -0.313 OA 
HETATM   29  O   UNL     1     -12.636  16.219  72.020  1.00  0.00    -0.386 OA 
ENDBRANCH  25  26
ENDBRANCH  24  25
ENDBRANCH  23  24
ENDBRANCH  21  22
ENDBRANCH  19  21
ENDBRANCH  11  12
ENDBRANCH  10  11
ENDBRANCH   8  10
ENDBRANCH   7   8
ENDBRANCH   6   7
ENDBRANCH   5   6
ENDBRANCH   4   5
ENDBRANCH   3   4
ENDBRANCH   2   3
TORSDOF 14
ENDMDL
MODEL      235
REMARK 921   NORMALIZED FREE ENERGY PREDICTED BY IDOCK:   -3.62 KCAL/MOL
REMARK 922        TOTAL FREE ENERGY PREDICTED BY IDOCK:   -9.53 KCAL/MOL
REMARK 923 INTER-LIGAND FREE ENERGY PREDICTED BY IDOCK:   -7.45 KCAL/MOL
REMARK 924 INTRA-LIGAND FREE ENERGY PREDICTED BY IDOCK:   -2.08 KCAL/MOL
REMARK 927      BINDING AFFINITY PREDICTED BY RF-SCORE:    0.00 PKD
ROOT
HETATM    1  C   UNL     1      -9.222  19.565  68.444  1.00  0.00    -0.412 C  
HETATM    2  C   UNL     1      -9.546  20.585  67.368  1.00  0.00    -0.578 C  
ENDROOT
BRANCH   2   3
HETATM    3  C   UNL     1      -9.718  19.933  65.994  1.00  0.00    -0.469 C  
BRANCH   3   4
HETATM    4  C   UNL     1     -10.869  18.928  66.029  1.00  0.00    -0.220 C  
BRANCH   4   5
HETATM    5  C   UNL     1     -10.624  17.708  65.139  1.00  0.00     0.354 C  
BRANCH   5   6
HETATM    6  C   UNL     1     -10.421  16.463  66.011  1.00  0.00    -0.333 C  
BRANCH   6   7
HETATM    7  C   UNL     1     -10.162  15.212  65.183  1.00  0.00    -0.386 C  
BRANCH   7   8
HETATM    8  C   UNL     1     -11.388  14.301  65.097  1.00  0.00    -0.345 C  
HETATM    9  O   UNL     1     -11.699  13.697  64.073  1.00  0.00    -0.403 OA 
BRANCH   8  10
HETATM   10  C   UNL     1     -12.174  14.178  66.387  1.00  0.00    -0.473 C  
BRANCH  10  11
HETATM   11  C   UNL     1     -11.684  13.154  67.422  1.00  0.00    -0.419 C  
BRANCH  11  12
HETATM   12  C   UNL     1     -11.264  13.859  68.739  1.00  0.00    -0.302 C  
HETATM   13  C   UNL     1      -9.937  14.617  68.575  1.00  0.00    -0.235 C  
HETATM   14  O   UNL     1      -8.806  13.765  68.654  1.00  0.00    -0.299 OA 
HETATM   15  C   UNL     1      -9.922  15.580  69.733  1.00  0.00    -0.281 C  
HETATM   16  H   UNL     1      -7.986  14.233  68.553  1.00  0.00     0.000 HD 
HETATM   17  C   UNL     1     -11.347  16.090  69.806  1.00  0.00    -0.331 C  
HETATM   18  O   UNL     1     -11.600  16.488  71.140  1.00  0.00    -0.612 OA 
HETATM   19  C   UNL     1     -12.256  14.945  69.269  1.00  0.00    -0.221 C  
HETATM   20  H   UNL     1     -12.493  16.807  71.186  1.00  0.00     0.000 HD 
BRANCH  19  21
HETATM   21  C   UNL     1     -13.267  14.375  70.284  1.00  0.00     0.155 C  
BRANCH  21  22
HETATM   22  C   UNL     1     -12.642  13.807  71.533  1.00  0.00    -0.405 C  
HETATM   23  C   UNL     1     -12.463  12.522  71.871  1.00  0.00     0.173 C  
BRANCH  23  24
HETATM   24  C   UNL     1     -12.897  11.319  71.091  1.00  0.00    -0.452 C  
BRANCH  24  25
HETATM   25  C   UNL     1     -11.759  10.319  70.873  1.00  0.00    -0.472 C  
BRANCH  25  26
HETATM   26  C   UNL     1     -11.634   9.850  69.421  1.00  0.00    -0.004 C  
HETATM   27  C   UNL     1     -10.316  10.277  68.814  1.00  0.00    -0.195 C  
HETATM   28  O   UNL     1      -9.447  10.913  69.380  1.00  0.00    -0.096 OA 
HETATM   29  O   UNL     1     -10.188   9.859  67.532  1.00  0.00    -0.188 OA 
ENDBRANCH  25  26
ENDBRANCH  24  25
ENDBRANCH  23  24
ENDBRANCH  21  22
ENDBRANCH  19  21
ENDBRANCH  11  12
ENDBRANCH  10  11
ENDBRANCH   8  10
ENDBRANCH   7   8
ENDBRANCH   6   7
ENDBRANCH   5   6
ENDBRANCH   4   5
ENDBRANCH   3   4
ENDBRANCH   2   3
TORSDOF 14
ENDMDL
MODEL      236
REMARK 921   NORMALIZED FREE ENERGY PREDICTED BY IDOCK:   -3.61 KCAL/MOL
REMARK 922        TOTAL FREE ENERGY PREDICTED BY IDOCK:   -9.52 KCAL/MOL
REMARK 923 INTER-LIGAND FREE ENERGY PREDICTED BY IDOCK:   -7.07 KCAL/MOL
REMARK 924 INTRA-LIGAND FREE ENERGY PREDICTED BY IDOCK:   -2.45 KCAL/MOL
REMARK 927      BINDING AFFINITY PREDICTED BY RF-SCORE:    0.00 PKD
ROOT
HETATM    1  C   UNL     1      -7.425   5.308  63.079  1.00  0.00    -0.052 C  
HETATM    2  C   UNL     1      -7.629   5.945  64.442  1.00  0.00    -0.087 C  
ENDROOT
BRANCH   2   3
HETATM    3  C   UNL     1      -6.300   6.226  65.147  1.00  0.00    -0.038 C  
BRANCH   3   4
HETATM    4  C   UNL     1      -6.356   7.578  65.858  1.00  0.00    -0.042 C  
BRANCH   4   5
HETATM    5  C   UNL     1      -7.336   8.555  65.206  1.00  0.00    -0.084 C  
BRANCH   5   6
HETATM    6  C   UNL     1      -6.765   9.977  65.262  1.00  0.00    -0.117 C  
BRANCH   6   7
HETATM    7  C   UNL     1      -6.019  10.252  66.559  1.00  0.00    -0.065 C  
BRANCH   7   8
HETATM    8  C   UNL     1      -6.772  11.217  67.477  1.00  0.00    -0.074 C  
HETATM    9  O   UNL     1      -7.052  12.367  67.148  1.00  0.00    -0.142 OA 
BRANCH   8  10
HETATM   10  C   UNL     1      -7.174  10.631  68.815  1.00  0.00    -0.087 C  
BRANCH  10  11
HETATM   11  C   UNL     1      -7.770   9.215  68.819  1.00  0.00    -0.087 C  
BRANCH  11  12
HETATM   12  C   UNL     1      -9.316   9.268  68.952  1.00  0.00    -0.150 C  
HETATM   13  C   UNL     1      -9.750   9.489  70.410  1.00  0.00    -0.271 C  
HETATM   14  O   UNL     1      -9.710   8.299  71.180  1.00  0.00    -0.155 OA 
HETATM   15  C   UNL     1     -11.173   9.968  70.298  1.00  0.00    -0.379 C  
HETATM   16  H   UNL     1      -9.978   8.435  72.081  1.00  0.00     0.000 HD 
HETATM   17  C   UNL     1     -11.150  10.921  69.121  1.00  0.00    -0.245 C  
HETATM   18  O   UNL     1     -12.447  10.949  68.557  1.00  0.00    -0.742 OA 
HETATM   19  C   UNL     1     -10.021  10.422  68.170  1.00  0.00    -0.170 C  
HETATM   20  H   UNL     1     -12.433  11.547  67.818  1.00  0.00     0.000 HD 
BRANCH  19  21
HETATM   21  C   UNL     1     -10.487   9.985  66.766  1.00  0.00    -0.267 C  
BRANCH  21  22
HETATM   22  C   UNL     1     -10.031  10.890  65.649  1.00  0.00    -0.305 C  
HETATM   23  C   UNL     1     -10.652  11.958  65.129  1.00  0.00    -0.333 C  
BRANCH  23  24
HETATM   24  C   UNL     1     -12.002  12.486  65.509  1.00  0.00    -0.500 C  
BRANCH  24  25
HETATM   25  C   UNL     1     -12.135  13.990  65.258  1.00  0.00    -0.415 C  
BRANCH  25  26
HETATM   26  C   UNL     1     -10.903  14.788  65.690  1.00  0.00    -0.344 C  
HETATM   27  C   UNL     1     -10.836  16.126  64.986  1.00  0.00    -0.363 C  
HETATM   28  O   UNL     1     -11.641  16.542  64.176  1.00  0.00    -1.052 OA 
HETATM   29  O   UNL     1      -9.754  16.847  65.368  1.00  0.00    -0.506 OA 
ENDBRANCH  25  26
ENDBRANCH  24  25
ENDBRANCH  23  24
ENDBRANCH  21  22
ENDBRANCH  19  21
ENDBRANCH  11  12
ENDBRANCH  10  11
ENDBRANCH   8  10
ENDBRANCH   7   8
ENDBRANCH   6   7
ENDBRANCH   5   6
ENDBRANCH   4   5
ENDBRANCH   3   4
ENDBRANCH   2   3
TORSDOF 14
ENDMDL
MODEL      237
REMARK 921   NORMALIZED FREE ENERGY PREDICTED BY IDOCK:   -3.61 KCAL/MOL
REMARK 922        TOTAL FREE ENERGY PREDICTED BY IDOCK:   -9.52 KCAL/MOL
REMARK 923 INTER-LIGAND FREE ENERGY PREDICTED BY IDOCK:   -7.47 KCAL/MOL
REMARK 924 INTRA-LIGAND FREE ENERGY PREDICTED BY IDOCK:   -2.05 KCAL/MOL
REMARK 927      BINDING AFFINITY PREDICTED BY RF-SCORE:    0.00 PKD
ROOT
HETATM    1  C   UNL     1     -10.896  12.466  63.703  1.00  0.00    -0.509 C  
HETATM    2  C   UNL     1     -10.811  11.956  65.131  1.00  0.00    -0.350 C  
ENDROOT
BRANCH   2   3
HETATM    3  C   UNL     1     -12.000  12.418  65.976  1.00  0.00    -0.419 C  
BRANCH   3   4
HETATM    4  C   UNL     1     -11.814  13.877  66.392  1.00  0.00    -0.436 C  
BRANCH   4   5
HETATM    5  C   UNL     1     -12.018  14.100  67.892  1.00  0.00    -0.378 C  
BRANCH   5   6
HETATM    6  C   UNL     1     -11.960  12.758  68.629  1.00  0.00    -0.272 C  
BRANCH   6   7
HETATM    7  C   UNL     1     -12.148  12.913  70.132  1.00  0.00    -0.373 C  
BRANCH   7   8
HETATM    8  C   UNL     1     -12.460  11.585  70.825  1.00  0.00    -0.349 C  
HETATM    9  O   UNL     1     -13.258  11.489  71.753  1.00  0.00    -0.457 OA 
BRANCH   8  10
HETATM   10  C   UNL     1     -11.727  10.388  70.252  1.00  0.00    -0.406 C  
BRANCH  10  11
HETATM   11  C   UNL     1     -11.288   9.289  71.232  1.00  0.00    -0.423 C  
BRANCH  11  12
HETATM   12  C   UNL     1     -10.182   8.400  70.603  1.00  0.00    -0.222 C  
HETATM   13  C   UNL     1      -8.777   8.907  70.966  1.00  0.00    -0.224 C  
HETATM   14  O   UNL     1      -8.368  10.005  70.168  1.00  0.00    -0.301 OA 
HETATM   15  C   UNL     1      -7.882   7.726  70.693  1.00  0.00    -0.096 C  
HETATM   16  H   UNL     1      -7.499  10.319  70.392  1.00  0.00     0.000 HD 
HETATM   17  C   UNL     1      -8.668   6.540  71.214  1.00  0.00    -0.130 C  
HETATM   18  O   UNL     1      -8.250   5.393  70.500  1.00  0.00    -0.105 OA 
HETATM   19  C   UNL     1     -10.175   6.906  71.063  1.00  0.00    -0.213 C  
HETATM   20  H   UNL     1      -8.743   4.649  70.826  1.00  0.00     0.000 HD 
BRANCH  19  21
HETATM   21  C   UNL     1     -10.983   5.994  70.118  1.00  0.00    -0.429 C  
BRANCH  21  22
HETATM   22  C   UNL     1     -11.462   6.672  68.859  1.00  0.00    -0.103 C  
HETATM   23  C   UNL     1     -11.073   6.460  67.593  1.00  0.00    -0.388 C  
BRANCH  23  24
HETATM   24  C   UNL     1     -10.007   5.516  67.126  1.00  0.00    -0.193 C  
BRANCH  24  25
HETATM   25  C   UNL     1      -8.653   6.205  66.941  1.00  0.00    -0.109 C  
BRANCH  25  26
HETATM   26  C   UNL     1      -8.549   6.995  65.635  1.00  0.00    -0.121 C  
HETATM   27  C   UNL     1      -8.753   8.477  65.867  1.00  0.00    -0.174 C  
HETATM   28  O   UNL     1      -8.975   9.002  66.942  1.00  0.00    -0.120 OA 
HETATM   29  O   UNL     1      -8.653   9.189  64.719  1.00  0.00    -0.169 OA 
ENDBRANCH  25  26
ENDBRANCH  24  25
ENDBRANCH  23  24
ENDBRANCH  21  22
ENDBRANCH  19  21
ENDBRANCH  11  12
ENDBRANCH  10  11
ENDBRANCH   8  10
ENDBRANCH   7   8
ENDBRANCH   6   7
ENDBRANCH   5   6
ENDBRANCH   4   5
ENDBRANCH   3   4
ENDBRANCH   2   3
TORSDOF 14
ENDMDL
MODEL      238
REMARK 921   NORMALIZED FREE ENERGY PREDICTED BY IDOCK:   -3.60 KCAL/MOL
REMARK 922        TOTAL FREE ENERGY PREDICTED BY IDOCK:   -9.51 KCAL/MOL
REMARK 923 INTER-LIGAND FREE ENERGY PREDICTED BY IDOCK:   -7.38 KCAL/MOL
REMARK 924 INTRA-LIGAND FREE ENERGY PREDICTED BY IDOCK:   -2.13 KCAL/MOL
REMARK 927      BINDING AFFINITY PREDICTED BY RF-SCORE:    0.00 PKD
ROOT
HETATM    1  C   UNL     1     -12.995  10.180  71.803  1.00  0.00    -0.567 C  
HETATM    2  C   UNL     1     -12.435   8.782  71.994  1.00  0.00    -0.452 C  
ENDROOT
BRANCH   2   3
HETATM    3  C   UNL     1     -10.907   8.783  72.076  1.00  0.00    -0.428 C  
BRANCH   3   4
HETATM    4  C   UNL     1     -10.323   7.798  71.064  1.00  0.00    -0.215 C  
BRANCH   4   5
HETATM    5  C   UNL     1     -10.482   8.264  69.616  1.00  0.00    -0.221 C  
BRANCH   5   6
HETATM    6  C   UNL     1     -10.125   9.752  69.508  1.00  0.00    -0.233 C  
BRANCH   6   7
HETATM    7  C   UNL     1     -11.171  10.544  68.736  1.00  0.00    -0.317 C  
BRANCH   7   8
HETATM    8  C   UNL     1     -10.962  12.056  68.848  1.00  0.00    -0.232 C  
HETATM    9  O   UNL     1     -11.872  12.837  69.110  1.00  0.00    -0.298 OA 
BRANCH   8  10
HETATM   10  C   UNL     1      -9.532  12.511  68.638  1.00  0.00    -0.010 C  
BRANCH  10  11
HETATM   11  C   UNL     1      -9.159  13.068  67.255  1.00  0.00    -0.209 C  
BRANCH  11  12
HETATM   12  C   UNL     1     -10.311  13.936  66.682  1.00  0.00    -0.278 C  
HETATM   13  C   UNL     1     -10.069  15.433  66.936  1.00  0.00    -0.257 C  
HETATM   14  O   UNL     1     -10.409  15.827  68.255  1.00  0.00    -0.231 OA 
HETATM   15  C   UNL     1     -10.982  16.121  65.955  1.00  0.00    -0.072 C  
HETATM   16  H   UNL     1     -10.260  16.752  68.412  1.00  0.00     0.000 HD 
HETATM   17  C   UNL     1     -10.847  15.301  64.688  1.00  0.00    -0.257 C  
HETATM   18  O   UNL     1     -12.040  15.451  63.942  1.00  0.00    -0.968 OA 
HETATM   19  C   UNL     1     -10.521  13.845  65.136  1.00  0.00    -0.409 C  
HETATM   20  H   UNL     1     -11.955  14.936  63.148  1.00  0.00     0.000 HD 
BRANCH  19  21
HETATM   21  C   UNL     1     -11.569  12.784  64.744  1.00  0.00    -0.368 C  
BRANCH  21  22
HETATM   22  C   UNL     1     -11.271  11.397  65.255  1.00  0.00    -0.144 C  
HETATM   23  C   UNL     1     -10.267  10.576  64.916  1.00  0.00    -0.371 C  
BRANCH  23  24
HETATM   24  C   UNL     1      -9.207  10.830  63.886  1.00  0.00    -0.258 C  
BRANCH  24  25
HETATM   25  C   UNL     1      -7.858  10.219  64.271  1.00  0.00    -0.117 C  
BRANCH  25  26
HETATM   26  C   UNL     1      -7.562  10.298  65.770  1.00  0.00    -0.143 C  
HETATM   27  C   UNL     1      -6.117  10.666  66.030  1.00  0.00    -0.131 C  
HETATM   28  O   UNL     1      -5.274  10.875  65.179  1.00  0.00    -0.147 OA 
HETATM   29  O   UNL     1      -5.845  10.750  67.355  1.00  0.00    -0.044 OA 
ENDBRANCH  25  26
ENDBRANCH  24  25
ENDBRANCH  23  24
ENDBRANCH  21  22
ENDBRANCH  19  21
ENDBRANCH  11  12
ENDBRANCH  10  11
ENDBRANCH   8  10
ENDBRANCH   7   8
ENDBRANCH   6   7
ENDBRANCH   5   6
ENDBRANCH   4   5
ENDBRANCH   3   4
ENDBRANCH   2   3
TORSDOF 14
ENDMDL
MODEL      239
REMARK 921   NORMALIZED FREE ENERGY PREDICTED BY IDOCK:   -3.59 KCAL/MOL
REMARK 922        TOTAL FREE ENERGY PREDICTED BY IDOCK:   -9.49 KCAL/MOL
REMARK 923 INTER-LIGAND FREE ENERGY PREDICTED BY IDOCK:   -7.25 KCAL/MOL
REMARK 924 INTRA-LIGAND FREE ENERGY PREDICTED BY IDOCK:   -2.24 KCAL/MOL
REMARK 927      BINDING AFFINITY PREDICTED BY RF-SCORE:    0.00 PKD
ROOT
HETATM    1  C   UNL     1      -5.301   5.320  64.954  1.00  0.00    -0.013 C  
HETATM    2  C   UNL     1      -6.514   6.008  65.555  1.00  0.00    -0.043 C  
ENDROOT
BRANCH   2   3
HETATM    3  C   UNL     1      -7.496   5.007  66.167  1.00  0.00    -0.086 C  
BRANCH   3   4
HETATM    4  C   UNL     1      -8.088   5.572  67.458  1.00  0.00    -0.101 C  
BRANCH   4   5
HETATM    5  C   UNL     1      -7.372   6.834  67.941  1.00  0.00    -0.097 C  
BRANCH   5   6
HETATM    6  C   UNL     1      -7.469   6.934  69.468  1.00  0.00    -0.096 C  
BRANCH   6   7
HETATM    7  C   UNL     1      -7.956   5.640  70.104  1.00  0.00    -0.099 C  
BRANCH   7   8
HETATM    8  C   UNL     1      -8.739   5.879  71.396  1.00  0.00    -0.133 C  
HETATM    9  O   UNL     1      -8.211   6.278  72.431  1.00  0.00    -0.108 OA 
BRANCH   8  10
HETATM   10  C   UNL     1     -10.228   5.615  71.289  1.00  0.00    -0.279 C  
BRANCH  10  11
HETATM   11  C   UNL     1     -10.928   6.020  69.983  1.00  0.00    -0.450 C  
BRANCH  11  12
HETATM   12  C   UNL     1     -11.514   7.453  70.093  1.00  0.00    -0.154 C  
HETATM   13  C   UNL     1     -11.958   7.773  71.530  1.00  0.00    -0.300 C  
HETATM   14  O   UNL     1     -13.223   7.216  71.849  1.00  0.00    -0.483 OA 
HETATM   15  C   UNL     1     -12.049   9.276  71.558  1.00  0.00    -0.435 C  
HETATM   16  H   UNL     1     -13.497   7.414  72.737  1.00  0.00     0.000 HD 
HETATM   17  C   UNL     1     -10.834   9.733  70.776  1.00  0.00    -0.333 C  
HETATM   18  O   UNL     1     -11.122  11.005  70.228  1.00  0.00    -0.463 OA 
HETATM   19  C   UNL     1     -10.530   8.614  69.736  1.00  0.00    -0.220 C  
HETATM   20  H   UNL     1     -10.360  11.292  69.737  1.00  0.00     0.000 HD 
BRANCH  19  21
HETATM   21  C   UNL     1     -10.633   9.041  68.258  1.00  0.00    -0.213 C  
BRANCH  21  22
HETATM   22  C   UNL     1      -9.390   9.698  67.712  1.00  0.00    -0.142 C  
HETATM   23  C   UNL     1      -9.183  10.214  66.492  1.00  0.00    -0.182 C  
BRANCH  23  24
HETATM   24  C   UNL     1     -10.142  10.213  65.340  1.00  0.00    -0.342 C  
BRANCH  24  25
HETATM   25  C   UNL     1     -10.320  11.603  64.725  1.00  0.00    -0.331 C  
BRANCH  25  26
HETATM   26  C   UNL     1     -11.164  12.544  65.587  1.00  0.00    -0.352 C  
HETATM   27  C   UNL     1     -12.232  13.236  64.769  1.00  0.00    -0.417 C  
HETATM   28  O   UNL     1     -12.420  13.087  63.576  1.00  0.00    -0.694 OA 
HETATM   29  O   UNL     1     -12.994  14.064  65.523  1.00  0.00    -0.681 OA 
ENDBRANCH  25  26
ENDBRANCH  24  25
ENDBRANCH  23  24
ENDBRANCH  21  22
ENDBRANCH  19  21
ENDBRANCH  11  12
ENDBRANCH  10  11
ENDBRANCH   8  10
ENDBRANCH   7   8
ENDBRANCH   6   7
ENDBRANCH   5   6
ENDBRANCH   4   5
ENDBRANCH   3   4
ENDBRANCH   2   3
TORSDOF 14
ENDMDL
MODEL      240
REMARK 921   NORMALIZED FREE ENERGY PREDICTED BY IDOCK:   -3.56 KCAL/MOL
REMARK 922        TOTAL FREE ENERGY PREDICTED BY IDOCK:   -9.43 KCAL/MOL
REMARK 923 INTER-LIGAND FREE ENERGY PREDICTED BY IDOCK:   -7.51 KCAL/MOL
REMARK 924 INTRA-LIGAND FREE ENERGY PREDICTED BY IDOCK:   -1.92 KCAL/MOL
REMARK 927      BINDING AFFINITY PREDICTED BY RF-SCORE:    0.00 PKD
ROOT
HETATM    1  C   UNL     1      -8.628   4.193  66.901  1.00  0.00    -0.108 C  
HETATM    2  C   UNL     1     -10.070   4.644  66.756  1.00  0.00    -0.246 C  
ENDROOT
BRANCH   2   3
HETATM    3  C   UNL     1     -10.338   5.954  67.499  1.00  0.00    -0.269 C  
BRANCH   3   4
HETATM    4  C   UNL     1     -10.416   5.701  69.004  1.00  0.00    -0.321 C  
BRANCH   4   5
HETATM    5  C   UNL     1      -9.226   6.282  69.770  1.00  0.00    -0.150 C  
BRANCH   5   6
HETATM    6  C   UNL     1      -9.728   7.084  70.977  1.00  0.00    -0.175 C  
BRANCH   6   7
HETATM    7  C   UNL     1     -10.969   7.904  70.654  1.00  0.00    -0.248 C  
BRANCH   7   8
HETATM    8  C   UNL     1     -11.589   8.544  71.897  1.00  0.00    -0.341 C  
HETATM    9  O   UNL     1     -11.599   7.994  72.996  1.00  0.00    -0.346 OA 
BRANCH   8  10
HETATM   10  C   UNL     1     -12.166   9.927  71.673  1.00  0.00    -0.482 C  
BRANCH  10  11
HETATM   11  C   UNL     1     -11.549  10.781  70.554  1.00  0.00    -0.425 C  
BRANCH  11  12
HETATM   12  C   UNL     1     -12.350  12.096  70.358  1.00  0.00    -0.315 C  
HETATM   13  C   UNL     1     -12.710  12.742  71.705  1.00  0.00    -0.139 C  
HETATM   14  O   UNL     1     -13.832  12.134  72.323  1.00  0.00    -0.403 OA 
HETATM   15  C   UNL     1     -13.044  14.167  71.348  1.00  0.00    -0.428 C  
HETATM   16  H   UNL     1     -14.055  12.534  73.155  1.00  0.00     0.000 HD 
HETATM   17  C   UNL     1     -11.996  14.545  70.321  1.00  0.00    -0.314 C  
HETATM   18  O   UNL     1     -12.537  15.562  69.500  1.00  0.00    -0.604 OA 
HETATM   19  C   UNL     1     -11.606  13.230  69.582  1.00  0.00    -0.329 C  
HETATM   20  H   UNL     1     -11.880  15.799  68.855  1.00  0.00     0.000 HD 
BRANCH  19  21
HETATM   21  C   UNL     1     -11.910  13.208  68.071  1.00  0.00    -0.398 C  
BRANCH  21  22
HETATM   22  C   UNL     1     -10.687  13.254  67.189  1.00  0.00    -0.264 C  
HETATM   23  C   UNL     1     -10.163  12.280  66.432  1.00  0.00    -0.247 C  
BRANCH  23  24
HETATM   24  C   UNL     1     -10.651  10.867  66.320  1.00  0.00    -0.276 C  
BRANCH  24  25
HETATM   25  C   UNL     1     -10.197   9.995  67.493  1.00  0.00    -0.260 C  
BRANCH  25  26
HETATM   26  C   UNL     1      -8.843   9.323  67.261  1.00  0.00    -0.132 C  
HETATM   27  C   UNL     1      -7.939   9.468  68.465  1.00  0.00    -0.093 C  
HETATM   28  O   UNL     1      -8.222  10.042  69.500  1.00  0.00    -0.138 OA 
HETATM   29  O   UNL     1      -6.739   8.867  68.276  1.00  0.00    -0.063 OA 
ENDBRANCH  25  26
ENDBRANCH  24  25
ENDBRANCH  23  24
ENDBRANCH  21  22
ENDBRANCH  19  21
ENDBRANCH  11  12
ENDBRANCH  10  11
ENDBRANCH   8  10
ENDBRANCH   7   8
ENDBRANCH   6   7
ENDBRANCH   5   6
ENDBRANCH   4   5
ENDBRANCH   3   4
ENDBRANCH   2   3
TORSDOF 14
ENDMDL
MODEL      241
REMARK 921   NORMALIZED FREE ENERGY PREDICTED BY IDOCK:   -3.56 KCAL/MOL
REMARK 922        TOTAL FREE ENERGY PREDICTED BY IDOCK:   -9.42 KCAL/MOL
REMARK 923 INTER-LIGAND FREE ENERGY PREDICTED BY IDOCK:   -8.23 KCAL/MOL
REMARK 924 INTRA-LIGAND FREE ENERGY PREDICTED BY IDOCK:   -1.20 KCAL/MOL
REMARK 927      BINDING AFFINITY PREDICTED BY RF-SCORE:    0.00 PKD
ROOT
HETATM    1  C   UNL     1      -5.531  19.965  66.560  1.00  0.00    -0.178 C  
HETATM    2  C   UNL     1      -6.983  20.303  66.848  1.00  0.00    -0.296 C  
ENDROOT
BRANCH   2   3
HETATM    3  C   UNL     1      -7.407  19.858  68.249  1.00  0.00    -0.327 C  
BRANCH   3   4
HETATM    4  C   UNL     1      -8.712  19.067  68.178  1.00  0.00    -0.351 C  
BRANCH   4   5
HETATM    5  C   UNL     1      -9.862  19.866  67.563  1.00  0.00    -0.538 C  
BRANCH   5   6
HETATM    6  C   UNL     1     -10.513  19.056  66.435  1.00  0.00    -0.524 C  
BRANCH   6   7
HETATM    7  C   UNL     1     -10.417  17.555  66.671  1.00  0.00    -0.270 C  
BRANCH   7   8
HETATM    8  C   UNL     1     -10.913  16.741  65.474  1.00  0.00    -0.031 C  
HETATM    9  O   UNL     1     -11.193  17.250  64.392  1.00  0.00    -1.082 OA 
BRANCH   8  10
HETATM   10  C   UNL     1     -11.002  15.248  65.721  1.00  0.00    -0.340 C  
BRANCH  10  11
HETATM   11  C   UNL     1     -12.324  14.548  65.373  1.00  0.00    -0.286 C  
BRANCH  11  12
HETATM   12  C   UNL     1     -12.075  13.073  64.961  1.00  0.00    -0.470 C  
HETATM   13  C   UNL     1     -11.622  12.965  63.496  1.00  0.00    -0.468 C  
HETATM   14  O   UNL     1     -12.702  13.054  62.580  1.00  0.00    -0.145 OA 
HETATM   15  C   UNL     1     -10.999  11.596  63.407  1.00  0.00    -0.442 C  
HETATM   16  H   UNL     1     -12.422  12.987  61.675  1.00  0.00     0.000 HD 
HETATM   17  C   UNL     1     -10.213  11.465  64.695  1.00  0.00    -0.294 C  
HETATM   18  O   UNL     1     -10.106  10.088  65.003  1.00  0.00    -0.323 OA 
HETATM   19  C   UNL     1     -10.956  12.329  65.758  1.00  0.00    -0.338 C  
HETATM   20  H   UNL     1      -9.613  10.006  65.810  1.00  0.00     0.000 HD 
BRANCH  19  21
HETATM   21  C   UNL     1     -11.510  11.551  66.968  1.00  0.00    -0.290 C  
BRANCH  21  22
HETATM   22  C   UNL     1     -11.333  12.251  68.292  1.00  0.00    -0.339 C  
HETATM   23  C   UNL     1     -10.295  12.983  68.721  1.00  0.00    -0.146 C  
BRANCH  23  24
HETATM   24  C   UNL     1      -9.013  13.241  67.988  1.00  0.00    -0.191 C  
BRANCH  24  25
HETATM   25  C   UNL     1      -8.197  11.965  67.766  1.00  0.00    -0.148 C  
BRANCH  25  26
HETATM   26  C   UNL     1      -8.282  10.982  68.936  1.00  0.00    -0.127 C  
HETATM   27  C   UNL     1      -6.913  10.689  69.511  1.00  0.00    -0.121 C  
HETATM   28  O   UNL     1      -5.862  11.158  69.117  1.00  0.00    -0.041 OA 
HETATM   29  O   UNL     1      -6.975   9.827  70.555  1.00  0.00    -0.120 OA 
ENDBRANCH  25  26
ENDBRANCH  24  25
ENDBRANCH  23  24
ENDBRANCH  21  22
ENDBRANCH  19  21
ENDBRANCH  11  12
ENDBRANCH  10  11
ENDBRANCH   8  10
ENDBRANCH   7   8
ENDBRANCH   6   7
ENDBRANCH   5   6
ENDBRANCH   4   5
ENDBRANCH   3   4
ENDBRANCH   2   3
TORSDOF 14
ENDMDL
MODEL      242
REMARK 921   NORMALIZED FREE ENERGY PREDICTED BY IDOCK:   -3.55 KCAL/MOL
REMARK 922        TOTAL FREE ENERGY PREDICTED BY IDOCK:   -9.42 KCAL/MOL
REMARK 923 INTER-LIGAND FREE ENERGY PREDICTED BY IDOCK:   -7.10 KCAL/MOL
REMARK 924 INTRA-LIGAND FREE ENERGY PREDICTED BY IDOCK:   -2.32 KCAL/MOL
REMARK 927      BINDING AFFINITY PREDICTED BY RF-SCORE:    0.00 PKD
ROOT
HETATM    1  C   UNL     1     -11.693  12.413  67.947  1.00  0.00    -0.421 C  
HETATM    2  C   UNL     1     -12.004  12.916  66.548  1.00  0.00    -0.447 C  
ENDROOT
BRANCH   2   3
HETATM    3  C   UNL     1     -10.869  13.772  65.982  1.00  0.00    -0.282 C  
BRANCH   3   4
HETATM    4  C   UNL     1     -10.420  13.223  64.628  1.00  0.00    -0.420 C  
BRANCH   4   5
HETATM    5  C   UNL     1     -11.348  12.133  64.089  1.00  0.00    -0.449 C  
BRANCH   5   6
HETATM    6  C   UNL     1     -10.529  10.894  63.710  1.00  0.00    -0.329 C  
BRANCH   6   7
HETATM    7  C   UNL     1      -9.237  10.787  64.508  1.00  0.00    -0.250 C  
BRANCH   7   8
HETATM    8  C   UNL     1      -8.949   9.356  64.969  1.00  0.00    -0.211 C  
HETATM    9  O   UNL     1      -8.548   8.479  64.208  1.00  0.00    -0.108 OA 
BRANCH   8  10
HETATM   10  C   UNL     1      -9.168   9.114  66.448  1.00  0.00    -0.233 C  
BRANCH  10  11
HETATM   11  C   UNL     1     -10.562   8.646  66.892  1.00  0.00    -0.270 C  
BRANCH  11  12
HETATM   12  C   UNL     1     -10.501   7.208  67.475  1.00  0.00    -0.331 C  
HETATM   13  C   UNL     1      -9.471   6.342  66.732  1.00  0.00    -0.150 C  
HETATM   14  O   UNL     1      -9.963   5.838  65.502  1.00  0.00    -0.344 OA 
HETATM   15  C   UNL     1      -9.210   5.197  67.676  1.00  0.00    -0.127 C  
HETATM   16  H   UNL     1      -9.326   5.303  65.043  1.00  0.00     0.000 HD 
HETATM   17  C   UNL     1      -9.148   5.851  69.041  1.00  0.00    -0.121 C  
HETATM   18  O   UNL     1      -9.514   4.883  70.006  1.00  0.00    -0.138 OA 
HETATM   19  C   UNL     1     -10.072   7.105  68.974  1.00  0.00    -0.183 C  
HETATM   20  H   UNL     1      -9.476   5.293  70.862  1.00  0.00     0.000 HD 
BRANCH  19  21
HETATM   21  C   UNL     1     -11.278   7.087  69.933  1.00  0.00    -0.286 C  
BRANCH  21  22
HETATM   22  C   UNL     1     -11.397   8.311  70.806  1.00  0.00    -0.285 C  
HETATM   23  C   UNL     1     -11.316   8.399  72.141  1.00  0.00    -0.437 C  
BRANCH  23  24
HETATM   24  C   UNL     1     -11.134   7.268  73.108  1.00  0.00    -0.336 C  
BRANCH  24  25
HETATM   25  C   UNL     1      -9.726   7.227  73.705  1.00  0.00    -0.344 C  
BRANCH  25  26
HETATM   26  C   UNL     1      -8.660   6.756  72.713  1.00  0.00    -0.129 C  
HETATM   27  C   UNL     1      -7.703   7.872  72.358  1.00  0.00    -0.109 C  
HETATM   28  O   UNL     1      -7.749   9.010  72.787  1.00  0.00    -0.310 OA 
HETATM   29  O   UNL     1      -6.747   7.465  71.488  1.00  0.00    -0.049 OA 
ENDBRANCH  25  26
ENDBRANCH  24  25
ENDBRANCH  23  24
ENDBRANCH  21  22
ENDBRANCH  19  21
ENDBRANCH  11  12
ENDBRANCH  10  11
ENDBRANCH   8  10
ENDBRANCH   7   8
ENDBRANCH   6   7
ENDBRANCH   5   6
ENDBRANCH   4   5
ENDBRANCH   3   4
ENDBRANCH   2   3
TORSDOF 14
ENDMDL
MODEL      243
REMARK 921   NORMALIZED FREE ENERGY PREDICTED BY IDOCK:   -3.55 KCAL/MOL
REMARK 922        TOTAL FREE ENERGY PREDICTED BY IDOCK:   -9.41 KCAL/MOL
REMARK 923 INTER-LIGAND FREE ENERGY PREDICTED BY IDOCK:   -7.96 KCAL/MOL
REMARK 924 INTRA-LIGAND FREE ENERGY PREDICTED BY IDOCK:   -1.45 KCAL/MOL
REMARK 927      BINDING AFFINITY PREDICTED BY RF-SCORE:    0.00 PKD
ROOT
HETATM    1  C   UNL     1      -8.731   2.427  63.415  1.00  0.00    -0.085 C  
HETATM    2  C   UNL     1      -9.135   2.749  64.843  1.00  0.00    -0.139 C  
ENDROOT
BRANCH   2   3
HETATM    3  C   UNL     1      -9.926   4.056  64.933  1.00  0.00    -0.211 C  
BRANCH   3   4
HETATM    4  C   UNL     1      -9.388   4.920  66.074  1.00  0.00    -0.158 C  
BRANCH   4   5
HETATM    5  C   UNL     1     -10.436   5.208  67.150  1.00  0.00    -0.224 C  
BRANCH   5   6
HETATM    6  C   UNL     1     -10.853   6.682  67.087  1.00  0.00    -0.471 C  
BRANCH   6   7
HETATM    7  C   UNL     1      -9.675   7.627  67.280  1.00  0.00    -0.221 C  
BRANCH   7   8
HETATM    8  C   UNL     1      -9.568   8.666  66.162  1.00  0.00    -0.235 C  
HETATM    9  O   UNL     1      -8.714   8.611  65.281  1.00  0.00    -0.183 OA 
BRANCH   8  10
HETATM   10  C   UNL     1     -10.619   9.756  66.212  1.00  0.00    -0.070 C  
BRANCH  10  11
HETATM   11  C   UNL     1     -10.192  11.132  66.747  1.00  0.00    -0.272 C  
BRANCH  11  12
HETATM   12  C   UNL     1     -11.319  11.763  67.606  1.00  0.00    -0.370 C  
HETATM   13  C   UNL     1     -11.201  11.351  69.083  1.00  0.00    -0.272 C  
HETATM   14  O   UNL     1     -11.718  10.054  69.332  1.00  0.00    -0.457 OA 
HETATM   15  C   UNL     1     -12.032  12.372  69.814  1.00  0.00    -0.359 C  
HETATM   16  H   UNL     1     -11.645   9.799  70.245  1.00  0.00     0.000 HD 
HETATM   17  C   UNL     1     -11.699  13.680  69.126  1.00  0.00    -0.329 C  
HETATM   18  O   UNL     1     -12.803  14.550  69.286  1.00  0.00    -0.440 OA 
HETATM   19  C   UNL     1     -11.339  13.325  67.652  1.00  0.00    -0.328 C  
HETATM   20  H   UNL     1     -12.594  15.371  68.854  1.00  0.00     0.000 HD 
BRANCH  19  21
HETATM   21  C   UNL     1     -12.267  13.935  66.582  1.00  0.00    -0.465 C  
BRANCH  21  22
HETATM   22  C   UNL     1     -11.663  14.007  65.202  1.00  0.00    -0.353 C  
HETATM   23  C   UNL     1     -10.933  14.991  64.657  1.00  0.00    -0.320 C  
BRANCH  23  24
HETATM   24  C   UNL     1     -10.581  16.304  65.287  1.00  0.00    -0.357 C  
BRANCH  24  25
HETATM   25  C   UNL     1      -9.474  16.173  66.336  1.00  0.00    -0.323 C  
BRANCH  25  26
HETATM   26  C   UNL     1      -9.104  17.504  66.995  1.00  0.00    -0.255 C  
HETATM   27  C   UNL     1     -10.042  17.835  68.136  1.00  0.00    -0.362 C  
HETATM   28  O   UNL     1     -10.979  17.154  68.504  1.00  0.00    -0.317 OA 
HETATM   29  O   UNL     1      -9.718  19.006  68.735  1.00  0.00    -0.382 OA 
ENDBRANCH  25  26
ENDBRANCH  24  25
ENDBRANCH  23  24
ENDBRANCH  21  22
ENDBRANCH  19  21
ENDBRANCH  11  12
ENDBRANCH  10  11
ENDBRANCH   8  10
ENDBRANCH   7   8
ENDBRANCH   6   7
ENDBRANCH   5   6
ENDBRANCH   4   5
ENDBRANCH   3   4
ENDBRANCH   2   3
TORSDOF 14
ENDMDL
MODEL      244
REMARK 921   NORMALIZED FREE ENERGY PREDICTED BY IDOCK:   -3.54 KCAL/MOL
REMARK 922        TOTAL FREE ENERGY PREDICTED BY IDOCK:   -9.39 KCAL/MOL
REMARK 923 INTER-LIGAND FREE ENERGY PREDICTED BY IDOCK:   -6.79 KCAL/MOL
REMARK 924 INTRA-LIGAND FREE ENERGY PREDICTED BY IDOCK:   -2.61 KCAL/MOL
REMARK 927      BINDING AFFINITY PREDICTED BY RF-SCORE:    0.00 PKD
ROOT
HETATM    1  C   UNL     1     -11.811  13.731  67.050  1.00  0.00    -0.445 C  
HETATM    2  C   UNL     1     -11.830  12.482  66.187  1.00  0.00    -0.459 C  
ENDROOT
BRANCH   2   3
HETATM    3  C   UNL     1     -12.538  12.719  64.852  1.00  0.00    -0.541 C  
BRANCH   3   4
HETATM    4  C   UNL     1     -11.510  12.943  63.743  1.00  0.00    -0.519 C  
BRANCH   4   5
HETATM    5  C   UNL     1     -10.102  12.488  64.133  1.00  0.00    -0.311 C  
BRANCH   5   6
HETATM    6  C   UNL     1      -9.668  11.320  63.240  1.00  0.00    -0.405 C  
BRANCH   6   7
HETATM    7  C   UNL     1      -9.751   9.980  63.957  1.00  0.00    -0.157 C  
BRANCH   7   8
HETATM    8  C   UNL     1      -8.538   9.717  64.852  1.00  0.00    -0.170 C  
HETATM    9  O   UNL     1      -7.483  10.336  64.743  1.00  0.00    -0.143 OA 
BRANCH   8  10
HETATM   10  C   UNL     1      -8.753   8.650  65.907  1.00  0.00    -0.201 C  
BRANCH  10  11
HETATM   11  C   UNL     1     -10.171   8.490  66.477  1.00  0.00    -0.286 C  
BRANCH  11  12
HETATM   12  C   UNL     1     -10.319   7.133  67.214  1.00  0.00    -0.342 C  
HETATM   13  C   UNL     1      -9.374   6.069  66.632  1.00  0.00    -0.144 C  
HETATM   14  O   UNL     1      -9.869   5.490  65.436  1.00  0.00    -0.365 OA 
HETATM   15  C   UNL     1      -9.303   5.017  67.707  1.00  0.00    -0.146 C  
HETATM   16  H   UNL     1      -9.285   4.833  65.076  1.00  0.00     0.000 HD 
HETATM   17  C   UNL     1      -9.221   5.811  68.995  1.00  0.00    -0.119 C  
HETATM   18  O   UNL     1      -9.750   5.011  70.035  1.00  0.00    -0.169 OA 
HETATM   19  C   UNL     1      -9.975   7.151  68.738  1.00  0.00    -0.163 C  
HETATM   20  H   UNL     1      -9.699   5.509  70.843  1.00  0.00     0.000 HD 
BRANCH  19  21
HETATM   21  C   UNL     1     -11.216   7.389  69.621  1.00  0.00    -0.065 C  
BRANCH  21  22
HETATM   22  C   UNL     1     -10.996   8.359  70.754  1.00  0.00    -0.276 C  
HETATM   23  C   UNL     1     -10.746   9.675  70.694  1.00  0.00    -0.388 C  
BRANCH  23  24
HETATM   24  C   UNL     1     -10.570  10.502  69.456  1.00  0.00    -0.278 C  
BRANCH  24  25
HETATM   25  C   UNL     1      -9.098  10.699  69.087  1.00  0.00    -0.152 C  
BRANCH  25  26
HETATM   26  C   UNL     1      -8.887  11.711  67.959  1.00  0.00    -0.162 C  
HETATM   27  C   UNL     1      -7.677  12.582  68.216  1.00  0.00    -0.141 C  
HETATM   28  O   UNL     1      -6.947  12.513  69.186  1.00  0.00    -0.094 OA 
HETATM   29  O   UNL     1      -7.473  13.475  67.218  1.00  0.00    -0.147 OA 
ENDBRANCH  25  26
ENDBRANCH  24  25
ENDBRANCH  23  24
ENDBRANCH  21  22
ENDBRANCH  19  21
ENDBRANCH  11  12
ENDBRANCH  10  11
ENDBRANCH   8  10
ENDBRANCH   7   8
ENDBRANCH   6   7
ENDBRANCH   5   6
ENDBRANCH   4   5
ENDBRANCH   3   4
ENDBRANCH   2   3
TORSDOF 14
ENDMDL
MODEL      245
REMARK 921   NORMALIZED FREE ENERGY PREDICTED BY IDOCK:   -3.53 KCAL/MOL
REMARK 922        TOTAL FREE ENERGY PREDICTED BY IDOCK:   -9.38 KCAL/MOL
REMARK 923 INTER-LIGAND FREE ENERGY PREDICTED BY IDOCK:   -6.83 KCAL/MOL
REMARK 924 INTRA-LIGAND FREE ENERGY PREDICTED BY IDOCK:   -2.54 KCAL/MOL
REMARK 927      BINDING AFFINITY PREDICTED BY RF-SCORE:    0.00 PKD
ROOT
HETATM    1  C   UNL     1      -9.539   7.788  72.692  1.00  0.00    -0.261 C  
HETATM    2  C   UNL     1     -10.902   8.454  72.625  1.00  0.00    -0.308 C  
ENDROOT
BRANCH   2   3
HETATM    3  C   UNL     1     -11.728   7.948  71.440  1.00  0.00    -0.311 C  
BRANCH   3   4
HETATM    4  C   UNL     1     -11.427   6.473  71.178  1.00  0.00    -0.380 C  
BRANCH   4   5
HETATM    5  C   UNL     1     -11.231   6.158  69.694  1.00  0.00    -0.488 C  
BRANCH   5   6
HETATM    6  C   UNL     1     -10.081   5.157  69.523  1.00  0.00    -0.316 C  
BRANCH   6   7
HETATM    7  C   UNL     1      -9.702   4.955  68.063  1.00  0.00    -0.202 C  
BRANCH   7   8
HETATM    8  C   UNL     1      -8.675   5.980  67.576  1.00  0.00    -0.107 C  
HETATM    9  O   UNL     1      -7.567   6.108  68.088  1.00  0.00    -0.094 OA 
BRANCH   8  10
HETATM   10  C   UNL     1      -9.125   6.806  66.388  1.00  0.00    -0.175 C  
BRANCH  10  11
HETATM   11  C   UNL     1     -10.232   7.845  66.623  1.00  0.00    -0.303 C  
BRANCH  11  12
HETATM   12  C   UNL     1      -9.631   9.270  66.753  1.00  0.00    -0.240 C  
HETATM   13  C   UNL     1      -9.028   9.503  68.148  1.00  0.00    -0.123 C  
HETATM   14  O   UNL     1     -10.009   9.812  69.124  1.00  0.00    -0.172 OA 
HETATM   15  C   UNL     1      -8.117  10.688  67.958  1.00  0.00    -0.112 C  
HETATM   16  H   UNL     1      -9.636   9.956  69.987  1.00  0.00     0.000 HD 
HETATM   17  C   UNL     1      -7.447  10.428  66.624  1.00  0.00    -0.114 C  
HETATM   18  O   UNL     1      -7.074  11.676  66.073  1.00  0.00    -0.348 OA 
HETATM   19  C   UNL     1      -8.458   9.600  65.775  1.00  0.00    -0.142 C  
HETATM   20  H   UNL     1      -6.654  11.513  65.236  1.00  0.00     0.000 HD 
BRANCH  19  21
HETATM   21  C   UNL     1      -8.943  10.281  64.480  1.00  0.00    -0.247 C  
BRANCH  21  22
HETATM   22  C   UNL     1     -10.416  10.604  64.461  1.00  0.00    -0.266 C  
HETATM   23  C   UNL     1     -11.010  11.798  64.323  1.00  0.00    -0.419 C  
BRANCH  23  24
HETATM   24  C   UNL     1     -10.334  13.131  64.204  1.00  0.00    -0.286 C  
BRANCH  24  25
HETATM   25  C   UNL     1     -10.517  13.995  65.454  1.00  0.00    -0.365 C  
BRANCH  25  26
HETATM   26  C   UNL     1     -10.172  13.262  66.753  1.00  0.00    -0.254 C  
HETATM   27  C   UNL     1     -11.273  13.409  67.780  1.00  0.00    -0.279 C  
HETATM   28  O   UNL     1     -12.310  14.025  67.624  1.00  0.00    -0.274 OA 
HETATM   29  O   UNL     1     -10.985  12.755  68.931  1.00  0.00    -0.245 OA 
ENDBRANCH  25  26
ENDBRANCH  24  25
ENDBRANCH  23  24
ENDBRANCH  21  22
ENDBRANCH  19  21
ENDBRANCH  11  12
ENDBRANCH  10  11
ENDBRANCH   8  10
ENDBRANCH   7   8
ENDBRANCH   6   7
ENDBRANCH   5   6
ENDBRANCH   4   5
ENDBRANCH   3   4
ENDBRANCH   2   3
TORSDOF 14
ENDMDL
MODEL      246
REMARK 921   NORMALIZED FREE ENERGY PREDICTED BY IDOCK:   -3.53 KCAL/MOL
REMARK 922        TOTAL FREE ENERGY PREDICTED BY IDOCK:   -9.37 KCAL/MOL
REMARK 923 INTER-LIGAND FREE ENERGY PREDICTED BY IDOCK:   -7.58 KCAL/MOL
REMARK 924 INTRA-LIGAND FREE ENERGY PREDICTED BY IDOCK:   -1.79 KCAL/MOL
REMARK 927      BINDING AFFINITY PREDICTED BY RF-SCORE:    0.00 PKD
ROOT
HETATM    1  C   UNL     1     -10.411  19.399  67.677  1.00  0.00    -0.550 C  
HETATM    2  C   UNL     1      -9.144  18.562  67.651  1.00  0.00    -0.293 C  
ENDROOT
BRANCH   2   3
HETATM    3  C   UNL     1      -9.293  17.272  68.461  1.00  0.00    -0.276 C  
BRANCH   3   4
HETATM    4  C   UNL     1     -10.762  17.039  68.814  1.00  0.00    -0.313 C  
BRANCH   4   5
HETATM    5  C   UNL     1     -10.946  16.288  70.135  1.00  0.00    -0.335 C  
BRANCH   5   6
HETATM    6  C   UNL     1     -12.035  15.220  69.977  1.00  0.00    -0.375 C  
BRANCH   6   7
HETATM    7  C   UNL     1     -12.633  14.801  71.313  1.00  0.00    -0.403 C  
BRANCH   7   8
HETATM    8  C   UNL     1     -12.773  13.283  71.442  1.00  0.00    -0.309 C  
HETATM    9  O   UNL     1     -13.357  12.745  72.379  1.00  0.00    -0.521 OA 
BRANCH   8  10
HETATM   10  C   UNL     1     -12.159  12.494  70.304  1.00  0.00    -0.373 C  
BRANCH  10  11
HETATM   11  C   UNL     1     -12.700  11.079  70.047  1.00  0.00    -0.157 C  
BRANCH  11  12
HETATM   12  C   UNL     1     -12.104  10.068  71.062  1.00  0.00    -0.469 C  
HETATM   13  C   UNL     1     -13.174   9.094  71.582  1.00  0.00    -0.377 C  
HETATM   14  O   UNL     1     -13.983   9.660  72.599  1.00  0.00    -0.673 OA 
HETATM   15  C   UNL     1     -12.378   7.949  72.153  1.00  0.00    -0.331 C  
HETATM   16  H   UNL     1     -14.644   9.058  72.921  1.00  0.00     0.000 HD 
HETATM   17  C   UNL     1     -11.259   7.744  71.152  1.00  0.00    -0.264 C  
HETATM   18  O   UNL     1     -10.163   7.165  71.835  1.00  0.00    -0.190 OA 
HETATM   19  C   UNL     1     -10.982   9.134  70.506  1.00  0.00    -0.307 C  
HETATM   20  H   UNL     1      -9.461   7.037  71.208  1.00  0.00     0.000 HD 
BRANCH  19  21
HETATM   21  C   UNL     1      -9.569   9.702  70.745  1.00  0.00    -0.158 C  
BRANCH  21  22
HETATM   22  C   UNL     1      -8.748   9.880  69.492  1.00  0.00    -0.200 C  
HETATM   23  C   UNL     1      -7.746   9.118  69.032  1.00  0.00    -0.078 C  
BRANCH  23  24
HETATM   24  C   UNL     1      -7.155   7.911  69.697  1.00  0.00    -0.061 C  
BRANCH  24  25
HETATM   25  C   UNL     1      -7.212   6.666  68.809  1.00  0.00    -0.085 C  
BRANCH  25  26
HETATM   26  C   UNL     1      -8.102   5.558  69.377  1.00  0.00    -0.095 C  
HETATM   27  C   UNL     1      -9.519   5.667  68.860  1.00  0.00    -0.126 C  
HETATM   28  O   UNL     1      -9.931   6.515  68.092  1.00  0.00    -0.131 OA 
HETATM   29  O   UNL     1     -10.315   4.684  69.347  1.00  0.00    -0.127 OA 
ENDBRANCH  25  26
ENDBRANCH  24  25
ENDBRANCH  23  24
ENDBRANCH  21  22
ENDBRANCH  19  21
ENDBRANCH  11  12
ENDBRANCH  10  11
ENDBRANCH   8  10
ENDBRANCH   7   8
ENDBRANCH   6   7
ENDBRANCH   5   6
ENDBRANCH   4   5
ENDBRANCH   3   4
ENDBRANCH   2   3
TORSDOF 14
ENDMDL
MODEL      247
REMARK 921   NORMALIZED FREE ENERGY PREDICTED BY IDOCK:   -3.53 KCAL/MOL
REMARK 922        TOTAL FREE ENERGY PREDICTED BY IDOCK:   -9.37 KCAL/MOL
REMARK 923 INTER-LIGAND FREE ENERGY PREDICTED BY IDOCK:   -7.65 KCAL/MOL
REMARK 924 INTRA-LIGAND FREE ENERGY PREDICTED BY IDOCK:   -1.71 KCAL/MOL
REMARK 927      BINDING AFFINITY PREDICTED BY RF-SCORE:    0.00 PKD
ROOT
HETATM    1  C   UNL     1      -8.145   3.302  64.393  1.00  0.00    -0.086 C  
HETATM    2  C   UNL     1      -7.524   3.781  65.693  1.00  0.00    -0.077 C  
ENDROOT
BRANCH   2   3
HETATM    3  C   UNL     1      -7.956   5.207  66.042  1.00  0.00    -0.107 C  
BRANCH   3   4
HETATM    4  C   UNL     1      -9.020   5.182  67.138  1.00  0.00    -0.112 C  
BRANCH   4   5
HETATM    5  C   UNL     1     -10.438   5.375  66.598  1.00  0.00    -0.356 C  
BRANCH   5   6
HETATM    6  C   UNL     1     -11.033   6.675  67.153  1.00  0.00    -0.478 C  
BRANCH   6   7
HETATM    7  C   UNL     1     -10.613   6.935  68.593  1.00  0.00    -0.254 C  
BRANCH   7   8
HETATM    8  C   UNL     1     -10.061   8.348  68.797  1.00  0.00    -0.196 C  
HETATM    9  O   UNL     1      -8.860   8.602  68.783  1.00  0.00    -0.137 OA 
BRANCH   8  10
HETATM   10  C   UNL     1     -11.119   9.416  68.987  1.00  0.00    -0.014 C  
BRANCH  10  11
HETATM   11  C   UNL     1     -10.749  10.637  69.843  1.00  0.00    -0.260 C  
BRANCH  11  12
HETATM   12  C   UNL     1     -11.992  11.531  70.095  1.00  0.00    -0.452 C  
HETATM   13  C   UNL     1     -12.493  11.406  71.543  1.00  0.00    -0.200 C  
HETATM   14  O   UNL     1     -13.271  10.239  71.755  1.00  0.00    -0.413 OA 
HETATM   15  C   UNL     1     -13.354  12.626  71.738  1.00  0.00    -0.405 C  
HETATM   16  H   UNL     1     -13.581  10.162  72.649  1.00  0.00     0.000 HD 
HETATM   17  C   UNL     1     -12.581  13.736  71.054  1.00  0.00    -0.371 C  
HETATM   18  O   UNL     1     -13.507  14.724  70.644  1.00  0.00    -0.585 OA 
HETATM   19  C   UNL     1     -11.770  13.066  69.904  1.00  0.00    -0.326 C  
HETATM   20  H   UNL     1     -13.022  15.419  70.215  1.00  0.00     0.000 HD 
BRANCH  19  21
HETATM   21  C   UNL     1     -12.126  13.542  68.482  1.00  0.00    -0.303 C  
BRANCH  21  22
HETATM   22  C   UNL     1     -11.148  14.526  67.891  1.00  0.00    -0.290 C  
HETATM   23  C   UNL     1     -10.967  14.859  66.605  1.00  0.00    -0.325 C  
BRANCH  23  24
HETATM   24  C   UNL     1     -11.676  14.279  65.418  1.00  0.00    -0.354 C  
BRANCH  24  25
HETATM   25  C   UNL     1     -10.742  13.468  64.517  1.00  0.00    -0.431 C  
BRANCH  25  26
HETATM   26  C   UNL     1     -11.000  11.961  64.578  1.00  0.00    -0.376 C  
HETATM   27  C   UNL     1     -10.059  11.279  65.548  1.00  0.00    -0.257 C  
HETATM   28  O   UNL     1      -9.198  11.829  66.207  1.00  0.00    -0.216 OA 
HETATM   29  O   UNL     1     -10.284   9.944  65.620  1.00  0.00    -0.269 OA 
ENDBRANCH  25  26
ENDBRANCH  24  25
ENDBRANCH  23  24
ENDBRANCH  21  22
ENDBRANCH  19  21
ENDBRANCH  11  12
ENDBRANCH  10  11
ENDBRANCH   8  10
ENDBRANCH   7   8
ENDBRANCH   6   7
ENDBRANCH   5   6
ENDBRANCH   4   5
ENDBRANCH   3   4
ENDBRANCH   2   3
TORSDOF 14
ENDMDL
MODEL      248
REMARK 921   NORMALIZED FREE ENERGY PREDICTED BY IDOCK:   -3.49 KCAL/MOL
REMARK 922        TOTAL FREE ENERGY PREDICTED BY IDOCK:   -9.31 KCAL/MOL
REMARK 923 INTER-LIGAND FREE ENERGY PREDICTED BY IDOCK:   -6.86 KCAL/MOL
REMARK 924 INTRA-LIGAND FREE ENERGY PREDICTED BY IDOCK:   -2.45 KCAL/MOL
REMARK 927      BINDING AFFINITY PREDICTED BY RF-SCORE:    0.00 PKD
ROOT
HETATM    1  C   UNL     1      -8.255   8.050  74.282  1.00  0.00    -0.308 C  
HETATM    2  C   UNL     1      -7.444   8.560  73.105  1.00  0.00    -0.034 C  
ENDROOT
BRANCH   2   3
HETATM    3  C   UNL     1      -8.083   8.189  71.765  1.00  0.00    -0.159 C  
BRANCH   3   4
HETATM    4  C   UNL     1      -9.604   8.147  71.900  1.00  0.00    -0.264 C  
BRANCH   4   5
HETATM    5  C   UNL     1     -10.206   6.810  71.465  1.00  0.00    -0.210 C  
BRANCH   5   6
HETATM    6  C   UNL     1     -10.948   6.982  70.134  1.00  0.00    -0.306 C  
BRANCH   6   7
HETATM    7  C   UNL     1     -10.494   5.979  69.083  1.00  0.00    -0.321 C  
BRANCH   7   8
HETATM    8  C   UNL     1     -10.310   6.617  67.704  1.00  0.00    -0.199 C  
HETATM    9  O   UNL     1     -11.254   6.918  66.978  1.00  0.00    -0.369 OA 
BRANCH   8  10
HETATM   10  C   UNL     1      -8.868   6.877  67.318  1.00  0.00    -0.118 C  
BRANCH  10  11
HETATM   11  C   UNL     1      -7.982   7.613  68.334  1.00  0.00    -0.123 C  
BRANCH  11  12
HETATM   12  C   UNL     1      -7.673   9.056  67.853  1.00  0.00    -0.097 C  
HETATM   13  C   UNL     1      -6.591   9.067  66.761  1.00  0.00    -0.064 C  
HETATM   14  O   UNL     1      -5.280   8.946  67.287  1.00  0.00    -0.033 OA 
HETATM   15  C   UNL     1      -6.748  10.415  66.107  1.00  0.00    -0.117 C  
HETATM   16  H   UNL     1      -4.611   8.953  66.612  1.00  0.00     0.000 HD 
HETATM   17  C   UNL     1      -8.248  10.606  66.012  1.00  0.00    -0.158 C  
HETATM   18  O   UNL     1      -8.510  11.996  65.998  1.00  0.00    -0.391 OA 
HETATM   19  C   UNL     1      -8.871   9.823  67.206  1.00  0.00    -0.139 C  
HETATM   20  H   UNL     1      -9.451  12.116  65.938  1.00  0.00     0.000 HD 
BRANCH  19  21
HETATM   21  C   UNL     1      -9.643  10.682  68.227  1.00  0.00    -0.167 C  
BRANCH  21  22
HETATM   22  C   UNL     1     -11.138  10.486  68.202  1.00  0.00    -0.346 C  
HETATM   23  C   UNL     1     -12.015  10.601  69.209  1.00  0.00    -0.269 C  
BRANCH  23  24
HETATM   24  C   UNL     1     -11.703  10.909  70.642  1.00  0.00    -0.418 C  
BRANCH  24  25
HETATM   25  C   UNL     1     -12.721  11.862  71.273  1.00  0.00    -0.401 C  
BRANCH  25  26
HETATM   26  C   UNL     1     -12.597  13.301  70.767  1.00  0.00    -0.357 C  
HETATM   27  C   UNL     1     -13.215  14.284  71.738  1.00  0.00    -0.367 C  
HETATM   28  O   UNL     1     -13.750  13.997  72.793  1.00  0.00    -0.660 OA 
HETATM   29  O   UNL     1     -13.102  15.563  71.307  1.00  0.00    -0.464 OA 
ENDBRANCH  25  26
ENDBRANCH  24  25
ENDBRANCH  23  24
ENDBRANCH  21  22
ENDBRANCH  19  21
ENDBRANCH  11  12
ENDBRANCH  10  11
ENDBRANCH   8  10
ENDBRANCH   7   8
ENDBRANCH   6   7
ENDBRANCH   5   6
ENDBRANCH   4   5
ENDBRANCH   3   4
ENDBRANCH   2   3
TORSDOF 14
ENDMDL
MODEL      249
REMARK 921   NORMALIZED FREE ENERGY PREDICTED BY IDOCK:   -3.47 KCAL/MOL
REMARK 922        TOTAL FREE ENERGY PREDICTED BY IDOCK:   -9.27 KCAL/MOL
REMARK 923 INTER-LIGAND FREE ENERGY PREDICTED BY IDOCK:   -7.81 KCAL/MOL
REMARK 924 INTRA-LIGAND FREE ENERGY PREDICTED BY IDOCK:   -1.46 KCAL/MOL
REMARK 927      BINDING AFFINITY PREDICTED BY RF-SCORE:    0.00 PKD
ROOT
HETATM    1  C   UNL     1     -13.831  15.124  71.951  1.00  0.00    -0.607 C  
HETATM    2  C   UNL     1     -13.312  13.710  72.139  1.00  0.00    -0.587 C  
ENDROOT
BRANCH   2   3
HETATM    3  C   UNL     1     -12.444  13.257  70.963  1.00  0.00    -0.422 C  
BRANCH   3   4
HETATM    4  C   UNL     1     -12.099  14.451  70.073  1.00  0.00    -0.401 C  
BRANCH   4   5
HETATM    5  C   UNL     1     -12.094  14.103  68.583  1.00  0.00    -0.320 C  
BRANCH   5   6
HETATM    6  C   UNL     1     -11.867  12.597  68.402  1.00  0.00    -0.347 C  
BRANCH   6   7
HETATM    7  C   UNL     1     -11.430  12.244  66.987  1.00  0.00    -0.419 C  
BRANCH   7   8
HETATM    8  C   UNL     1     -12.083  13.138  65.931  1.00  0.00    -0.444 C  
HETATM    9  O   UNL     1     -13.043  12.778  65.254  1.00  0.00    -0.658 OA 
BRANCH   8  10
HETATM   10  C   UNL     1     -11.468  14.517  65.806  1.00  0.00    -0.342 C  
BRANCH  10  11
HETATM   11  C   UNL     1     -10.057  14.615  65.206  1.00  0.00    -0.393 C  
BRANCH  11  12
HETATM   12  C   UNL     1      -9.066  15.234  66.227  1.00  0.00    -0.337 C  
HETATM   13  C   UNL     1      -9.509  16.640  66.662  1.00  0.00    -0.252 C  
HETATM   14  O   UNL     1      -9.176  17.638  65.711  1.00  0.00    -0.505 OA 
HETATM   15  C   UNL     1      -8.744  16.885  67.936  1.00  0.00    -0.213 C  
HETATM   16  H   UNL     1      -9.450  18.507  65.980  1.00  0.00     0.000 HD 
HETATM   17  C   UNL     1      -8.811  15.560  68.667  1.00  0.00    -0.193 C  
HETATM   18  O   UNL     1      -7.683  15.472  69.516  1.00  0.00    -0.220 OA 
HETATM   19  C   UNL     1      -8.908  14.455  67.572  1.00  0.00    -0.197 C  
HETATM   20  H   UNL     1      -7.725  14.641  69.974  1.00  0.00     0.000 HD 
BRANCH  19  21
HETATM   21  C   UNL     1      -7.735  13.454  67.541  1.00  0.00    -0.182 C  
BRANCH  21  22
HETATM   22  C   UNL     1      -7.950  12.272  66.629  1.00  0.00     0.095 C  
HETATM   23  C   UNL     1      -8.057  10.975  66.950  1.00  0.00    -0.142 C  
BRANCH  23  24
HETATM   24  C   UNL     1      -7.935  10.374  68.318  1.00  0.00    -0.111 C  
BRANCH  24  25
HETATM   25  C   UNL     1      -8.743   9.083  68.465  1.00  0.00    -0.133 C  
BRANCH  25  26
HETATM   26  C   UNL     1      -7.870   7.838  68.643  1.00  0.00    -0.120 C  
HETATM   27  C   UNL     1      -8.708   6.614  68.941  1.00  0.00    -0.128 C  
HETATM   28  O   UNL     1      -9.920   6.589  69.036  1.00  0.00    -0.140 OA 
HETATM   29  O   UNL     1      -7.947   5.503  69.090  1.00  0.00    -0.092 OA 
ENDBRANCH  25  26
ENDBRANCH  24  25
ENDBRANCH  23  24
ENDBRANCH  21  22
ENDBRANCH  19  21
ENDBRANCH  11  12
ENDBRANCH  10  11
ENDBRANCH   8  10
ENDBRANCH   7   8
ENDBRANCH   6   7
ENDBRANCH   5   6
ENDBRANCH   4   5
ENDBRANCH   3   4
ENDBRANCH   2   3
TORSDOF 14
ENDMDL
MODEL      250
REMARK 921   NORMALIZED FREE ENERGY PREDICTED BY IDOCK:   -3.47 KCAL/MOL
REMARK 922        TOTAL FREE ENERGY PREDICTED BY IDOCK:   -9.27 KCAL/MOL
REMARK 923 INTER-LIGAND FREE ENERGY PREDICTED BY IDOCK:   -7.54 KCAL/MOL
REMARK 924 INTRA-LIGAND FREE ENERGY PREDICTED BY IDOCK:   -1.73 KCAL/MOL
REMARK 927      BINDING AFFINITY PREDICTED BY RF-SCORE:    0.00 PKD
ROOT
HETATM    1  C   UNL     1      -9.373   5.133  71.372  1.00  0.00    -0.189 C  
HETATM    2  C   UNL     1     -10.545   5.969  71.852  1.00  0.00    -0.272 C  
ENDROOT
BRANCH   2   3
HETATM    3  C   UNL     1     -11.462   6.384  70.698  1.00  0.00    -0.426 C  
BRANCH   3   4
HETATM    4  C   UNL     1     -12.620   7.231  71.224  1.00  0.00    -0.402 C  
BRANCH   4   5
HETATM    5  C   UNL     1     -12.166   8.336  72.180  1.00  0.00    -0.418 C  
BRANCH   5   6
HETATM    6  C   UNL     1     -13.014   9.594  71.960  1.00  0.00    -0.518 C  
BRANCH   6   7
HETATM    7  C   UNL     1     -12.931  10.106  70.529  1.00  0.00    -0.214 C  
BRANCH   7   8
HETATM    8  C   UNL     1     -12.281  11.488  70.437  1.00  0.00    -0.355 C  
HETATM    9  O   UNL     1     -12.693  12.461  71.064  1.00  0.00    -0.326 OA 
BRANCH   8  10
HETATM   10  C   UNL     1     -11.067  11.555  69.533  1.00  0.00    -0.256 C  
BRANCH  10  11
HETATM   11  C   UNL     1     -10.187  10.300  69.432  1.00  0.00    -0.255 C  
BRANCH  11  12
HETATM   12  C   UNL     1      -9.651  10.117  67.987  1.00  0.00    -0.160 C  
HETATM   13  C   UNL     1     -10.717   9.507  67.063  1.00  0.00    -0.149 C  
HETATM   14  O   UNL     1     -10.834   8.102  67.213  1.00  0.00    -0.484 OA 
HETATM   15  C   UNL     1     -10.223   9.825  65.676  1.00  0.00    -0.178 C  
HETATM   16  H   UNL     1     -11.493   7.725  66.641  1.00  0.00     0.000 HD 
HETATM   17  C   UNL     1      -9.708  11.246  65.785  1.00  0.00    -0.227 C  
HETATM   18  O   UNL     1      -8.715  11.428  64.794  1.00  0.00    -0.373 OA 
HETATM   19  C   UNL     1      -9.223  11.430  67.254  1.00  0.00    -0.167 C  
HETATM   20  H   UNL     1      -8.392  12.318  64.862  1.00  0.00     0.000 HD 
BRANCH  19  21
HETATM   21  C   UNL     1      -7.721  11.735  67.419  1.00  0.00    -0.151 C  
BRANCH  21  22
HETATM   22  C   UNL     1      -7.375  12.503  68.670  1.00  0.00    -0.099 C  
HETATM   23  C   UNL     1      -6.994  13.783  68.789  1.00  0.00    -0.109 C  
BRANCH  23  24
HETATM   24  C   UNL     1      -6.766  14.760  67.676  1.00  0.00    -0.198 C  
BRANCH  24  25
HETATM   25  C   UNL     1      -6.907  16.214  68.134  1.00  0.00    -0.132 C  
BRANCH  25  26
HETATM   26  C   UNL     1      -6.295  17.219  67.156  1.00  0.00    -0.195 C  
HETATM   27  C   UNL     1      -7.310  17.684  66.134  1.00  0.00    -0.309 C  
HETATM   28  O   UNL     1      -8.470  17.322  66.071  1.00  0.00    -0.489 OA 
HETATM   29  O   UNL     1      -6.784  18.583  65.268  1.00  0.00    -0.485 OA 
ENDBRANCH  25  26
ENDBRANCH  24  25
ENDBRANCH  23  24
ENDBRANCH  21  22
ENDBRANCH  19  21
ENDBRANCH  11  12
ENDBRANCH  10  11
ENDBRANCH   8  10
ENDBRANCH   7   8
ENDBRANCH   6   7
ENDBRANCH   5   6
ENDBRANCH   4   5
ENDBRANCH   3   4
ENDBRANCH   2   3
TORSDOF 14
ENDMDL
MODEL      251
REMARK 921   NORMALIZED FREE ENERGY PREDICTED BY IDOCK:   -3.47 KCAL/MOL
REMARK 922        TOTAL FREE ENERGY PREDICTED BY IDOCK:   -9.26 KCAL/MOL
REMARK 923 INTER-LIGAND FREE ENERGY PREDICTED BY IDOCK:   -6.76 KCAL/MOL
REMARK 924 INTRA-LIGAND FREE ENERGY PREDICTED BY IDOCK:   -2.50 KCAL/MOL
REMARK 927      BINDING AFFINITY PREDICTED BY RF-SCORE:    0.00 PKD
ROOT
HETATM    1  C   UNL     1     -11.784  12.579  67.663  1.00  0.00    -0.423 C  
HETATM    2  C   UNL     1     -12.081  13.842  66.874  1.00  0.00    -0.467 C  
ENDROOT
BRANCH   2   3
HETATM    3  C   UNL     1     -10.806  14.490  66.329  1.00  0.00    -0.317 C  
BRANCH   3   4
HETATM    4  C   UNL     1     -10.775  14.390  64.804  1.00  0.00    -0.423 C  
BRANCH   4   5
HETATM    5  C   UNL     1     -12.071  13.829  64.216  1.00  0.00    -0.481 C  
BRANCH   5   6
HETATM    6  C   UNL     1     -11.784  12.506  63.496  1.00  0.00    -0.595 C  
BRANCH   6   7
HETATM    7  C   UNL     1     -10.297  12.187  63.441  1.00  0.00    -0.438 C  
BRANCH   7   8
HETATM    8  C   UNL     1     -10.002  10.713  63.732  1.00  0.00    -0.317 C  
HETATM    9  O   UNL     1      -9.500   9.958  62.903  1.00  0.00    -0.276 OA 
BRANCH   8  10
HETATM   10  C   UNL     1     -10.349  10.267  65.138  1.00  0.00    -0.198 C  
BRANCH  10  11
HETATM   11  C   UNL     1      -9.206  10.188  66.161  1.00  0.00    -0.196 C  
BRANCH  11  12
HETATM   12  C   UNL     1      -9.234   8.833  66.917  1.00  0.00    -0.195 C  
HETATM   13  C   UNL     1     -10.658   8.469  67.368  1.00  0.00    -0.234 C  
HETATM   14  O   UNL     1     -11.051   9.151  68.547  1.00  0.00    -0.457 OA 
HETATM   15  C   UNL     1     -10.586   6.989  67.644  1.00  0.00    -0.327 C  
HETATM   16  H   UNL     1     -11.931   8.926  68.826  1.00  0.00     0.000 HD 
HETATM   17  C   UNL     1      -9.740   6.444  66.511  1.00  0.00    -0.129 C  
HETATM   18  O   UNL     1      -9.115   5.259  66.965  1.00  0.00    -0.113 OA 
HETATM   19  C   UNL     1      -8.770   7.590  66.092  1.00  0.00    -0.174 C  
HETATM   20  H   UNL     1      -8.584   4.917  66.255  1.00  0.00     0.000 HD 
BRANCH  19  21
HETATM   21  C   UNL     1      -7.270   7.285  66.277  1.00  0.00    -0.078 C  
BRANCH  21  22
HETATM   22  C   UNL     1      -6.486   7.212  64.991  1.00  0.00    -0.040 C  
HETATM   23  C   UNL     1      -6.231   6.142  64.224  1.00  0.00    -0.030 C  
BRANCH  23  24
HETATM   24  C   UNL     1      -6.632   4.724  64.498  1.00  0.00    -0.043 C  
BRANCH  24  25
HETATM   25  C   UNL     1      -7.497   4.133  63.382  1.00  0.00    -0.051 C  
BRANCH  25  26
HETATM   26  C   UNL     1      -8.973   4.524  63.488  1.00  0.00    -0.130 C  
HETATM   27  C   UNL     1      -9.804   3.394  64.055  1.00  0.00    -0.170 C  
HETATM   28  O   UNL     1      -9.383   2.303  64.390  1.00  0.00    -0.126 OA 
HETATM   29  O   UNL     1     -11.112   3.731  64.165  1.00  0.00    -0.334 OA 
ENDBRANCH  25  26
ENDBRANCH  24  25
ENDBRANCH  23  24
ENDBRANCH  21  22
ENDBRANCH  19  21
ENDBRANCH  11  12
ENDBRANCH  10  11
ENDBRANCH   8  10
ENDBRANCH   7   8
ENDBRANCH   6   7
ENDBRANCH   5   6
ENDBRANCH   4   5
ENDBRANCH   3   4
ENDBRANCH   2   3
TORSDOF 14
ENDMDL
MODEL      252
REMARK 921   NORMALIZED FREE ENERGY PREDICTED BY IDOCK:   -3.47 KCAL/MOL
REMARK 922        TOTAL FREE ENERGY PREDICTED BY IDOCK:   -9.26 KCAL/MOL
REMARK 923 INTER-LIGAND FREE ENERGY PREDICTED BY IDOCK:   -7.24 KCAL/MOL
REMARK 924 INTRA-LIGAND FREE ENERGY PREDICTED BY IDOCK:   -2.02 KCAL/MOL
REMARK 927      BINDING AFFINITY PREDICTED BY RF-SCORE:    0.00 PKD
ROOT
HETATM    1  C   UNL     1     -10.435   5.659  71.161  1.00  0.00    -0.306 C  
HETATM    2  C   UNL     1     -10.770   5.973  72.608  1.00  0.00    -0.266 C  
ENDROOT
BRANCH   2   3
HETATM    3  C   UNL     1     -11.259   7.413  72.783  1.00  0.00    -0.380 C  
BRANCH   3   4
HETATM    4  C   UNL     1     -12.135   7.819  71.598  1.00  0.00    -0.335 C  
BRANCH   4   5
HETATM    5  C   UNL     1     -11.687   9.127  70.945  1.00  0.00    -0.341 C  
BRANCH   5   6
HETATM    6  C   UNL     1     -10.271   9.484  71.414  1.00  0.00    -0.170 C  
BRANCH   6   7
HETATM    7  C   UNL     1      -9.224   9.231  70.339  1.00  0.00    -0.291 C  
BRANCH   7   8
HETATM    8  C   UNL     1      -9.829   9.163  68.935  1.00  0.00    -0.174 C  
HETATM    9  O   UNL     1     -10.091   8.102  68.374  1.00  0.00    -0.188 OA 
BRANCH   8  10
HETATM   10  C   UNL     1     -10.107  10.511  68.302  1.00  0.00    -0.180 C  
BRANCH  10  11
HETATM   11  C   UNL     1      -8.906  11.310  67.775  1.00  0.00    -0.141 C  
BRANCH  11  12
HETATM   12  C   UNL     1      -8.852  11.265  66.224  1.00  0.00    -0.194 C  
HETATM   13  C   UNL     1      -7.675  10.411  65.725  1.00  0.00    -0.146 C  
HETATM   14  O   UNL     1      -6.439  11.104  65.763  1.00  0.00    -0.357 OA 
HETATM   15  C   UNL     1      -8.032  10.098  64.296  1.00  0.00    -0.155 C  
HETATM   16  H   UNL     1      -5.712  10.576  65.455  1.00  0.00     0.000 HD 
HETATM   17  C   UNL     1      -9.517   9.800  64.344  1.00  0.00    -0.166 C  
HETATM   18  O   UNL     1     -10.062  10.091  63.071  1.00  0.00    -0.445 OA 
HETATM   19  C   UNL     1     -10.099  10.637  65.523  1.00  0.00    -0.343 C  
HETATM   20  H   UNL     1     -10.993   9.905  63.100  1.00  0.00     0.000 HD 
BRANCH  19  21
HETATM   21  C   UNL     1     -11.148  11.694  65.126  1.00  0.00    -0.300 C  
BRANCH  21  22
HETATM   22  C   UNL     1     -10.638  13.113  65.140  1.00  0.00    -0.332 C  
HETATM   23  C   UNL     1     -11.023  14.134  65.919  1.00  0.00    -0.297 C  
BRANCH  23  24
HETATM   24  C   UNL     1     -12.112  14.120  66.949  1.00  0.00    -0.466 C  
BRANCH  24  25
HETATM   25  C   UNL     1     -11.836  15.079  68.109  1.00  0.00    -0.286 C  
BRANCH  25  26
HETATM   26  C   UNL     1     -10.400  15.608  68.129  1.00  0.00    -0.246 C  
HETATM   27  C   UNL     1      -9.854  15.669  69.539  1.00  0.00    -0.289 C  
HETATM   28  O   UNL     1     -10.454  15.348  70.547  1.00  0.00    -0.280 OA 
HETATM   29  O   UNL     1      -8.578  16.125  69.570  1.00  0.00    -0.168 OA 
ENDBRANCH  25  26
ENDBRANCH  24  25
ENDBRANCH  23  24
ENDBRANCH  21  22
ENDBRANCH  19  21
ENDBRANCH  11  12
ENDBRANCH  10  11
ENDBRANCH   8  10
ENDBRANCH   7   8
ENDBRANCH   6   7
ENDBRANCH   5   6
ENDBRANCH   4   5
ENDBRANCH   3   4
ENDBRANCH   2   3
TORSDOF 14
ENDMDL
MODEL      253
REMARK 921   NORMALIZED FREE ENERGY PREDICTED BY IDOCK:   -3.46 KCAL/MOL
REMARK 922        TOTAL FREE ENERGY PREDICTED BY IDOCK:   -9.24 KCAL/MOL
REMARK 923 INTER-LIGAND FREE ENERGY PREDICTED BY IDOCK:   -6.91 KCAL/MOL
REMARK 924 INTRA-LIGAND FREE ENERGY PREDICTED BY IDOCK:   -2.33 KCAL/MOL
REMARK 927      BINDING AFFINITY PREDICTED BY RF-SCORE:    0.00 PKD
ROOT
HETATM    1  C   UNL     1      -7.225   7.932  66.117  1.00  0.00    -0.073 C  
HETATM    2  C   UNL     1      -6.893   7.280  64.787  1.00  0.00    -0.050 C  
ENDROOT
BRANCH   2   3
HETATM    3  C   UNL     1      -6.693   8.314  63.676  1.00  0.00    -0.076 C  
BRANCH   3   4
HETATM    4  C   UNL     1      -8.046   8.769  63.130  1.00  0.00    -0.176 C  
BRANCH   4   5
HETATM    5  C   UNL     1      -8.190  10.291  63.083  1.00  0.00    -0.163 C  
BRANCH   5   6
HETATM    6  C   UNL     1      -9.671  10.669  62.963  1.00  0.00    -0.362 C  
BRANCH   6   7
HETATM    7  C   UNL     1     -10.335  10.851  64.321  1.00  0.00    -0.436 C  
BRANCH   7   8
HETATM    8  C   UNL     1     -11.382  11.968  64.317  1.00  0.00    -0.364 C  
HETATM    9  O   UNL     1     -12.568  11.767  64.071  1.00  0.00    -0.309 OA 
BRANCH   8  10
HETATM   10  C   UNL     1     -10.842  13.338  64.673  1.00  0.00    -0.396 C  
BRANCH  10  11
HETATM   11  C   UNL     1     -11.188  13.899  66.061  1.00  0.00    -0.300 C  
BRANCH  11  12
HETATM   12  C   UNL     1     -10.460  15.247  66.308  1.00  0.00    -0.313 C  
HETATM   13  C   UNL     1     -11.202  16.419  65.645  1.00  0.00     0.205 C  
HETATM   14  O   UNL     1     -10.942  16.516  64.254  1.00  0.00    -1.152 OA 
HETATM   15  C   UNL     1     -10.659  17.637  66.344  1.00  0.00    -0.208 C  
HETATM   16  H   UNL     1     -11.400  17.240  63.844  1.00  0.00     0.000 HD 
HETATM   17  C   UNL     1     -10.573  17.219  67.798  1.00  0.00    -0.367 C  
HETATM   18  O   UNL     1      -9.562  17.993  68.416  1.00  0.00    -0.305 OA 
HETATM   19  C   UNL     1     -10.330  15.680  67.804  1.00  0.00    -0.266 C  
HETATM   20  H   UNL     1      -9.508  17.731  69.327  1.00  0.00     0.000 HD 
BRANCH  19  21
HETATM   21  C   UNL     1      -9.000  15.225  68.437  1.00  0.00    -0.184 C  
BRANCH  21  22
HETATM   22  C   UNL     1      -7.987  14.703  67.449  1.00  0.00    -0.223 C  
HETATM   23  C   UNL     1      -7.439  13.482  67.377  1.00  0.00    -0.136 C  
BRANCH  23  24
HETATM   24  C   UNL     1      -7.671  12.336  68.314  1.00  0.00    -0.143 C  
BRANCH  24  25
HETATM   25  C   UNL     1      -8.807  11.420  67.852  1.00  0.00    -0.149 C  
BRANCH  25  26
HETATM   26  C   UNL     1     -10.054  11.509  68.735  1.00  0.00    -0.191 C  
HETATM   27  C   UNL     1     -11.041  10.410  68.409  1.00  0.00    -0.268 C  
HETATM   28  O   UNL     1     -10.894   9.553  67.559  1.00  0.00    -0.280 OA 
HETATM   29  O   UNL     1     -12.145  10.470  69.192  1.00  0.00    -0.226 OA 
ENDBRANCH  25  26
ENDBRANCH  24  25
ENDBRANCH  23  24
ENDBRANCH  21  22
ENDBRANCH  19  21
ENDBRANCH  11  12
ENDBRANCH  10  11
ENDBRANCH   8  10
ENDBRANCH   7   8
ENDBRANCH   6   7
ENDBRANCH   5   6
ENDBRANCH   4   5
ENDBRANCH   3   4
ENDBRANCH   2   3
TORSDOF 14
ENDMDL
MODEL      254
REMARK 921   NORMALIZED FREE ENERGY PREDICTED BY IDOCK:   -3.46 KCAL/MOL
REMARK 922        TOTAL FREE ENERGY PREDICTED BY IDOCK:   -9.24 KCAL/MOL
REMARK 923 INTER-LIGAND FREE ENERGY PREDICTED BY IDOCK:   -7.01 KCAL/MOL
REMARK 924 INTRA-LIGAND FREE ENERGY PREDICTED BY IDOCK:   -2.23 KCAL/MOL
REMARK 927      BINDING AFFINITY PREDICTED BY RF-SCORE:    0.00 PKD
ROOT
HETATM    1  C   UNL     1     -12.066  14.631  64.619  1.00  0.00    -0.466 C  
HETATM    2  C   UNL     1     -12.681  13.398  65.257  1.00  0.00    -0.481 C  
ENDROOT
BRANCH   2   3
HETATM    3  C   UNL     1     -11.619  12.468  65.847  1.00  0.00    -0.454 C  
BRANCH   3   4
HETATM    4  C   UNL     1     -11.801  12.353  67.360  1.00  0.00    -0.360 C  
BRANCH   4   5
HETATM    5  C   UNL     1     -10.878  13.286  68.146  1.00  0.00    -0.270 C  
BRANCH   5   6
HETATM    6  C   UNL     1      -9.614  13.576  67.327  1.00  0.00    -0.235 C  
BRANCH   6   7
HETATM    7  C   UNL     1      -8.402  12.813  67.843  1.00  0.00    -0.172 C  
BRANCH   7   8
HETATM    8  C   UNL     1      -8.340  11.381  67.308  1.00  0.00    -0.149 C  
HETATM    9  O   UNL     1      -8.175  11.120  66.119  1.00  0.00    -0.169 OA 
BRANCH   8  10
HETATM   10  C   UNL     1      -8.468  10.306  68.369  1.00  0.00    -0.124 C  
BRANCH  10  11
HETATM   11  C   UNL     1      -9.884   9.906  68.808  1.00  0.00    -0.177 C  
BRANCH  11  12
HETATM   12  C   UNL     1     -10.240   8.485  68.295  1.00  0.00    -0.244 C  
HETATM   13  C   UNL     1      -9.448   8.129  67.027  1.00  0.00    -0.177 C  
HETATM   14  O   UNL     1     -10.001   8.706  65.855  1.00  0.00    -0.469 OA 
HETATM   15  C   UNL     1      -9.550   6.628  66.944  1.00  0.00    -0.194 C  
HETATM   16  H   UNL     1      -9.512   8.485  65.071  1.00  0.00     0.000 HD 
HETATM   17  C   UNL     1      -9.377   6.167  68.377  1.00  0.00    -0.116 C  
HETATM   18  O   UNL     1     -10.034   4.922  68.517  1.00  0.00    -0.155 OA 
HETATM   19  C   UNL     1      -9.924   7.313  69.280  1.00  0.00    -0.170 C  
HETATM   20  H   UNL     1      -9.926   4.633  69.416  1.00  0.00     0.000 HD 
BRANCH  19  21
HETATM   21  C   UNL     1     -11.133   6.939  70.160  1.00  0.00    -0.344 C  
BRANCH  21  22
HETATM   22  C   UNL     1     -11.541   8.007  71.143  1.00  0.00    -0.307 C  
HETATM   23  C   UNL     1     -10.818   8.560  72.128  1.00  0.00    -0.427 C  
BRANCH  23  24
HETATM   24  C   UNL     1      -9.418   8.202  72.525  1.00  0.00    -0.339 C  
BRANCH  24  25
HETATM   25  C   UNL     1      -9.366   7.011  73.485  1.00  0.00    -0.211 C  
BRANCH  25  26
HETATM   26  C   UNL     1      -9.132   5.674  72.779  1.00  0.00    -0.130 C  
HETATM   27  C   UNL     1     -10.360   4.792  72.844  1.00  0.00    -0.185 C  
HETATM   28  O   UNL     1     -11.412   5.080  73.382  1.00  0.00    -0.323 OA 
HETATM   29  O   UNL     1     -10.170   3.609  72.212  1.00  0.00    -0.165 OA 
ENDBRANCH  25  26
ENDBRANCH  24  25
ENDBRANCH  23  24
ENDBRANCH  21  22
ENDBRANCH  19  21
ENDBRANCH  11  12
ENDBRANCH  10  11
ENDBRANCH   8  10
ENDBRANCH   7   8
ENDBRANCH   6   7
ENDBRANCH   5   6
ENDBRANCH   4   5
ENDBRANCH   3   4
ENDBRANCH   2   3
TORSDOF 14
ENDMDL
MODEL      255
REMARK 921   NORMALIZED FREE ENERGY PREDICTED BY IDOCK:   -3.44 KCAL/MOL
REMARK 922        TOTAL FREE ENERGY PREDICTED BY IDOCK:   -9.22 KCAL/MOL
REMARK 923 INTER-LIGAND FREE ENERGY PREDICTED BY IDOCK:   -6.78 KCAL/MOL
REMARK 924 INTRA-LIGAND FREE ENERGY PREDICTED BY IDOCK:   -2.44 KCAL/MOL
REMARK 927      BINDING AFFINITY PREDICTED BY RF-SCORE:    0.00 PKD
ROOT
HETATM    1  C   UNL     1      -5.218  11.907  69.587  1.00  0.00    -0.068 C  
HETATM    2  C   UNL     1      -5.876  12.995  68.758  1.00  0.00    -0.074 C  
ENDROOT
BRANCH   2   3
HETATM    3  C   UNL     1      -7.387  13.061  68.996  1.00  0.00     0.057 C  
BRANCH   3   4
HETATM    4  C   UNL     1      -8.133  13.004  67.664  1.00  0.00    -0.172 C  
BRANCH   4   5
HETATM    5  C   UNL     1      -8.770  14.340  67.278  1.00  0.00    -0.230 C  
BRANCH   5   6
HETATM    6  C   UNL     1     -10.289  14.174  67.153  1.00  0.00    -0.265 C  
BRANCH   6   7
HETATM    7  C   UNL     1     -10.867  13.286  68.246  1.00  0.00    -0.276 C  
BRANCH   7   8
HETATM    8  C   UNL     1     -11.596  12.063  67.684  1.00  0.00    -0.321 C  
HETATM    9  O   UNL     1     -12.072  12.033  66.552  1.00  0.00    -0.617 OA 
BRANCH   8  10
HETATM   10  C   UNL     1     -11.657  10.878  68.626  1.00  0.00    -0.373 C  
BRANCH  10  11
HETATM   11  C   UNL     1     -10.373  10.056  68.816  1.00  0.00    -0.216 C  
BRANCH  11  12
HETATM   12  C   UNL     1     -10.355   8.833  67.860  1.00  0.00    -0.281 C  
HETATM   13  C   UNL     1      -9.431   9.074  66.655  1.00  0.00    -0.194 C  
HETATM   14  O   UNL     1     -10.038   9.869  65.650  1.00  0.00    -0.289 OA 
HETATM   15  C   UNL     1      -9.171   7.692  66.114  1.00  0.00    -0.168 C  
HETATM   16  H   UNL     1      -9.467  10.017  64.905  1.00  0.00     0.000 HD 
HETATM   17  C   UNL     1      -8.976   6.842  67.353  1.00  0.00    -0.115 C  
HETATM   18  O   UNL     1      -9.327   5.511  67.028  1.00  0.00    -0.114 OA 
HETATM   19  C   UNL     1      -9.827   7.499  68.480  1.00  0.00    -0.170 C  
HETATM   20  H   UNL     1      -9.205   4.977  67.805  1.00  0.00     0.000 HD 
BRANCH  19  21
HETATM   21  C   UNL     1     -10.962   6.622  69.046  1.00  0.00    -0.332 C  
BRANCH  21  22
HETATM   22  C   UNL     1     -10.529   5.670  70.132  1.00  0.00    -0.366 C  
HETATM   23  C   UNL     1     -10.115   5.950  71.376  1.00  0.00    -0.245 C  
BRANCH  23  24
HETATM   24  C   UNL     1      -9.930   7.311  71.977  1.00  0.00    -0.184 C  
BRANCH  24  25
HETATM   25  C   UNL     1     -11.140   7.758  72.799  1.00  0.00    -0.457 C  
BRANCH  25  26
HETATM   26  C   UNL     1     -11.924   8.902  72.151  1.00  0.00    -0.419 C  
HETATM   27  C   UNL     1     -13.249   8.421  71.600  1.00  0.00    -0.339 C  
HETATM   28  O   UNL     1     -13.665   7.279  71.649  1.00  0.00    -0.380 OA 
HETATM   29  O   UNL     1     -13.958   9.426  71.032  1.00  0.00    -0.172 OA 
ENDBRANCH  25  26
ENDBRANCH  24  25
ENDBRANCH  23  24
ENDBRANCH  21  22
ENDBRANCH  19  21
ENDBRANCH  11  12
ENDBRANCH  10  11
ENDBRANCH   8  10
ENDBRANCH   7   8
ENDBRANCH   6   7
ENDBRANCH   5   6
ENDBRANCH   4   5
ENDBRANCH   3   4
ENDBRANCH   2   3
TORSDOF 14
ENDMDL
MODEL      256
REMARK 921   NORMALIZED FREE ENERGY PREDICTED BY IDOCK:   -3.43 KCAL/MOL
REMARK 922        TOTAL FREE ENERGY PREDICTED BY IDOCK:   -9.19 KCAL/MOL
REMARK 923 INTER-LIGAND FREE ENERGY PREDICTED BY IDOCK:   -7.12 KCAL/MOL
REMARK 924 INTRA-LIGAND FREE ENERGY PREDICTED BY IDOCK:   -2.07 KCAL/MOL
REMARK 927      BINDING AFFINITY PREDICTED BY RF-SCORE:    0.00 PKD
ROOT
HETATM    1  C   UNL     1     -11.919  11.984  69.291  1.00  0.00    -0.329 C  
HETATM    2  C   UNL     1     -12.077  10.523  69.670  1.00  0.00    -0.241 C  
ENDROOT
BRANCH   2   3
HETATM    3  C   UNL     1     -11.601  10.246  71.098  1.00  0.00    -0.385 C  
BRANCH   3   4
HETATM    4  C   UNL     1     -10.992   8.848  71.189  1.00  0.00    -0.356 C  
BRANCH   4   5
HETATM    5  C   UNL     1     -10.016   8.547  70.051  1.00  0.00    -0.191 C  
BRANCH   5   6
HETATM    6  C   UNL     1      -8.804   9.482  70.145  1.00  0.00    -0.266 C  
BRANCH   6   7
HETATM    7  C   UNL     1      -8.036   9.568  68.834  1.00  0.00    -0.091 C  
BRANCH   7   8
HETATM    8  C   UNL     1      -8.742  10.441  67.795  1.00  0.00    -0.122 C  
HETATM    9  O   UNL     1      -9.302   9.978  66.805  1.00  0.00    -0.154 OA 
BRANCH   8  10
HETATM   10  C   UNL     1      -8.724  11.925  68.102  1.00  0.00    -0.173 C  
BRANCH  10  11
HETATM   11  C   UNL     1      -7.633  12.775  67.432  1.00  0.00    -0.152 C  
BRANCH  11  12
HETATM   12  C   UNL     1      -7.218  13.959  68.345  1.00  0.00    -0.110 C  
HETATM   13  C   UNL     1      -6.099  13.555  69.319  1.00  0.00    -0.097 C  
HETATM   14  O   UNL     1      -6.582  12.839  70.443  1.00  0.00    -0.409 OA 
HETATM   15  C   UNL     1      -5.518  14.870  69.772  1.00  0.00    -0.098 C  
HETATM   16  H   UNL     1      -5.890  12.589  71.045  1.00  0.00     0.000 HD 
HETATM   17  C   UNL     1      -5.475  15.708  68.511  1.00  0.00    -0.104 C  
HETATM   18  O   UNL     1      -5.539  17.069  68.889  1.00  0.00    -0.141 OA 
HETATM   19  C   UNL     1      -6.644  15.211  67.608  1.00  0.00    -0.195 C  
HETATM   20  H   UNL     1      -5.512  17.595  68.098  1.00  0.00     0.000 HD 
BRANCH  19  21
HETATM   21  C   UNL     1      -7.728  16.262  67.297  1.00  0.00    -0.210 C  
BRANCH  21  22
HETATM   22  C   UNL     1      -9.080  15.956  67.892  1.00  0.00    -0.190 C  
HETATM   23  C   UNL     1     -10.288  16.046  67.318  1.00  0.00    -0.295 C  
BRANCH  23  24
HETATM   24  C   UNL     1     -10.591  16.533  65.933  1.00  0.00    -0.279 C  
BRANCH  24  25
HETATM   25  C   UNL     1     -10.942  15.393  64.975  1.00  0.00    -0.450 C  
BRANCH  25  26
HETATM   26  C   UNL     1     -10.807  14.006  65.608  1.00  0.00    -0.295 C  
HETATM   27  C   UNL     1     -12.153  13.330  65.753  1.00  0.00    -0.441 C  
HETATM   28  O   UNL     1     -13.223  13.803  65.421  1.00  0.00    -0.722 OA 
HETATM   29  O   UNL     1     -12.045  12.097  66.302  1.00  0.00    -0.626 OA 
ENDBRANCH  25  26
ENDBRANCH  24  25
ENDBRANCH  23  24
ENDBRANCH  21  22
ENDBRANCH  19  21
ENDBRANCH  11  12
ENDBRANCH  10  11
ENDBRANCH   8  10
ENDBRANCH   7   8
ENDBRANCH   6   7
ENDBRANCH   5   6
ENDBRANCH   4   5
ENDBRANCH   3   4
ENDBRANCH   2   3
TORSDOF 14
ENDMDL
MODEL      257
REMARK 921   NORMALIZED FREE ENERGY PREDICTED BY IDOCK:   -3.40 KCAL/MOL
REMARK 922        TOTAL FREE ENERGY PREDICTED BY IDOCK:   -9.15 KCAL/MOL
REMARK 923 INTER-LIGAND FREE ENERGY PREDICTED BY IDOCK:   -6.35 KCAL/MOL
REMARK 924 INTRA-LIGAND FREE ENERGY PREDICTED BY IDOCK:   -2.79 KCAL/MOL
REMARK 927      BINDING AFFINITY PREDICTED BY RF-SCORE:    0.00 PKD
ROOT
HETATM    1  C   UNL     1     -11.921  14.404  67.973  1.00  0.00    -0.326 C  
HETATM    2  C   UNL     1     -12.110  13.320  66.927  1.00  0.00    -0.389 C  
ENDROOT
BRANCH   2   3
HETATM    3  C   UNL     1     -12.881  13.829  65.707  1.00  0.00    -0.430 C  
BRANCH   3   4
HETATM    4  C   UNL     1     -11.961  14.654  64.809  1.00  0.00    -0.439 C  
BRANCH   4   5
HETATM    5  C   UNL     1     -10.911  13.806  64.089  1.00  0.00    -0.149 C  
BRANCH   5   6
HETATM    6  C   UNL     1     -11.597  12.654  63.344  1.00  0.00    -0.536 C  
BRANCH   6   7
HETATM    7  C   UNL     1     -11.142  11.290  63.841  1.00  0.00    -0.317 C  
BRANCH   7   8
HETATM    8  C   UNL     1      -9.669  11.013  63.529  1.00  0.00    -0.337 C  
HETATM    9  O   UNL     1      -9.210  11.052  62.390  1.00  0.00    -0.302 OA 
BRANCH   8  10
HETATM   10  C   UNL     1      -8.813  10.716  64.744  1.00  0.00    -0.196 C  
BRANCH  10  11
HETATM   11  C   UNL     1      -9.040  11.571  65.999  1.00  0.00    -0.206 C  
BRANCH  11  12
HETATM   12  C   UNL     1      -8.543  10.830  67.269  1.00  0.00    -0.130 C  
HETATM   13  C   UNL     1      -8.453   9.313  67.037  1.00  0.00    -0.124 C  
HETATM   14  O   UNL     1      -9.712   8.668  67.136  1.00  0.00    -0.163 OA 
HETATM   15  C   UNL     1      -7.552   8.828  68.143  1.00  0.00    -0.097 C  
HETATM   16  H   UNL     1      -9.656   7.730  66.993  1.00  0.00     0.000 HD 
HETATM   17  C   UNL     1      -6.465   9.881  68.221  1.00  0.00    -0.055 C  
HETATM   18  O   UNL     1      -5.948   9.878  69.538  1.00  0.00    -0.040 OA 
HETATM   19  C   UNL     1      -7.113  11.222  67.764  1.00  0.00    -0.087 C  
HETATM   20  H   UNL     1      -5.267  10.538  69.587  1.00  0.00     0.000 HD 
BRANCH  19  21
HETATM   21  C   UNL     1      -7.142  12.337  68.828  1.00  0.00    -0.107 C  
BRANCH  21  22
HETATM   22  C   UNL     1      -6.484  13.624  68.399  1.00  0.00    -0.095 C  
HETATM   23  C   UNL     1      -7.052  14.726  67.888  1.00  0.00    -0.171 C  
BRANCH  23  24
HETATM   24  C   UNL     1      -8.503  14.924  67.566  1.00  0.00    -0.198 C  
BRANCH  24  25
HETATM   25  C   UNL     1      -8.715  15.736  66.287  1.00  0.00    -0.358 C  
BRANCH  25  26
HETATM   26  C   UNL     1      -9.624  16.951  66.484  1.00  0.00    -0.295 C  
HETATM   27  C   UNL     1      -8.823  18.231  66.581  1.00  0.00    -0.284 C  
HETATM   28  O   UNL     1      -7.611  18.316  66.516  1.00  0.00    -0.219 OA 
HETATM   29  O   UNL     1      -9.617  19.316  66.744  1.00  0.00    -0.304 OA 
ENDBRANCH  25  26
ENDBRANCH  24  25
ENDBRANCH  23  24
ENDBRANCH  21  22
ENDBRANCH  19  21
ENDBRANCH  11  12
ENDBRANCH  10  11
ENDBRANCH   8  10
ENDBRANCH   7   8
ENDBRANCH   6   7
ENDBRANCH   5   6
ENDBRANCH   4   5
ENDBRANCH   3   4
ENDBRANCH   2   3
TORSDOF 14
ENDMDL
MODEL      258
REMARK 921   NORMALIZED FREE ENERGY PREDICTED BY IDOCK:   -3.40 KCAL/MOL
REMARK 922        TOTAL FREE ENERGY PREDICTED BY IDOCK:   -9.14 KCAL/MOL
REMARK 923 INTER-LIGAND FREE ENERGY PREDICTED BY IDOCK:   -6.86 KCAL/MOL
REMARK 924 INTRA-LIGAND FREE ENERGY PREDICTED BY IDOCK:   -2.27 KCAL/MOL
REMARK 927      BINDING AFFINITY PREDICTED BY RF-SCORE:    0.00 PKD
ROOT
HETATM    1  C   UNL     1      -7.080   6.251  73.954  1.00  0.00    -0.083 C  
HETATM    2  C   UNL     1      -6.675   7.063  72.737  1.00  0.00    -0.068 C  
ENDROOT
BRANCH   2   3
HETATM    3  C   UNL     1      -7.455   8.376  72.639  1.00  0.00    -0.122 C  
BRANCH   3   4
HETATM    4  C   UNL     1      -8.851   8.206  73.236  1.00  0.00    -0.324 C  
BRANCH   4   5
HETATM    5  C   UNL     1      -9.875   7.688  72.223  1.00  0.00    -0.229 C  
BRANCH   5   6
HETATM    6  C   UNL     1     -11.287   8.095  72.659  1.00  0.00    -0.450 C  
BRANCH   6   7
HETATM    7  C   UNL     1     -12.147   8.548  71.488  1.00  0.00    -0.351 C  
BRANCH   7   8
HETATM    8  C   UNL     1     -12.183  10.071  71.340  1.00  0.00    -0.416 C  
HETATM    9  O   UNL     1     -12.798  10.801  72.114  1.00  0.00    -0.356 OA 
BRANCH   8  10
HETATM   10  C   UNL     1     -11.372  10.611  70.180  1.00  0.00    -0.402 C  
BRANCH  10  11
HETATM   11  C   UNL     1     -12.114  10.895  68.866  1.00  0.00    -0.186 C  
BRANCH  11  12
HETATM   12  C   UNL     1     -11.144  10.824  67.657  1.00  0.00    -0.384 C  
HETATM   13  C   UNL     1     -11.095  12.157  66.893  1.00  0.00    -0.297 C  
HETATM   14  O   UNL     1     -12.197  12.327  66.017  1.00  0.00    -0.646 OA 
HETATM   15  C   UNL     1      -9.823  12.071  66.091  1.00  0.00    -0.255 C  
HETATM   16  H   UNL     1     -12.167  13.151  65.544  1.00  0.00     0.000 HD 
HETATM   17  C   UNL     1      -8.827  11.444  67.045  1.00  0.00    -0.168 C  
HETATM   18  O   UNL     1      -7.846  10.777  66.275  1.00  0.00    -0.147 OA 
HETATM   19  C   UNL     1      -9.648  10.536  68.008  1.00  0.00    -0.159 C  
HETATM   20  H   UNL     1      -7.221  10.383  66.873  1.00  0.00     0.000 HD 
BRANCH  19  21
HETATM   21  C   UNL     1      -9.307   9.033  67.948  1.00  0.00    -0.155 C  
BRANCH  21  22
HETATM   22  C   UNL     1     -10.350   8.185  67.265  1.00  0.00    -0.373 C  
HETATM   23  C   UNL     1     -10.935   7.061  67.703  1.00  0.00    -0.259 C  
BRANCH  23  24
HETATM   24  C   UNL     1     -10.647   6.338  68.984  1.00  0.00    -0.322 C  
BRANCH  24  25
HETATM   25  C   UNL     1      -9.485   5.351  68.851  1.00  0.00    -0.174 C  
BRANCH  25  26
HETATM   26  C   UNL     1      -9.640   4.387  67.672  1.00  0.00    -0.212 C  
HETATM   27  C   UNL     1      -8.654   4.700  66.568  1.00  0.00    -0.112 C  
HETATM   28  O   UNL     1      -7.832   5.597  66.584  1.00  0.00    -0.099 OA 
HETATM   29  O   UNL     1      -8.774   3.847  65.523  1.00  0.00    -0.112 OA 
ENDBRANCH  25  26
ENDBRANCH  24  25
ENDBRANCH  23  24
ENDBRANCH  21  22
ENDBRANCH  19  21
ENDBRANCH  11  12
ENDBRANCH  10  11
ENDBRANCH   8  10
ENDBRANCH   7   8
ENDBRANCH   6   7
ENDBRANCH   5   6
ENDBRANCH   4   5
ENDBRANCH   3   4
ENDBRANCH   2   3
TORSDOF 14
ENDMDL
MODEL      259
REMARK 921   NORMALIZED FREE ENERGY PREDICTED BY IDOCK:   -3.39 KCAL/MOL
REMARK 922        TOTAL FREE ENERGY PREDICTED BY IDOCK:   -9.12 KCAL/MOL
REMARK 923 INTER-LIGAND FREE ENERGY PREDICTED BY IDOCK:   -7.90 KCAL/MOL
REMARK 924 INTRA-LIGAND FREE ENERGY PREDICTED BY IDOCK:   -1.22 KCAL/MOL
REMARK 927      BINDING AFFINITY PREDICTED BY RF-SCORE:    0.00 PKD
ROOT
HETATM    1  C   UNL     1      -9.829  19.706  67.307  1.00  0.00    -0.492 C  
HETATM    2  C   UNL     1     -10.413  18.629  66.410  1.00  0.00    -0.463 C  
ENDROOT
BRANCH   2   3
HETATM    3  C   UNL     1     -10.206  17.227  66.988  1.00  0.00    -0.320 C  
BRANCH   3   4
HETATM    4  C   UNL     1      -9.267  16.421  66.093  1.00  0.00    -0.365 C  
BRANCH   4   5
HETATM    5  C   UNL     1      -9.850  15.068  65.681  1.00  0.00    -0.380 C  
BRANCH   5   6
HETATM    6  C   UNL     1     -11.303  15.245  65.226  1.00  0.00    -0.282 C  
BRANCH   6   7
HETATM    7  C   UNL     1     -12.167  14.038  65.559  1.00  0.00    -0.455 C  
BRANCH   7   8
HETATM    8  C   UNL     1     -11.783  13.392  66.893  1.00  0.00    -0.389 C  
HETATM    9  O   UNL     1     -12.043  13.902  67.979  1.00  0.00    -0.367 OA 
BRANCH   8  10
HETATM   10  C   UNL     1     -11.081  12.055  66.766  1.00  0.00    -0.353 C  
BRANCH  10  11
HETATM   11  C   UNL     1     -11.459  10.957  67.772  1.00  0.00    -0.323 C  
BRANCH  11  12
HETATM   12  C   UNL     1     -10.294   9.947  67.949  1.00  0.00    -0.256 C  
HETATM   13  C   UNL     1      -9.440   9.842  66.675  1.00  0.00    -0.171 C  
HETATM   14  O   UNL     1     -10.029   9.012  65.687  1.00  0.00    -0.457 OA 
HETATM   15  C   UNL     1      -8.152   9.221  67.150  1.00  0.00    -0.109 C  
HETATM   16  H   UNL     1      -9.501   8.947  64.900  1.00  0.00     0.000 HD 
HETATM   17  C   UNL     1      -7.875   9.912  68.469  1.00  0.00    -0.081 C  
HETATM   18  O   UNL     1      -7.095   9.039  69.263  1.00  0.00    -0.056 OA 
HETATM   19  C   UNL     1      -9.261  10.296  69.068  1.00  0.00    -0.188 C  
HETATM   20  H   UNL     1      -6.921   9.472  70.091  1.00  0.00     0.000 HD 
BRANCH  19  21
HETATM   21  C   UNL     1      -9.604   9.632  70.416  1.00  0.00    -0.292 C  
BRANCH  21  22
HETATM   22  C   UNL     1     -11.036   9.812  70.853  1.00  0.00    -0.428 C  
HETATM   23  C   UNL     1     -11.857   8.918  71.424  1.00  0.00    -0.383 C  
BRANCH  23  24
HETATM   24  C   UNL     1     -11.553   7.481  71.724  1.00  0.00    -0.304 C  
BRANCH  24  25
HETATM   25  C   UNL     1     -11.108   7.266  73.172  1.00  0.00    -0.336 C  
BRANCH  25  26
HETATM   26  C   UNL     1      -9.598   7.421  73.372  1.00  0.00    -0.298 C  
HETATM   27  C   UNL     1      -8.926   6.080  73.567  1.00  0.00    -0.124 C  
HETATM   28  O   UNL     1      -9.485   5.000  73.571  1.00  0.00    -0.132 OA 
HETATM   29  O   UNL     1      -7.587   6.203  73.734  1.00  0.00    -0.091 OA 
ENDBRANCH  25  26
ENDBRANCH  24  25
ENDBRANCH  23  24
ENDBRANCH  21  22
ENDBRANCH  19  21
ENDBRANCH  11  12
ENDBRANCH  10  11
ENDBRANCH   8  10
ENDBRANCH   7   8
ENDBRANCH   6   7
ENDBRANCH   5   6
ENDBRANCH   4   5
ENDBRANCH   3   4
ENDBRANCH   2   3
TORSDOF 14
ENDMDL
MODEL      260
REMARK 921   NORMALIZED FREE ENERGY PREDICTED BY IDOCK:   -3.38 KCAL/MOL
REMARK 922        TOTAL FREE ENERGY PREDICTED BY IDOCK:   -9.11 KCAL/MOL
REMARK 923 INTER-LIGAND FREE ENERGY PREDICTED BY IDOCK:   -6.56 KCAL/MOL
REMARK 924 INTRA-LIGAND FREE ENERGY PREDICTED BY IDOCK:   -2.55 KCAL/MOL
REMARK 927      BINDING AFFINITY PREDICTED BY RF-SCORE:    0.00 PKD
ROOT
HETATM    1  C   UNL     1     -11.564  12.541  67.946  1.00  0.00    -0.403 C  
HETATM    2  C   UNL     1     -12.012  13.568  66.922  1.00  0.00    -0.447 C  
ENDROOT
BRANCH   2   3
HETATM    3  C   UNL     1     -10.829  14.327  66.317  1.00  0.00    -0.310 C  
BRANCH   3   4
HETATM    4  C   UNL     1     -10.768  14.092  64.808  1.00  0.00    -0.442 C  
BRANCH   4   5
HETATM    5  C   UNL     1     -12.076  13.543  64.236  1.00  0.00    -0.482 C  
BRANCH   5   6
HETATM    6  C   UNL     1     -11.803  12.239  63.476  1.00  0.00    -0.601 C  
BRANCH   6   7
HETATM    7  C   UNL     1     -10.315  11.966  63.309  1.00  0.00    -0.432 C  
BRANCH   7   8
HETATM    8  C   UNL     1      -9.908  10.589  63.838  1.00  0.00    -0.310 C  
HETATM    9  O   UNL     1      -9.370   9.737  63.136  1.00  0.00    -0.263 OA 
BRANCH   8  10
HETATM   10  C   UNL     1     -10.194  10.370  65.310  1.00  0.00    -0.332 C  
BRANCH  10  11
HETATM   11  C   UNL     1      -9.000  10.070  66.229  1.00  0.00    -0.170 C  
BRANCH  11  12
HETATM   12  C   UNL     1      -9.168   8.690  66.918  1.00  0.00    -0.198 C  
HETATM   13  C   UNL     1     -10.649   8.347  67.142  1.00  0.00    -0.256 C  
HETATM   14  O   UNL     1     -11.197   8.997  68.277  1.00  0.00    -0.459 OA 
HETATM   15  C   UNL     1     -10.649   6.857  67.367  1.00  0.00    -0.373 C  
HETATM   16  H   UNL     1     -12.113   8.785  68.416  1.00  0.00     0.000 HD 
HETATM   17  C   UNL     1      -9.657   6.332  66.349  1.00  0.00    -0.119 C  
HETATM   18  O   UNL     1      -9.130   5.115  66.842  1.00  0.00    -0.115 OA 
HETATM   19  C   UNL     1      -8.613   7.465  66.121  1.00  0.00    -0.154 C  
HETATM   20  H   UNL     1      -8.508   4.785  66.204  1.00  0.00     0.000 HD 
BRANCH  19  21
HETATM   21  C   UNL     1      -7.163   7.115  66.512  1.00  0.00    -0.079 C  
BRANCH  21  22
HETATM   22  C   UNL     1      -6.942   6.943  67.994  1.00  0.00    -0.083 C  
HETATM   23  C   UNL     1      -6.402   7.806  68.866  1.00  0.00    -0.036 C  
BRANCH  23  24
HETATM   24  C   UNL     1      -5.830   9.157  68.557  1.00  0.00    -0.041 C  
BRANCH  24  25
HETATM   25  C   UNL     1      -6.241  10.216  69.583  1.00  0.00    -0.052 C  
BRANCH  25  26
HETATM   26  C   UNL     1      -7.443  11.054  69.141  1.00  0.00    -0.121 C  
HETATM   27  C   UNL     1      -7.004  12.328  68.452  1.00  0.00    -0.082 C  
HETATM   28  O   UNL     1      -5.853  12.671  68.261  1.00  0.00    -0.059 OA 
HETATM   29  O   UNL     1      -8.059  13.074  68.045  1.00  0.00    -0.134 OA 
ENDBRANCH  25  26
ENDBRANCH  24  25
ENDBRANCH  23  24
ENDBRANCH  21  22
ENDBRANCH  19  21
ENDBRANCH  11  12
ENDBRANCH  10  11
ENDBRANCH   8  10
ENDBRANCH   7   8
ENDBRANCH   6   7
ENDBRANCH   5   6
ENDBRANCH   4   5
ENDBRANCH   3   4
ENDBRANCH   2   3
TORSDOF 14
ENDMDL
MODEL      261
REMARK 921   NORMALIZED FREE ENERGY PREDICTED BY IDOCK:   -3.38 KCAL/MOL
REMARK 922        TOTAL FREE ENERGY PREDICTED BY IDOCK:   -9.11 KCAL/MOL
REMARK 923 INTER-LIGAND FREE ENERGY PREDICTED BY IDOCK:   -6.30 KCAL/MOL
REMARK 924 INTRA-LIGAND FREE ENERGY PREDICTED BY IDOCK:   -2.81 KCAL/MOL
REMARK 927      BINDING AFFINITY PREDICTED BY RF-SCORE:    0.00 PKD
ROOT
HETATM    1  C   UNL     1     -10.028  10.951  66.166  1.00  0.00    -0.282 C  
HETATM    2  C   UNL     1      -9.125  11.333  67.325  1.00  0.00    -0.156 C  
ENDROOT
BRANCH   2   3
HETATM    3  C   UNL     1      -9.810  11.127  68.678  1.00  0.00    -0.207 C  
BRANCH   3   4
HETATM    4  C   UNL     1     -11.142  11.876  68.713  1.00  0.00    -0.296 C  
BRANCH   4   5
HETATM    5  C   UNL     1     -12.068  11.394  69.831  1.00  0.00    -0.404 C  
BRANCH   5   6
HETATM    6  C   UNL     1     -11.659   9.984  70.273  1.00  0.00    -0.354 C  
BRANCH   6   7
HETATM    7  C   UNL     1     -12.551   9.442  71.380  1.00  0.00    -0.430 C  
BRANCH   7   8
HETATM    8  C   UNL     1     -12.338   7.946  71.627  1.00  0.00    -0.315 C  
HETATM    9  O   UNL     1     -12.903   7.076  70.970  1.00  0.00    -0.349 OA 
BRANCH   8  10
HETATM   10  C   UNL     1     -11.348   7.624  72.728  1.00  0.00    -0.419 C  
BRANCH  10  11
HETATM   11  C   UNL     1     -10.056   8.453  72.786  1.00  0.00    -0.268 C  
BRANCH  11  12
HETATM   12  C   UNL     1      -8.809   7.539  72.657  1.00  0.00    -0.180 C  
HETATM   13  C   UNL     1      -7.998   7.504  73.963  1.00  0.00    -0.150 C  
HETATM   14  O   UNL     1      -7.166   8.641  74.123  1.00  0.00    -0.331 OA 
HETATM   15  C   UNL     1      -7.143   6.271  73.828  1.00  0.00    -0.083 C  
HETATM   16  H   UNL     1      -6.665   8.619  74.930  1.00  0.00     0.000 HD 
HETATM   17  C   UNL     1      -8.072   5.243  73.215  1.00  0.00    -0.111 C  
HETATM   18  O   UNL     1      -7.282   4.309  72.505  1.00  0.00    -0.062 OA 
HETATM   19  C   UNL     1      -9.102   6.034  72.354  1.00  0.00    -0.136 C  
HETATM   20  H   UNL     1      -7.865   3.664  72.121  1.00  0.00     0.000 HD 
BRANCH  19  21
HETATM   21  C   UNL     1      -9.079   5.721  70.845  1.00  0.00    -0.157 C  
BRANCH  21  22
HETATM   22  C   UNL     1      -8.442   6.793  69.997  1.00  0.00    -0.140 C  
HETATM   23  C   UNL     1      -8.989   7.511  69.005  1.00  0.00    -0.131 C  
BRANCH  23  24
HETATM   24  C   UNL     1     -10.378   7.378  68.458  1.00  0.00    -0.221 C  
BRANCH  24  25
HETATM   25  C   UNL     1     -10.413   7.414  66.929  1.00  0.00    -0.379 C  
BRANCH  25  26
HETATM   26  C   UNL     1      -9.197   6.748  66.280  1.00  0.00    -0.161 C  
HETATM   27  C   UNL     1      -9.490   5.313  65.898  1.00  0.00    -0.142 C  
HETATM   28  O   UNL     1     -10.545   4.734  66.073  1.00  0.00    -0.311 OA 
HETATM   29  O   UNL     1      -8.425   4.716  65.312  1.00  0.00    -0.119 OA 
ENDBRANCH  25  26
ENDBRANCH  24  25
ENDBRANCH  23  24
ENDBRANCH  21  22
ENDBRANCH  19  21
ENDBRANCH  11  12
ENDBRANCH  10  11
ENDBRANCH   8  10
ENDBRANCH   7   8
ENDBRANCH   6   7
ENDBRANCH   5   6
ENDBRANCH   4   5
ENDBRANCH   3   4
ENDBRANCH   2   3
TORSDOF 14
ENDMDL
MODEL      262
REMARK 921   NORMALIZED FREE ENERGY PREDICTED BY IDOCK:   -3.38 KCAL/MOL
REMARK 922        TOTAL FREE ENERGY PREDICTED BY IDOCK:   -9.10 KCAL/MOL
REMARK 923 INTER-LIGAND FREE ENERGY PREDICTED BY IDOCK:   -7.59 KCAL/MOL
REMARK 924 INTRA-LIGAND FREE ENERGY PREDICTED BY IDOCK:   -1.51 KCAL/MOL
REMARK 927      BINDING AFFINITY PREDICTED BY RF-SCORE:    0.00 PKD
ROOT
HETATM    1  C   UNL     1      -7.104   8.041  66.180  1.00  0.00    -0.062 C  
HETATM    2  C   UNL     1      -6.661   7.265  64.952  1.00  0.00    -0.047 C  
ENDROOT
BRANCH   2   3
HETATM    3  C   UNL     1      -6.377   8.187  63.764  1.00  0.00    -0.071 C  
BRANCH   3   4
HETATM    4  C   UNL     1      -7.663   8.447  62.980  1.00  0.00    -0.132 C  
BRANCH   4   5
HETATM    5  C   UNL     1      -7.903   9.932  62.702  1.00  0.00    -0.131 C  
BRANCH   5   6
HETATM    6  C   UNL     1      -9.408  10.223  62.695  1.00  0.00    -0.335 C  
BRANCH   6   7
HETATM    7  C   UNL     1      -9.887  10.835  64.003  1.00  0.00    -0.390 C  
BRANCH   7   8
HETATM    8  C   UNL     1     -10.818  12.030  63.786  1.00  0.00    -0.420 C  
HETATM    9  O   UNL     1     -11.870  11.950  63.157  1.00  0.00    -0.351 OA 
BRANCH   8  10
HETATM   10  C   UNL     1     -10.353  13.318  64.436  1.00  0.00    -0.372 C  
BRANCH  10  11
HETATM   11  C   UNL     1     -11.332  14.030  65.381  1.00  0.00    -0.315 C  
BRANCH  11  12
HETATM   12  C   UNL     1     -10.570  14.934  66.387  1.00  0.00    -0.307 C  
HETATM   13  C   UNL     1     -10.905  16.419  66.176  1.00  0.00    -0.075 C  
HETATM   14  O   UNL     1     -10.191  16.995  65.095  1.00  0.00    -0.544 OA 
HETATM   15  C   UNL     1     -10.481  17.075  67.465  1.00  0.00    -0.334 C  
HETATM   16  H   UNL     1     -10.398  17.913  64.965  1.00  0.00     0.000 HD 
HETATM   17  C   UNL     1     -10.930  16.104  68.537  1.00  0.00    -0.338 C  
HETATM   18  O   UNL     1     -10.094  16.282  69.665  1.00  0.00    -0.242 OA 
HETATM   19  C   UNL     1     -10.889  14.684  67.896  1.00  0.00    -0.261 C  
HETATM   20  H   UNL     1     -10.375  15.673  70.338  1.00  0.00     0.000 HD 
BRANCH  19  21
HETATM   21  C   UNL     1      -9.908  13.693  68.551  1.00  0.00    -0.196 C  
BRANCH  21  22
HETATM   22  C   UNL     1      -9.755  12.387  67.811  1.00  0.00    -0.201 C  
HETATM   23  C   UNL     1     -10.003  11.144  68.246  1.00  0.00    -0.196 C  
BRANCH  23  24
HETATM   24  C   UNL     1     -10.451  10.744  69.619  1.00  0.00    -0.183 C  
BRANCH  24  25
HETATM   25  C   UNL     1     -11.966  10.870  69.801  1.00  0.00    -0.423 C  
BRANCH  25  26
HETATM   26  C   UNL     1     -12.386  12.163  70.503  1.00  0.00    -0.358 C  
HETATM   27  C   UNL     1     -13.133  11.877  71.787  1.00  0.00    -0.360 C  
HETATM   28  O   UNL     1     -13.384  10.773  72.231  1.00  0.00    -0.385 OA 
HETATM   29  O   UNL     1     -13.501  13.015  72.424  1.00  0.00    -0.567 OA 
ENDBRANCH  25  26
ENDBRANCH  24  25
ENDBRANCH  23  24
ENDBRANCH  21  22
ENDBRANCH  19  21
ENDBRANCH  11  12
ENDBRANCH  10  11
ENDBRANCH   8  10
ENDBRANCH   7   8
ENDBRANCH   6   7
ENDBRANCH   5   6
ENDBRANCH   4   5
ENDBRANCH   3   4
ENDBRANCH   2   3
TORSDOF 14
ENDMDL
MODEL      263
REMARK 921   NORMALIZED FREE ENERGY PREDICTED BY IDOCK:   -3.37 KCAL/MOL
REMARK 922        TOTAL FREE ENERGY PREDICTED BY IDOCK:   -9.08 KCAL/MOL
REMARK 923 INTER-LIGAND FREE ENERGY PREDICTED BY IDOCK:   -6.73 KCAL/MOL
REMARK 924 INTRA-LIGAND FREE ENERGY PREDICTED BY IDOCK:   -2.36 KCAL/MOL
REMARK 927      BINDING AFFINITY PREDICTED BY RF-SCORE:    0.00 PKD
ROOT
HETATM    1  C   UNL     1      -6.990   5.680  63.586  1.00  0.00    -0.049 C  
HETATM    2  C   UNL     1      -8.215   6.456  64.033  1.00  0.00     0.024 C  
ENDROOT
BRANCH   2   3
HETATM    3  C   UNL     1      -8.498   6.269  65.525  1.00  0.00    -0.145 C  
BRANCH   3   4
HETATM    4  C   UNL     1      -8.721   7.625  66.193  1.00  0.00    -0.176 C  
BRANCH   4   5
HETATM    5  C   UNL     1      -8.150   8.791  65.383  1.00  0.00    -0.125 C  
BRANCH   5   6
HETATM    6  C   UNL     1      -7.180   9.601  66.251  1.00  0.00    -0.094 C  
BRANCH   6   7
HETATM    7  C   UNL     1      -7.478   9.462  67.738  1.00  0.00    -0.087 C  
BRANCH   7   8
HETATM    8  C   UNL     1      -8.098  10.727  68.333  1.00  0.00    -0.127 C  
HETATM    9  O   UNL     1      -7.730  11.858  68.026  1.00  0.00    -0.115 OA 
BRANCH   8  10
HETATM   10  C   UNL     1      -9.228  10.475  69.311  1.00  0.00    -0.164 C  
BRANCH  10  11
HETATM   11  C   UNL     1     -10.579  10.026  68.734  1.00  0.00    -0.241 C  
BRANCH  11  12
HETATM   12  C   UNL     1     -11.589  11.204  68.712  1.00  0.00    -0.389 C  
HETATM   13  C   UNL     1     -11.652  11.919  70.072  1.00  0.00    -0.220 C  
HETATM   14  O   UNL     1     -12.455  11.230  71.016  1.00  0.00    -0.382 OA 
HETATM   15  C   UNL     1     -12.280  13.251  69.755  1.00  0.00    -0.285 C  
HETATM   16  H   UNL     1     -12.494  11.671  71.856  1.00  0.00     0.000 HD 
HETATM   17  C   UNL     1     -11.627  13.665  68.452  1.00  0.00    -0.342 C  
HETATM   18  O   UNL     1     -12.520  14.526  67.771  1.00  0.00    -0.597 OA 
HETATM   19  C   UNL     1     -11.267  12.349  67.698  1.00  0.00    -0.340 C  
HETATM   20  H   UNL     1     -12.111  14.786  66.954  1.00  0.00     0.000 HD 
BRANCH  19  21
HETATM   21  C   UNL     1     -11.973  12.152  66.342  1.00  0.00    -0.201 C  
BRANCH  21  22
HETATM   22  C   UNL     1     -11.074  12.321  65.142  1.00  0.00    -0.361 C  
HETATM   23  C   UNL     1     -10.979  13.366  64.308  1.00  0.00    -0.391 C  
BRANCH  23  24
HETATM   24  C   UNL     1     -11.799  14.620  64.340  1.00  0.00    -0.405 C  
BRANCH  24  25
HETATM   25  C   UNL     1     -11.015  15.819  64.879  1.00  0.00    -0.443 C  
BRANCH  25  26
HETATM   26  C   UNL     1      -9.760  15.421  65.660  1.00  0.00    -0.366 C  
HETATM   27  C   UNL     1      -9.646  16.194  66.955  1.00  0.00    -0.224 C  
HETATM   28  O   UNL     1     -10.433  17.032  67.353  1.00  0.00    -0.323 OA 
HETATM   29  O   UNL     1      -8.545  15.843  67.661  1.00  0.00    -0.160 OA 
ENDBRANCH  25  26
ENDBRANCH  24  25
ENDBRANCH  23  24
ENDBRANCH  21  22
ENDBRANCH  19  21
ENDBRANCH  11  12
ENDBRANCH  10  11
ENDBRANCH   8  10
ENDBRANCH   7   8
ENDBRANCH   6   7
ENDBRANCH   5   6
ENDBRANCH   4   5
ENDBRANCH   3   4
ENDBRANCH   2   3
TORSDOF 14
ENDMDL
MODEL      264
REMARK 921   NORMALIZED FREE ENERGY PREDICTED BY IDOCK:   -3.36 KCAL/MOL
REMARK 922        TOTAL FREE ENERGY PREDICTED BY IDOCK:   -9.07 KCAL/MOL
REMARK 923 INTER-LIGAND FREE ENERGY PREDICTED BY IDOCK:   -6.34 KCAL/MOL
REMARK 924 INTRA-LIGAND FREE ENERGY PREDICTED BY IDOCK:   -2.73 KCAL/MOL
REMARK 927      BINDING AFFINITY PREDICTED BY RF-SCORE:    0.00 PKD
ROOT
HETATM    1  C   UNL     1     -13.332  12.262  71.959  1.00  0.00    -0.491 C  
HETATM    2  C   UNL     1     -12.908  11.012  71.209  1.00  0.00    -0.528 C  
ENDROOT
BRANCH   2   3
HETATM    3  C   UNL     1     -13.227   9.738  71.994  1.00  0.00    -0.557 C  
BRANCH   3   4
HETATM    4  C   UNL     1     -12.031   8.787  71.963  1.00  0.00    -0.446 C  
BRANCH   4   5
HETATM    5  C   UNL     1     -10.962   9.205  70.952  1.00  0.00    -0.349 C  
BRANCH   5   6
HETATM    6  C   UNL     1      -9.592   8.678  71.397  1.00  0.00    -0.313 C  
BRANCH   6   7
HETATM    7  C   UNL     1      -8.443   9.389  70.698  1.00  0.00    -0.239 C  
BRANCH   7   8
HETATM    8  C   UNL     1      -8.816   9.866  69.292  1.00  0.00    -0.174 C  
HETATM    9  O   UNL     1      -9.214  11.004  69.058  1.00  0.00    -0.151 OA 
BRANCH   8  10
HETATM   10  C   UNL     1      -8.626   8.829  68.204  1.00  0.00    -0.134 C  
BRANCH  10  11
HETATM   11  C   UNL     1      -9.336   9.068  66.863  1.00  0.00    -0.203 C  
BRANCH  11  12
HETATM   12  C   UNL     1      -9.405   7.758  66.034  1.00  0.00    -0.102 C  
HETATM   13  C   UNL     1      -8.206   7.630  65.080  1.00  0.00    -0.128 C  
HETATM   14  O   UNL     1      -8.359   8.402  63.901  1.00  0.00    -0.304 OA 
HETATM   15  C   UNL     1      -8.179   6.167  64.723  1.00  0.00    -0.112 C  
HETATM   16  H   UNL     1      -7.618   8.323  63.311  1.00  0.00     0.000 HD 
HETATM   17  C   UNL     1      -8.479   5.463  66.031  1.00  0.00    -0.123 C  
HETATM   18  O   UNL     1      -9.065   4.212  65.728  1.00  0.00    -0.124 OA 
HETATM   19  C   UNL     1      -9.373   6.433  66.861  1.00  0.00    -0.150 C  
HETATM   20  H   UNL     1      -9.254   3.770  66.548  1.00  0.00     0.000 HD 
BRANCH  19  21
HETATM   21  C   UNL     1     -10.784   5.908  67.191  1.00  0.00    -0.387 C  
BRANCH  21  22
HETATM   22  C   UNL     1     -11.286   6.291  68.561  1.00  0.00    -0.305 C  
HETATM   23  C   UNL     1     -10.954   5.769  69.751  1.00  0.00    -0.397 C  
BRANCH  23  24
HETATM   24  C   UNL     1     -10.023   4.621  70.001  1.00  0.00    -0.302 C  
BRANCH  24  25
HETATM   25  C   UNL     1      -8.794   5.030  70.816  1.00  0.00    -0.156 C  
BRANCH  25  26
HETATM   26  C   UNL     1      -7.674   5.633  69.964  1.00  0.00    -0.083 C  
HETATM   27  C   UNL     1      -6.657   4.586  69.567  1.00  0.00    -0.036 C  
HETATM   28  O   UNL     1      -6.694   3.409  69.872  1.00  0.00    -0.033 OA 
HETATM   29  O   UNL     1      -5.666   5.104  68.802  1.00  0.00    -0.014 OA 
ENDBRANCH  25  26
ENDBRANCH  24  25
ENDBRANCH  23  24
ENDBRANCH  21  22
ENDBRANCH  19  21
ENDBRANCH  11  12
ENDBRANCH  10  11
ENDBRANCH   8  10
ENDBRANCH   7   8
ENDBRANCH   6   7
ENDBRANCH   5   6
ENDBRANCH   4   5
ENDBRANCH   3   4
ENDBRANCH   2   3
TORSDOF 14
ENDMDL
MODEL      265
REMARK 921   NORMALIZED FREE ENERGY PREDICTED BY IDOCK:   -3.33 KCAL/MOL
REMARK 922        TOTAL FREE ENERGY PREDICTED BY IDOCK:   -9.01 KCAL/MOL
REMARK 923 INTER-LIGAND FREE ENERGY PREDICTED BY IDOCK:   -7.28 KCAL/MOL
REMARK 924 INTRA-LIGAND FREE ENERGY PREDICTED BY IDOCK:   -1.73 KCAL/MOL
REMARK 927      BINDING AFFINITY PREDICTED BY RF-SCORE:    0.00 PKD
ROOT
HETATM    1  C   UNL     1     -13.038  10.132  71.731  1.00  0.00    -0.568 C  
HETATM    2  C   UNL     1     -12.064   9.005  72.025  1.00  0.00    -0.440 C  
ENDROOT
BRANCH   2   3
HETATM    3  C   UNL     1     -10.691   9.256  71.398  1.00  0.00    -0.432 C  
BRANCH   3   4
HETATM    4  C   UNL     1     -10.515   8.391  70.150  1.00  0.00    -0.230 C  
BRANCH   4   5
HETATM    5  C   UNL     1     -10.598   9.194  68.851  1.00  0.00    -0.214 C  
BRANCH   5   6
HETATM    6  C   UNL     1      -9.253   9.133  68.117  1.00  0.00    -0.137 C  
BRANCH   6   7
HETATM    7  C   UNL     1      -8.389  10.356  68.389  1.00  0.00    -0.119 C  
BRANCH   7   8
HETATM    8  C   UNL     1      -8.239  11.254  67.158  1.00  0.00    -0.149 C  
HETATM    9  O   UNL     1      -8.500  10.873  66.020  1.00  0.00    -0.163 OA 
BRANCH   8  10
HETATM   10  C   UNL     1      -7.771  12.663  67.460  1.00  0.00    -0.161 C  
BRANCH  10  11
HETATM   11  C   UNL     1      -8.761  13.606  68.159  1.00  0.00    -0.177 C  
BRANCH  11  12
HETATM   12  C   UNL     1      -8.328  15.086  67.989  1.00  0.00    -0.148 C  
HETATM   13  C   UNL     1      -6.799  15.219  67.896  1.00  0.00    -0.151 C  
HETATM   14  O   UNL     1      -6.165  15.164  69.163  1.00  0.00    -0.100 OA 
HETATM   15  C   UNL     1      -6.588  16.581  67.287  1.00  0.00    -0.215 C  
HETATM   16  H   UNL     1      -5.221  15.246  69.105  1.00  0.00     0.000 HD 
HETATM   17  C   UNL     1      -7.654  16.674  66.214  1.00  0.00    -0.191 C  
HETATM   18  O   UNL     1      -7.951  18.042  66.012  1.00  0.00    -0.475 OA 
HETATM   19  C   UNL     1      -8.848  15.798  66.699  1.00  0.00    -0.324 C  
HETATM   20  H   UNL     1      -8.620  18.101  65.340  1.00  0.00     0.000 HD 
BRANCH  19  21
HETATM   21  C   UNL     1     -10.169  16.557  66.936  1.00  0.00    -0.296 C  
BRANCH  21  22
HETATM   22  C   UNL     1     -11.124  15.867  67.877  1.00  0.00    -0.317 C  
HETATM   23  C   UNL     1     -12.012  14.899  67.608  1.00  0.00    -0.173 C  
BRANCH  23  24
HETATM   24  C   UNL     1     -12.308  14.297  66.267  1.00  0.00    -0.399 C  
BRANCH  24  25
HETATM   25  C   UNL     1     -12.317  12.767  66.300  1.00  0.00    -0.120 C  
BRANCH  25  26
HETATM   26  C   UNL     1     -11.318  12.135  65.328  1.00  0.00    -0.386 C  
HETATM   27  C   UNL     1     -11.970  11.801  64.004  1.00  0.00    -0.281 C  
HETATM   28  O   UNL     1     -13.137  11.995  63.719  1.00  0.00    -0.730 OA 
HETATM   29  O   UNL     1     -11.094  11.250  63.131  1.00  0.00    -0.181 OA 
ENDBRANCH  25  26
ENDBRANCH  24  25
ENDBRANCH  23  24
ENDBRANCH  21  22
ENDBRANCH  19  21
ENDBRANCH  11  12
ENDBRANCH  10  11
ENDBRANCH   8  10
ENDBRANCH   7   8
ENDBRANCH   6   7
ENDBRANCH   5   6
ENDBRANCH   4   5
ENDBRANCH   3   4
ENDBRANCH   2   3
TORSDOF 14
ENDMDL
MODEL      266
REMARK 921   NORMALIZED FREE ENERGY PREDICTED BY IDOCK:   -3.32 KCAL/MOL
REMARK 922        TOTAL FREE ENERGY PREDICTED BY IDOCK:   -9.00 KCAL/MOL
REMARK 923 INTER-LIGAND FREE ENERGY PREDICTED BY IDOCK:   -7.77 KCAL/MOL
REMARK 924 INTRA-LIGAND FREE ENERGY PREDICTED BY IDOCK:   -1.23 KCAL/MOL
REMARK 927      BINDING AFFINITY PREDICTED BY RF-SCORE:    0.00 PKD
ROOT
HETATM    1  C   UNL     1     -10.160  19.965  67.620  1.00  0.00    -0.564 C  
HETATM    2  C   UNL     1      -9.984  18.799  68.576  1.00  0.00    -0.450 C  
ENDROOT
BRANCH   2   3
HETATM    3  C   UNL     1      -8.958  17.787  68.063  1.00  0.00    -0.263 C  
BRANCH   3   4
HETATM    4  C   UNL     1      -9.512  17.045  66.847  1.00  0.00    -0.266 C  
BRANCH   4   5
HETATM    5  C   UNL     1     -10.856  16.368  67.122  1.00  0.00    -0.169 C  
BRANCH   5   6
HETATM    6  C   UNL     1     -10.829  14.927  66.598  1.00  0.00    -0.319 C  
BRANCH   6   7
HETATM    7  C   UNL     1     -12.212  14.292  66.577  1.00  0.00    -0.419 C  
BRANCH   7   8
HETATM    8  C   UNL     1     -12.248  12.989  65.775  1.00  0.00    -0.453 C  
HETATM    9  O   UNL     1     -12.884  12.866  64.732  1.00  0.00    -0.706 OA 
BRANCH   8  10
HETATM   10  C   UNL     1     -11.407  11.869  66.355  1.00  0.00    -0.400 C  
BRANCH  10  11
HETATM   11  C   UNL     1      -9.906  11.868  66.032  1.00  0.00    -0.258 C  
BRANCH  11  12
HETATM   12  C   UNL     1      -9.446  10.465  65.553  1.00  0.00    -0.267 C  
HETATM   13  C   UNL     1      -9.251  10.425  64.029  1.00  0.00    -0.263 C  
HETATM   14  O   UNL     1     -10.473  10.281  63.324  1.00  0.00    -0.354 OA 
HETATM   15  C   UNL     1      -8.394   9.208  63.802  1.00  0.00    -0.183 C  
HETATM   16  H   UNL     1     -10.353  10.256  62.382  1.00  0.00     0.000 HD 
HETATM   17  C   UNL     1      -7.378   9.258  64.926  1.00  0.00    -0.103 C  
HETATM   18  O   UNL     1      -6.945   7.936  65.182  1.00  0.00    -0.057 OA 
HETATM   19  C   UNL     1      -8.075   9.974  66.121  1.00  0.00    -0.122 C  
HETATM   20  H   UNL     1      -6.308   7.968  65.886  1.00  0.00     0.000 HD 
BRANCH  19  21
HETATM   21  C   UNL     1      -8.236   9.122  67.396  1.00  0.00    -0.107 C  
BRANCH  21  22
HETATM   22  C   UNL     1      -8.902   9.838  68.544  1.00  0.00    -0.121 C  
HETATM   23  C   UNL     1      -9.414   9.322  69.670  1.00  0.00    -0.188 C  
BRANCH  23  24
HETATM   24  C   UNL     1      -9.494   7.872  70.040  1.00  0.00    -0.157 C  
BRANCH  24  25
HETATM   25  C   UNL     1     -10.850   7.252  69.693  1.00  0.00    -0.238 C  
BRANCH  25  26
HETATM   26  C   UNL     1     -10.739   6.015  68.799  1.00  0.00    -0.375 C  
HETATM   27  C   UNL     1     -10.863   6.377  67.335  1.00  0.00    -0.375 C  
HETATM   28  O   UNL     1     -11.031   7.498  66.894  1.00  0.00    -0.292 OA 
HETATM   29  O   UNL     1     -10.756   5.292  66.532  1.00  0.00    -0.301 OA 
ENDBRANCH  25  26
ENDBRANCH  24  25
ENDBRANCH  23  24
ENDBRANCH  21  22
ENDBRANCH  19  21
ENDBRANCH  11  12
ENDBRANCH  10  11
ENDBRANCH   8  10
ENDBRANCH   7   8
ENDBRANCH   6   7
ENDBRANCH   5   6
ENDBRANCH   4   5
ENDBRANCH   3   4
ENDBRANCH   2   3
TORSDOF 14
ENDMDL
MODEL      267
REMARK 921   NORMALIZED FREE ENERGY PREDICTED BY IDOCK:   -3.31 KCAL/MOL
REMARK 922        TOTAL FREE ENERGY PREDICTED BY IDOCK:   -8.98 KCAL/MOL
REMARK 923 INTER-LIGAND FREE ENERGY PREDICTED BY IDOCK:   -7.00 KCAL/MOL
REMARK 924 INTRA-LIGAND FREE ENERGY PREDICTED BY IDOCK:   -1.99 KCAL/MOL
REMARK 927      BINDING AFFINITY PREDICTED BY RF-SCORE:    0.00 PKD
ROOT
HETATM    1  C   UNL     1      -9.195   9.679  62.537  1.00  0.00    -0.226 C  
HETATM    2  C   UNL     1      -9.057  11.182  62.701  1.00  0.00    -0.366 C  
ENDROOT
BRANCH   2   3
HETATM    3  C   UNL     1      -9.911  11.713  63.855  1.00  0.00    -0.306 C  
BRANCH   3   4
HETATM    4  C   UNL     1     -10.381  10.558  64.737  1.00  0.00    -0.300 C  
BRANCH   4   5
HETATM    5  C   UNL     1      -9.780  10.597  66.143  1.00  0.00    -0.253 C  
BRANCH   5   6
HETATM    6  C   UNL     1      -9.127  11.963  66.391  1.00  0.00    -0.208 C  
BRANCH   6   7
HETATM    7  C   UNL     1      -8.225  11.960  67.617  1.00  0.00    -0.148 C  
BRANCH   7   8
HETATM    8  C   UNL     1      -7.056  12.939  67.487  1.00  0.00    -0.152 C  
HETATM    9  O   UNL     1      -5.990  12.637  66.958  1.00  0.00    -0.301 OA 
BRANCH   8  10
HETATM   10  C   UNL     1      -7.331  14.324  68.036  1.00  0.00    -0.145 C  
BRANCH  10  11
HETATM   11  C   UNL     1      -6.676  15.515  67.319  1.00  0.00    -0.128 C  
BRANCH  11  12
HETATM   12  C   UNL     1      -7.043  16.850  68.021  1.00  0.00    -0.163 C  
HETATM   13  C   UNL     1      -5.863  17.400  68.839  1.00  0.00    -0.175 C  
HETATM   14  O   UNL     1      -5.723  16.760  70.097  1.00  0.00    -0.216 OA 
HETATM   15  C   UNL     1      -6.209  18.851  69.049  1.00  0.00    -0.267 C  
HETATM   16  H   UNL     1      -4.994  17.100  70.603  1.00  0.00     0.000 HD 
HETATM   17  C   UNL     1      -6.774  19.291  67.714  1.00  0.00    -0.223 C  
HETATM   18  O   UNL     1      -7.656  20.373  67.948  1.00  0.00    -0.279 OA 
HETATM   19  C   UNL     1      -7.425  18.030  67.070  1.00  0.00    -0.228 C  
HETATM   20  H   UNL     1      -8.010  20.649  67.111  1.00  0.00     0.000 HD 
BRANCH  19  21
HETATM   21  C   UNL     1      -8.944  18.124  66.827  1.00  0.00    -0.289 C  
BRANCH  21  22
HETATM   22  C   UNL     1      -9.785  17.942  68.065  1.00  0.00    -0.303 C  
HETATM   23  C   UNL     1     -10.498  16.871  68.443  1.00  0.00    -0.355 C  
BRANCH  23  24
HETATM   24  C   UNL     1     -10.674  15.592  67.682  1.00  0.00    -0.302 C  
BRANCH  24  25
HETATM   25  C   UNL     1     -12.002  14.900  67.995  1.00  0.00    -0.216 C  
BRANCH  25  26
HETATM   26  C   UNL     1     -11.932  13.976  69.213  1.00  0.00    -0.396 C  
HETATM   27  C   UNL     1     -12.617  14.591  70.414  1.00  0.00    -0.346 C  
HETATM   28  O   UNL     1     -13.162  15.678  70.440  1.00  0.00    -0.361 OA 
HETATM   29  O   UNL     1     -12.572  13.778  71.497  1.00  0.00    -0.345 OA 
ENDBRANCH  25  26
ENDBRANCH  24  25
ENDBRANCH  23  24
ENDBRANCH  21  22
ENDBRANCH  19  21
ENDBRANCH  11  12
ENDBRANCH  10  11
ENDBRANCH   8  10
ENDBRANCH   7   8
ENDBRANCH   6   7
ENDBRANCH   5   6
ENDBRANCH   4   5
ENDBRANCH   3   4
ENDBRANCH   2   3
TORSDOF 14
ENDMDL
MODEL      268
REMARK 921   NORMALIZED FREE ENERGY PREDICTED BY IDOCK:   -3.31 KCAL/MOL
REMARK 922        TOTAL FREE ENERGY PREDICTED BY IDOCK:   -8.98 KCAL/MOL
REMARK 923 INTER-LIGAND FREE ENERGY PREDICTED BY IDOCK:   -7.46 KCAL/MOL
REMARK 924 INTRA-LIGAND FREE ENERGY PREDICTED BY IDOCK:   -1.52 KCAL/MOL
REMARK 927      BINDING AFFINITY PREDICTED BY RF-SCORE:    0.00 PKD
ROOT
HETATM    1  C   UNL     1     -11.802  16.464  72.905  1.00  0.00    -0.498 C  
HETATM    2  C   UNL     1     -12.794  15.409  73.362  1.00  0.00    -0.662 C  
ENDROOT
BRANCH   2   3
HETATM    3  C   UNL     1     -14.085  15.443  72.541  1.00  0.00    -0.593 C  
BRANCH   3   4
HETATM    4  C   UNL     1     -14.035  14.388  71.437  1.00  0.00    -0.395 C  
BRANCH   4   5
HETATM    5  C   UNL     1     -13.108  13.218  71.771  1.00  0.00    -0.472 C  
BRANCH   5   6
HETATM    6  C   UNL     1     -12.230  12.888  70.558  1.00  0.00    -0.395 C  
BRANCH   6   7
HETATM    7  C   UNL     1     -11.292  14.030  70.194  1.00  0.00    -0.109 C  
BRANCH   7   8
HETATM    8  C   UNL     1     -11.509  14.534  68.766  1.00  0.00    -0.294 C  
HETATM    9  O   UNL     1     -11.567  13.784  67.795  1.00  0.00    -0.306 OA 
BRANCH   8  10
HETATM   10  C   UNL     1     -11.677  16.036  68.647  1.00  0.00    -0.273 C  
BRANCH  10  11
HETATM   11  C   UNL     1     -10.423  16.906  68.817  1.00  0.00    -0.343 C  
BRANCH  11  12
HETATM   12  C   UNL     1      -9.326  16.499  67.797  1.00  0.00    -0.210 C  
HETATM   13  C   UNL     1      -9.014  17.641  66.817  1.00  0.00    -0.257 C  
HETATM   14  O   UNL     1      -9.967  17.744  65.773  1.00  0.00    -0.545 OA 
HETATM   15  C   UNL     1      -7.673  17.270  66.240  1.00  0.00    -0.353 C  
HETATM   16  H   UNL     1      -9.774  18.450  65.167  1.00  0.00     0.000 HD 
HETATM   17  C   UNL     1      -6.892  16.748  67.428  1.00  0.00    -0.157 C  
HETATM   18  O   UNL     1      -5.915  15.846  66.945  1.00  0.00    -0.298 OA 
HETATM   19  C   UNL     1      -7.935  16.137  68.411  1.00  0.00    -0.162 C  
HETATM   20  H   UNL     1      -5.425  15.518  67.690  1.00  0.00     0.000 HD 
BRANCH  19  21
HETATM   21  C   UNL     1      -7.783  14.626  68.677  1.00  0.00    -0.135 C  
BRANCH  21  22
HETATM   22  C   UNL     1      -6.720  14.277  69.689  1.00  0.00    -0.118 C  
HETATM   23  C   UNL     1      -5.854  13.253  69.675  1.00  0.00    -0.114 C  
BRANCH  23  24
HETATM   24  C   UNL     1      -5.770  12.160  68.652  1.00  0.00    -0.053 C  
BRANCH  24  25
HETATM   25  C   UNL     1      -6.716  12.388  67.471  1.00  0.00    -0.146 C  
BRANCH  25  26
HETATM   26  C   UNL     1      -7.302  11.092  66.907  1.00  0.00    -0.133 C  
HETATM   27  C   UNL     1      -8.638  10.767  67.539  1.00  0.00    -0.125 C  
HETATM   28  O   UNL     1      -9.199  11.430  68.391  1.00  0.00    -0.173 OA 
HETATM   29  O   UNL     1      -9.173   9.628  67.040  1.00  0.00    -0.139 OA 
ENDBRANCH  25  26
ENDBRANCH  24  25
ENDBRANCH  23  24
ENDBRANCH  21  22
ENDBRANCH  19  21
ENDBRANCH  11  12
ENDBRANCH  10  11
ENDBRANCH   8  10
ENDBRANCH   7   8
ENDBRANCH   6   7
ENDBRANCH   5   6
ENDBRANCH   4   5
ENDBRANCH   3   4
ENDBRANCH   2   3
TORSDOF 14
ENDMDL
MODEL      269
REMARK 921   NORMALIZED FREE ENERGY PREDICTED BY IDOCK:   -3.31 KCAL/MOL
REMARK 922        TOTAL FREE ENERGY PREDICTED BY IDOCK:   -8.97 KCAL/MOL
REMARK 923 INTER-LIGAND FREE ENERGY PREDICTED BY IDOCK:   -6.16 KCAL/MOL
REMARK 924 INTRA-LIGAND FREE ENERGY PREDICTED BY IDOCK:   -2.80 KCAL/MOL
REMARK 927      BINDING AFFINITY PREDICTED BY RF-SCORE:    0.00 PKD
ROOT
HETATM    1  C   UNL     1     -12.150  13.396  63.876  1.00  0.00    -0.514 C  
HETATM    2  C   UNL     1     -11.870  11.923  63.636  1.00  0.00    -0.573 C  
ENDROOT
BRANCH   2   3
HETATM    3  C   UNL     1     -10.390  11.662  63.345  1.00  0.00    -0.482 C  
BRANCH   3   4
HETATM    4  C   UNL     1      -9.881  10.503  64.201  1.00  0.00    -0.401 C  
BRANCH   4   5
HETATM    5  C   UNL     1      -9.724  10.875  65.676  1.00  0.00    -0.279 C  
BRANCH   5   6
HETATM    6  C   UNL     1      -8.256  10.730  66.095  1.00  0.00    -0.163 C  
BRANCH   6   7
HETATM    7  C   UNL     1      -7.805   9.276  66.131  1.00  0.00    -0.099 C  
BRANCH   7   8
HETATM    8  C   UNL     1      -7.189   8.887  67.477  1.00  0.00    -0.080 C  
HETATM    9  O   UNL     1      -7.023   7.719  67.821  1.00  0.00    -0.076 OA 
BRANCH   8  10
HETATM   10  C   UNL     1      -6.771  10.059  68.342  1.00  0.00    -0.055 C  
BRANCH  10  11
HETATM   11  C   UNL     1      -7.765  10.546  69.407  1.00  0.00    -0.157 C  
BRANCH  11  12
HETATM   12  C   UNL     1      -8.533   9.351  70.032  1.00  0.00    -0.202 C  
HETATM   13  C   UNL     1      -7.792   8.781  71.253  1.00  0.00    -0.134 C  
HETATM   14  O   UNL     1      -6.721   7.924  70.893  1.00  0.00    -0.038 OA 
HETATM   15  C   UNL     1      -8.846   7.990  71.982  1.00  0.00    -0.209 C  
HETATM   16  H   UNL     1      -6.264   7.572  71.648  1.00  0.00     0.000 HD 
HETATM   17  C   UNL     1     -10.084   8.859  71.896  1.00  0.00    -0.322 C  
HETATM   18  O   UNL     1     -11.217   8.015  71.982  1.00  0.00    -0.261 OA 
HETATM   19  C   UNL     1      -9.961   9.676  70.575  1.00  0.00    -0.318 C  
HETATM   20  H   UNL     1     -11.993   8.560  71.927  1.00  0.00     0.000 HD 
BRANCH  19  21
HETATM   21  C   UNL     1     -11.064   9.411  69.531  1.00  0.00    -0.134 C  
BRANCH  21  22
HETATM   22  C   UNL     1     -10.610   8.615  68.334  1.00  0.00    -0.169 C  
HETATM   23  C   UNL     1     -10.645   7.288  68.148  1.00  0.00    -0.228 C  
BRANCH  23  24
HETATM   24  C   UNL     1     -11.108   6.254  69.129  1.00  0.00    -0.457 C  
BRANCH  24  25
HETATM   25  C   UNL     1     -10.152   5.062  69.220  1.00  0.00    -0.270 C  
BRANCH  25  26
HETATM   26  C   UNL     1      -9.839   4.645  70.659  1.00  0.00    -0.296 C  
HETATM   27  C   UNL     1      -8.356   4.723  70.947  1.00  0.00    -0.098 C  
HETATM   28  O   UNL     1      -7.497   5.068  70.158  1.00  0.00    -0.057 OA 
HETATM   29  O   UNL     1      -8.067   4.366  72.222  1.00  0.00    -0.093 OA 
ENDBRANCH  25  26
ENDBRANCH  24  25
ENDBRANCH  23  24
ENDBRANCH  21  22
ENDBRANCH  19  21
ENDBRANCH  11  12
ENDBRANCH  10  11
ENDBRANCH   8  10
ENDBRANCH   7   8
ENDBRANCH   6   7
ENDBRANCH   5   6
ENDBRANCH   4   5
ENDBRANCH   3   4
ENDBRANCH   2   3
TORSDOF 14
ENDMDL
MODEL      270
REMARK 921   NORMALIZED FREE ENERGY PREDICTED BY IDOCK:   -3.30 KCAL/MOL
REMARK 922        TOTAL FREE ENERGY PREDICTED BY IDOCK:   -8.95 KCAL/MOL
REMARK 923 INTER-LIGAND FREE ENERGY PREDICTED BY IDOCK:   -6.72 KCAL/MOL
REMARK 924 INTRA-LIGAND FREE ENERGY PREDICTED BY IDOCK:   -2.23 KCAL/MOL
REMARK 927      BINDING AFFINITY PREDICTED BY RF-SCORE:    0.00 PKD
ROOT
HETATM    1  C   UNL     1      -6.766   3.583  62.840  1.00  0.00    -0.031 C  
HETATM    2  C   UNL     1      -6.919   3.592  64.350  1.00  0.00    -0.049 C  
ENDROOT
BRANCH   2   3
HETATM    3  C   UNL     1      -7.970   2.586  64.825  1.00  0.00    -0.081 C  
BRANCH   3   4
HETATM    4  C   UNL     1      -8.490   2.979  66.207  1.00  0.00    -0.107 C  
BRANCH   4   5
HETATM    5  C   UNL     1      -7.440   3.696  67.058  1.00  0.00    -0.075 C  
BRANCH   5   6
HETATM    6  C   UNL     1      -8.078   4.898  67.764  1.00  0.00    -0.094 C  
BRANCH   6   7
HETATM    7  C   UNL     1      -7.597   6.226  67.197  1.00  0.00    -0.096 C  
BRANCH   7   8
HETATM    8  C   UNL     1      -8.544   6.787  66.134  1.00  0.00    -0.143 C  
HETATM    9  O   UNL     1      -8.763   6.216  65.069  1.00  0.00    -0.072 OA 
BRANCH   8  10
HETATM   10  C   UNL     1      -9.214   8.092  66.513  1.00  0.00    -0.237 C  
BRANCH  10  11
HETATM   11  C   UNL     1     -10.598   8.013  67.175  1.00  0.00    -0.367 C  
BRANCH  11  12
HETATM   12  C   UNL     1     -10.498   8.301  68.697  1.00  0.00    -0.199 C  
HETATM   13  C   UNL     1     -10.572   7.006  69.522  1.00  0.00    -0.234 C  
HETATM   14  O   UNL     1     -11.900   6.534  69.684  1.00  0.00    -0.645 OA 
HETATM   15  C   UNL     1     -10.011   7.396  70.864  1.00  0.00    -0.184 C  
HETATM   16  H   UNL     1     -11.946   5.733  70.194  1.00  0.00     0.000 HD 
HETATM   17  C   UNL     1      -8.831   8.284  70.526  1.00  0.00    -0.145 C  
HETATM   18  O   UNL     1      -8.619   9.162  71.615  1.00  0.00    -0.342 OA 
HETATM   19  C   UNL     1      -9.170   8.975  69.171  1.00  0.00    -0.144 C  
HETATM   20  H   UNL     1      -7.879   9.719  71.403  1.00  0.00     0.000 HD 
BRANCH  19  21
HETATM   21  C   UNL     1      -9.275  10.512  69.223  1.00  0.00    -0.164 C  
BRANCH  21  22
HETATM   22  C   UNL     1      -8.367  11.230  68.256  1.00  0.00    -0.150 C  
HETATM   23  C   UNL     1      -8.698  12.038  67.238  1.00  0.00    -0.175 C  
BRANCH  23  24
HETATM   24  C   UNL     1     -10.082  12.384  66.779  1.00  0.00    -0.226 C  
BRANCH  24  25
HETATM   25  C   UNL     1     -10.356  11.925  65.345  1.00  0.00    -0.306 C  
BRANCH  25  26
HETATM   26  C   UNL     1     -10.739  13.070  64.404  1.00  0.00    -0.414 C  
HETATM   27  C   UNL     1     -12.241  13.227  64.308  1.00  0.00    -0.392 C  
HETATM   28  O   UNL     1     -13.065  12.546  64.889  1.00  0.00    -0.833 OA 
HETATM   29  O   UNL     1     -12.594  14.246  63.487  1.00  0.00    -0.814 OA 
ENDBRANCH  25  26
ENDBRANCH  24  25
ENDBRANCH  23  24
ENDBRANCH  21  22
ENDBRANCH  19  21
ENDBRANCH  11  12
ENDBRANCH  10  11
ENDBRANCH   8  10
ENDBRANCH   7   8
ENDBRANCH   6   7
ENDBRANCH   5   6
ENDBRANCH   4   5
ENDBRANCH   3   4
ENDBRANCH   2   3
TORSDOF 14
ENDMDL
MODEL      271
REMARK 921   NORMALIZED FREE ENERGY PREDICTED BY IDOCK:   -3.29 KCAL/MOL
REMARK 922        TOTAL FREE ENERGY PREDICTED BY IDOCK:   -8.95 KCAL/MOL
REMARK 923 INTER-LIGAND FREE ENERGY PREDICTED BY IDOCK:   -5.78 KCAL/MOL
REMARK 924 INTRA-LIGAND FREE ENERGY PREDICTED BY IDOCK:   -3.17 KCAL/MOL
REMARK 927      BINDING AFFINITY PREDICTED BY RF-SCORE:    0.00 PKD
ROOT
HETATM    1  C   UNL     1      -9.326   3.824  65.471  1.00  0.00    -0.160 C  
HETATM    2  C   UNL     1     -10.362   4.748  66.085  1.00  0.00    -0.337 C  
ENDROOT
BRANCH   2   3
HETATM    3  C   UNL     1      -9.765   5.627  67.187  1.00  0.00    -0.151 C  
BRANCH   3   4
HETATM    4  C   UNL     1     -10.342   5.233  68.546  1.00  0.00    -0.182 C  
BRANCH   4   5
HETATM    5  C   UNL     1      -9.624   4.038  69.176  1.00  0.00    -0.233 C  
BRANCH   5   6
HETATM    6  C   UNL     1      -8.107   4.203  69.020  1.00  0.00    -0.074 C  
BRANCH   6   7
HETATM    7  C   UNL     1      -7.347   3.776  70.268  1.00  0.00    -0.041 C  
BRANCH   7   8
HETATM    8  C   UNL     1      -7.595   4.710  71.454  1.00  0.00    -0.078 C  
HETATM    9  O   UNL     1      -7.961   4.307  72.555  1.00  0.00    -0.085 OA 
BRANCH   8  10
HETATM   10  C   UNL     1      -7.323   6.174  71.171  1.00  0.00    -0.084 C  
BRANCH  10  11
HETATM   11  C   UNL     1      -8.112   7.213  71.983  1.00  0.00    -0.100 C  
BRANCH  11  12
HETATM   12  C   UNL     1      -9.597   7.249  71.537  1.00  0.00    -0.164 C  
HETATM   13  C   UNL     1     -10.546   6.939  72.706  1.00  0.00    -0.240 C  
HETATM   14  O   UNL     1     -10.647   5.551  72.977  1.00  0.00    -0.206 OA 
HETATM   15  C   UNL     1     -11.881   7.458  72.240  1.00  0.00    -0.307 C  
HETATM   16  H   UNL     1     -11.233   5.359  73.700  1.00  0.00     0.000 HD 
HETATM   17  C   UNL     1     -11.549   8.771  71.560  1.00  0.00    -0.303 C  
HETATM   18  O   UNL     1     -12.553   9.030  70.598  1.00  0.00    -0.491 OA 
HETATM   19  C   UNL     1     -10.105   8.624  70.993  1.00  0.00    -0.273 C  
HETATM   20  H   UNL     1     -12.345   9.853  70.171  1.00  0.00     0.000 HD 
BRANCH  19  21
HETATM   21  C   UNL     1      -9.985   8.733  69.460  1.00  0.00    -0.195 C  
BRANCH  21  22
HETATM   22  C   UNL     1      -8.867   9.626  68.985  1.00  0.00    -0.147 C  
HETATM   23  C   UNL     1      -8.468   9.874  67.729  1.00  0.00    -0.118 C  
BRANCH  23  24
HETATM   24  C   UNL     1      -9.018   9.266  66.474  1.00  0.00    -0.178 C  
BRANCH  24  25
HETATM   25  C   UNL     1     -10.450   9.721  66.181  1.00  0.00    -0.128 C  
BRANCH  25  26
HETATM   26  C   UNL     1     -10.612  11.242  66.171  1.00  0.00    -0.312 C  
HETATM   27  C   UNL     1     -11.549  11.706  67.265  1.00  0.00    -0.238 C  
HETATM   28  O   UNL     1     -12.118  10.986  68.064  1.00  0.00    -0.615 OA 
HETATM   29  O   UNL     1     -11.693  13.053  67.273  1.00  0.00    -0.340 OA 
ENDBRANCH  25  26
ENDBRANCH  24  25
ENDBRANCH  23  24
ENDBRANCH  21  22
ENDBRANCH  19  21
ENDBRANCH  11  12
ENDBRANCH  10  11
ENDBRANCH   8  10
ENDBRANCH   7   8
ENDBRANCH   6   7
ENDBRANCH   5   6
ENDBRANCH   4   5
ENDBRANCH   3   4
ENDBRANCH   2   3
TORSDOF 14
ENDMDL
MODEL      272
REMARK 921   NORMALIZED FREE ENERGY PREDICTED BY IDOCK:   -3.29 KCAL/MOL
REMARK 922        TOTAL FREE ENERGY PREDICTED BY IDOCK:   -8.94 KCAL/MOL
REMARK 923 INTER-LIGAND FREE ENERGY PREDICTED BY IDOCK:   -7.71 KCAL/MOL
REMARK 924 INTRA-LIGAND FREE ENERGY PREDICTED BY IDOCK:   -1.23 KCAL/MOL
REMARK 927      BINDING AFFINITY PREDICTED BY RF-SCORE:    0.00 PKD
ROOT
HETATM    1  C   UNL     1     -13.496   9.123  72.475  1.00  0.00    -0.490 C  
HETATM    2  C   UNL     1     -13.254  10.474  71.828  1.00  0.00    -0.522 C  
ENDROOT
BRANCH   2   3
HETATM    3  C   UNL     1     -11.949  10.502  71.030  1.00  0.00    -0.466 C  
BRANCH   3   4
HETATM    4  C   UNL     1     -11.197   9.183  71.204  1.00  0.00    -0.395 C  
BRANCH   4   5
HETATM    5  C   UNL     1     -10.378   8.796  69.971  1.00  0.00    -0.213 C  
BRANCH   5   6
HETATM    6  C   UNL     1      -9.125   9.676  69.882  1.00  0.00    -0.250 C  
BRANCH   6   7
HETATM    7  C   UNL     1      -7.895   8.890  69.450  1.00  0.00    -0.098 C  
BRANCH   7   8
HETATM    8  C   UNL     1      -8.031   8.317  68.038  1.00  0.00    -0.123 C  
HETATM    9  O   UNL     1      -8.046   7.111  67.807  1.00  0.00    -0.113 OA 
BRANCH   8  10
HETATM   10  C   UNL     1      -8.175   9.358  66.947  1.00  0.00    -0.116 C  
BRANCH  10  11
HETATM   11  C   UNL     1      -9.374   9.228  65.995  1.00  0.00    -0.283 C  
BRANCH  11  12
HETATM   12  C   UNL     1      -9.388  10.387  64.963  1.00  0.00    -0.279 C  
HETATM   13  C   UNL     1      -9.284   9.861  63.522  1.00  0.00    -0.238 C  
HETATM   14  O   UNL     1      -7.955   9.530  63.154  1.00  0.00    -0.128 OA 
HETATM   15  C   UNL     1      -9.767  11.011  62.678  1.00  0.00    -0.241 C  
HETATM   16  H   UNL     1      -7.890   9.205  62.264  1.00  0.00     0.000 HD 
HETATM   17  C   UNL     1     -10.954  11.558  63.446  1.00  0.00    -0.315 C  
HETATM   18  O   UNL     1     -11.097  12.925  63.112  1.00  0.00    -0.636 OA 
HETATM   19  C   UNL     1     -10.681  11.265  64.952  1.00  0.00    -0.337 C  
HETATM   20  H   UNL     1     -11.841  13.268  63.593  1.00  0.00     0.000 HD 
BRANCH  19  21
HETATM   21  C   UNL     1     -10.557  12.509  65.853  1.00  0.00    -0.292 C  
BRANCH  21  22
HETATM   22  C   UNL     1      -9.448  12.432  66.872  1.00  0.00    -0.219 C  
HETATM   23  C   UNL     1      -8.721  13.428  67.396  1.00  0.00    -0.209 C  
BRANCH  23  24
HETATM   24  C   UNL     1      -8.805  14.883  67.046  1.00  0.00    -0.255 C  
BRANCH  24  25
HETATM   25  C   UNL     1     -10.184  15.478  67.337  1.00  0.00    -0.255 C  
BRANCH  25  26
HETATM   26  C   UNL     1     -10.222  17.004  67.225  1.00  0.00    -0.310 C  
HETATM   27  C   UNL     1     -10.210  17.660  68.588  1.00  0.00    -0.377 C  
HETATM   28  O   UNL     1     -10.177  17.077  69.655  1.00  0.00    -0.161 OA 
HETATM   29  O   UNL     1     -10.232  19.012  68.502  1.00  0.00    -0.383 OA 
ENDBRANCH  25  26
ENDBRANCH  24  25
ENDBRANCH  23  24
ENDBRANCH  21  22
ENDBRANCH  19  21
ENDBRANCH  11  12
ENDBRANCH  10  11
ENDBRANCH   8  10
ENDBRANCH   7   8
ENDBRANCH   6   7
ENDBRANCH   5   6
ENDBRANCH   4   5
ENDBRANCH   3   4
ENDBRANCH   2   3
TORSDOF 14
ENDMDL
MODEL      273
REMARK 921   NORMALIZED FREE ENERGY PREDICTED BY IDOCK:   -3.29 KCAL/MOL
REMARK 922        TOTAL FREE ENERGY PREDICTED BY IDOCK:   -8.93 KCAL/MOL
REMARK 923 INTER-LIGAND FREE ENERGY PREDICTED BY IDOCK:   -6.45 KCAL/MOL
REMARK 924 INTRA-LIGAND FREE ENERGY PREDICTED BY IDOCK:   -2.49 KCAL/MOL
REMARK 927      BINDING AFFINITY PREDICTED BY RF-SCORE:    0.00 PKD
ROOT
HETATM    1  C   UNL     1     -10.700   7.582  70.088  1.00  0.00    -0.248 C  
HETATM    2  C   UNL     1      -9.341   8.246  69.964  1.00  0.00    -0.162 C  
ENDROOT
BRANCH   2   3
HETATM    3  C   UNL     1      -8.286   7.292  69.399  1.00  0.00    -0.133 C  
BRANCH   3   4
HETATM    4  C   UNL     1      -7.655   7.889  68.142  1.00  0.00    -0.116 C  
BRANCH   4   5
HETATM    5  C   UNL     1      -8.145   7.226  66.854  1.00  0.00    -0.120 C  
BRANCH   5   6
HETATM    6  C   UNL     1      -9.399   7.946  66.344  1.00  0.00    -0.247 C  
BRANCH   6   7
HETATM    7  C   UNL     1      -9.064   9.192  65.538  1.00  0.00    -0.275 C  
BRANCH   7   8
HETATM    8  C   UNL     1      -9.816  10.431  66.032  1.00  0.00    -0.232 C  
HETATM    9  O   UNL     1     -10.839  10.847  65.495  1.00  0.00    -0.161 OA 
BRANCH   8  10
HETATM   10  C   UNL     1      -9.214  11.085  67.259  1.00  0.00    -0.156 C  
BRANCH  10  11
HETATM   11  C   UNL     1      -7.722  11.447  67.210  1.00  0.00    -0.145 C  
BRANCH  11  12
HETATM   12  C   UNL     1      -7.366  12.470  68.322  1.00  0.00    -0.115 C  
HETATM   13  C   UNL     1      -6.356  11.886  69.324  1.00  0.00    -0.105 C  
HETATM   14  O   UNL     1      -6.964  11.034  70.281  1.00  0.00    -0.463 OA 
HETATM   15  C   UNL     1      -5.788  13.096  70.017  1.00  0.00    -0.139 C  
HETATM   16  H   UNL     1      -6.340  10.673  70.900  1.00  0.00     0.000 HD 
HETATM   17  C   UNL     1      -5.601  14.105  68.902  1.00  0.00    -0.082 C  
HETATM   18  O   UNL     1      -5.666  15.399  69.469  1.00  0.00    -0.100 OA 
HETATM   19  C   UNL     1      -6.691  13.791  67.833  1.00  0.00    -0.162 C  
HETATM   20  H   UNL     1      -5.549  16.032  68.770  1.00  0.00     0.000 HD 
BRANCH  19  21
HETATM   21  C   UNL     1      -7.712  14.919  67.583  1.00  0.00    -0.197 C  
BRANCH  21  22
HETATM   22  C   UNL     1      -8.718  15.105  68.692  1.00  0.00    -0.174 C  
HETATM   23  C   UNL     1     -10.010  14.748  68.719  1.00  0.00    -0.234 C  
BRANCH  23  24
HETATM   24  C   UNL     1     -10.792  14.113  67.609  1.00  0.00    -0.266 C  
BRANCH  24  25
HETATM   25  C   UNL     1     -11.139  15.102  66.495  1.00  0.00    -0.305 C  
BRANCH  25  26
HETATM   26  C   UNL     1     -10.945  14.525  65.091  1.00  0.00    -0.387 C  
HETATM   27  C   UNL     1     -12.223  13.907  64.566  1.00  0.00    -0.417 C  
HETATM   28  O   UNL     1     -13.283  13.858  65.161  1.00  0.00    -0.768 OA 
HETATM   29  O   UNL     1     -12.069  13.402  63.319  1.00  0.00    -0.537 OA 
ENDBRANCH  25  26
ENDBRANCH  24  25
ENDBRANCH  23  24
ENDBRANCH  21  22
ENDBRANCH  19  21
ENDBRANCH  11  12
ENDBRANCH  10  11
ENDBRANCH   8  10
ENDBRANCH   7   8
ENDBRANCH   6   7
ENDBRANCH   5   6
ENDBRANCH   4   5
ENDBRANCH   3   4
ENDBRANCH   2   3
TORSDOF 14
ENDMDL
MODEL      274
REMARK 921   NORMALIZED FREE ENERGY PREDICTED BY IDOCK:   -3.28 KCAL/MOL
REMARK 922        TOTAL FREE ENERGY PREDICTED BY IDOCK:   -8.93 KCAL/MOL
REMARK 923 INTER-LIGAND FREE ENERGY PREDICTED BY IDOCK:   -7.10 KCAL/MOL
REMARK 924 INTRA-LIGAND FREE ENERGY PREDICTED BY IDOCK:   -1.83 KCAL/MOL
REMARK 927      BINDING AFFINITY PREDICTED BY RF-SCORE:    0.00 PKD
ROOT
HETATM    1  C   UNL     1     -12.815  10.111  71.665  1.00  0.00    -0.559 C  
HETATM    2  C   UNL     1     -12.938   8.736  72.296  1.00  0.00    -0.462 C  
ENDROOT
BRANCH   2   3
HETATM    3  C   UNL     1     -13.289   7.662  71.265  1.00  0.00    -0.276 C  
BRANCH   3   4
HETATM    4  C   UNL     1     -12.176   6.617  71.192  1.00  0.00    -0.357 C  
BRANCH   4   5
HETATM    5  C   UNL     1     -11.942   5.900  72.522  1.00  0.00    -0.173 C  
BRANCH   5   6
HETATM    6  C   UNL     1     -10.443   5.877  72.843  1.00  0.00    -0.249 C  
BRANCH   6   7
HETATM    7  C   UNL     1      -9.946   7.209  73.388  1.00  0.00    -0.320 C  
BRANCH   7   8
HETATM    8  C   UNL     1      -8.489   7.489  73.014  1.00  0.00    -0.132 C  
HETATM    9  O   UNL     1      -7.544   6.886  73.517  1.00  0.00    -0.081 OA 
BRANCH   8  10
HETATM   10  C   UNL     1      -8.304   8.551  71.949  1.00  0.00    -0.218 C  
BRANCH  10  11
HETATM   11  C   UNL     1      -9.552   9.009  71.179  1.00  0.00    -0.356 C  
BRANCH  11  12
HETATM   12  C   UNL     1      -9.267   9.077  69.655  1.00  0.00    -0.160 C  
HETATM   13  C   UNL     1      -9.132   7.673  69.044  1.00  0.00    -0.144 C  
HETATM   14  O   UNL     1      -7.857   7.095  69.272  1.00  0.00    -0.112 OA 
HETATM   15  C   UNL     1      -9.325   7.898  67.567  1.00  0.00    -0.166 C  
HETATM   16  H   UNL     1      -7.774   6.227  68.894  1.00  0.00     0.000 HD 
HETATM   17  C   UNL     1     -10.457   8.902  67.493  1.00  0.00    -0.269 C  
HETATM   18  O   UNL     1     -10.322   9.623  66.283  1.00  0.00    -0.239 OA 
HETATM   19  C   UNL     1     -10.374   9.760  68.791  1.00  0.00    -0.227 C  
HETATM   20  H   UNL     1     -11.031  10.253  66.235  1.00  0.00     0.000 HD 
BRANCH  19  21
HETATM   21  C   UNL     1     -10.108  11.263  68.572  1.00  0.00    -0.210 C  
BRANCH  21  22
HETATM   22  C   UNL     1     -11.341  12.130  68.639  1.00  0.00    -0.330 C  
HETATM   23  C   UNL     1     -11.504  13.390  68.211  1.00  0.00    -0.350 C  
BRANCH  23  24
HETATM   24  C   UNL     1     -10.460  14.273  67.597  1.00  0.00    -0.248 C  
BRANCH  24  25
HETATM   25  C   UNL     1     -10.532  15.712  68.112  1.00  0.00    -0.259 C  
BRANCH  25  26
HETATM   26  C   UNL     1     -10.317  16.759  67.017  1.00  0.00    -0.300 C  
HETATM   27  C   UNL     1      -8.882  17.238  66.983  1.00  0.00    -0.228 C  
HETATM   28  O   UNL     1      -7.991  16.859  67.720  1.00  0.00    -0.175 OA 
HETATM   29  O   UNL     1      -8.676  18.157  66.010  1.00  0.00    -0.498 OA 
ENDBRANCH  25  26
ENDBRANCH  24  25
ENDBRANCH  23  24
ENDBRANCH  21  22
ENDBRANCH  19  21
ENDBRANCH  11  12
ENDBRANCH  10  11
ENDBRANCH   8  10
ENDBRANCH   7   8
ENDBRANCH   6   7
ENDBRANCH   5   6
ENDBRANCH   4   5
ENDBRANCH   3   4
ENDBRANCH   2   3
TORSDOF 14
ENDMDL
MODEL      275
REMARK 921   NORMALIZED FREE ENERGY PREDICTED BY IDOCK:   -3.28 KCAL/MOL
REMARK 922        TOTAL FREE ENERGY PREDICTED BY IDOCK:   -8.93 KCAL/MOL
REMARK 923 INTER-LIGAND FREE ENERGY PREDICTED BY IDOCK:   -7.42 KCAL/MOL
REMARK 924 INTRA-LIGAND FREE ENERGY PREDICTED BY IDOCK:   -1.51 KCAL/MOL
REMARK 927      BINDING AFFINITY PREDICTED BY RF-SCORE:    0.00 PKD
ROOT
HETATM    1  C   UNL     1      -7.791  17.648  68.517  1.00  0.00    -0.282 C  
HETATM    2  C   UNL     1      -7.707  16.133  68.499  1.00  0.00    -0.170 C  
ENDROOT
BRANCH   2   3
HETATM    3  C   UNL     1      -8.836  15.488  69.307  1.00  0.00    -0.256 C  
BRANCH   3   4
HETATM    4  C   UNL     1     -10.190  16.014  68.833  1.00  0.00    -0.231 C  
BRANCH   4   5
HETATM    5  C   UNL     1     -11.313  15.768  69.843  1.00  0.00    -0.349 C  
BRANCH   5   6
HETATM    6  C   UNL     1     -11.543  14.261  70.006  1.00  0.00    -0.325 C  
BRANCH   6   7
HETATM    7  C   UNL     1     -12.761  13.950  70.865  1.00  0.00    -0.410 C  
BRANCH   7   8
HETATM    8  C   UNL     1     -12.865  12.465  71.220  1.00  0.00    -0.240 C  
HETATM    9  O   UNL     1     -13.745  12.015  71.948  1.00  0.00    -0.163 OA 
BRANCH   8  10
HETATM   10  C   UNL     1     -11.811  11.588  70.575  1.00  0.00    -0.363 C  
BRANCH  10  11
HETATM   11  C   UNL     1     -12.131  10.093  70.419  1.00  0.00    -0.332 C  
BRANCH  11  12
HETATM   12  C   UNL     1     -11.314   9.246  71.430  1.00  0.00    -0.434 C  
HETATM   13  C   UNL     1     -12.172   8.137  72.060  1.00  0.00    -0.339 C  
HETATM   14  O   UNL     1     -13.002   8.614  73.107  1.00  0.00    -0.687 OA 
HETATM   15  C   UNL     1     -11.164   7.168  72.620  1.00  0.00    -0.331 C  
HETATM   16  H   UNL     1     -13.533   7.928  73.496  1.00  0.00     0.000 HD 
HETATM   17  C   UNL     1     -10.089   7.099  71.554  1.00  0.00    -0.186 C  
HETATM   18  O   UNL     1      -8.873   6.743  72.183  1.00  0.00    -0.133 OA 
HETATM   19  C   UNL     1     -10.087   8.482  70.836  1.00  0.00    -0.246 C  
HETATM   20  H   UNL     1      -8.199   6.700  71.515  1.00  0.00     0.000 HD 
BRANCH  19  21
HETATM   21  C   UNL     1      -8.777   9.285  70.956  1.00  0.00    -0.182 C  
BRANCH  21  22
HETATM   22  C   UNL     1      -7.708   8.883  69.971  1.00  0.00    -0.078 C  
HETATM   23  C   UNL     1      -7.423   9.422  68.777  1.00  0.00    -0.075 C  
BRANCH  23  24
HETATM   24  C   UNL     1      -8.150  10.545  68.101  1.00  0.00    -0.113 C  
BRANCH  24  25
HETATM   25  C   UNL     1      -9.310  10.053  67.231  1.00  0.00    -0.170 C  
BRANCH  25  26
HETATM   26  C   UNL     1     -10.673  10.577  67.689  1.00  0.00    -0.324 C  
HETATM   27  C   UNL     1     -11.029  11.873  66.994  1.00  0.00    -0.278 C  
HETATM   28  O   UNL     1     -10.340  12.451  66.175  1.00  0.00    -0.239 OA 
HETATM   29  O   UNL     1     -12.239  12.342  67.382  1.00  0.00    -0.478 OA 
ENDBRANCH  25  26
ENDBRANCH  24  25
ENDBRANCH  23  24
ENDBRANCH  21  22
ENDBRANCH  19  21
ENDBRANCH  11  12
ENDBRANCH  10  11
ENDBRANCH   8  10
ENDBRANCH   7   8
ENDBRANCH   6   7
ENDBRANCH   5   6
ENDBRANCH   4   5
ENDBRANCH   3   4
ENDBRANCH   2   3
TORSDOF 14
ENDMDL
MODEL      276
REMARK 921   NORMALIZED FREE ENERGY PREDICTED BY IDOCK:   -3.28 KCAL/MOL
REMARK 922        TOTAL FREE ENERGY PREDICTED BY IDOCK:   -8.91 KCAL/MOL
REMARK 923 INTER-LIGAND FREE ENERGY PREDICTED BY IDOCK:   -7.19 KCAL/MOL
REMARK 924 INTRA-LIGAND FREE ENERGY PREDICTED BY IDOCK:   -1.72 KCAL/MOL
REMARK 927      BINDING AFFINITY PREDICTED BY RF-SCORE:    0.00 PKD
ROOT
HETATM    1  C   UNL     1     -10.561  19.901  66.522  1.00  0.00    -0.531 C  
HETATM    2  C   UNL     1      -9.104  20.190  66.836  1.00  0.00    -0.469 C  
ENDROOT
BRANCH   2   3
HETATM    3  C   UNL     1      -8.702  19.672  68.218  1.00  0.00    -0.361 C  
BRANCH   3   4
HETATM    4  C   UNL     1      -9.136  18.216  68.382  1.00  0.00    -0.318 C  
BRANCH   4   5
HETATM    5  C   UNL     1      -7.956  17.256  68.540  1.00  0.00    -0.261 C  
BRANCH   5   6
HETATM    6  C   UNL     1      -8.466  15.810  68.590  1.00  0.00    -0.193 C  
BRANCH   6   7
HETATM    7  C   UNL     1      -7.374  14.824  68.983  1.00  0.00    -0.139 C  
BRANCH   7   8
HETATM    8  C   UNL     1      -6.674  14.211  67.768  1.00  0.00    -0.177 C  
HETATM    9  O   UNL     1      -5.669  14.702  67.260  1.00  0.00    -0.295 OA 
BRANCH   8  10
HETATM   10  C   UNL     1      -7.301  12.928  67.260  1.00  0.00    -0.077 C  
BRANCH  10  11
HETATM   11  C   UNL     1      -8.800  12.956  66.925  1.00  0.00    -0.188 C  
BRANCH  11  12
HETATM   12  C   UNL     1      -9.276  11.569  66.416  1.00  0.00    -0.218 C  
HETATM   13  C   UNL     1      -8.614  11.202  65.078  1.00  0.00     0.112 C  
HETATM   14  O   UNL     1      -9.230  11.836  63.969  1.00  0.00    -0.438 OA 
HETATM   15  C   UNL     1      -8.806   9.711  64.973  1.00  0.00    -0.221 C  
HETATM   16  H   UNL     1      -8.821  11.609  63.142  1.00  0.00     0.000 HD 
HETATM   17  C   UNL     1      -8.540   9.206  66.377  1.00  0.00    -0.125 C  
HETATM   18  O   UNL     1      -9.251   7.995  66.547  1.00  0.00    -0.167 OA 
HETATM   19  C   UNL     1      -8.944  10.358  67.346  1.00  0.00    -0.140 C  
HETATM   20  H   UNL     1      -9.084   7.679  67.427  1.00  0.00     0.000 HD 
BRANCH  19  21
HETATM   21  C   UNL     1     -10.095  10.028  68.318  1.00  0.00    -0.182 C  
BRANCH  21  22
HETATM   22  C   UNL     1     -11.406  10.690  67.978  1.00  0.00    -0.350 C  
HETATM   23  C   UNL     1     -11.941  11.804  68.498  1.00  0.00    -0.279 C  
BRANCH  23  24
HETATM   24  C   UNL     1     -11.373  12.645  69.600  1.00  0.00    -0.174 C  
BRANCH  24  25
HETATM   25  C   UNL     1     -12.073  14.000  69.725  1.00  0.00    -0.405 C  
BRANCH  25  26
HETATM   26  C   UNL     1     -11.448  14.909  70.786  1.00  0.00    -0.313 C  
HETATM   27  C   UNL     1     -12.472  15.856  71.375  1.00  0.00    -0.403 C  
HETATM   28  O   UNL     1     -13.647  15.913  71.065  1.00  0.00    -0.455 OA 
HETATM   29  O   UNL     1     -11.934  16.659  72.324  1.00  0.00    -0.421 OA 
ENDBRANCH  25  26
ENDBRANCH  24  25
ENDBRANCH  23  24
ENDBRANCH  21  22
ENDBRANCH  19  21
ENDBRANCH  11  12
ENDBRANCH  10  11
ENDBRANCH   8  10
ENDBRANCH   7   8
ENDBRANCH   6   7
ENDBRANCH   5   6
ENDBRANCH   4   5
ENDBRANCH   3   4
ENDBRANCH   2   3
TORSDOF 14
ENDMDL
MODEL      277
REMARK 921   NORMALIZED FREE ENERGY PREDICTED BY IDOCK:   -3.27 KCAL/MOL
REMARK 922        TOTAL FREE ENERGY PREDICTED BY IDOCK:   -8.90 KCAL/MOL
REMARK 923 INTER-LIGAND FREE ENERGY PREDICTED BY IDOCK:   -8.14 KCAL/MOL
REMARK 924 INTRA-LIGAND FREE ENERGY PREDICTED BY IDOCK:   -0.76 KCAL/MOL
REMARK 927      BINDING AFFINITY PREDICTED BY RF-SCORE:    0.00 PKD
ROOT
HETATM    1  C   UNL     1      -8.268   4.184  66.613  1.00  0.00    -0.101 C  
HETATM    2  C   UNL     1      -9.331   4.958  65.854  1.00  0.00    -0.162 C  
ENDROOT
BRANCH   2   3
HETATM    3  C   UNL     1      -9.524   6.368  66.418  1.00  0.00    -0.169 C  
BRANCH   3   4
HETATM    4  C   UNL     1      -9.575   6.322  67.945  1.00  0.00    -0.118 C  
BRANCH   4   5
HETATM    5  C   UNL     1      -8.457   7.133  68.603  1.00  0.00    -0.125 C  
BRANCH   5   6
HETATM    6  C   UNL     1      -9.027   7.954  69.766  1.00  0.00    -0.146 C  
BRANCH   6   7
HETATM    7  C   UNL     1     -10.367   8.590  69.424  1.00  0.00    -0.218 C  
BRANCH   7   8
HETATM    8  C   UNL     1     -11.401   8.412  70.538  1.00  0.00    -0.216 C  
HETATM    9  O   UNL     1     -11.602   7.336  71.095  1.00  0.00    -0.272 OA 
BRANCH   8  10
HETATM   10  C   UNL     1     -12.139   9.679  70.921  1.00  0.00    -0.383 C  
BRANCH  10  11
HETATM   11  C   UNL     1     -11.596  11.009  70.376  1.00  0.00    -0.389 C  
BRANCH  11  12
HETATM   12  C   UNL     1     -12.621  12.154  70.595  1.00  0.00    -0.255 C  
HETATM   13  C   UNL     1     -13.052  12.251  72.067  1.00  0.00    -0.355 C  
HETATM   14  O   UNL     1     -14.032  11.288  72.416  1.00  0.00    -0.223 OA 
HETATM   15  C   UNL     1     -13.642  13.633  72.184  1.00  0.00    -0.632 C  
HETATM   16  H   UNL     1     -14.299  11.348  73.326  1.00  0.00     0.000 HD 
HETATM   17  C   UNL     1     -12.705  14.503  71.370  1.00  0.00    -0.337 C  
HETATM   18  O   UNL     1     -13.438  15.621  70.909  1.00  0.00    -0.730 OA 
HETATM   19  C   UNL     1     -12.110  13.591  70.255  1.00  0.00    -0.425 C  
HETATM   20  H   UNL     1     -12.852  16.167  70.399  1.00  0.00     0.000 HD 
BRANCH  19  21
HETATM   21  C   UNL     1     -12.447  14.012  68.811  1.00  0.00     0.150 C  
BRANCH  21  22
HETATM   22  C   UNL     1     -11.356  14.788  68.118  1.00  0.00    -0.324 C  
HETATM   23  C   UNL     1     -11.158  14.965  66.804  1.00  0.00    -0.335 C  
BRANCH  23  24
HETATM   24  C   UNL     1     -11.965  14.377  65.686  1.00  0.00    -0.356 C  
BRANCH  24  25
HETATM   25  C   UNL     1     -12.067  12.853  65.775  1.00  0.00    -0.513 C  
BRANCH  25  26
HETATM   26  C   UNL     1     -10.909  12.127  65.086  1.00  0.00    -0.343 C  
HETATM   27  C   UNL     1     -11.293  11.667  63.697  1.00  0.00    -0.394 C  
HETATM   28  O   UNL     1     -12.375  11.836  63.167  1.00  0.00    -0.465 OA 
HETATM   29  O   UNL     1     -10.272  11.033  63.072  1.00  0.00    -0.305 OA 
ENDBRANCH  25  26
ENDBRANCH  24  25
ENDBRANCH  23  24
ENDBRANCH  21  22
ENDBRANCH  19  21
ENDBRANCH  11  12
ENDBRANCH  10  11
ENDBRANCH   8  10
ENDBRANCH   7   8
ENDBRANCH   6   7
ENDBRANCH   5   6
ENDBRANCH   4   5
ENDBRANCH   3   4
ENDBRANCH   2   3
TORSDOF 14
ENDMDL
MODEL      278
REMARK 921   NORMALIZED FREE ENERGY PREDICTED BY IDOCK:   -3.26 KCAL/MOL
REMARK 922        TOTAL FREE ENERGY PREDICTED BY IDOCK:   -8.89 KCAL/MOL
REMARK 923 INTER-LIGAND FREE ENERGY PREDICTED BY IDOCK:   -5.96 KCAL/MOL
REMARK 924 INTRA-LIGAND FREE ENERGY PREDICTED BY IDOCK:   -2.93 KCAL/MOL
REMARK 927      BINDING AFFINITY PREDICTED BY RF-SCORE:    0.00 PKD
ROOT
HETATM    1  C   UNL     1     -10.907  11.246  64.156  1.00  0.00    -0.407 C  
HETATM    2  C   UNL     1     -10.379  11.263  65.580  1.00  0.00    -0.321 C  
ENDROOT
BRANCH   2   3
HETATM    3  C   UNL     1     -10.066   9.856  66.091  1.00  0.00    -0.315 C  
BRANCH   3   4
HETATM    4  C   UNL     1      -8.684   9.415  65.608  1.00  0.00    -0.179 C  
BRANCH   4   5
HETATM    5  C   UNL     1      -8.470   7.903  65.710  1.00  0.00    -0.152 C  
BRANCH   5   6
HETATM    6  C   UNL     1      -8.720   7.440  67.150  1.00  0.00    -0.121 C  
BRANCH   6   7
HETATM    7  C   UNL     1      -9.529   6.152  67.212  1.00  0.00    -0.121 C  
BRANCH   7   8
HETATM    8  C   UNL     1      -9.146   5.276  68.408  1.00  0.00    -0.110 C  
HETATM    9  O   UNL     1      -8.055   4.720  68.505  1.00  0.00    -0.084 OA 
BRANCH   8  10
HETATM   10  C   UNL     1     -10.212   5.173  69.480  1.00  0.00    -0.318 C  
BRANCH  10  11
HETATM   11  C   UNL     1     -11.244   6.308  69.566  1.00  0.00    -0.500 C  
BRANCH  11  12
HETATM   12  C   UNL     1     -11.017   7.164  70.840  1.00  0.00    -0.276 C  
HETATM   13  C   UNL     1     -12.007   6.790  71.955  1.00  0.00    -0.317 C  
HETATM   14  O   UNL     1     -13.286   7.376  71.772  1.00  0.00    -0.387 OA 
HETATM   15  C   UNL     1     -11.375   7.345  73.205  1.00  0.00    -0.209 C  
HETATM   16  H   UNL     1     -13.898   7.145  72.461  1.00  0.00     0.000 HD 
HETATM   17  C   UNL     1      -9.902   7.027  73.045  1.00  0.00    -0.187 C  
HETATM   18  O   UNL     1      -9.167   7.979  73.790  1.00  0.00    -0.272 OA 
HETATM   19  C   UNL     1      -9.615   7.014  71.514  1.00  0.00    -0.159 C  
HETATM   20  H   UNL     1      -8.243   7.780  73.690  1.00  0.00     0.000 HD 
BRANCH  19  21
HETATM   21  C   UNL     1      -8.608   8.073  71.023  1.00  0.00    -0.142 C  
BRANCH  21  22
HETATM   22  C   UNL     1      -9.241   9.301  70.417  1.00  0.00    -0.291 C  
HETATM   23  C   UNL     1      -8.699  10.195  69.578  1.00  0.00    -0.189 C  
BRANCH  23  24
HETATM   24  C   UNL     1      -7.288  10.215  69.073  1.00  0.00    -0.087 C  
BRANCH  24  25
HETATM   25  C   UNL     1      -6.958  11.498  68.306  1.00  0.00    -0.073 C  
BRANCH  25  26
HETATM   26  C   UNL     1      -8.178  12.389  68.063  1.00  0.00    -0.168 C  
HETATM   27  C   UNL     1      -7.768  13.779  67.628  1.00  0.00    -0.179 C  
HETATM   28  O   UNL     1      -6.625  14.169  67.483  1.00  0.00    -0.227 OA 
HETATM   29  O   UNL     1      -8.840  14.576  67.398  1.00  0.00    -0.178 OA 
ENDBRANCH  25  26
ENDBRANCH  24  25
ENDBRANCH  23  24
ENDBRANCH  21  22
ENDBRANCH  19  21
ENDBRANCH  11  12
ENDBRANCH  10  11
ENDBRANCH   8  10
ENDBRANCH   7   8
ENDBRANCH   6   7
ENDBRANCH   5   6
ENDBRANCH   4   5
ENDBRANCH   3   4
ENDBRANCH   2   3
TORSDOF 14
ENDMDL
MODEL      279
REMARK 921   NORMALIZED FREE ENERGY PREDICTED BY IDOCK:   -3.25 KCAL/MOL
REMARK 922        TOTAL FREE ENERGY PREDICTED BY IDOCK:   -8.86 KCAL/MOL
REMARK 923 INTER-LIGAND FREE ENERGY PREDICTED BY IDOCK:   -7.09 KCAL/MOL
REMARK 924 INTRA-LIGAND FREE ENERGY PREDICTED BY IDOCK:   -1.77 KCAL/MOL
REMARK 927      BINDING AFFINITY PREDICTED BY RF-SCORE:    0.00 PKD
ROOT
HETATM    1  C   UNL     1      -7.942   5.209  70.891  1.00  0.00    -0.097 C  
HETATM    2  C   UNL     1      -8.667   5.720  69.658  1.00  0.00    -0.122 C  
ENDROOT
BRANCH   2   3
HETATM    3  C   UNL     1      -8.118   7.070  69.191  1.00  0.00    -0.121 C  
BRANCH   3   4
HETATM    4  C   UNL     1      -9.147   8.172  69.441  1.00  0.00    -0.148 C  
BRANCH   4   5
HETATM    5  C   UNL     1     -10.587   7.655  69.450  1.00  0.00    -0.217 C  
BRANCH   5   6
HETATM    6  C   UNL     1     -11.313   8.163  70.701  1.00  0.00    -0.256 C  
BRANCH   6   7
HETATM    7  C   UNL     1     -10.870   9.563  71.100  1.00  0.00    -0.425 C  
BRANCH   7   8
HETATM    8  C   UNL     1     -11.747  10.655  70.483  1.00  0.00    -0.356 C  
HETATM    9  O   UNL     1     -12.846  10.963  70.938  1.00  0.00    -0.346 OA 
BRANCH   8  10
HETATM   10  C   UNL     1     -11.138  11.348  69.281  1.00  0.00    -0.313 C  
BRANCH  10  11
HETATM   11  C   UNL     1     -11.959  11.371  67.983  1.00  0.00    -0.162 C  
BRANCH  11  12
HETATM   12  C   UNL     1     -11.795  12.730  67.251  1.00  0.00    -0.414 C  
HETATM   13  C   UNL     1     -11.278  13.823  68.200  1.00  0.00    -0.271 C  
HETATM   14  O   UNL     1     -12.301  14.370  69.016  1.00  0.00    -0.541 OA 
HETATM   15  C   UNL     1     -10.749  14.888  67.276  1.00  0.00    -0.294 C  
HETATM   16  H   UNL     1     -11.981  15.046  69.602  1.00  0.00     0.000 HD 
HETATM   17  C   UNL     1     -10.039  14.111  66.186  1.00  0.00    -0.313 C  
HETATM   18  O   UNL     1     -10.045  14.901  65.012  1.00  0.00    -0.360 OA 
HETATM   19  C   UNL     1     -10.772  12.741  66.070  1.00  0.00    -0.295 C  
HETATM   20  H   UNL     1      -9.600  14.413  64.329  1.00  0.00     0.000 HD 
BRANCH  19  21
HETATM   21  C   UNL     1     -11.440  12.464  64.708  1.00  0.00    -0.375 C  
BRANCH  21  22
HETATM   22  C   UNL     1     -10.771  11.383  63.896  1.00  0.00    -0.462 C  
HETATM   23  C   UNL     1      -9.974  10.391  64.316  1.00  0.00    -0.368 C  
BRANCH  23  24
HETATM   24  C   UNL     1      -9.506  10.147  65.719  1.00  0.00    -0.262 C  
BRANCH  24  25
HETATM   25  C   UNL     1      -9.195   8.672  65.985  1.00  0.00    -0.276 C  
BRANCH  25  26
HETATM   26  C   UNL     1      -7.957   8.169  65.239  1.00  0.00    -0.126 C  
HETATM   27  C   UNL     1      -6.682   8.644  65.901  1.00  0.00    -0.061 C  
HETATM   28  O   UNL     1      -6.616   9.338  66.897  1.00  0.00    -0.066 OA 
HETATM   29  O   UNL     1      -5.578   8.196  65.256  1.00  0.00    -0.042 OA 
ENDBRANCH  25  26
ENDBRANCH  24  25
ENDBRANCH  23  24
ENDBRANCH  21  22
ENDBRANCH  19  21
ENDBRANCH  11  12
ENDBRANCH  10  11
ENDBRANCH   8  10
ENDBRANCH   7   8
ENDBRANCH   6   7
ENDBRANCH   5   6
ENDBRANCH   4   5
ENDBRANCH   3   4
ENDBRANCH   2   3
TORSDOF 14
ENDMDL
MODEL      280
REMARK 921   NORMALIZED FREE ENERGY PREDICTED BY IDOCK:   -3.25 KCAL/MOL
REMARK 922        TOTAL FREE ENERGY PREDICTED BY IDOCK:   -8.86 KCAL/MOL
REMARK 923 INTER-LIGAND FREE ENERGY PREDICTED BY IDOCK:   -6.27 KCAL/MOL
REMARK 924 INTRA-LIGAND FREE ENERGY PREDICTED BY IDOCK:   -2.59 KCAL/MOL
REMARK 927      BINDING AFFINITY PREDICTED BY RF-SCORE:    0.00 PKD
ROOT
HETATM    1  C   UNL     1      -8.339   4.981  70.872  1.00  0.00    -0.112 C  
HETATM    2  C   UNL     1      -9.845   4.954  70.686  1.00  0.00    -0.289 C  
ENDROOT
BRANCH   2   3
HETATM    3  C   UNL     1     -10.239   4.958  69.207  1.00  0.00    -0.205 C  
BRANCH   3   4
HETATM    4  C   UNL     1     -11.027   6.224  68.875  1.00  0.00    -0.435 C  
BRANCH   4   5
HETATM    5  C   UNL     1     -11.023   6.556  67.381  1.00  0.00    -0.458 C  
BRANCH   5   6
HETATM    6  C   UNL     1      -9.747   6.007  66.731  1.00  0.00    -0.182 C  
BRANCH   6   7
HETATM    7  C   UNL     1      -8.546   6.913  66.958  1.00  0.00    -0.121 C  
BRANCH   7   8
HETATM    8  C   UNL     1      -8.761   8.323  66.403  1.00  0.00    -0.142 C  
HETATM    9  O   UNL     1      -8.441   8.646  65.262  1.00  0.00    -0.161 OA 
BRANCH   8  10
HETATM   10  C   UNL     1      -9.430   9.283  67.366  1.00  0.00    -0.165 C  
BRANCH  10  11
HETATM   11  C   UNL     1      -8.561   9.902  68.471  1.00  0.00    -0.117 C  
BRANCH  11  12
HETATM   12  C   UNL     1      -8.327   8.888  69.622  1.00  0.00    -0.123 C  
HETATM   13  C   UNL     1      -6.840   8.800  70.003  1.00  0.00    -0.042 C  
HETATM   14  O   UNL     1      -6.094   7.985  69.114  1.00  0.00    -0.037 OA 
HETATM   15  C   UNL     1      -6.851   8.171  71.371  1.00  0.00    -0.057 C  
HETATM   16  H   UNL     1      -5.175   7.931  69.349  1.00  0.00     0.000 HD 
HETATM   17  C   UNL     1      -8.012   8.843  72.076  1.00  0.00     0.132 C  
HETATM   18  O   UNL     1      -8.489   7.958  73.071  1.00  0.00    -0.143 OA 
HETATM   19  C   UNL     1      -9.043   9.220  70.970  1.00  0.00    -0.253 C  
HETATM   20  H   UNL     1      -9.218   8.378  73.513  1.00  0.00     0.000 HD 
BRANCH  19  21
HETATM   21  C   UNL     1     -10.419   8.537  71.092  1.00  0.00    -0.278 C  
BRANCH  21  22
HETATM   22  C   UNL     1     -11.483   9.390  71.738  1.00  0.00    -0.413 C  
HETATM   23  C   UNL     1     -12.284  10.303  71.170  1.00  0.00    -0.500 C  
BRANCH  23  24
HETATM   24  C   UNL     1     -12.276  10.738  69.736  1.00  0.00    -0.359 C  
BRANCH  24  25
HETATM   25  C   UNL     1     -11.632  12.113  69.543  1.00  0.00    -0.382 C  
BRANCH  25  26
HETATM   26  C   UNL     1     -11.599  12.568  68.082  1.00  0.00    -0.390 C  
HETATM   27  C   UNL     1     -11.875  14.050  67.959  1.00  0.00    -0.368 C  
HETATM   28  O   UNL     1     -12.100  14.810  68.882  1.00  0.00    -0.279 OA 
HETATM   29  O   UNL     1     -11.838  14.468  66.670  1.00  0.00    -0.393 OA 
ENDBRANCH  25  26
ENDBRANCH  24  25
ENDBRANCH  23  24
ENDBRANCH  21  22
ENDBRANCH  19  21
ENDBRANCH  11  12
ENDBRANCH  10  11
ENDBRANCH   8  10
ENDBRANCH   7   8
ENDBRANCH   6   7
ENDBRANCH   5   6
ENDBRANCH   4   5
ENDBRANCH   3   4
ENDBRANCH   2   3
TORSDOF 14
ENDMDL
MODEL      281
REMARK 921   NORMALIZED FREE ENERGY PREDICTED BY IDOCK:   -3.24 KCAL/MOL
REMARK 922        TOTAL FREE ENERGY PREDICTED BY IDOCK:   -8.85 KCAL/MOL
REMARK 923 INTER-LIGAND FREE ENERGY PREDICTED BY IDOCK:   -6.50 KCAL/MOL
REMARK 924 INTRA-LIGAND FREE ENERGY PREDICTED BY IDOCK:   -2.35 KCAL/MOL
REMARK 927      BINDING AFFINITY PREDICTED BY RF-SCORE:    0.00 PKD
ROOT
HETATM    1  C   UNL     1     -13.152  12.816  71.471  1.00  0.00    -0.380 C  
HETATM    2  C   UNL     1     -12.796  11.451  70.910  1.00  0.00    -0.323 C  
ENDROOT
BRANCH   2   3
HETATM    3  C   UNL     1     -13.023  10.335  71.932  1.00  0.00    -0.554 C  
BRANCH   3   4
HETATM    4  C   UNL     1     -12.180   9.112  71.573  1.00  0.00    -0.422 C  
BRANCH   4   5
HETATM    5  C   UNL     1     -11.215   9.371  70.415  1.00  0.00    -0.309 C  
BRANCH   5   6
HETATM    6  C   UNL     1      -9.770   9.172  70.888  1.00  0.00    -0.352 C  
BRANCH   6   7
HETATM    7  C   UNL     1      -8.811   8.921  69.733  1.00  0.00    -0.144 C  
BRANCH   7   8
HETATM    8  C   UNL     1      -9.033   9.887  68.566  1.00  0.00    -0.122 C  
HETATM    9  O   UNL     1      -8.604  11.037  68.563  1.00  0.00    -0.145 OA 
BRANCH   8  10
HETATM   10  C   UNL     1      -9.800   9.299  67.400  1.00  0.00    -0.229 C  
BRANCH  10  11
HETATM   11  C   UNL     1      -9.080   9.216  66.045  1.00  0.00    -0.245 C  
BRANCH  11  12
HETATM   12  C   UNL     1      -8.737   7.744  65.692  1.00  0.00    -0.132 C  
HETATM   13  C   UNL     1      -7.255   7.586  65.313  1.00  0.00    -0.065 C  
HETATM   14  O   UNL     1      -6.986   7.984  63.979  1.00  0.00    -0.065 OA 
HETATM   15  C   UNL     1      -6.998   6.108  65.458  1.00  0.00    -0.060 C  
HETATM   16  H   UNL     1      -6.070   7.885  63.744  1.00  0.00     0.000 HD 
HETATM   17  C   UNL     1      -7.738   5.729  66.725  1.00  0.00    -0.100 C  
HETATM   18  O   UNL     1      -8.078   4.358  66.636  1.00  0.00    -0.101 OA 
HETATM   19  C   UNL     1      -8.944   6.708  66.843  1.00  0.00    -0.131 C  
HETATM   20  H   UNL     1      -8.543   4.120  67.430  1.00  0.00     0.000 HD 
BRANCH  19  21
HETATM   21  C   UNL     1     -10.336   6.047  66.799  1.00  0.00    -0.296 C  
BRANCH  21  22
HETATM   22  C   UNL     1     -11.150   6.224  68.056  1.00  0.00    -0.365 C  
HETATM   23  C   UNL     1     -10.880   5.792  69.296  1.00  0.00    -0.374 C  
BRANCH  23  24
HETATM   24  C   UNL     1      -9.705   4.967  69.726  1.00  0.00    -0.262 C  
BRANCH  24  25
HETATM   25  C   UNL     1      -9.766   4.584  71.206  1.00  0.00    -0.252 C  
BRANCH  25  26
HETATM   26  C   UNL     1      -9.503   5.762  72.147  1.00  0.00    -0.164 C  
HETATM   27  C   UNL     1     -10.698   6.039  73.033  1.00  0.00    -0.252 C  
HETATM   28  O   UNL     1     -11.747   5.424  73.022  1.00  0.00    -0.275 OA 
HETATM   29  O   UNL     1     -10.474   7.073  73.880  1.00  0.00    -0.375 OA 
ENDBRANCH  25  26
ENDBRANCH  24  25
ENDBRANCH  23  24
ENDBRANCH  21  22
ENDBRANCH  19  21
ENDBRANCH  11  12
ENDBRANCH  10  11
ENDBRANCH   8  10
ENDBRANCH   7   8
ENDBRANCH   6   7
ENDBRANCH   5   6
ENDBRANCH   4   5
ENDBRANCH   3   4
ENDBRANCH   2   3
TORSDOF 14
ENDMDL
MODEL      282
REMARK 921   NORMALIZED FREE ENERGY PREDICTED BY IDOCK:   -3.24 KCAL/MOL
REMARK 922        TOTAL FREE ENERGY PREDICTED BY IDOCK:   -8.85 KCAL/MOL
REMARK 923 INTER-LIGAND FREE ENERGY PREDICTED BY IDOCK:   -6.97 KCAL/MOL
REMARK 924 INTRA-LIGAND FREE ENERGY PREDICTED BY IDOCK:   -1.87 KCAL/MOL
REMARK 927      BINDING AFFINITY PREDICTED BY RF-SCORE:    0.00 PKD
ROOT
HETATM    1  C   UNL     1      -6.831   5.633  71.140  1.00  0.00    -0.061 C  
HETATM    2  C   UNL     1      -7.581   6.115  69.911  1.00  0.00    -0.088 C  
ENDROOT
BRANCH   2   3
HETATM    3  C   UNL     1      -7.781   7.632  69.921  1.00  0.00    -0.097 C  
BRANCH   3   4
HETATM    4  C   UNL     1      -8.006   8.144  68.498  1.00  0.00    -0.126 C  
BRANCH   4   5
HETATM    5  C   UNL     1      -9.401   7.820  67.961  1.00  0.00    -0.146 C  
BRANCH   5   6
HETATM    6  C   UNL     1      -9.461   8.121  66.459  1.00  0.00    -0.286 C  
BRANCH   6   7
HETATM    7  C   UNL     1      -9.844   9.566  66.171  1.00  0.00    -0.343 C  
BRANCH   7   8
HETATM    8  C   UNL     1      -9.079  10.150  64.982  1.00  0.00    -0.205 C  
HETATM    9  O   UNL     1      -7.861  10.044  64.856  1.00  0.00    -0.131 OA 
BRANCH   8  10
HETATM   10  C   UNL     1      -9.948  10.844  63.953  1.00  0.00    -0.400 C  
BRANCH  10  11
HETATM   11  C   UNL     1      -9.674  12.331  63.679  1.00  0.00    -0.047 C  
BRANCH  11  12
HETATM   12  C   UNL     1     -10.717  13.226  64.399  1.00  0.00    -0.432 C  
HETATM   13  C   UNL     1     -12.151  12.878  63.969  1.00  0.00    -0.455 C  
HETATM   14  O   UNL     1     -12.503  13.449  62.720  1.00  0.00    -0.782 OA 
HETATM   15  C   UNL     1     -13.011  13.473  65.053  1.00  0.00    -0.215 C  
HETATM   16  H   UNL     1     -13.389  13.235  62.454  1.00  0.00     0.000 HD 
HETATM   17  C   UNL     1     -12.261  13.160  66.332  1.00  0.00    -0.329 C  
HETATM   18  O   UNL     1     -12.610  14.138  67.293  1.00  0.00    -0.516 OA 
HETATM   19  C   UNL     1     -10.750  13.104  65.957  1.00  0.00    -0.288 C  
HETATM   20  H   UNL     1     -12.139  13.942  68.095  1.00  0.00     0.000 HD 
BRANCH  19  21
HETATM   21  C   UNL     1      -9.860  14.155  66.650  1.00  0.00    -0.289 C  
BRANCH  21  22
HETATM   22  C   UNL     1      -9.387  15.265  65.745  1.00  0.00    -0.233 C  
HETATM   23  C   UNL     1      -9.735  16.559  65.755  1.00  0.00    -0.237 C  
BRANCH  23  24
HETATM   24  C   UNL     1     -10.738  17.214  66.656  1.00  0.00    -0.082 C  
BRANCH  24  25
HETATM   25  C   UNL     1     -10.162  17.540  68.036  1.00  0.00    -0.354 C  
BRANCH  25  26
HETATM   26  C   UNL     1     -11.007  16.996  69.190  1.00  0.00    -0.054 C  
HETATM   27  C   UNL     1     -10.251  15.956  69.987  1.00  0.00    -0.183 C  
HETATM   28  O   UNL     1      -9.117  15.578  69.764  1.00  0.00    -0.251 OA 
HETATM   29  O   UNL     1     -10.985  15.474  71.019  1.00  0.00    -0.345 OA 
ENDBRANCH  25  26
ENDBRANCH  24  25
ENDBRANCH  23  24
ENDBRANCH  21  22
ENDBRANCH  19  21
ENDBRANCH  11  12
ENDBRANCH  10  11
ENDBRANCH   8  10
ENDBRANCH   7   8
ENDBRANCH   6   7
ENDBRANCH   5   6
ENDBRANCH   4   5
ENDBRANCH   3   4
ENDBRANCH   2   3
TORSDOF 14
ENDMDL
MODEL      283
REMARK 921   NORMALIZED FREE ENERGY PREDICTED BY IDOCK:   -3.24 KCAL/MOL
REMARK 922        TOTAL FREE ENERGY PREDICTED BY IDOCK:   -8.84 KCAL/MOL
REMARK 923 INTER-LIGAND FREE ENERGY PREDICTED BY IDOCK:   -6.05 KCAL/MOL
REMARK 924 INTRA-LIGAND FREE ENERGY PREDICTED BY IDOCK:   -2.79 KCAL/MOL
REMARK 927      BINDING AFFINITY PREDICTED BY RF-SCORE:    0.00 PKD
ROOT
HETATM    1  C   UNL     1      -8.540  11.041  65.432  1.00  0.00    -0.070 C  
HETATM    2  C   UNL     1      -7.689  11.196  66.680  1.00  0.00    -0.155 C  
ENDROOT
BRANCH   2   3
HETATM    3  C   UNL     1      -8.515  11.045  67.959  1.00  0.00    -0.129 C  
BRANCH   3   4
HETATM    4  C   UNL     1      -9.966  11.447  67.700  1.00  0.00    -0.196 C  
BRANCH   4   5
HETATM    5  C   UNL     1     -10.972  10.415  68.214  1.00  0.00    -0.321 C  
BRANCH   5   6
HETATM    6  C   UNL     1     -10.339   9.019  68.196  1.00  0.00    -0.262 C  
BRANCH   6   7
HETATM    7  C   UNL     1     -10.753   8.211  66.974  1.00  0.00    -0.247 C  
BRANCH   7   8
HETATM    8  C   UNL     1      -9.654   7.255  66.504  1.00  0.00    -0.149 C  
HETATM    9  O   UNL     1      -8.571   7.645  66.074  1.00  0.00    -0.139 OA 
BRANCH   8  10
HETATM   10  C   UNL     1      -9.997   5.785  66.639  1.00  0.00    -0.212 C  
BRANCH  10  11
HETATM   11  C   UNL     1     -10.636   5.324  67.957  1.00  0.00    -0.088 C  
BRANCH  11  12
HETATM   12  C   UNL     1      -9.607   4.556  68.829  1.00  0.00    -0.227 C  
HETATM   13  C   UNL     1      -8.929   3.426  68.038  1.00  0.00    -0.139 C  
HETATM   14  O   UNL     1      -9.735   2.264  67.941  1.00  0.00    -0.365 OA 
HETATM   15  C   UNL     1      -7.691   3.114  68.838  1.00  0.00    -0.050 C  
HETATM   16  H   UNL     1      -9.316   1.565  67.453  1.00  0.00     0.000 HD 
HETATM   17  C   UNL     1      -7.171   4.473  69.259  1.00  0.00    -0.052 C  
HETATM   18  O   UNL     1      -6.431   4.307  70.453  1.00  0.00    -0.029 OA 
HETATM   19  C   UNL     1      -8.414   5.407  69.372  1.00  0.00    -0.099 C  
HETATM   20  H   UNL     1      -6.105   5.159  70.718  1.00  0.00     0.000 HD 
BRANCH  19  21
HETATM   21  C   UNL     1      -8.686   5.976  70.778  1.00  0.00    -0.135 C  
BRANCH  21  22
HETATM   22  C   UNL     1      -9.704   5.201  71.577  1.00  0.00    -0.221 C  
HETATM   23  C   UNL     1     -10.993   5.494  71.799  1.00  0.00    -0.249 C  
BRANCH  23  24
HETATM   24  C   UNL     1     -11.731   6.714  71.338  1.00  0.00    -0.374 C  
BRANCH  24  25
HETATM   25  C   UNL     1     -11.626   7.874  72.331  1.00  0.00    -0.436 C  
BRANCH  25  26
HETATM   26  C   UNL     1     -11.549   9.245  71.656  1.00  0.00    -0.463 C  
HETATM   27  C   UNL     1     -12.867   9.983  71.753  1.00  0.00    -0.446 C  
HETATM   28  O   UNL     1     -13.875   9.567  72.290  1.00  0.00    -0.416 OA 
HETATM   29  O   UNL     1     -12.809  11.204  71.168  1.00  0.00    -0.378 OA 
ENDBRANCH  25  26
ENDBRANCH  24  25
ENDBRANCH  23  24
ENDBRANCH  21  22
ENDBRANCH  19  21
ENDBRANCH  11  12
ENDBRANCH  10  11
ENDBRANCH   8  10
ENDBRANCH   7   8
ENDBRANCH   6   7
ENDBRANCH   5   6
ENDBRANCH   4   5
ENDBRANCH   3   4
ENDBRANCH   2   3
TORSDOF 14
ENDMDL
MODEL      284
REMARK 921   NORMALIZED FREE ENERGY PREDICTED BY IDOCK:   -3.24 KCAL/MOL
REMARK 922        TOTAL FREE ENERGY PREDICTED BY IDOCK:   -8.84 KCAL/MOL
REMARK 923 INTER-LIGAND FREE ENERGY PREDICTED BY IDOCK:   -6.83 KCAL/MOL
REMARK 924 INTRA-LIGAND FREE ENERGY PREDICTED BY IDOCK:   -2.01 KCAL/MOL
REMARK 927      BINDING AFFINITY PREDICTED BY RF-SCORE:    0.00 PKD
ROOT
HETATM    1  C   UNL     1     -13.822  13.886  72.111  1.00  0.00    -0.636 C  
HETATM    2  C   UNL     1     -13.458  15.332  71.825  1.00  0.00    -0.558 C  
ENDROOT
BRANCH   2   3
HETATM    3  C   UNL     1     -11.961  15.503  71.556  1.00  0.00    -0.463 C  
BRANCH   3   4
HETATM    4  C   UNL     1     -11.553  14.702  70.320  1.00  0.00    -0.335 C  
BRANCH   4   5
HETATM    5  C   UNL     1     -10.444  15.377  69.511  1.00  0.00    -0.264 C  
BRANCH   5   6
HETATM    6  C   UNL     1     -10.575  16.900  69.620  1.00  0.00    -0.172 C  
BRANCH   6   7
HETATM    7  C   UNL     1     -11.024  17.538  68.314  1.00  0.00    -0.103 C  
BRANCH   7   8
HETATM    8  C   UNL     1     -10.013  17.335  67.183  1.00  0.00    -0.282 C  
HETATM    9  O   UNL     1      -8.934  17.920  67.141  1.00  0.00    -0.243 OA 
BRANCH   8  10
HETATM   10  C   UNL     1     -10.436  16.327  66.133  1.00  0.00    -0.330 C  
BRANCH  10  11
HETATM   11  C   UNL     1      -9.482  15.158  65.846  1.00  0.00    -0.334 C  
BRANCH  11  12
HETATM   12  C   UNL     1     -10.193  13.797  66.077  1.00  0.00    -0.315 C  
HETATM   13  C   UNL     1     -11.621  13.804  65.509  1.00  0.00    -0.326 C  
HETATM   14  O   UNL     1     -12.549  14.450  66.365  1.00  0.00    -0.496 OA 
HETATM   15  C   UNL     1     -11.975  12.344  65.395  1.00  0.00    -0.457 C  
HETATM   16  H   UNL     1     -13.432  14.454  66.014  1.00  0.00     0.000 HD 
HETATM   17  C   UNL     1     -10.708  11.698  64.872  1.00  0.00    -0.296 C  
HETATM   18  O   UNL     1     -10.703  10.346  65.291  1.00  0.00    -0.099 OA 
HETATM   19  C   UNL     1      -9.521  12.561  65.396  1.00  0.00     0.091 C  
HETATM   20  H   UNL     1      -9.908   9.941  64.964  1.00  0.00     0.000 HD 
BRANCH  19  21
HETATM   21  C   UNL     1      -8.539  11.832  66.335  1.00  0.00    -0.113 C  
BRANCH  21  22
HETATM   22  C   UNL     1      -8.266  12.552  67.631  1.00  0.00    -0.172 C  
HETATM   23  C   UNL     1      -7.770  12.060  68.775  1.00  0.00    -0.054 C  
BRANCH  23  24
HETATM   24  C   UNL     1      -7.410  10.632  69.058  1.00  0.00    -0.108 C  
BRANCH  24  25
HETATM   25  C   UNL     1      -8.572   9.844  69.668  1.00  0.00    -0.207 C  
BRANCH  25  26
HETATM   26  C   UNL     1      -9.658   9.483  68.651  1.00  0.00    -0.151 C  
HETATM   27  C   UNL     1     -10.908  10.309  68.860  1.00  0.00    -0.228 C  
HETATM   28  O   UNL     1     -11.062  11.158  69.717  1.00  0.00    -0.251 OA 
HETATM   29  O   UNL     1     -11.873  10.007  67.959  1.00  0.00     0.074 OA 
ENDBRANCH  25  26
ENDBRANCH  24  25
ENDBRANCH  23  24
ENDBRANCH  21  22
ENDBRANCH  19  21
ENDBRANCH  11  12
ENDBRANCH  10  11
ENDBRANCH   8  10
ENDBRANCH   7   8
ENDBRANCH   6   7
ENDBRANCH   5   6
ENDBRANCH   4   5
ENDBRANCH   3   4
ENDBRANCH   2   3
TORSDOF 14
ENDMDL
MODEL      285
REMARK 921   NORMALIZED FREE ENERGY PREDICTED BY IDOCK:   -3.23 KCAL/MOL
REMARK 922        TOTAL FREE ENERGY PREDICTED BY IDOCK:   -8.83 KCAL/MOL
REMARK 923 INTER-LIGAND FREE ENERGY PREDICTED BY IDOCK:   -5.93 KCAL/MOL
REMARK 924 INTRA-LIGAND FREE ENERGY PREDICTED BY IDOCK:   -2.89 KCAL/MOL
REMARK 927      BINDING AFFINITY PREDICTED BY RF-SCORE:    0.00 PKD
ROOT
HETATM    1  C   UNL     1     -12.094  13.315  63.923  1.00  0.00    -0.531 C  
HETATM    2  C   UNL     1     -11.804  11.857  63.617  1.00  0.00    -0.573 C  
ENDROOT
BRANCH   2   3
HETATM    3  C   UNL     1     -10.309  11.600  63.417  1.00  0.00    -0.482 C  
BRANCH   3   4
HETATM    4  C   UNL     1      -9.838  10.479  64.342  1.00  0.00    -0.405 C  
BRANCH   4   5
HETATM    5  C   UNL     1     -10.511  10.515  65.715  1.00  0.00    -0.214 C  
BRANCH   5   6
HETATM    6  C   UNL     1      -9.685  11.377  66.676  1.00  0.00    -0.224 C  
BRANCH   6   7
HETATM    7  C   UNL     1      -8.530  10.606  67.299  1.00  0.00    -0.126 C  
BRANCH   7   8
HETATM    8  C   UNL     1      -8.734  10.351  68.795  1.00  0.00    -0.146 C  
HETATM    9  O   UNL     1      -7.862   9.867  69.513  1.00  0.00    -0.109 OA 
BRANCH   8  10
HETATM   10  C   UNL     1     -10.089  10.772  69.327  1.00  0.00    -0.200 C  
BRANCH  10  11
HETATM   11  C   UNL     1     -11.136   9.671  69.553  1.00  0.00    -0.198 C  
BRANCH  11  12
HETATM   12  C   UNL     1     -10.462   8.361  70.042  1.00  0.00    -0.224 C  
HETATM   13  C   UNL     1     -10.257   8.367  71.566  1.00  0.00    -0.228 C  
HETATM   14  O   UNL     1      -9.120   9.117  71.963  1.00  0.00    -0.337 OA 
HETATM   15  C   UNL     1     -10.047   6.916  71.912  1.00  0.00    -0.198 C  
HETATM   16  H   UNL     1      -8.993   9.121  72.904  1.00  0.00     0.000 HD 
HETATM   17  C   UNL     1     -11.060   6.184  71.056  1.00  0.00    -0.297 C  
HETATM   18  O   UNL     1     -10.574   4.874  70.829  1.00  0.00    -0.153 OA 
HETATM   19  C   UNL     1     -11.266   7.048  69.776  1.00  0.00    -0.257 C  
HETATM   20  H   UNL     1     -11.209   4.415  70.292  1.00  0.00     0.000 HD 
BRANCH  19  21
HETATM   21  C   UNL     1     -10.865   6.369  68.451  1.00  0.00    -0.383 C  
BRANCH  21  22
HETATM   22  C   UNL     1      -9.699   7.018  67.747  1.00  0.00    -0.156 C  
HETATM   23  C   UNL     1      -8.389   6.770  67.893  1.00  0.00    -0.120 C  
BRANCH  23  24
HETATM   24  C   UNL     1      -7.757   5.805  68.849  1.00  0.00    -0.090 C  
BRANCH  24  25
HETATM   25  C   UNL     1      -6.929   6.505  69.929  1.00  0.00    -0.066 C  
BRANCH  25  26
HETATM   26  C   UNL     1      -6.652   5.623  71.148  1.00  0.00    -0.044 C  
HETATM   27  C   UNL     1      -6.513   6.449  72.408  1.00  0.00    -0.059 C  
HETATM   28  O   UNL     1      -6.603   7.660  72.476  1.00  0.00    -0.057 OA 
HETATM   29  O   UNL     1      -6.279   5.678  73.497  1.00  0.00    -0.057 OA 
ENDBRANCH  25  26
ENDBRANCH  24  25
ENDBRANCH  23  24
ENDBRANCH  21  22
ENDBRANCH  19  21
ENDBRANCH  11  12
ENDBRANCH  10  11
ENDBRANCH   8  10
ENDBRANCH   7   8
ENDBRANCH   6   7
ENDBRANCH   5   6
ENDBRANCH   4   5
ENDBRANCH   3   4
ENDBRANCH   2   3
TORSDOF 14
ENDMDL
MODEL      286
REMARK 921   NORMALIZED FREE ENERGY PREDICTED BY IDOCK:   -3.23 KCAL/MOL
REMARK 922        TOTAL FREE ENERGY PREDICTED BY IDOCK:   -8.82 KCAL/MOL
REMARK 923 INTER-LIGAND FREE ENERGY PREDICTED BY IDOCK:   -6.62 KCAL/MOL
REMARK 924 INTRA-LIGAND FREE ENERGY PREDICTED BY IDOCK:   -2.20 KCAL/MOL
REMARK 927      BINDING AFFINITY PREDICTED BY RF-SCORE:    0.00 PKD
ROOT
HETATM    1  C   UNL     1     -10.588  19.341  66.065  1.00  0.00    -0.550 C  
HETATM    2  C   UNL     1      -9.923  18.604  67.214  1.00  0.00    -0.360 C  
ENDROOT
BRANCH   2   3
HETATM    3  C   UNL     1     -10.536  17.220  67.437  1.00  0.00    -0.338 C  
BRANCH   3   4
HETATM    4  C   UNL     1     -10.370  16.361  66.184  1.00  0.00    -0.354 C  
BRANCH   4   5
HETATM    5  C   UNL     1     -10.672  14.882  66.429  1.00  0.00    -0.316 C  
BRANCH   5   6
HETATM    6  C   UNL     1     -11.896  14.746  67.343  1.00  0.00    -0.320 C  
BRANCH   6   7
HETATM    7  C   UNL     1     -11.656  13.776  68.492  1.00  0.00    -0.373 C  
BRANCH   7   8
HETATM    8  C   UNL     1     -11.369  12.353  68.008  1.00  0.00    -0.287 C  
HETATM    9  O   UNL     1     -12.151  11.717  67.306  1.00  0.00    -0.595 OA 
BRANCH   8  10
HETATM   10  C   UNL     1     -10.026  11.800  68.439  1.00  0.00    -0.202 C  
BRANCH  10  11
HETATM   11  C   UNL     1     -10.025  10.532  69.306  1.00  0.00    -0.233 C  
BRANCH  11  12
HETATM   12  C   UNL     1      -9.561   9.301  68.482  1.00  0.00    -0.155 C  
HETATM   13  C   UNL     1     -10.752   8.433  68.046  1.00  0.00    -0.055 C  
HETATM   14  O   UNL     1     -11.219   7.583  69.080  1.00  0.00    -0.433 OA 
HETATM   15  C   UNL     1     -10.202   7.598  66.919  1.00  0.00    -0.365 C  
HETATM   16  H   UNL     1     -11.955   7.046  68.811  1.00  0.00     0.000 HD 
HETATM   17  C   UNL     1      -9.344   8.566  66.129  1.00  0.00    -0.214 C  
HETATM   18  O   UNL     1      -8.343   7.819  65.464  1.00  0.00    -0.137 OA 
HETATM   19  C   UNL     1      -8.820   9.625  67.145  1.00  0.00    -0.141 C  
HETATM   20  H   UNL     1      -7.805   8.425  64.969  1.00  0.00     0.000 HD 
BRANCH  19  21
HETATM   21  C   UNL     1      -7.288   9.673  67.316  1.00  0.00    -0.087 C  
BRANCH  21  22
HETATM   22  C   UNL     1      -6.619  10.824  66.608  1.00  0.00    -0.112 C  
HETATM   23  C   UNL     1      -5.863  11.802  67.128  1.00  0.00    -0.136 C  
BRANCH  23  24
HETATM   24  C   UNL     1      -5.541  12.015  68.576  1.00  0.00    -0.052 C  
BRANCH  24  25
HETATM   25  C   UNL     1      -6.535  12.951  69.267  1.00  0.00    -0.104 C  
BRANCH  25  26
HETATM   26  C   UNL     1      -6.079  14.411  69.288  1.00  0.00    -0.105 C  
HETATM   27  C   UNL     1      -7.258  15.359  69.244  1.00  0.00    -0.186 C  
HETATM   28  O   UNL     1      -8.429  15.033  69.196  1.00  0.00    -0.195 OA 
HETATM   29  O   UNL     1      -6.868  16.656  69.273  1.00  0.00    -0.218 OA 
ENDBRANCH  25  26
ENDBRANCH  24  25
ENDBRANCH  23  24
ENDBRANCH  21  22
ENDBRANCH  19  21
ENDBRANCH  11  12
ENDBRANCH  10  11
ENDBRANCH   8  10
ENDBRANCH   7   8
ENDBRANCH   6   7
ENDBRANCH   5   6
ENDBRANCH   4   5
ENDBRANCH   3   4
ENDBRANCH   2   3
TORSDOF 14
ENDMDL
MODEL      287
REMARK 921   NORMALIZED FREE ENERGY PREDICTED BY IDOCK:   -3.22 KCAL/MOL
REMARK 922        TOTAL FREE ENERGY PREDICTED BY IDOCK:   -8.81 KCAL/MOL
REMARK 923 INTER-LIGAND FREE ENERGY PREDICTED BY IDOCK:   -7.01 KCAL/MOL
REMARK 924 INTRA-LIGAND FREE ENERGY PREDICTED BY IDOCK:   -1.81 KCAL/MOL
REMARK 927      BINDING AFFINITY PREDICTED BY RF-SCORE:    0.00 PKD
ROOT
HETATM    1  C   UNL     1     -11.682  12.828  68.141  1.00  0.00    -0.392 C  
HETATM    2  C   UNL     1     -12.040  13.730  66.974  1.00  0.00    -0.436 C  
ENDROOT
BRANCH   2   3
HETATM    3  C   UNL     1     -10.800  14.360  66.336  1.00  0.00    -0.314 C  
BRANCH   3   4
HETATM    4  C   UNL     1     -10.842  14.185  64.818  1.00  0.00    -0.426 C  
BRANCH   4   5
HETATM    5  C   UNL     1     -12.083  13.430  64.338  1.00  0.00    -0.468 C  
BRANCH   5   6
HETATM    6  C   UNL     1     -11.661  12.218  63.499  1.00  0.00    -0.584 C  
BRANCH   6   7
HETATM    7  C   UNL     1     -10.151  12.028  63.473  1.00  0.00    -0.448 C  
BRANCH   7   8
HETATM    8  C   UNL     1      -9.743  10.558  63.583  1.00  0.00    -0.318 C  
HETATM    9  O   UNL     1      -9.392   9.890  62.614  1.00  0.00    -0.287 OA 
BRANCH   8  10
HETATM   10  C   UNL     1      -9.777   9.998  64.991  1.00  0.00    -0.386 C  
BRANCH  10  11
HETATM   11  C   UNL     1      -8.532   9.246  65.486  1.00  0.00    -0.151 C  
BRANCH  11  12
HETATM   12  C   UNL     1      -7.999   9.871  66.803  1.00  0.00    -0.116 C  
HETATM   13  C   UNL     1      -8.614  11.256  67.059  1.00  0.00    -0.148 C  
HETATM   14  O   UNL     1      -7.990  12.281  66.303  1.00  0.00    -0.357 OA 
HETATM   15  C   UNL     1      -8.372  11.496  68.527  1.00  0.00    -0.146 C  
HETATM   16  H   UNL     1      -8.370  13.138  66.462  1.00  0.00     0.000 HD 
HETATM   17  C   UNL     1      -8.657  10.155  69.171  1.00  0.00    -0.165 C  
HETATM   18  O   UNL     1      -7.912  10.081  70.372  1.00  0.00    -0.339 OA 
HETATM   19  C   UNL     1      -8.315   9.070  68.107  1.00  0.00    -0.121 C  
HETATM   20  H   UNL     1      -8.091   9.240  70.776  1.00  0.00     0.000 HD 
BRANCH  19  21
HETATM   21  C   UNL     1      -7.180   8.101  68.495  1.00  0.00    -0.088 C  
BRANCH  21  22
HETATM   22  C   UNL     1      -7.129   6.840  67.669  1.00  0.00    -0.085 C  
HETATM   23  C   UNL     1      -7.291   5.571  68.067  1.00  0.00    -0.073 C  
BRANCH  23  24
HETATM   24  C   UNL     1      -7.516   5.090  69.469  1.00  0.00    -0.057 C  
BRANCH  24  25
HETATM   25  C   UNL     1      -8.978   4.727  69.737  1.00  0.00    -0.139 C  
BRANCH  25  26
HETATM   26  C   UNL     1      -9.887   4.936  68.524  1.00  0.00    -0.208 C  
HETATM   27  C   UNL     1     -10.561   6.290  68.565  1.00  0.00    -0.262 C  
HETATM   28  O   UNL     1     -10.422   7.126  69.437  1.00  0.00    -0.209 OA 
HETATM   29  O   UNL     1     -11.360   6.492  67.489  1.00  0.00    -0.284 OA 
ENDBRANCH  25  26
ENDBRANCH  24  25
ENDBRANCH  23  24
ENDBRANCH  21  22
ENDBRANCH  19  21
ENDBRANCH  11  12
ENDBRANCH  10  11
ENDBRANCH   8  10
ENDBRANCH   7   8
ENDBRANCH   6   7
ENDBRANCH   5   6
ENDBRANCH   4   5
ENDBRANCH   3   4
ENDBRANCH   2   3
TORSDOF 14
ENDMDL
MODEL      288
REMARK 921   NORMALIZED FREE ENERGY PREDICTED BY IDOCK:   -3.21 KCAL/MOL
REMARK 922        TOTAL FREE ENERGY PREDICTED BY IDOCK:   -8.80 KCAL/MOL
REMARK 923 INTER-LIGAND FREE ENERGY PREDICTED BY IDOCK:   -6.78 KCAL/MOL
REMARK 924 INTRA-LIGAND FREE ENERGY PREDICTED BY IDOCK:   -2.02 KCAL/MOL
REMARK 927      BINDING AFFINITY PREDICTED BY RF-SCORE:    0.00 PKD
ROOT
HETATM    1  C   UNL     1     -12.007  14.395  64.666  1.00  0.00    -0.475 C  
HETATM    2  C   UNL     1     -12.629  13.200  65.366  1.00  0.00    -0.512 C  
ENDROOT
BRANCH   2   3
HETATM    3  C   UNL     1     -11.571  12.216  65.868  1.00  0.00    -0.425 C  
BRANCH   3   4
HETATM    4  C   UNL     1     -11.658  12.077  67.388  1.00  0.00    -0.388 C  
BRANCH   4   5
HETATM    5  C   UNL     1     -10.567  12.859  68.122  1.00  0.00    -0.249 C  
BRANCH   5   6
HETATM    6  C   UNL     1      -9.377  13.095  67.185  1.00  0.00    -0.235 C  
BRANCH   6   7
HETATM    7  C   UNL     1      -8.145  12.305  67.601  1.00  0.00    -0.165 C  
BRANCH   7   8
HETATM    8  C   UNL     1      -7.996  10.997  66.821  1.00  0.00    -0.152 C  
HETATM    9  O   UNL     1      -8.196  10.916  65.612  1.00  0.00    -0.154 OA 
BRANCH   8  10
HETATM   10  C   UNL     1      -7.550   9.813  67.655  1.00  0.00    -0.091 C  
BRANCH  10  11
HETATM   11  C   UNL     1      -8.534   9.271  68.702  1.00  0.00    -0.123 C  
BRANCH  11  12
HETATM   12  C   UNL     1      -9.074   7.878  68.282  1.00  0.00    -0.134 C  
HETATM   13  C   UNL     1      -9.069   7.708  66.755  1.00  0.00    -0.151 C  
HETATM   14  O   UNL     1     -10.173   8.340  66.129  1.00  0.00    -0.457 OA 
HETATM   15  C   UNL     1      -9.163   6.218  66.553  1.00  0.00    -0.169 C  
HETATM   16  H   UNL     1     -10.170   8.235  65.185  1.00  0.00     0.000 HD 
HETATM   17  C   UNL     1      -8.245   5.644  67.613  1.00  0.00    -0.101 C  
HETATM   18  O   UNL     1      -8.697   4.340  67.923  1.00  0.00    -0.101 OA 
HETATM   19  C   UNL     1      -8.255   6.652  68.801  1.00  0.00    -0.120 C  
HETATM   20  H   UNL     1      -8.121   3.980  68.588  1.00  0.00     0.000 HD 
BRANCH  19  21
HETATM   21  C   UNL     1      -8.803   6.097  70.131  1.00  0.00    -0.144 C  
BRANCH  21  22
HETATM   22  C   UNL     1     -10.205   5.549  70.047  1.00  0.00    -0.337 C  
HETATM   23  C   UNL     1     -11.369   6.199  70.188  1.00  0.00    -0.433 C  
BRANCH  23  24
HETATM   24  C   UNL     1     -11.555   7.648  70.522  1.00  0.00    -0.195 C  
BRANCH  24  25
HETATM   25  C   UNL     1     -11.458   7.920  72.025  1.00  0.00    -0.351 C  
BRANCH  25  26
HETATM   26  C   UNL     1     -10.209   8.712  72.419  1.00  0.00    -0.319 C  
HETATM   27  C   UNL     1      -9.254   7.868  73.235  1.00  0.00    -0.282 C  
HETATM   28  O   UNL     1      -9.429   6.707  73.555  1.00  0.00    -0.140 OA 
HETATM   29  O   UNL     1      -8.138   8.554  73.580  1.00  0.00    -0.381 OA 
ENDBRANCH  25  26
ENDBRANCH  24  25
ENDBRANCH  23  24
ENDBRANCH  21  22
ENDBRANCH  19  21
ENDBRANCH  11  12
ENDBRANCH  10  11
ENDBRANCH   8  10
ENDBRANCH   7   8
ENDBRANCH   6   7
ENDBRANCH   5   6
ENDBRANCH   4   5
ENDBRANCH   3   4
ENDBRANCH   2   3
TORSDOF 14
ENDMDL
MODEL      289
REMARK 921   NORMALIZED FREE ENERGY PREDICTED BY IDOCK:   -3.21 KCAL/MOL
REMARK 922        TOTAL FREE ENERGY PREDICTED BY IDOCK:   -8.80 KCAL/MOL
REMARK 923 INTER-LIGAND FREE ENERGY PREDICTED BY IDOCK:   -6.48 KCAL/MOL
REMARK 924 INTRA-LIGAND FREE ENERGY PREDICTED BY IDOCK:   -2.32 KCAL/MOL
REMARK 927      BINDING AFFINITY PREDICTED BY RF-SCORE:    0.00 PKD
ROOT
HETATM    1  C   UNL     1      -9.781  19.361  69.183  1.00  0.00    -0.404 C  
HETATM    2  C   UNL     1      -9.853  20.355  68.038  1.00  0.00    -0.377 C  
ENDROOT
BRANCH   2   3
HETATM    3  C   UNL     1      -9.530  19.703  66.692  1.00  0.00    -0.467 C  
BRANCH   3   4
HETATM    4  C   UNL     1     -10.822  19.356  65.952  1.00  0.00    -0.401 C  
BRANCH   4   5
HETATM    5  C   UNL     1     -10.742  18.023  65.205  1.00  0.00     0.334 C  
BRANCH   5   6
HETATM    6  C   UNL     1     -10.442  16.891  66.195  1.00  0.00    -0.276 C  
BRANCH   6   7
HETATM    7  C   UNL     1      -9.653  15.757  65.556  1.00  0.00    -0.202 C  
BRANCH   7   8
HETATM    8  C   UNL     1     -10.392  14.419  65.618  1.00  0.00    -0.342 C  
HETATM    9  O   UNL     1     -10.451  13.645  64.666  1.00  0.00    -0.411 OA 
BRANCH   8  10
HETATM   10  C   UNL     1     -11.023  14.109  66.961  1.00  0.00    -0.303 C  
BRANCH  10  11
HETATM   11  C   UNL     1     -10.081  13.886  68.154  1.00  0.00    -0.250 C  
BRANCH  11  12
HETATM   12  C   UNL     1     -10.297  12.479  68.771  1.00  0.00    -0.138 C  
HETATM   13  C   UNL     1     -11.715  12.325  69.344  1.00  0.00    -0.330 C  
HETATM   14  O   UNL     1     -11.858  12.923  70.622  1.00  0.00    -0.522 OA 
HETATM   15  C   UNL     1     -11.901  10.835  69.463  1.00  0.00    -0.380 C  
HETATM   16  H   UNL     1     -12.734  12.828  70.976  1.00  0.00     0.000 HD 
HETATM   17  C   UNL     1     -11.285  10.284  68.193  1.00  0.00    -0.229 C  
HETATM   18  O   UNL     1     -10.858   8.961  68.453  1.00  0.00    -0.427 OA 
HETATM   19  C   UNL     1     -10.159  11.278  67.779  1.00  0.00    -0.199 C  
HETATM   20  H   UNL     1     -10.472   8.616  67.657  1.00  0.00     0.000 HD 
BRANCH  19  21
HETATM   21  C   UNL     1      -8.734  10.689  67.761  1.00  0.00    -0.129 C  
BRANCH  21  22
HETATM   22  C   UNL     1      -7.926  10.976  69.002  1.00  0.00    -0.114 C  
HETATM   23  C   UNL     1      -6.774  11.654  69.113  1.00  0.00    -0.109 C  
BRANCH  23  24
HETATM   24  C   UNL     1      -5.974  12.256  67.998  1.00  0.00    -0.067 C  
BRANCH  24  25
HETATM   25  C   UNL     1      -5.366  13.608  68.376  1.00  0.00    -0.098 C  
BRANCH  25  26
HETATM   26  C   UNL     1      -6.215  14.801  67.929  1.00  0.00    -0.171 C  
HETATM   27  C   UNL     1      -6.811  15.529  69.114  1.00  0.00    -0.155 C  
HETATM   28  O   UNL     1      -6.657  15.230  70.282  1.00  0.00    -0.111 OA 
HETATM   29  O   UNL     1      -7.557  16.594  68.732  1.00  0.00    -0.202 OA 
ENDBRANCH  25  26
ENDBRANCH  24  25
ENDBRANCH  23  24
ENDBRANCH  21  22
ENDBRANCH  19  21
ENDBRANCH  11  12
ENDBRANCH  10  11
ENDBRANCH   8  10
ENDBRANCH   7   8
ENDBRANCH   6   7
ENDBRANCH   5   6
ENDBRANCH   4   5
ENDBRANCH   3   4
ENDBRANCH   2   3
TORSDOF 14
ENDMDL
MODEL      290
REMARK 921   NORMALIZED FREE ENERGY PREDICTED BY IDOCK:   -3.21 KCAL/MOL
REMARK 922        TOTAL FREE ENERGY PREDICTED BY IDOCK:   -8.80 KCAL/MOL
REMARK 923 INTER-LIGAND FREE ENERGY PREDICTED BY IDOCK:   -6.35 KCAL/MOL
REMARK 924 INTRA-LIGAND FREE ENERGY PREDICTED BY IDOCK:   -2.45 KCAL/MOL
REMARK 927      BINDING AFFINITY PREDICTED BY RF-SCORE:    0.00 PKD
ROOT
HETATM    1  C   UNL     1      -7.298   4.211  70.107  1.00  0.00    -0.045 C  
HETATM    2  C   UNL     1      -8.579   3.770  69.421  1.00  0.00    -0.113 C  
ENDROOT
BRANCH   2   3
HETATM    3  C   UNL     1      -9.817   4.412  70.051  1.00  0.00    -0.294 C  
BRANCH   3   4
HETATM    4  C   UNL     1      -9.858   5.906  69.728  1.00  0.00    -0.217 C  
BRANCH   4   5
HETATM    5  C   UNL     1     -10.940   6.267  68.709  1.00  0.00    -0.424 C  
BRANCH   5   6
HETATM    6  C   UNL     1     -10.338   7.136  67.598  1.00  0.00    -0.276 C  
BRANCH   6   7
HETATM    7  C   UNL     1      -9.004   6.598  67.100  1.00  0.00    -0.118 C  
BRANCH   7   8
HETATM    8  C   UNL     1      -7.881   7.634  67.195  1.00  0.00    -0.117 C  
HETATM    9  O   UNL     1      -6.691   7.331  67.173  1.00  0.00    -0.063 OA 
BRANCH   8  10
HETATM   10  C   UNL     1      -8.356   9.070  67.289  1.00  0.00    -0.111 C  
BRANCH  10  11
HETATM   11  C   UNL     1      -7.406  10.166  66.782  1.00  0.00    -0.104 C  
BRANCH  11  12
HETATM   12  C   UNL     1      -7.842  10.669  65.380  1.00  0.00    -0.070 C  
HETATM   13  C   UNL     1      -6.982  10.049  64.266  1.00  0.00    -0.128 C  
HETATM   14  O   UNL     1      -5.726  10.692  64.122  1.00  0.00    -0.298 OA 
HETATM   15  C   UNL     1      -7.799  10.256  63.017  1.00  0.00    -0.148 C  
HETATM   16  H   UNL     1      -5.195  10.309  63.433  1.00  0.00     0.000 HD 
HETATM   17  C   UNL     1      -9.219   9.954  63.451  1.00  0.00    -0.240 C  
HETATM   18  O   UNL     1     -10.096  10.670  62.604  1.00  0.00    -0.720 OA 
HETATM   19  C   UNL     1      -9.307  10.320  64.963  1.00  0.00    -0.290 C  
HETATM   20  H   UNL     1     -10.987  10.481  62.876  1.00  0.00     0.000 HD 
BRANCH  19  21
HETATM   21  C   UNL     1     -10.303  11.444  65.312  1.00  0.00    -0.336 C  
BRANCH  21  22
HETATM   22  C   UNL     1     -11.031  11.249  66.618  1.00  0.00    -0.326 C  
HETATM   23  C   UNL     1     -10.724  11.736  67.829  1.00  0.00    -0.244 C  
BRANCH  23  24
HETATM   24  C   UNL     1      -9.529  12.567  68.188  1.00  0.00    -0.214 C  
BRANCH  24  25
HETATM   25  C   UNL     1      -9.874  14.048  68.360  1.00  0.00    -0.232 C  
BRANCH  25  26
HETATM   26  C   UNL     1      -9.512  14.900  67.141  1.00  0.00    -0.231 C  
HETATM   27  C   UNL     1     -10.745  15.295  66.357  1.00  0.00    -0.318 C  
HETATM   28  O   UNL     1     -11.889  14.989  66.633  1.00  0.00    -0.229 OA 
HETATM   29  O   UNL     1     -10.439  16.060  65.281  1.00  0.00    -0.447 OA 
ENDBRANCH  25  26
ENDBRANCH  24  25
ENDBRANCH  23  24
ENDBRANCH  21  22
ENDBRANCH  19  21
ENDBRANCH  11  12
ENDBRANCH  10  11
ENDBRANCH   8  10
ENDBRANCH   7   8
ENDBRANCH   6   7
ENDBRANCH   5   6
ENDBRANCH   4   5
ENDBRANCH   3   4
ENDBRANCH   2   3
TORSDOF 14
ENDMDL
MODEL      291
REMARK 921   NORMALIZED FREE ENERGY PREDICTED BY IDOCK:   -3.21 KCAL/MOL
REMARK 922        TOTAL FREE ENERGY PREDICTED BY IDOCK:   -8.80 KCAL/MOL
REMARK 923 INTER-LIGAND FREE ENERGY PREDICTED BY IDOCK:   -7.54 KCAL/MOL
REMARK 924 INTRA-LIGAND FREE ENERGY PREDICTED BY IDOCK:   -1.25 KCAL/MOL
REMARK 927      BINDING AFFINITY PREDICTED BY RF-SCORE:    0.00 PKD
ROOT
HETATM    1  C   UNL     1     -10.726  19.503  65.867  1.00  0.00    -0.518 C  
HETATM    2  C   UNL     1      -9.410  20.062  66.378  1.00  0.00    -0.481 C  
ENDROOT
BRANCH   2   3
HETATM    3  C   UNL     1      -9.173  19.714  67.849  1.00  0.00    -0.410 C  
BRANCH   3   4
HETATM    4  C   UNL     1      -9.316  18.208  68.064  1.00  0.00    -0.289 C  
BRANCH   4   5
HETATM    5  C   UNL     1      -7.999  17.533  68.454  1.00  0.00    -0.261 C  
BRANCH   5   6
HETATM    6  C   UNL     1      -8.281  16.144  69.038  1.00  0.00    -0.244 C  
BRANCH   6   7
HETATM    7  C   UNL     1      -7.008  15.339  69.258  1.00  0.00    -0.166 C  
BRANCH   7   8
HETATM    8  C   UNL     1      -6.605  14.529  68.024  1.00  0.00    -0.148 C  
HETATM    9  O   UNL     1      -5.603  14.781  67.359  1.00  0.00    -0.341 OA 
BRANCH   8  10
HETATM   10  C   UNL     1      -7.526  13.369  67.703  1.00  0.00    -0.182 C  
BRANCH  10  11
HETATM   11  C   UNL     1      -6.878  12.051  67.254  1.00  0.00    -0.150 C  
BRANCH  11  12
HETATM   12  C   UNL     1      -7.810  10.847  67.558  1.00  0.00    -0.114 C  
HETATM   13  C   UNL     1      -8.155  10.765  69.054  1.00  0.00    -0.140 C  
HETATM   14  O   UNL     1      -7.119  10.178  69.825  1.00  0.00    -0.092 OA 
HETATM   15  C   UNL     1      -9.376   9.884  69.099  1.00  0.00    -0.197 C  
HETATM   16  H   UNL     1      -7.333  10.127  70.749  1.00  0.00     0.000 HD 
HETATM   17  C   UNL     1     -10.206  10.346  67.918  1.00  0.00    -0.179 C  
HETATM   18  O   UNL     1     -11.014   9.261  67.503  1.00  0.00    -0.457 OA 
HETATM   19  C   UNL     1      -9.202  10.875  66.851  1.00  0.00    -0.175 C  
HETATM   20  H   UNL     1     -11.535   9.550  66.762  1.00  0.00     0.000 HD 
BRANCH  19  21
HETATM   21  C   UNL     1      -9.200  10.110  65.512  1.00  0.00    -0.237 C  
BRANCH  21  22
HETATM   22  C   UNL     1     -10.226  10.592  64.518  1.00  0.00    -0.399 C  
HETATM   23  C   UNL     1     -10.873  11.766  64.484  1.00  0.00    -0.377 C  
BRANCH  23  24
HETATM   24  C   UNL     1     -10.764  12.882  65.478  1.00  0.00    -0.301 C  
BRANCH  24  25
HETATM   25  C   UNL     1     -12.110  13.229  66.119  1.00  0.00    -0.477 C  
BRANCH  25  26
HETATM   26  C   UNL     1     -12.135  14.619  66.760  1.00  0.00    -0.223 C  
HETATM   27  C   UNL     1     -12.024  14.535  68.267  1.00  0.00    -0.268 C  
HETATM   28  O   UNL     1     -11.929  13.510  68.915  1.00  0.00    -0.336 OA 
HETATM   29  O   UNL     1     -12.034  15.759  68.846  1.00  0.00    -0.382 OA 
ENDBRANCH  25  26
ENDBRANCH  24  25
ENDBRANCH  23  24
ENDBRANCH  21  22
ENDBRANCH  19  21
ENDBRANCH  11  12
ENDBRANCH  10  11
ENDBRANCH   8  10
ENDBRANCH   7   8
ENDBRANCH   6   7
ENDBRANCH   5   6
ENDBRANCH   4   5
ENDBRANCH   3   4
ENDBRANCH   2   3
TORSDOF 14
ENDMDL
MODEL      292
REMARK 921   NORMALIZED FREE ENERGY PREDICTED BY IDOCK:   -3.21 KCAL/MOL
REMARK 922        TOTAL FREE ENERGY PREDICTED BY IDOCK:   -8.79 KCAL/MOL
REMARK 923 INTER-LIGAND FREE ENERGY PREDICTED BY IDOCK:   -6.74 KCAL/MOL
REMARK 924 INTRA-LIGAND FREE ENERGY PREDICTED BY IDOCK:   -2.04 KCAL/MOL
REMARK 927      BINDING AFFINITY PREDICTED BY RF-SCORE:    0.00 PKD
ROOT
HETATM    1  C   UNL     1      -7.323   4.395  71.090  1.00  0.00    -0.048 C  
HETATM    2  C   UNL     1      -8.635   4.681  71.798  1.00  0.00    -0.129 C  
ENDROOT
BRANCH   2   3
HETATM    3  C   UNL     1      -9.479   5.711  71.044  1.00  0.00    -0.200 C  
BRANCH   3   4
HETATM    4  C   UNL     1     -10.751   6.027  71.831  1.00  0.00    -0.282 C  
BRANCH   4   5
HETATM    5  C   UNL     1     -10.664   7.345  72.603  1.00  0.00    -0.334 C  
BRANCH   5   6
HETATM    6  C   UNL     1     -11.962   8.140  72.421  1.00  0.00    -0.431 C  
BRANCH   6   7
HETATM    7  C   UNL     1     -12.162   8.604  70.985  1.00  0.00    -0.207 C  
BRANCH   7   8
HETATM    8  C   UNL     1     -12.152  10.128  70.854  1.00  0.00    -0.356 C  
HETATM    9  O   UNL     1     -12.907  10.857  71.493  1.00  0.00    -0.411 OA 
BRANCH   8  10
HETATM   10  C   UNL     1     -11.115  10.672  69.892  1.00  0.00    -0.364 C  
BRANCH  10  11
HETATM   11  C   UNL     1      -9.749   9.969  69.849  1.00  0.00    -0.245 C  
BRANCH  11  12
HETATM   12  C   UNL     1      -9.234   9.855  68.390  1.00  0.00    -0.130 C  
HETATM   13  C   UNL     1      -9.779   8.596  67.695  1.00  0.00    -0.159 C  
HETATM   14  O   UNL     1      -9.070   7.421  68.053  1.00  0.00    -0.131 OA 
HETATM   15  C   UNL     1      -9.583   8.875  66.228  1.00  0.00    -0.328 C  
HETATM   16  H   UNL     1      -9.407   6.644  67.624  1.00  0.00     0.000 HD 
HETATM   17  C   UNL     1      -9.969  10.332  66.075  1.00  0.00    -0.245 C  
HETATM   18  O   UNL     1      -9.277  10.851  64.955  1.00  0.00    -0.199 OA 
HETATM   19  C   UNL     1      -9.646  11.021  67.435  1.00  0.00    -0.180 C  
HETATM   20  H   UNL     1      -9.518  11.765  64.859  1.00  0.00     0.000 HD 
BRANCH  19  21
HETATM   21  C   UNL     1      -8.584  12.137  67.373  1.00  0.00    -0.175 C  
BRANCH  21  22
HETATM   22  C   UNL     1      -8.769  13.230  68.395  1.00  0.00    -0.126 C  
HETATM   23  C   UNL     1      -9.812  14.056  68.559  1.00  0.00    -0.225 C  
BRANCH  23  24
HETATM   24  C   UNL     1     -11.047  14.124  67.712  1.00  0.00    -0.292 C  
BRANCH  24  25
HETATM   25  C   UNL     1     -12.248  14.693  68.471  1.00  0.00    -0.135 C  
BRANCH  25  26
HETATM   26  C   UNL     1     -12.376  14.151  69.896  1.00  0.00    -0.382 C  
HETATM   27  C   UNL     1     -12.001  15.198  70.922  1.00  0.00    -0.328 C  
HETATM   28  O   UNL     1     -11.638  16.333  70.677  1.00  0.00    -0.359 OA 
HETATM   29  O   UNL     1     -12.121  14.734  72.189  1.00  0.00    -0.344 OA 
ENDBRANCH  25  26
ENDBRANCH  24  25
ENDBRANCH  23  24
ENDBRANCH  21  22
ENDBRANCH  19  21
ENDBRANCH  11  12
ENDBRANCH  10  11
ENDBRANCH   8  10
ENDBRANCH   7   8
ENDBRANCH   6   7
ENDBRANCH   5   6
ENDBRANCH   4   5
ENDBRANCH   3   4
ENDBRANCH   2   3
TORSDOF 14
ENDMDL
MODEL      293
REMARK 921   NORMALIZED FREE ENERGY PREDICTED BY IDOCK:   -3.21 KCAL/MOL
REMARK 922        TOTAL FREE ENERGY PREDICTED BY IDOCK:   -8.79 KCAL/MOL
REMARK 923 INTER-LIGAND FREE ENERGY PREDICTED BY IDOCK:   -6.62 KCAL/MOL
REMARK 924 INTRA-LIGAND FREE ENERGY PREDICTED BY IDOCK:   -2.17 KCAL/MOL
REMARK 927      BINDING AFFINITY PREDICTED BY RF-SCORE:    0.00 PKD
ROOT
HETATM    1  C   UNL     1      -5.921   7.880  66.615  1.00  0.00    -0.045 C  
HETATM    2  C   UNL     1      -6.984   8.798  66.039  1.00  0.00    -0.080 C  
ENDROOT
BRANCH   2   3
HETATM    3  C   UNL     1      -7.855   8.086  65.002  1.00  0.00    -0.123 C  
BRANCH   3   4
HETATM    4  C   UNL     1      -8.004   8.954  63.753  1.00  0.00    -0.154 C  
BRANCH   4   5
HETATM    5  C   UNL     1      -8.463  10.379  64.068  1.00  0.00    -0.160 C  
BRANCH   5   6
HETATM    6  C   UNL     1      -9.981  10.488  63.882  1.00  0.00    -0.348 C  
BRANCH   6   7
HETATM    7  C   UNL     1     -10.382  11.729  63.099  1.00  0.00    -0.364 C  
BRANCH   7   8
HETATM    8  C   UNL     1     -11.246  12.688  63.921  1.00  0.00    -0.442 C  
HETATM    9  O   UNL     1     -11.415  13.865  63.611  1.00  0.00    -0.022 OA 
BRANCH   8  10
HETATM   10  C   UNL     1     -11.904  12.062  65.133  1.00  0.00    -0.278 C  
BRANCH  10  11
HETATM   11  C   UNL     1     -12.029  12.924  66.398  1.00  0.00    -0.462 C  
BRANCH  11  12
HETATM   12  C   UNL     1     -11.005  12.477  67.474  1.00  0.00    -0.288 C  
HETATM   13  C   UNL     1     -11.256  11.029  67.925  1.00  0.00    -0.310 C  
HETATM   14  O   UNL     1     -12.312  10.922  68.866  1.00  0.00    -0.752 OA 
HETATM   15  C   UNL     1      -9.960  10.619  68.575  1.00  0.00    -0.176 C  
HETATM   16  H   UNL     1     -12.467  10.028  69.144  1.00  0.00     0.000 HD 
HETATM   17  C   UNL     1      -8.894  11.200  67.669  1.00  0.00    -0.136 C  
HETATM   18  O   UNL     1      -7.731  11.415  68.446  1.00  0.00    -0.112 OA 
HETATM   19  C   UNL     1      -9.508  12.478  67.023  1.00  0.00    -0.217 C  
HETATM   20  H   UNL     1      -7.062  11.779  67.879  1.00  0.00     0.000 HD 
BRANCH  19  21
HETATM   21  C   UNL     1      -8.790  13.799  67.364  1.00  0.00    -0.211 C  
BRANCH  21  22
HETATM   22  C   UNL     1      -9.184  14.964  66.491  1.00  0.00    -0.314 C  
HETATM   23  C   UNL     1      -9.208  16.269  66.797  1.00  0.00    -0.253 C  
BRANCH  23  24
HETATM   24  C   UNL     1      -8.891  16.888  68.125  1.00  0.00    -0.223 C  
BRANCH  24  25
HETATM   25  C   UNL     1      -7.455  17.412  68.199  1.00  0.00    -0.208 C  
BRANCH  25  26
HETATM   26  C   UNL     1      -7.038  18.213  66.964  1.00  0.00    -0.217 C  
HETATM   27  C   UNL     1      -5.863  17.571  66.259  1.00  0.00    -0.209 C  
HETATM   28  O   UNL     1      -5.300  16.550  66.605  1.00  0.00    -0.353 OA 
HETATM   29  O   UNL     1      -5.491  18.265  65.156  1.00  0.00    -0.165 OA 
ENDBRANCH  25  26
ENDBRANCH  24  25
ENDBRANCH  23  24
ENDBRANCH  21  22
ENDBRANCH  19  21
ENDBRANCH  11  12
ENDBRANCH  10  11
ENDBRANCH   8  10
ENDBRANCH   7   8
ENDBRANCH   6   7
ENDBRANCH   5   6
ENDBRANCH   4   5
ENDBRANCH   3   4
ENDBRANCH   2   3
TORSDOF 14
ENDMDL
MODEL      294
REMARK 921   NORMALIZED FREE ENERGY PREDICTED BY IDOCK:   -3.20 KCAL/MOL
REMARK 922        TOTAL FREE ENERGY PREDICTED BY IDOCK:   -8.78 KCAL/MOL
REMARK 923 INTER-LIGAND FREE ENERGY PREDICTED BY IDOCK:   -6.19 KCAL/MOL
REMARK 924 INTRA-LIGAND FREE ENERGY PREDICTED BY IDOCK:   -2.58 KCAL/MOL
REMARK 927      BINDING AFFINITY PREDICTED BY RF-SCORE:    0.00 PKD
ROOT
HETATM    1  C   UNL     1      -5.139   9.520  66.513  1.00  0.00    -0.039 C  
HETATM    2  C   UNL     1      -5.694  10.700  67.290  1.00  0.00    -0.045 C  
ENDROOT
BRANCH   2   3
HETATM    3  C   UNL     1      -6.753  10.269  68.308  1.00  0.00    -0.057 C  
BRANCH   3   4
HETATM    4  C   UNL     1      -6.090   9.905  69.636  1.00  0.00    -0.042 C  
BRANCH   4   5
HETATM    5  C   UNL     1      -6.875   8.858  70.428  1.00  0.00    -0.049 C  
BRANCH   5   6
HETATM    6  C   UNL     1      -6.666   7.472  69.806  1.00  0.00    -0.043 C  
BRANCH   6   7
HETATM    7  C   UNL     1      -7.976   6.720  69.614  1.00  0.00    -0.124 C  
BRANCH   7   8
HETATM    8  C   UNL     1      -8.596   6.965  68.237  1.00  0.00    -0.125 C  
HETATM    9  O   UNL     1      -7.979   6.796  67.188  1.00  0.00    -0.113 OA 
BRANCH   8  10
HETATM   10  C   UNL     1     -10.046   7.406  68.268  1.00  0.00    -0.201 C  
BRANCH  10  11
HETATM   11  C   UNL     1     -10.626   8.032  66.991  1.00  0.00    -0.364 C  
BRANCH  11  12
HETATM   12  C   UNL     1     -10.057   9.459  66.770  1.00  0.00    -0.325 C  
HETATM   13  C   UNL     1      -9.403   9.598  65.386  1.00  0.00    -0.259 C  
HETATM   14  O   UNL     1      -8.094   9.054  65.341  1.00  0.00    -0.109 OA 
HETATM   15  C   UNL     1      -9.337  11.086  65.161  1.00  0.00    -0.249 C  
HETATM   16  H   UNL     1      -7.689   9.139  64.486  1.00  0.00     0.000 HD 
HETATM   17  C   UNL     1     -10.666  11.596  65.679  1.00  0.00    -0.278 C  
HETATM   18  O   UNL     1     -10.490  12.941  66.080  1.00  0.00    -0.267 OA 
HETATM   19  C   UNL     1     -11.106  10.617  66.809  1.00  0.00    -0.103 C  
HETATM   20  H   UNL     1     -11.324  13.262  66.405  1.00  0.00     0.000 HD 
BRANCH  19  21
HETATM   21  C   UNL     1     -11.240  11.245  68.210  1.00  0.00    -0.331 C  
BRANCH  21  22
HETATM   22  C   UNL     1     -10.220  10.760  69.210  1.00  0.00    -0.217 C  
HETATM   23  C   UNL     1     -10.420  10.088  70.352  1.00  0.00    -0.304 C  
BRANCH  23  24
HETATM   24  C   UNL     1     -11.740   9.696  70.945  1.00  0.00    -0.412 C  
BRANCH  24  25
HETATM   25  C   UNL     1     -12.828  10.743  70.699  1.00  0.00    -0.377 C  
BRANCH  25  26
HETATM   26  C   UNL     1     -13.239  11.498  71.965  1.00  0.00    -0.443 C  
HETATM   27  C   UNL     1     -13.141  12.996  71.773  1.00  0.00    -0.373 C  
HETATM   28  O   UNL     1     -12.782  13.558  70.756  1.00  0.00    -0.304 OA 
HETATM   29  O   UNL     1     -13.513  13.676  72.884  1.00  0.00    -0.639 OA 
ENDBRANCH  25  26
ENDBRANCH  24  25
ENDBRANCH  23  24
ENDBRANCH  21  22
ENDBRANCH  19  21
ENDBRANCH  11  12
ENDBRANCH  10  11
ENDBRANCH   8  10
ENDBRANCH   7   8
ENDBRANCH   6   7
ENDBRANCH   5   6
ENDBRANCH   4   5
ENDBRANCH   3   4
ENDBRANCH   2   3
TORSDOF 14
ENDMDL
MODEL      295
REMARK 921   NORMALIZED FREE ENERGY PREDICTED BY IDOCK:   -3.20 KCAL/MOL
REMARK 922        TOTAL FREE ENERGY PREDICTED BY IDOCK:   -8.77 KCAL/MOL
REMARK 923 INTER-LIGAND FREE ENERGY PREDICTED BY IDOCK:   -7.15 KCAL/MOL
REMARK 924 INTRA-LIGAND FREE ENERGY PREDICTED BY IDOCK:   -1.61 KCAL/MOL
REMARK 927      BINDING AFFINITY PREDICTED BY RF-SCORE:    0.00 PKD
ROOT
HETATM    1  C   UNL     1      -9.985   7.207  70.990  1.00  0.00    -0.192 C  
HETATM    2  C   UNL     1      -9.523   8.589  70.565  1.00  0.00    -0.193 C  
ENDROOT
BRANCH   2   3
HETATM    3  C   UNL     1      -9.905   8.900  69.116  1.00  0.00    -0.180 C  
BRANCH   3   4
HETATM    4  C   UNL     1     -10.709  10.198  69.050  1.00  0.00    -0.249 C  
BRANCH   4   5
HETATM    5  C   UNL     1     -11.010  10.642  67.617  1.00  0.00    -0.370 C  
BRANCH   5   6
HETATM    6  C   UNL     1     -10.606   9.535  66.636  1.00  0.00    -0.174 C  
BRANCH   6   7
HETATM    7  C   UNL     1      -9.538   9.994  65.653  1.00  0.00    -0.313 C  
BRANCH   7   8
HETATM    8  C   UNL     1     -10.053  11.058  64.681  1.00  0.00    -0.311 C  
HETATM    9  O   UNL     1     -10.797  10.797  63.740  1.00  0.00    -0.141 OA 
BRANCH   8  10
HETATM   10  C   UNL     1      -9.595  12.469  64.992  1.00  0.00     0.098 C  
BRANCH  10  11
HETATM   11  C   UNL     1     -10.523  13.623  64.584  1.00  0.00    -0.442 C  
BRANCH  11  12
HETATM   12  C   UNL     1     -10.981  14.429  65.828  1.00  0.00    -0.314 C  
HETATM   13  C   UNL     1     -12.229  13.808  66.476  1.00  0.00    -0.430 C  
HETATM   14  O   UNL     1     -13.426  14.148  65.797  1.00  0.00    -0.670 OA 
HETATM   15  C   UNL     1     -12.252  14.397  67.862  1.00  0.00    -0.178 C  
HETATM   16  H   UNL     1     -14.197  13.764  66.197  1.00  0.00     0.000 HD 
HETATM   17  C   UNL     1     -10.800  14.375  68.296  1.00  0.00    -0.242 C  
HETATM   18  O   UNL     1     -10.615  15.403  69.249  1.00  0.00    -0.226 OA 
HETATM   19  C   UNL     1      -9.948  14.509  66.998  1.00  0.00    -0.255 C  
HETATM   20  H   UNL     1      -9.704  15.390  69.522  1.00  0.00     0.000 HD 
BRANCH  19  21
HETATM   21  C   UNL     1      -9.062  15.768  66.919  1.00  0.00    -0.259 C  
BRANCH  21  22
HETATM   22  C   UNL     1      -9.821  17.050  66.685  1.00  0.00    -0.297 C  
HETATM   23  C   UNL     1      -9.352  18.239  66.280  1.00  0.00    -0.223 C  
BRANCH  23  24
HETATM   24  C   UNL     1      -7.922  18.597  66.008  1.00  0.00    -0.157 C  
BRANCH  24  25
HETATM   25  C   UNL     1      -7.551  19.979  66.549  1.00  0.00    -0.315 C  
BRANCH  25  26
HETATM   26  C   UNL     1      -6.464  19.936  67.626  1.00  0.00    -0.252 C  
HETATM   27  C   UNL     1      -7.057  19.713  69.000  1.00  0.00    -0.352 C  
HETATM   28  O   UNL     1      -8.240  19.584  69.250  1.00  0.00    -0.248 OA 
HETATM   29  O   UNL     1      -6.104  19.662  69.962  1.00  0.00    -0.270 OA 
ENDBRANCH  25  26
ENDBRANCH  24  25
ENDBRANCH  23  24
ENDBRANCH  21  22
ENDBRANCH  19  21
ENDBRANCH  11  12
ENDBRANCH  10  11
ENDBRANCH   8  10
ENDBRANCH   7   8
ENDBRANCH   6   7
ENDBRANCH   5   6
ENDBRANCH   4   5
ENDBRANCH   3   4
ENDBRANCH   2   3
TORSDOF 14
ENDMDL
MODEL      296
REMARK 921   NORMALIZED FREE ENERGY PREDICTED BY IDOCK:   -3.19 KCAL/MOL
REMARK 922        TOTAL FREE ENERGY PREDICTED BY IDOCK:   -8.75 KCAL/MOL
REMARK 923 INTER-LIGAND FREE ENERGY PREDICTED BY IDOCK:   -6.36 KCAL/MOL
REMARK 924 INTRA-LIGAND FREE ENERGY PREDICTED BY IDOCK:   -2.40 KCAL/MOL
REMARK 927      BINDING AFFINITY PREDICTED BY RF-SCORE:    0.00 PKD
ROOT
HETATM    1  C   UNL     1     -13.029  11.073  71.688  1.00  0.00    -0.561 C  
HETATM    2  C   UNL     1     -12.311   9.753  71.474  1.00  0.00    -0.495 C  
ENDROOT
BRANCH   2   3
HETATM    3  C   UNL     1     -10.938   9.946  70.826  1.00  0.00    -0.407 C  
BRANCH   3   4
HETATM    4  C   UNL     1     -10.899   9.260  69.461  1.00  0.00    -0.211 C  
BRANCH   4   5
HETATM    5  C   UNL     1     -10.730  10.244  68.302  1.00  0.00    -0.276 C  
BRANCH   5   6
HETATM    6  C   UNL     1     -10.436   9.477  67.007  1.00  0.00    -0.302 C  
BRANCH   6   7
HETATM    7  C   UNL     1      -8.999   9.658  66.540  1.00  0.00    -0.171 C  
BRANCH   7   8
HETATM    8  C   UNL     1      -7.995   8.921  67.429  1.00  0.00    -0.101 C  
HETATM    9  O   UNL     1      -7.309   9.491  68.273  1.00  0.00    -0.076 OA 
BRANCH   8  10
HETATM   10  C   UNL     1      -7.938   7.423  67.207  1.00  0.00    -0.115 C  
BRANCH  10  11
HETATM   11  C   UNL     1      -8.553   6.521  68.288  1.00  0.00    -0.115 C  
BRANCH  11  12
HETATM   12  C   UNL     1      -9.409   5.397  67.646  1.00  0.00    -0.122 C  
HETATM   13  C   UNL     1     -10.363   5.956  66.577  1.00  0.00    -0.179 C  
HETATM   14  O   UNL     1     -11.527   6.544  67.135  1.00  0.00    -0.768 OA 
HETATM   15  C   UNL     1     -10.751   4.747  65.767  1.00  0.00    -0.220 C  
HETATM   16  H   UNL     1     -12.117   6.889  66.475  1.00  0.00     0.000 HD 
HETATM   17  C   UNL     1      -9.459   3.968  65.626  1.00  0.00    -0.176 C  
HETATM   18  O   UNL     1      -9.788   2.604  65.445  1.00  0.00    -0.358 OA 
HETATM   19  C   UNL     1      -8.610   4.285  66.893  1.00  0.00    -0.108 C  
HETATM   20  H   UNL     1      -8.978   2.116  65.357  1.00  0.00     0.000 HD 
BRANCH  19  21
HETATM   21  C   UNL     1      -8.293   3.074  67.794  1.00  0.00    -0.093 C  
BRANCH  21  22
HETATM   22  C   UNL     1      -9.394   2.711  68.759  1.00  0.00    -0.230 C  
HETATM   23  C   UNL     1      -9.383   2.758  70.099  1.00  0.00    -0.199 C  
BRANCH  23  24
HETATM   24  C   UNL     1      -8.230   3.143  70.976  1.00  0.00    -0.078 C  
BRANCH  24  25
HETATM   25  C   UNL     1      -8.634   4.124  72.079  1.00  0.00    -0.116 C  
BRANCH  25  26
HETATM   26  C   UNL     1     -10.108   4.532  72.017  1.00  0.00    -0.264 C  
HETATM   27  C   UNL     1     -10.275   6.027  72.178  1.00  0.00    -0.192 C  
HETATM   28  O   UNL     1      -9.374   6.828  72.340  1.00  0.00    -0.139 OA 
HETATM   29  O   UNL     1     -11.575   6.403  72.114  1.00  0.00    -0.286 OA 
ENDBRANCH  25  26
ENDBRANCH  24  25
ENDBRANCH  23  24
ENDBRANCH  21  22
ENDBRANCH  19  21
ENDBRANCH  11  12
ENDBRANCH  10  11
ENDBRANCH   8  10
ENDBRANCH   7   8
ENDBRANCH   6   7
ENDBRANCH   5   6
ENDBRANCH   4   5
ENDBRANCH   3   4
ENDBRANCH   2   3
TORSDOF 14
ENDMDL
MODEL      297
REMARK 921   NORMALIZED FREE ENERGY PREDICTED BY IDOCK:   -3.19 KCAL/MOL
REMARK 922        TOTAL FREE ENERGY PREDICTED BY IDOCK:   -8.75 KCAL/MOL
REMARK 923 INTER-LIGAND FREE ENERGY PREDICTED BY IDOCK:   -6.80 KCAL/MOL
REMARK 924 INTRA-LIGAND FREE ENERGY PREDICTED BY IDOCK:   -1.96 KCAL/MOL
REMARK 927      BINDING AFFINITY PREDICTED BY RF-SCORE:    0.00 PKD
ROOT
HETATM    1  C   UNL     1     -10.582  19.795  66.527  1.00  0.00    -0.580 C  
HETATM    2  C   UNL     1      -9.110  19.894  66.883  1.00  0.00    -0.452 C  
ENDROOT
BRANCH   2   3
HETATM    3  C   UNL     1      -8.794  19.202  68.211  1.00  0.00    -0.377 C  
BRANCH   3   4
HETATM    4  C   UNL     1      -9.194  17.728  68.146  1.00  0.00    -0.277 C  
BRANCH   4   5
HETATM    5  C   UNL     1      -8.021  16.780  68.403  1.00  0.00    -0.224 C  
BRANCH   5   6
HETATM    6  C   UNL     1      -8.499  15.326  68.307  1.00  0.00    -0.154 C  
BRANCH   6   7
HETATM    7  C   UNL     1      -7.483  14.344  68.872  1.00  0.00    -0.132 C  
BRANCH   7   8
HETATM    8  C   UNL     1      -6.518  13.820  67.806  1.00  0.00    -0.170 C  
HETATM    9  O   UNL     1      -5.622  14.508  67.322  1.00  0.00    -0.289 OA 
BRANCH   8  10
HETATM   10  C   UNL     1      -6.736  12.372  67.415  1.00  0.00    -0.152 C  
BRANCH  10  11
HETATM   11  C   UNL     1      -8.170  11.934  67.086  1.00  0.00    -0.171 C  
BRANCH  11  12
HETATM   12  C   UNL     1      -8.189  10.493  66.510  1.00  0.00    -0.133 C  
HETATM   13  C   UNL     1      -7.529  10.431  65.123  1.00  0.00    -0.093 C  
HETATM   14  O   UNL     1      -8.391  10.871  64.086  1.00  0.00    -0.368 OA 
HETATM   15  C   UNL     1      -7.219   8.969  64.932  1.00  0.00    -0.095 C  
HETATM   16  H   UNL     1      -7.983  10.832  63.229  1.00  0.00     0.000 HD 
HETATM   17  C   UNL     1      -6.710   8.520  66.287  1.00  0.00    -0.069 C  
HETATM   18  O   UNL     1      -6.964   7.134  66.411  1.00  0.00    -0.065 OA 
HETATM   19  C   UNL     1      -7.413   9.423  67.345  1.00  0.00    -0.091 C  
HETATM   20  H   UNL     1      -6.646   6.852  67.261  1.00  0.00     0.000 HD 
BRANCH  19  21
HETATM   21  C   UNL     1      -8.323   8.681  68.344  1.00  0.00    -0.127 C  
BRANCH  21  22
HETATM   22  C   UNL     1      -9.783   8.672  67.968  1.00  0.00    -0.184 C  
HETATM   23  C   UNL     1     -10.767   9.467  68.412  1.00  0.00    -0.230 C  
BRANCH  23  24
HETATM   24  C   UNL     1     -10.656  10.544  69.448  1.00  0.00    -0.269 C  
BRANCH  24  25
HETATM   25  C   UNL     1     -11.870  11.476  69.459  1.00  0.00    -0.419 C  
BRANCH  25  26
HETATM   26  C   UNL     1     -11.548  12.897  68.992  1.00  0.00    -0.372 C  
HETATM   27  C   UNL     1     -11.744  13.045  67.499  1.00  0.00    -0.370 C  
HETATM   28  O   UNL     1     -12.107  12.167  66.740  1.00  0.00    -0.609 OA 
HETATM   29  O   UNL     1     -11.472  14.303  67.073  1.00  0.00    -0.328 OA 
ENDBRANCH  25  26
ENDBRANCH  24  25
ENDBRANCH  23  24
ENDBRANCH  21  22
ENDBRANCH  19  21
ENDBRANCH  11  12
ENDBRANCH  10  11
ENDBRANCH   8  10
ENDBRANCH   7   8
ENDBRANCH   6   7
ENDBRANCH   5   6
ENDBRANCH   4   5
ENDBRANCH   3   4
ENDBRANCH   2   3
TORSDOF 14
ENDMDL
MODEL      298
REMARK 921   NORMALIZED FREE ENERGY PREDICTED BY IDOCK:   -3.18 KCAL/MOL
REMARK 922        TOTAL FREE ENERGY PREDICTED BY IDOCK:   -8.73 KCAL/MOL
REMARK 923 INTER-LIGAND FREE ENERGY PREDICTED BY IDOCK:   -6.96 KCAL/MOL
REMARK 924 INTRA-LIGAND FREE ENERGY PREDICTED BY IDOCK:   -1.77 KCAL/MOL
REMARK 927      BINDING AFFINITY PREDICTED BY RF-SCORE:    0.00 PKD
ROOT
HETATM    1  C   UNL     1      -8.191   6.425  74.358  1.00  0.00    -0.131 C  
HETATM    2  C   UNL     1      -7.814   7.210  73.115  1.00  0.00    -0.110 C  
ENDROOT
BRANCH   2   3
HETATM    3  C   UNL     1      -8.875   8.252  72.752  1.00  0.00    -0.310 C  
BRANCH   3   4
HETATM    4  C   UNL     1     -10.235   7.836  73.311  1.00  0.00    -0.367 C  
BRANCH   4   5
HETATM    5  C   UNL     1     -11.336   7.814  72.248  1.00  0.00    -0.374 C  
BRANCH   5   6
HETATM    6  C   UNL     1     -12.433   8.819  72.617  1.00  0.00    -0.270 C  
BRANCH   6   7
HETATM    7  C   UNL     1     -13.240   9.266  71.406  1.00  0.00    -0.390 C  
BRANCH   7   8
HETATM    8  C   UNL     1     -12.841  10.660  70.917  1.00  0.00    -0.382 C  
HETATM    9  O   UNL     1     -13.145  11.689  71.515  1.00  0.00    -0.412 OA 
BRANCH   8  10
HETATM   10  C   UNL     1     -12.013  10.669  69.647  1.00  0.00    -0.340 C  
BRANCH  10  11
HETATM   11  C   UNL     1     -10.486  10.594  69.795  1.00  0.00    -0.189 C  
BRANCH  11  12
HETATM   12  C   UNL     1      -9.808  10.395  68.414  1.00  0.00    -0.173 C  
HETATM   13  C   UNL     1      -9.325   8.948  68.225  1.00  0.00    -0.143 C  
HETATM   14  O   UNL     1      -8.095   8.690  68.883  1.00  0.00    -0.114 OA 
HETATM   15  C   UNL     1      -9.136   8.818  66.737  1.00  0.00    -0.180 C  
HETATM   16  H   UNL     1      -7.797   7.796  68.766  1.00  0.00     0.000 HD 
HETATM   17  C   UNL     1     -10.328   9.545  66.149  1.00  0.00    -0.118 C  
HETATM   18  O   UNL     1      -9.966  10.008  64.862  1.00  0.00    -0.325 OA 
HETATM   19  C   UNL     1     -10.718  10.655  67.171  1.00  0.00    -0.327 C  
HETATM   20  H   UNL     1     -10.713  10.464  64.493  1.00  0.00     0.000 HD 
BRANCH  19  21
HETATM   21  C   UNL     1     -10.606  12.101  66.648  1.00  0.00    -0.266 C  
BRANCH  21  22
HETATM   22  C   UNL     1      -9.374  12.836  67.111  1.00  0.00    -0.216 C  
HETATM   23  C   UNL     1      -8.915  14.033  66.718  1.00  0.00    -0.217 C  
BRANCH  23  24
HETATM   24  C   UNL     1      -9.505  14.920  65.664  1.00  0.00    -0.152 C  
BRANCH  24  25
HETATM   25  C   UNL     1     -10.368  16.038  66.254  1.00  0.00    -0.330 C  
BRANCH  25  26
HETATM   26  C   UNL     1      -9.572  17.297  66.605  1.00  0.00    -0.286 C  
HETATM   27  C   UNL     1      -9.425  17.458  68.102  1.00  0.00    -0.288 C  
HETATM   28  O   UNL     1      -9.871  16.702  68.944  1.00  0.00    -0.240 OA 
HETATM   29  O   UNL     1      -8.712  18.563  68.427  1.00  0.00    -0.312 OA 
ENDBRANCH  25  26
ENDBRANCH  24  25
ENDBRANCH  23  24
ENDBRANCH  21  22
ENDBRANCH  19  21
ENDBRANCH  11  12
ENDBRANCH  10  11
ENDBRANCH   8  10
ENDBRANCH   7   8
ENDBRANCH   6   7
ENDBRANCH   5   6
ENDBRANCH   4   5
ENDBRANCH   3   4
ENDBRANCH   2   3
TORSDOF 14
ENDMDL
MODEL      299
REMARK 921   NORMALIZED FREE ENERGY PREDICTED BY IDOCK:   -3.16 KCAL/MOL
REMARK 922        TOTAL FREE ENERGY PREDICTED BY IDOCK:   -8.70 KCAL/MOL
REMARK 923 INTER-LIGAND FREE ENERGY PREDICTED BY IDOCK:   -6.90 KCAL/MOL
REMARK 924 INTRA-LIGAND FREE ENERGY PREDICTED BY IDOCK:   -1.80 KCAL/MOL
REMARK 927      BINDING AFFINITY PREDICTED BY RF-SCORE:    0.00 PKD
ROOT
HETATM    1  C   UNL     1     -10.068   8.928  70.376  1.00  0.00    -0.232 C  
HETATM    2  C   UNL     1      -9.224   7.774  69.866  1.00  0.00    -0.146 C  
ENDROOT
BRANCH   2   3
HETATM    3  C   UNL     1      -9.749   7.224  68.537  1.00  0.00    -0.149 C  
BRANCH   3   4
HETATM    4  C   UNL     1      -8.834   7.653  67.391  1.00  0.00    -0.124 C  
BRANCH   4   5
HETATM    5  C   UNL     1      -7.968   8.865  67.740  1.00  0.00    -0.102 C  
BRANCH   5   6
HETATM    6  C   UNL     1      -8.448  10.090  66.954  1.00  0.00    -0.125 C  
BRANCH   6   7
HETATM    7  C   UNL     1      -8.578  11.327  67.832  1.00  0.00    -0.134 C  
BRANCH   7   8
HETATM    8  C   UNL     1     -10.025  11.808  67.958  1.00  0.00    -0.188 C  
HETATM    9  O   UNL     1     -10.990  11.095  67.695  1.00  0.00    -0.230 OA 
BRANCH   8  10
HETATM   10  C   UNL     1     -10.175  13.229  68.464  1.00  0.00    -0.222 C  
BRANCH  10  11
HETATM   11  C   UNL     1      -9.355  14.323  67.763  1.00  0.00    -0.198 C  
BRANCH  11  12
HETATM   12  C   UNL     1     -10.264  15.509  67.343  1.00  0.00    -0.255 C  
HETATM   13  C   UNL     1     -10.081  16.717  68.275  1.00  0.00    -0.274 C  
HETATM   14  O   UNL     1     -10.794  16.583  69.493  1.00  0.00    -0.310 OA 
HETATM   15  C   UNL     1     -10.642  17.873  67.488  1.00  0.00    -0.386 C  
HETATM   16  H   UNL     1     -10.681  17.330  70.069  1.00  0.00     0.000 HD 
HETATM   17  C   UNL     1     -10.148  17.632  66.076  1.00  0.00    -0.254 C  
HETATM   18  O   UNL     1     -11.058  18.247  65.185  1.00  0.00    -0.522 OA 
HETATM   19  C   UNL     1     -10.000  16.089  65.916  1.00  0.00    -0.380 C  
HETATM   20  H   UNL     1     -10.748  18.096  64.299  1.00  0.00     0.000 HD 
BRANCH  19  21
HETATM   21  C   UNL     1     -10.902  15.448  64.842  1.00  0.00    -0.445 C  
BRANCH  21  22
HETATM   22  C   UNL     1     -12.311  15.167  65.300  1.00  0.00     0.246 C  
HETATM   23  C   UNL     1     -12.892  13.983  65.544  1.00  0.00    -0.453 C  
BRANCH  23  24
HETATM   24  C   UNL     1     -12.279  12.627  65.364  1.00  0.00    -0.517 C  
BRANCH  24  25
HETATM   25  C   UNL     1     -12.119  12.245  63.891  1.00  0.00    -0.598 C  
BRANCH  25  26
HETATM   26  C   UNL     1     -10.689  12.415  63.373  1.00  0.00    -0.398 C  
HETATM   27  C   UNL     1      -9.870  11.161  63.590  1.00  0.00    -0.345 C  
HETATM   28  O   UNL     1     -10.268  10.135  64.108  1.00  0.00    -0.124 OA 
HETATM   29  O   UNL     1      -8.605  11.294  63.126  1.00  0.00    -0.036 OA 
ENDBRANCH  25  26
ENDBRANCH  24  25
ENDBRANCH  23  24
ENDBRANCH  21  22
ENDBRANCH  19  21
ENDBRANCH  11  12
ENDBRANCH  10  11
ENDBRANCH   8  10
ENDBRANCH   7   8
ENDBRANCH   6   7
ENDBRANCH   5   6
ENDBRANCH   4   5
ENDBRANCH   3   4
ENDBRANCH   2   3
TORSDOF 14
ENDMDL
MODEL      300
REMARK 921   NORMALIZED FREE ENERGY PREDICTED BY IDOCK:   -3.16 KCAL/MOL
REMARK 922        TOTAL FREE ENERGY PREDICTED BY IDOCK:   -8.70 KCAL/MOL
REMARK 923 INTER-LIGAND FREE ENERGY PREDICTED BY IDOCK:   -6.36 KCAL/MOL
REMARK 924 INTRA-LIGAND FREE ENERGY PREDICTED BY IDOCK:   -2.35 KCAL/MOL
REMARK 927      BINDING AFFINITY PREDICTED BY RF-SCORE:    0.00 PKD
ROOT
HETATM    1  C   UNL     1      -6.313   3.535  70.760  1.00  0.00    -0.023 C  
HETATM    2  C   UNL     1      -7.543   3.228  71.596  1.00  0.00    -0.052 C  
ENDROOT
BRANCH   2   3
HETATM    3  C   UNL     1      -8.692   4.193  71.297  1.00  0.00    -0.134 C  
BRANCH   3   4
HETATM    4  C   UNL     1      -9.790   4.047  72.351  1.00  0.00    -0.220 C  
BRANCH   4   5
HETATM    5  C   UNL     1      -9.919   5.275  73.253  1.00  0.00    -0.185 C  
BRANCH   5   6
HETATM    6  C   UNL     1     -11.354   5.812  73.198  1.00  0.00    -0.190 C  
BRANCH   6   7
HETATM    7  C   UNL     1     -11.755   6.252  71.797  1.00  0.00    -0.355 C  
BRANCH   7   8
HETATM    8  C   UNL     1     -11.988   7.761  71.700  1.00  0.00    -0.297 C  
HETATM    9  O   UNL     1     -12.944   8.323  72.229  1.00  0.00    -0.316 OA 
BRANCH   8  10
HETATM   10  C   UNL     1     -10.927   8.514  70.923  1.00  0.00    -0.292 C  
BRANCH  10  11
HETATM   11  C   UNL     1      -9.657   7.746  70.527  1.00  0.00    -0.167 C  
BRANCH  11  12
HETATM   12  C   UNL     1      -9.548   7.619  68.984  1.00  0.00    -0.151 C  
HETATM   13  C   UNL     1     -10.657   6.721  68.412  1.00  0.00    -0.227 C  
HETATM   14  O   UNL     1     -10.375   5.339  68.560  1.00  0.00    -0.167 OA 
HETATM   15  C   UNL     1     -10.692   7.073  66.948  1.00  0.00    -0.376 C  
HETATM   16  H   UNL     1     -11.060   4.784  68.207  1.00  0.00     0.000 HD 
HETATM   17  C   UNL     1     -10.534   8.579  66.927  1.00  0.00    -0.275 C  
HETATM   18  O   UNL     1      -9.958   8.941  65.687  1.00  0.00    -0.451 OA 
HETATM   19  C   UNL     1      -9.694   8.954  68.185  1.00  0.00    -0.180 C  
HETATM   20  H   UNL     1      -9.858   9.885  65.673  1.00  0.00     0.000 HD 
BRANCH  19  21
HETATM   21  C   UNL     1      -8.335   9.620  67.896  1.00  0.00    -0.117 C  
BRANCH  21  22
HETATM   22  C   UNL     1      -8.170  10.990  68.504  1.00  0.00    -0.146 C  
HETATM   23  C   UNL     1      -8.671  12.160  68.082  1.00  0.00    -0.185 C  
BRANCH  23  24
HETATM   24  C   UNL     1      -9.488  12.396  66.848  1.00  0.00    -0.219 C  
BRANCH  24  25
HETATM   25  C   UNL     1     -10.965  12.648  67.162  1.00  0.00    -0.296 C  
BRANCH  25  26
HETATM   26  C   UNL     1     -11.190  13.316  68.520  1.00  0.00    -0.304 C  
HETATM   27  C   UNL     1     -11.965  12.415  69.457  1.00  0.00    -0.261 C  
HETATM   28  O   UNL     1     -12.373  11.300  69.194  1.00  0.00    -0.403 OA 
HETATM   29  O   UNL     1     -12.162  12.991  70.668  1.00  0.00    -0.364 OA 
ENDBRANCH  25  26
ENDBRANCH  24  25
ENDBRANCH  23  24
ENDBRANCH  21  22
ENDBRANCH  19  21
ENDBRANCH  11  12
ENDBRANCH  10  11
ENDBRANCH   8  10
ENDBRANCH   7   8
ENDBRANCH   6   7
ENDBRANCH   5   6
ENDBRANCH   4   5
ENDBRANCH   3   4
ENDBRANCH   2   3
TORSDOF 14
ENDMDL
MODEL      301
REMARK 921   NORMALIZED FREE ENERGY PREDICTED BY IDOCK:   -3.15 KCAL/MOL
REMARK 922        TOTAL FREE ENERGY PREDICTED BY IDOCK:   -8.68 KCAL/MOL
REMARK 923 INTER-LIGAND FREE ENERGY PREDICTED BY IDOCK:   -7.30 KCAL/MOL
REMARK 924 INTRA-LIGAND FREE ENERGY PREDICTED BY IDOCK:   -1.39 KCAL/MOL
REMARK 927      BINDING AFFINITY PREDICTED BY RF-SCORE:    0.00 PKD
ROOT
HETATM    1  C   UNL     1      -9.934  19.869  67.220  1.00  0.00    -0.556 C  
HETATM    2  C   UNL     1     -10.417  18.823  66.231  1.00  0.00    -0.489 C  
ENDROOT
BRANCH   2   3
HETATM    3  C   UNL     1     -10.405  17.417  66.834  1.00  0.00    -0.317 C  
BRANCH   3   4
HETATM    4  C   UNL     1      -9.315  16.571  66.178  1.00  0.00    -0.339 C  
BRANCH   4   5
HETATM    5  C   UNL     1      -9.860  15.303  65.518  1.00  0.00    -0.362 C  
BRANCH   5   6
HETATM    6  C   UNL     1     -11.028  15.660  64.592  1.00  0.00    -0.344 C  
BRANCH   6   7
HETATM    7  C   UNL     1     -12.205  14.707  64.749  1.00  0.00    -0.403 C  
BRANCH   7   8
HETATM    8  C   UNL     1     -12.156  13.928  66.065  1.00  0.00    -0.437 C  
HETATM    9  O   UNL     1     -12.330  14.457  67.160  1.00  0.00    -0.335 OA 
BRANCH   8  10
HETATM   10  C   UNL     1     -11.908  12.441  65.909  1.00  0.00    -0.467 C  
BRANCH  10  11
HETATM   11  C   UNL     1     -11.618  11.632  67.182  1.00  0.00    -0.291 C  
BRANCH  11  12
HETATM   12  C   UNL     1     -10.264  10.882  67.061  1.00  0.00    -0.256 C  
HETATM   13  C   UNL     1      -9.638  11.069  65.670  1.00  0.00    -0.226 C  
HETATM   14  O   UNL     1     -10.212  10.219  64.691  1.00  0.00    -0.322 OA 
HETATM   15  C   UNL     1      -8.191  10.700  65.870  1.00  0.00    -0.159 C  
HETATM   16  H   UNL     1      -9.825  10.334  63.831  1.00  0.00     0.000 HD 
HETATM   17  C   UNL     1      -7.833  11.320  67.205  1.00  0.00    -0.151 C  
HETATM   18  O   UNL     1      -6.772  10.570  67.764  1.00  0.00    -0.068 OA 
HETATM   19  C   UNL     1      -9.144  11.348  68.046  1.00  0.00    -0.171 C  
HETATM   20  H   UNL     1      -6.547  10.959  68.602  1.00  0.00     0.000 HD 
BRANCH  19  21
HETATM   21  C   UNL     1      -9.113  10.515  69.343  1.00  0.00    -0.123 C  
BRANCH  21  22
HETATM   22  C   UNL     1     -10.181   9.454  69.426  1.00  0.00    -0.214 C  
HETATM   23  C   UNL     1     -10.052   8.124  69.312  1.00  0.00    -0.202 C  
BRANCH  23  24
HETATM   24  C   UNL     1      -8.794   7.365  69.017  1.00  0.00    -0.132 C  
BRANCH  24  25
HETATM   25  C   UNL     1      -8.458   7.344  67.523  1.00  0.00    -0.116 C  
BRANCH  25  26
HETATM   26  C   UNL     1      -8.574   5.953  66.896  1.00  0.00    -0.111 C  
HETATM   27  C   UNL     1      -9.994   5.658  66.464  1.00  0.00    -0.176 C  
HETATM   28  O   UNL     1     -10.944   6.408  66.588  1.00  0.00    -0.304 OA 
HETATM   29  O   UNL     1     -10.109   4.433  65.897  1.00  0.00    -0.226 OA 
ENDBRANCH  25  26
ENDBRANCH  24  25
ENDBRANCH  23  24
ENDBRANCH  21  22
ENDBRANCH  19  21
ENDBRANCH  11  12
ENDBRANCH  10  11
ENDBRANCH   8  10
ENDBRANCH   7   8
ENDBRANCH   6   7
ENDBRANCH   5   6
ENDBRANCH   4   5
ENDBRANCH   3   4
ENDBRANCH   2   3
TORSDOF 14
ENDMDL
MODEL      302
REMARK 921   NORMALIZED FREE ENERGY PREDICTED BY IDOCK:   -3.13 KCAL/MOL
REMARK 922        TOTAL FREE ENERGY PREDICTED BY IDOCK:   -8.64 KCAL/MOL
REMARK 923 INTER-LIGAND FREE ENERGY PREDICTED BY IDOCK:   -5.99 KCAL/MOL
REMARK 924 INTRA-LIGAND FREE ENERGY PREDICTED BY IDOCK:   -2.65 KCAL/MOL
REMARK 927      BINDING AFFINITY PREDICTED BY RF-SCORE:    0.00 PKD
ROOT
HETATM    1  C   UNL     1     -12.337   9.647  70.987  1.00  0.00    -0.396 C  
HETATM    2  C   UNL     1     -12.355   8.449  71.919  1.00  0.00    -0.395 C  
ENDROOT
BRANCH   2   3
HETATM    3  C   UNL     1     -12.017   7.149  71.187  1.00  0.00    -0.381 C  
BRANCH   3   4
HETATM    4  C   UNL     1     -11.043   6.314  72.017  1.00  0.00    -0.313 C  
BRANCH   4   5
HETATM    5  C   UNL     1     -10.896   6.821  73.453  1.00  0.00    -0.282 C  
BRANCH   5   6
HETATM    6  C   UNL     1      -9.411   6.898  73.827  1.00  0.00    -0.224 C  
BRANCH   6   7
HETATM    7  C   UNL     1      -8.687   8.022  73.098  1.00  0.00    -0.300 C  
BRANCH   7   8
HETATM    8  C   UNL     1      -7.405   7.546  72.411  1.00  0.00    -0.074 C  
HETATM    9  O   UNL     1      -6.445   7.096  73.031  1.00  0.00    -0.063 OA 
BRANCH   8  10
HETATM   10  C   UNL     1      -7.426   7.645  70.899  1.00  0.00    -0.071 C  
BRANCH  10  11
HETATM   11  C   UNL     1      -8.695   8.209  70.243  1.00  0.00    -0.133 C  
BRANCH  11  12
HETATM   12  C   UNL     1      -8.977   7.502  68.890  1.00  0.00    -0.134 C  
HETATM   13  C   UNL     1      -8.831   5.977  69.010  1.00  0.00    -0.121 C  
HETATM   14  O   UNL     1      -7.479   5.550  68.968  1.00  0.00    -0.078 OA 
HETATM   15  C   UNL     1      -9.563   5.444  67.806  1.00  0.00    -0.147 C  
HETATM   16  H   UNL     1      -7.389   4.608  69.042  1.00  0.00     0.000 HD 
HETATM   17  C   UNL     1     -10.802   6.313  67.715  1.00  0.00    -0.338 C  
HETATM   18  O   UNL     1     -11.222   6.333  66.364  1.00  0.00    -0.688 OA 
HETATM   19  C   UNL     1     -10.415   7.699  68.312  1.00  0.00    -0.219 C  
HETATM   20  H   UNL     1     -11.998   6.877  66.306  1.00  0.00     0.000 HD 
BRANCH  19  21
HETATM   21  C   UNL     1     -10.500   8.886  67.331  1.00  0.00    -0.347 C  
BRANCH  21  22
HETATM   22  C   UNL     1     -10.669  10.230  67.994  1.00  0.00    -0.299 C  
HETATM   23  C   UNL     1      -9.904  11.325  67.875  1.00  0.00    -0.187 C  
BRANCH  23  24
HETATM   24  C   UNL     1      -8.642  11.458  67.076  1.00  0.00    -0.157 C  
BRANCH  24  25
HETATM   25  C   UNL     1      -7.453  10.757  67.737  1.00  0.00    -0.094 C  
BRANCH  25  26
HETATM   26  C   UNL     1      -7.285  11.112  69.216  1.00  0.00    -0.112 C  
HETATM   27  C   UNL     1      -6.151  12.092  69.424  1.00  0.00    -0.098 C  
HETATM   28  O   UNL     1      -5.444  12.554  68.549  1.00  0.00    -0.054 OA 
HETATM   29  O   UNL     1      -5.999  12.423  70.728  1.00  0.00    -0.287 OA 
ENDBRANCH  25  26
ENDBRANCH  24  25
ENDBRANCH  23  24
ENDBRANCH  21  22
ENDBRANCH  19  21
ENDBRANCH  11  12
ENDBRANCH  10  11
ENDBRANCH   8  10
ENDBRANCH   7   8
ENDBRANCH   6   7
ENDBRANCH   5   6
ENDBRANCH   4   5
ENDBRANCH   3   4
ENDBRANCH   2   3
TORSDOF 14
ENDMDL
MODEL      303
REMARK 921   NORMALIZED FREE ENERGY PREDICTED BY IDOCK:   -3.12 KCAL/MOL
REMARK 922        TOTAL FREE ENERGY PREDICTED BY IDOCK:   -8.62 KCAL/MOL
REMARK 923 INTER-LIGAND FREE ENERGY PREDICTED BY IDOCK:   -6.84 KCAL/MOL
REMARK 924 INTRA-LIGAND FREE ENERGY PREDICTED BY IDOCK:   -1.78 KCAL/MOL
REMARK 927      BINDING AFFINITY PREDICTED BY RF-SCORE:    0.00 PKD
ROOT
HETATM    1  C   UNL     1      -7.844   6.148  73.942  1.00  0.00    -0.096 C  
HETATM    2  C   UNL     1      -7.462   6.911  72.686  1.00  0.00    -0.089 C  
ENDROOT
BRANCH   2   3
HETATM    3  C   UNL     1      -8.466   8.019  72.362  1.00  0.00    -0.211 C  
BRANCH   3   4
HETATM    4  C   UNL     1      -9.809   7.725  73.030  1.00  0.00    -0.344 C  
BRANCH   4   5
HETATM    5  C   UNL     1     -10.980   7.732  72.045  1.00  0.00    -0.305 C  
BRANCH   5   6
HETATM    6  C   UNL     1     -12.054   8.716  72.522  1.00  0.00    -0.368 C  
BRANCH   6   7
HETATM    7  C   UNL     1     -12.828   9.334  71.366  1.00  0.00    -0.398 C  
BRANCH   7   8
HETATM    8  C   UNL     1     -12.609  10.845  71.255  1.00  0.00    -0.421 C  
HETATM    9  O   UNL     1     -13.132  11.652  72.019  1.00  0.00    -0.478 OA 
BRANCH   8  10
HETATM   10  C   UNL     1     -11.669  11.265  70.143  1.00  0.00    -0.429 C  
BRANCH  10  11
HETATM   11  C   UNL     1     -12.231  11.303  68.714  1.00  0.00    -0.101 C  
BRANCH  11  12
HETATM   12  C   UNL     1     -11.171  11.844  67.718  1.00  0.00    -0.330 C  
HETATM   13  C   UNL     1     -11.252  13.373  67.584  1.00  0.00    -0.276 C  
HETATM   14  O   UNL     1     -12.297  13.793  66.721  1.00  0.00    -0.403 OA 
HETATM   15  C   UNL     1      -9.924  13.758  66.987  1.00  0.00    -0.251 C  
HETATM   16  H   UNL     1     -12.348  14.738  66.638  1.00  0.00     0.000 HD 
HETATM   17  C   UNL     1      -8.925  12.884  67.718  1.00  0.00    -0.191 C  
HETATM   18  O   UNL     1      -7.804  12.703  66.874  1.00  0.00    -0.369 OA 
HETATM   19  C   UNL     1      -9.681  11.578  68.108  1.00  0.00    -0.192 C  
HETATM   20  H   UNL     1      -7.177  12.155  67.332  1.00  0.00     0.000 HD 
BRANCH  19  21
HETATM   21  C   UNL     1      -9.128  10.284  67.479  1.00  0.00    -0.146 C  
BRANCH  21  22
HETATM   22  C   UNL     1      -9.786   9.893  66.180  1.00  0.00    -0.324 C  
HETATM   23  C   UNL     1      -9.352   9.033  65.247  1.00  0.00    -0.158 C  
BRANCH  23  24
HETATM   24  C   UNL     1      -8.057   8.280  65.251  1.00  0.00    -0.142 C  
BRANCH  24  25
HETATM   25  C   UNL     1      -8.169   6.924  65.951  1.00  0.00    -0.129 C  
BRANCH  25  26
HETATM   26  C   UNL     1      -9.572   6.635  66.491  1.00  0.00    -0.187 C  
HETATM   27  C   UNL     1      -9.599   6.665  68.004  1.00  0.00    -0.123 C  
HETATM   28  O   UNL     1      -8.645   6.885  68.726  1.00  0.00    -0.124 OA 
HETATM   29  O   UNL     1     -10.838   6.422  68.494  1.00  0.00    -0.258 OA 
ENDBRANCH  25  26
ENDBRANCH  24  25
ENDBRANCH  23  24
ENDBRANCH  21  22
ENDBRANCH  19  21
ENDBRANCH  11  12
ENDBRANCH  10  11
ENDBRANCH   8  10
ENDBRANCH   7   8
ENDBRANCH   6   7
ENDBRANCH   5   6
ENDBRANCH   4   5
ENDBRANCH   3   4
ENDBRANCH   2   3
TORSDOF 14
ENDMDL
MODEL      304
REMARK 921   NORMALIZED FREE ENERGY PREDICTED BY IDOCK:   -3.11 KCAL/MOL
REMARK 922        TOTAL FREE ENERGY PREDICTED BY IDOCK:   -8.61 KCAL/MOL
REMARK 923 INTER-LIGAND FREE ENERGY PREDICTED BY IDOCK:   -6.73 KCAL/MOL
REMARK 924 INTRA-LIGAND FREE ENERGY PREDICTED BY IDOCK:   -1.88 KCAL/MOL
REMARK 927      BINDING AFFINITY PREDICTED BY RF-SCORE:    0.00 PKD
ROOT
HETATM    1  C   UNL     1      -6.385  11.041  66.040  1.00  0.00    -0.060 C  
HETATM    2  C   UNL     1      -5.889  11.456  67.414  1.00  0.00    -0.072 C  
ENDROOT
BRANCH   2   3
HETATM    3  C   UNL     1      -6.962  12.204  68.208  1.00  0.00    -0.080 C  
BRANCH   3   4
HETATM    4  C   UNL     1      -8.005  12.794  67.260  1.00  0.00    -0.156 C  
BRANCH   4   5
HETATM    5  C   UNL     1      -9.388  12.924  67.899  1.00  0.00    -0.208 C  
BRANCH   5   6
HETATM    6  C   UNL     1      -9.773  11.603  68.577  1.00  0.00    -0.187 C  
BRANCH   6   7
HETATM    7  C   UNL     1     -10.951  10.923  67.893  1.00  0.00    -0.325 C  
BRANCH   7   8
HETATM    8  C   UNL     1     -10.512   9.833  66.913  1.00  0.00    -0.211 C  
HETATM    9  O   UNL     1      -9.970  10.082  65.839  1.00  0.00    -0.247 OA 
BRANCH   8  10
HETATM   10  C   UNL     1     -10.771   8.418  67.387  1.00  0.00    -0.225 C  
BRANCH  10  11
HETATM   11  C   UNL     1      -9.610   7.671  68.062  1.00  0.00    -0.159 C  
BRANCH  11  12
HETATM   12  C   UNL     1     -10.129   6.430  68.835  1.00  0.00    -0.187 C  
HETATM   13  C   UNL     1      -9.139   5.257  68.749  1.00  0.00    -0.112 C  
HETATM   14  O   UNL     1      -9.232   4.550  67.523  1.00  0.00    -0.122 OA 
HETATM   15  C   UNL     1      -9.545   4.352  69.883  1.00  0.00    -0.275 C  
HETATM   16  H   UNL     1      -8.620   3.825  67.469  1.00  0.00     0.000 HD 
HETATM   17  C   UNL     1      -9.851   5.303  71.022  1.00  0.00    -0.191 C  
HETATM   18  O   UNL     1     -10.780   4.671  71.880  1.00  0.00    -0.098 OA 
HETATM   19  C   UNL     1     -10.342   6.631  70.370  1.00  0.00    -0.231 C  
HETATM   20  H   UNL     1     -10.972   5.267  72.595  1.00  0.00     0.000 HD 
BRANCH  19  21
HETATM   21  C   UNL     1     -11.788   7.039  70.717  1.00  0.00    -0.401 C  
BRANCH  21  22
HETATM   22  C   UNL     1     -11.922   7.828  71.995  1.00  0.00    -0.350 C  
HETATM   23  C   UNL     1     -12.370   9.081  72.163  1.00  0.00    -0.442 C  
BRANCH  23  24
HETATM   24  C   UNL     1     -12.805  10.032  71.089  1.00  0.00    -0.480 C  
BRANCH  24  25
HETATM   25  C   UNL     1     -12.424  11.481  71.401  1.00  0.00    -0.338 C  
BRANCH  25  26
HETATM   26  C   UNL     1     -13.563  12.284  72.034  1.00  0.00    -0.306 C  
HETATM   27  C   UNL     1     -13.231  13.759  72.098  1.00  0.00    -0.447 C  
HETATM   28  O   UNL     1     -12.200  14.271  71.707  1.00  0.00    -0.319 OA 
HETATM   29  O   UNL     1     -14.237  14.483  72.646  1.00  0.00    -0.499 OA 
ENDBRANCH  25  26
ENDBRANCH  24  25
ENDBRANCH  23  24
ENDBRANCH  21  22
ENDBRANCH  19  21
ENDBRANCH  11  12
ENDBRANCH  10  11
ENDBRANCH   8  10
ENDBRANCH   7   8
ENDBRANCH   6   7
ENDBRANCH   5   6
ENDBRANCH   4   5
ENDBRANCH   3   4
ENDBRANCH   2   3
TORSDOF 14
ENDMDL
MODEL      305
REMARK 921   NORMALIZED FREE ENERGY PREDICTED BY IDOCK:   -3.11 KCAL/MOL
REMARK 922        TOTAL FREE ENERGY PREDICTED BY IDOCK:   -8.61 KCAL/MOL
REMARK 923 INTER-LIGAND FREE ENERGY PREDICTED BY IDOCK:   -7.08 KCAL/MOL
REMARK 924 INTRA-LIGAND FREE ENERGY PREDICTED BY IDOCK:   -1.53 KCAL/MOL
REMARK 927      BINDING AFFINITY PREDICTED BY RF-SCORE:    0.00 PKD
ROOT
HETATM    1  C   UNL     1     -11.002  15.784  69.684  1.00  0.00    -0.306 C  
HETATM    2  C   UNL     1     -10.232  16.276  68.472  1.00  0.00    -0.247 C  
ENDROOT
BRANCH   2   3
HETATM    3  C   UNL     1      -9.868  15.133  67.522  1.00  0.00    -0.220 C  
BRANCH   3   4
HETATM    4  C   UNL     1      -9.865  13.803  68.274  1.00  0.00    -0.232 C  
BRANCH   4   5
HETATM    5  C   UNL     1      -8.579  13.001  68.063  1.00  0.00    -0.186 C  
BRANCH   5   6
HETATM    6  C   UNL     1      -8.723  11.613  68.698  1.00  0.00    -0.083 C  
BRANCH   6   7
HETATM    7  C   UNL     1      -7.435  10.806  68.625  1.00  0.00    -0.102 C  
BRANCH   7   8
HETATM    8  C   UNL     1      -7.195   9.969  69.883  1.00  0.00    -0.145 C  
HETATM    9  O   UNL     1      -6.689  10.429  70.903  1.00  0.00    -0.341 OA 
BRANCH   8  10
HETATM   10  C   UNL     1      -7.661   8.530  69.781  1.00  0.00    -0.092 C  
BRANCH  10  11
HETATM   11  C   UNL     1      -7.726   7.711  71.079  1.00  0.00    -0.088 C  
BRANCH  11  12
HETATM   12  C   UNL     1      -9.190   7.314  71.408  1.00  0.00    -0.145 C  
HETATM   13  C   UNL     1      -9.797   8.234  72.480  1.00  0.00    -0.298 C  
HETATM   14  O   UNL     1      -9.392   7.886  73.794  1.00  0.00    -0.289 OA 
HETATM   15  C   UNL     1     -11.282   8.027  72.340  1.00  0.00    -0.432 C  
HETATM   16  H   UNL     1      -9.767   8.454  74.456  1.00  0.00     0.000 HD 
HETATM   17  C   UNL     1     -11.507   7.974  70.843  1.00  0.00    -0.276 C  
HETATM   18  O   UNL     1     -12.673   7.209  70.603  1.00  0.00    -0.609 OA 
HETATM   19  C   UNL     1     -10.198   7.406  70.217  1.00  0.00    -0.203 C  
HETATM   20  H   UNL     1     -12.814   7.175  69.664  1.00  0.00     0.000 HD 
BRANCH  19  21
HETATM   21  C   UNL     1     -10.352   6.067  69.469  1.00  0.00    -0.295 C  
BRANCH  21  22
HETATM   22  C   UNL     1     -10.978   6.186  68.102  1.00  0.00    -0.398 C  
HETATM   23  C   UNL     1     -10.843   7.170  67.202  1.00  0.00    -0.403 C  
BRANCH  23  24
HETATM   24  C   UNL     1     -10.061   8.438  67.366  1.00  0.00    -0.301 C  
BRANCH  24  25
HETATM   25  C   UNL     1      -9.784   9.133  66.030  1.00  0.00    -0.358 C  
BRANCH  25  26
HETATM   26  C   UNL     1     -10.324  10.564  65.969  1.00  0.00    -0.279 C  
HETATM   27  C   UNL     1      -9.799  11.302  64.757  1.00  0.00    -0.266 C  
HETATM   28  O   UNL     1      -9.042  10.845  63.922  1.00  0.00    -0.187 OA 
HETATM   29  O   UNL     1     -10.279  12.567  64.685  1.00  0.00    -0.302 OA 
ENDBRANCH  25  26
ENDBRANCH  24  25
ENDBRANCH  23  24
ENDBRANCH  21  22
ENDBRANCH  19  21
ENDBRANCH  11  12
ENDBRANCH  10  11
ENDBRANCH   8  10
ENDBRANCH   7   8
ENDBRANCH   6   7
ENDBRANCH   5   6
ENDBRANCH   4   5
ENDBRANCH   3   4
ENDBRANCH   2   3
TORSDOF 14
ENDMDL
MODEL      306
REMARK 921   NORMALIZED FREE ENERGY PREDICTED BY IDOCK:   -3.11 KCAL/MOL
REMARK 922        TOTAL FREE ENERGY PREDICTED BY IDOCK:   -8.61 KCAL/MOL
REMARK 923 INTER-LIGAND FREE ENERGY PREDICTED BY IDOCK:   -7.10 KCAL/MOL
REMARK 924 INTRA-LIGAND FREE ENERGY PREDICTED BY IDOCK:   -1.51 KCAL/MOL
REMARK 927      BINDING AFFINITY PREDICTED BY RF-SCORE:    0.00 PKD
ROOT
HETATM    1  C   UNL     1     -13.260  11.941  71.842  1.00  0.00    -0.467 C  
HETATM    2  C   UNL     1     -13.561  13.272  72.507  1.00  0.00    -0.637 C  
ENDROOT
BRANCH   2   3
HETATM    3  C   UNL     1     -14.346  14.208  71.584  1.00  0.00    -0.375 C  
BRANCH   3   4
HETATM    4  C   UNL     1     -13.490  15.417  71.209  1.00  0.00    -0.598 C  
BRANCH   4   5
HETATM    5  C   UNL     1     -12.054  15.041  70.839  1.00  0.00    -0.380 C  
BRANCH   5   6
HETATM    6  C   UNL     1     -12.043  14.285  69.505  1.00  0.00    -0.376 C  
BRANCH   6   7
HETATM    7  C   UNL     1     -11.474  15.122  68.369  1.00  0.00    -0.347 C  
BRANCH   7   8
HETATM    8  C   UNL     1     -10.403  14.376  67.569  1.00  0.00    -0.251 C  
HETATM    9  O   UNL     1      -9.594  14.948  66.844  1.00  0.00    -0.228 OA 
BRANCH   8  10
HETATM   10  C   UNL     1     -10.402  12.874  67.767  1.00  0.00    -0.223 C  
BRANCH  10  11
HETATM   11  C   UNL     1      -9.128  12.234  68.339  1.00  0.00    -0.146 C  
BRANCH  11  12
HETATM   12  C   UNL     1      -8.206  11.726  67.199  1.00  0.00    -0.169 C  
HETATM   13  C   UNL     1      -6.756  12.197  67.393  1.00  0.00    -0.143 C  
HETATM   14  O   UNL     1      -6.554  13.537  66.978  1.00  0.00    -0.427 OA 
HETATM   15  C   UNL     1      -5.952  11.273  66.517  1.00  0.00    -0.144 C  
HETATM   16  H   UNL     1      -5.658  13.829  67.098  1.00  0.00     0.000 HD 
HETATM   17  C   UNL     1      -6.585   9.914  66.735  1.00  0.00    -0.071 C  
HETATM   18  O   UNL     1      -6.351   9.133  65.578  1.00  0.00    -0.065 OA 
HETATM   19  C   UNL     1      -8.085  10.173  67.071  1.00  0.00    -0.117 C  
HETATM   20  H   UNL     1      -6.749   8.281  65.714  1.00  0.00     0.000 HD 
BRANCH  19  21
HETATM   21  C   UNL     1      -9.096   9.583  66.068  1.00  0.00    -0.220 C  
BRANCH  21  22
HETATM   22  C   UNL     1     -10.317   8.967  66.705  1.00  0.00    -0.310 C  
HETATM   23  C   UNL     1     -10.534   7.686  67.035  1.00  0.00    -0.419 C  
BRANCH  23  24
HETATM   24  C   UNL     1      -9.614   6.527  66.795  1.00  0.00    -0.198 C  
BRANCH  24  25
HETATM   25  C   UNL     1      -8.732   6.218  68.008  1.00  0.00    -0.114 C  
BRANCH  25  26
HETATM   26  C   UNL     1      -9.037   4.862  68.648  1.00  0.00    -0.145 C  
HETATM   27  C   UNL     1      -9.710   5.025  69.993  1.00  0.00    -0.208 C  
HETATM   28  O   UNL     1      -9.985   6.084  70.525  1.00  0.00    -0.175 OA 
HETATM   29  O   UNL     1      -9.995   3.831  70.567  1.00  0.00    -0.140 OA 
ENDBRANCH  25  26
ENDBRANCH  24  25
ENDBRANCH  23  24
ENDBRANCH  21  22
ENDBRANCH  19  21
ENDBRANCH  11  12
ENDBRANCH  10  11
ENDBRANCH   8  10
ENDBRANCH   7   8
ENDBRANCH   6   7
ENDBRANCH   5   6
ENDBRANCH   4   5
ENDBRANCH   3   4
ENDBRANCH   2   3
TORSDOF 14
ENDMDL
MODEL      307
REMARK 921   NORMALIZED FREE ENERGY PREDICTED BY IDOCK:   -3.09 KCAL/MOL
REMARK 922        TOTAL FREE ENERGY PREDICTED BY IDOCK:   -8.58 KCAL/MOL
REMARK 923 INTER-LIGAND FREE ENERGY PREDICTED BY IDOCK:   -6.09 KCAL/MOL
REMARK 924 INTRA-LIGAND FREE ENERGY PREDICTED BY IDOCK:   -2.49 KCAL/MOL
REMARK 927      BINDING AFFINITY PREDICTED BY RF-SCORE:    0.00 PKD
ROOT
HETATM    1  C   UNL     1      -5.925   5.446  66.718  1.00  0.00    -0.022 C  
HETATM    2  C   UNL     1      -6.075   6.360  67.921  1.00  0.00    -0.027 C  
ENDROOT
BRANCH   2   3
HETATM    3  C   UNL     1      -7.469   6.986  67.994  1.00  0.00    -0.099 C  
BRANCH   3   4
HETATM    4  C   UNL     1      -7.437   8.246  68.858  1.00  0.00    -0.092 C  
BRANCH   4   5
HETATM    5  C   UNL     1      -6.134   8.396  69.646  1.00  0.00    -0.032 C  
BRANCH   5   6
HETATM    6  C   UNL     1      -6.442   8.493  71.145  1.00  0.00    -0.049 C  
BRANCH   6   7
HETATM    7  C   UNL     1      -7.230   7.295  71.654  1.00  0.00    -0.075 C  
BRANCH   7   8
HETATM    8  C   UNL     1      -8.543   7.700  72.328  1.00  0.00    -0.123 C  
HETATM    9  O   UNL     1      -8.649   8.700  73.033  1.00  0.00    -0.395 OA 
BRANCH   8  10
HETATM   10  C   UNL     1      -9.713   6.783  72.031  1.00  0.00    -0.159 C  
BRANCH  10  11
HETATM   11  C   UNL     1     -10.300   6.819  70.612  1.00  0.00    -0.225 C  
BRANCH  11  12
HETATM   12  C   UNL     1     -11.388   7.919  70.493  1.00  0.00    -0.242 C  
HETATM   13  C   UNL     1     -12.049   8.208  71.851  1.00  0.00    -0.323 C  
HETATM   14  O   UNL     1     -13.036   7.249  72.195  1.00  0.00    -0.502 OA 
HETATM   15  C   UNL     1     -12.701   9.553  71.661  1.00  0.00    -0.478 C  
HETATM   16  H   UNL     1     -13.444   7.427  73.034  1.00  0.00     0.000 HD 
HETATM   17  C   UNL     1     -11.681  10.348  70.872  1.00  0.00    -0.360 C  
HETATM   18  O   UNL     1     -12.374  11.338  70.137  1.00  0.00    -0.296 OA 
HETATM   19  C   UNL     1     -10.884   9.319  70.014  1.00  0.00    -0.264 C  
HETATM   20  H   UNL     1     -11.734  11.837  69.642  1.00  0.00     0.000 HD 
BRANCH  19  21
HETATM   21  C   UNL     1     -11.005   9.499  68.488  1.00  0.00    -0.109 C  
BRANCH  21  22
HETATM   22  C   UNL     1      -9.913  10.337  67.871  1.00  0.00    -0.191 C  
HETATM   23  C   UNL     1     -10.020  11.311  66.957  1.00  0.00    -0.226 C  
BRANCH  23  24
HETATM   24  C   UNL     1     -11.273  11.773  66.277  1.00  0.00    -0.370 C  
BRANCH  24  25
HETATM   25  C   UNL     1     -11.333  13.295  66.129  1.00  0.00    -0.335 C  
BRANCH  25  26
HETATM   26  C   UNL     1     -10.422  14.036  67.111  1.00  0.00    -0.270 C  
HETATM   27  C   UNL     1     -11.130  14.313  68.419  1.00  0.00    -0.256 C  
HETATM   28  O   UNL     1     -12.275  14.002  68.686  1.00  0.00    -0.332 OA 
HETATM   29  O   UNL     1     -10.331  14.959  69.302  1.00  0.00    -0.237 OA 
ENDBRANCH  25  26
ENDBRANCH  24  25
ENDBRANCH  23  24
ENDBRANCH  21  22
ENDBRANCH  19  21
ENDBRANCH  11  12
ENDBRANCH  10  11
ENDBRANCH   8  10
ENDBRANCH   7   8
ENDBRANCH   6   7
ENDBRANCH   5   6
ENDBRANCH   4   5
ENDBRANCH   3   4
ENDBRANCH   2   3
TORSDOF 14
ENDMDL
MODEL      308
REMARK 921   NORMALIZED FREE ENERGY PREDICTED BY IDOCK:   -3.07 KCAL/MOL
REMARK 922        TOTAL FREE ENERGY PREDICTED BY IDOCK:   -8.53 KCAL/MOL
REMARK 923 INTER-LIGAND FREE ENERGY PREDICTED BY IDOCK:   -7.32 KCAL/MOL
REMARK 924 INTRA-LIGAND FREE ENERGY PREDICTED BY IDOCK:   -1.22 KCAL/MOL
REMARK 927      BINDING AFFINITY PREDICTED BY RF-SCORE:    0.00 PKD
ROOT
HETATM    1  C   UNL     1     -10.028  19.287  68.883  1.00  0.00    -0.495 C  
HETATM    2  C   UNL     1     -10.597  19.427  67.482  1.00  0.00    -0.591 C  
ENDROOT
BRANCH   2   3
HETATM    3  C   UNL     1      -9.982  18.416  66.511  1.00  0.00    -0.392 C  
BRANCH   3   4
HETATM    4  C   UNL     1     -10.438  17.001  66.866  1.00  0.00    -0.268 C  
BRANCH   4   5
HETATM    5  C   UNL     1     -10.195  15.995  65.739  1.00  0.00    -0.401 C  
BRANCH   5   6
HETATM    6  C   UNL     1     -10.589  14.589  66.203  1.00  0.00    -0.308 C  
BRANCH   6   7
HETATM    7  C   UNL     1     -10.761  13.621  65.041  1.00  0.00    -0.374 C  
BRANCH   7   8
HETATM    8  C   UNL     1     -11.846  12.575  65.304  1.00  0.00    -0.413 C  
HETATM    9  O   UNL     1     -13.012  12.719  64.943  1.00  0.00    -0.805 OA 
BRANCH   8  10
HETATM   10  C   UNL     1     -11.362  11.330  66.019  1.00  0.00    -0.004 C  
BRANCH  10  11
HETATM   11  C   UNL     1     -10.145  10.601  65.431  1.00  0.00    -0.356 C  
BRANCH  11  12
HETATM   12  C   UNL     1      -9.053  10.388  66.513  1.00  0.00    -0.175 C  
HETATM   13  C   UNL     1      -7.863  11.339  66.309  1.00  0.00    -0.069 C  
HETATM   14  O   UNL     1      -6.971  10.893  65.300  1.00  0.00    -0.363 OA 
HETATM   15  C   UNL     1      -7.159  11.334  67.640  1.00  0.00    -0.090 C  
HETATM   16  H   UNL     1      -6.236  11.480  65.174  1.00  0.00     0.000 HD 
HETATM   17  C   UNL     1      -8.286  11.367  68.653  1.00  0.00    -0.136 C  
HETATM   18  O   UNL     1      -7.818  10.771  69.847  1.00  0.00    -0.362 OA 
HETATM   19  C   UNL     1      -9.502  10.656  67.986  1.00  0.00    -0.164 C  
HETATM   20  H   UNL     1      -8.524  10.791  70.482  1.00  0.00     0.000 HD 
BRANCH  19  21
HETATM   21  C   UNL     1      -9.988   9.377  68.697  1.00  0.00    -0.187 C  
BRANCH  21  22
HETATM   22  C   UNL     1      -8.962   8.273  68.762  1.00  0.00    -0.144 C  
HETATM   23  C   UNL     1      -9.024   7.040  68.239  1.00  0.00    -0.128 C  
BRANCH  23  24
HETATM   24  C   UNL     1     -10.175   6.436  67.493  1.00  0.00    -0.211 C  
BRANCH  24  25
HETATM   25  C   UNL     1      -9.866   5.028  66.978  1.00  0.00    -0.205 C  
BRANCH  25  26
HETATM   26  C   UNL     1     -10.771   4.595  65.822  1.00  0.00    -0.195 C  
HETATM   27  C   UNL     1      -9.971   4.325  64.566  1.00  0.00    -0.105 C  
HETATM   28  O   UNL     1      -8.764   4.431  64.457  1.00  0.00    -0.131 OA 
HETATM   29  O   UNL     1     -10.759   3.929  63.538  1.00  0.00    -0.241 OA 
ENDBRANCH  25  26
ENDBRANCH  24  25
ENDBRANCH  23  24
ENDBRANCH  21  22
ENDBRANCH  19  21
ENDBRANCH  11  12
ENDBRANCH  10  11
ENDBRANCH   8  10
ENDBRANCH   7   8
ENDBRANCH   6   7
ENDBRANCH   5   6
ENDBRANCH   4   5
ENDBRANCH   3   4
ENDBRANCH   2   3
TORSDOF 14
ENDMDL
MODEL      309
REMARK 921   NORMALIZED FREE ENERGY PREDICTED BY IDOCK:   -3.06 KCAL/MOL
REMARK 922        TOTAL FREE ENERGY PREDICTED BY IDOCK:   -8.52 KCAL/MOL
REMARK 923 INTER-LIGAND FREE ENERGY PREDICTED BY IDOCK:   -6.79 KCAL/MOL
REMARK 924 INTRA-LIGAND FREE ENERGY PREDICTED BY IDOCK:   -1.74 KCAL/MOL
REMARK 927      BINDING AFFINITY PREDICTED BY RF-SCORE:    0.00 PKD
ROOT
HETATM    1  C   UNL     1      -9.720  17.346  67.393  1.00  0.00    -0.269 C  
HETATM    2  C   UNL     1      -8.271  17.638  67.735  1.00  0.00    -0.225 C  
ENDROOT
BRANCH   2   3
HETATM    3  C   UNL     1      -7.423  16.364  67.774  1.00  0.00    -0.158 C  
BRANCH   3   4
HETATM    4  C   UNL     1      -8.266  15.158  67.362  1.00  0.00    -0.215 C  
BRANCH   4   5
HETATM    5  C   UNL     1      -7.454  13.864  67.275  1.00  0.00    -0.051 C  
BRANCH   5   6
HETATM    6  C   UNL     1      -8.396  12.655  67.329  1.00  0.00    -0.189 C  
BRANCH   6   7
HETATM    7  C   UNL     1      -8.798  12.297  68.753  1.00  0.00     0.134 C  
BRANCH   7   8
HETATM    8  C   UNL     1      -8.752  10.790  69.014  1.00  0.00    -0.130 C  
HETATM    9  O   UNL     1      -7.961  10.274  69.799  1.00  0.00    -0.166 OA 
BRANCH   8  10
HETATM   10  C   UNL     1      -9.783   9.986  68.249  1.00  0.00    -0.155 C  
BRANCH  10  11
HETATM   11  C   UNL     1     -11.264  10.303  68.506  1.00  0.00    -0.271 C  
BRANCH  11  12
HETATM   12  C   UNL     1     -11.556  10.376  70.029  1.00  0.00    -0.378 C  
HETATM   13  C   UNL     1     -12.533  11.516  70.362  1.00  0.00    -0.240 C  
HETATM   14  O   UNL     1     -11.900  12.784  70.407  1.00  0.00    -0.516 OA 
HETATM   15  C   UNL     1     -13.051  11.163  71.731  1.00  0.00    -0.536 C  
HETATM   16  H   UNL     1     -12.504  13.489  70.613  1.00  0.00     0.000 HD 
HETATM   17  C   UNL     1     -13.267   9.665  71.669  1.00  0.00    -0.411 C  
HETATM   18  O   UNL     1     -13.157   9.153  72.983  1.00  0.00    -0.679 OA 
HETATM   19  C   UNL     1     -12.229   9.109  70.649  1.00  0.00    -0.058 C  
HETATM   20  H   UNL     1     -13.292   8.213  72.945  1.00  0.00     0.000 HD 
BRANCH  19  21
HETATM   21  C   UNL     1     -11.199   8.119  71.229  1.00  0.00    -0.297 C  
BRANCH  21  22
HETATM   22  C   UNL     1     -11.421   6.683  70.826  1.00  0.00    -0.407 C  
HETATM   23  C   UNL     1     -10.513   5.712  70.653  1.00  0.00    -0.340 C  
BRANCH  23  24
HETATM   24  C   UNL     1      -9.025   5.840  70.772  1.00  0.00    -0.156 C  
BRANCH  24  25
HETATM   25  C   UNL     1      -8.535   5.671  72.212  1.00  0.00    -0.119 C  
BRANCH  25  26
HETATM   26  C   UNL     1      -7.651   6.824  72.691  1.00  0.00    -0.091 C  
HETATM   27  C   UNL     1      -8.379   7.703  73.685  1.00  0.00    -0.183 C  
HETATM   28  O   UNL     1      -9.521   7.541  74.072  1.00  0.00    -0.263 OA 
HETATM   29  O   UNL     1      -7.603   8.722  74.126  1.00  0.00    -0.419 OA 
ENDBRANCH  25  26
ENDBRANCH  24  25
ENDBRANCH  23  24
ENDBRANCH  21  22
ENDBRANCH  19  21
ENDBRANCH  11  12
ENDBRANCH  10  11
ENDBRANCH   8  10
ENDBRANCH   7   8
ENDBRANCH   6   7
ENDBRANCH   5   6
ENDBRANCH   4   5
ENDBRANCH   3   4
ENDBRANCH   2   3
TORSDOF 14
ENDMDL
MODEL      310
REMARK 921   NORMALIZED FREE ENERGY PREDICTED BY IDOCK:   -3.06 KCAL/MOL
REMARK 922        TOTAL FREE ENERGY PREDICTED BY IDOCK:   -8.52 KCAL/MOL
REMARK 923 INTER-LIGAND FREE ENERGY PREDICTED BY IDOCK:   -7.25 KCAL/MOL
REMARK 924 INTRA-LIGAND FREE ENERGY PREDICTED BY IDOCK:   -1.27 KCAL/MOL
REMARK 927      BINDING AFFINITY PREDICTED BY RF-SCORE:    0.00 PKD
ROOT
HETATM    1  C   UNL     1     -13.740  15.139  72.691  1.00  0.00    -0.587 C  
HETATM    2  C   UNL     1     -12.326  15.649  72.910  1.00  0.00    -0.552 C  
ENDROOT
BRANCH   2   3
HETATM    3  C   UNL     1     -11.402  15.291  71.745  1.00  0.00    -0.445 C  
BRANCH   3   4
HETATM    4  C   UNL     1     -11.384  16.424  70.719  1.00  0.00    -0.211 C  
BRANCH   4   5
HETATM    5  C   UNL     1     -10.831  15.991  69.360  1.00  0.00    -0.300 C  
BRANCH   5   6
HETATM    6  C   UNL     1     -10.066  17.153  68.717  1.00  0.00    -0.329 C  
BRANCH   6   7
HETATM    7  C   UNL     1     -10.718  17.633  67.428  1.00  0.00    -0.262 C  
BRANCH   7   8
HETATM    8  C   UNL     1      -9.918  17.239  66.184  1.00  0.00    -0.275 C  
HETATM    9  O   UNL     1      -8.764  17.610  65.988  1.00  0.00    -0.499 OA 
BRANCH   8  10
HETATM   10  C   UNL     1     -10.655  16.326  65.224  1.00  0.00    -0.357 C  
BRANCH  10  11
HETATM   11  C   UNL     1     -10.185  14.866  65.131  1.00  0.00    -0.409 C  
BRANCH  11  12
HETATM   12  C   UNL     1     -10.589  14.075  66.404  1.00  0.00    -0.280 C  
HETATM   13  C   UNL     1     -11.756  13.114  66.124  1.00  0.00    -0.381 C  
HETATM   14  O   UNL     1     -13.014  13.769  66.114  1.00  0.00    -0.339 OA 
HETATM   15  C   UNL     1     -11.707  12.137  67.270  1.00  0.00    -0.369 C  
HETATM   16  H   UNL     1     -13.736  13.175  65.942  1.00  0.00     0.000 HD 
HETATM   17  C   UNL     1     -10.228  11.865  67.458  1.00  0.00    -0.196 C  
HETATM   18  O   UNL     1     -10.022  11.487  68.806  1.00  0.00    -0.251 OA 
HETATM   19  C   UNL     1      -9.479  13.155  67.007  1.00  0.00    -0.242 C  
HETATM   20  H   UNL     1      -9.095  11.316  68.924  1.00  0.00     0.000 HD 
BRANCH  19  21
HETATM   21  C   UNL     1      -8.661  13.860  68.107  1.00  0.00    -0.180 C  
BRANCH  21  22
HETATM   22  C   UNL     1      -7.216  14.104  67.748  1.00  0.00    -0.187 C  
HETATM   23  C   UNL     1      -6.200  13.229  67.723  1.00  0.00    -0.159 C  
BRANCH  23  24
HETATM   24  C   UNL     1      -6.251  11.781  68.104  1.00  0.00    -0.050 C  
BRANCH  24  25
HETATM   25  C   UNL     1      -6.116  11.566  69.613  1.00  0.00    -0.114 C  
BRANCH  25  26
HETATM   26  C   UNL     1      -6.763  10.268  70.101  1.00  0.00    -0.146 C  
HETATM   27  C   UNL     1      -6.434   9.109  69.187  1.00  0.00    -0.042 C  
HETATM   28  O   UNL     1      -5.748   9.168  68.184  1.00  0.00    -0.038 OA 
HETATM   29  O   UNL     1      -6.992   7.950  69.614  1.00  0.00    -0.051 OA 
ENDBRANCH  25  26
ENDBRANCH  24  25
ENDBRANCH  23  24
ENDBRANCH  21  22
ENDBRANCH  19  21
ENDBRANCH  11  12
ENDBRANCH  10  11
ENDBRANCH   8  10
ENDBRANCH   7   8
ENDBRANCH   6   7
ENDBRANCH   5   6
ENDBRANCH   4   5
ENDBRANCH   3   4
ENDBRANCH   2   3
TORSDOF 14
ENDMDL
MODEL      311
REMARK 921   NORMALIZED FREE ENERGY PREDICTED BY IDOCK:   -3.06 KCAL/MOL
REMARK 922        TOTAL FREE ENERGY PREDICTED BY IDOCK:   -8.51 KCAL/MOL
REMARK 923 INTER-LIGAND FREE ENERGY PREDICTED BY IDOCK:   -6.02 KCAL/MOL
REMARK 924 INTRA-LIGAND FREE ENERGY PREDICTED BY IDOCK:   -2.49 KCAL/MOL
REMARK 927      BINDING AFFINITY PREDICTED BY RF-SCORE:    0.00 PKD
ROOT
HETATM    1  C   UNL     1     -11.537  11.434  67.656  1.00  0.00    -0.315 C  
HETATM    2  C   UNL     1     -10.385  11.707  68.605  1.00  0.00    -0.229 C  
ENDROOT
BRANCH   2   3
HETATM    3  C   UNL     1      -9.035  11.698  67.885  1.00  0.00    -0.170 C  
BRANCH   3   4
HETATM    4  C   UNL     1      -8.360  10.336  68.045  1.00  0.00    -0.114 C  
BRANCH   4   5
HETATM    5  C   UNL     1      -7.143  10.378  68.971  1.00  0.00    -0.076 C  
BRANCH   5   6
HETATM    6  C   UNL     1      -6.881   8.981  69.548  1.00  0.00    -0.048 C  
BRANCH   6   7
HETATM    7  C   UNL     1      -7.933   7.970  69.117  1.00  0.00    -0.114 C  
BRANCH   7   8
HETATM    8  C   UNL     1      -7.476   6.524  69.323  1.00  0.00    -0.095 C  
HETATM    9  O   UNL     1      -7.320   6.026  70.435  1.00  0.00    -0.082 OA 
BRANCH   8  10
HETATM   10  C   UNL     1      -7.261   5.743  68.042  1.00  0.00    -0.072 C  
BRANCH  10  11
HETATM   11  C   UNL     1      -7.165   6.539  66.732  1.00  0.00    -0.077 C  
BRANCH  11  12
HETATM   12  C   UNL     1      -8.392   6.257  65.824  1.00  0.00    -0.145 C  
HETATM   13  C   UNL     1      -8.017   5.362  64.632  1.00  0.00    -0.112 C  
HETATM   14  O   UNL     1      -7.388   6.081  63.583  1.00  0.00    -0.056 OA 
HETATM   15  C   UNL     1      -9.340   4.825  64.150  1.00  0.00     0.048 C  
HETATM   16  H   UNL     1      -7.157   5.527  62.846  1.00  0.00     0.000 HD 
HETATM   17  C   UNL     1     -10.094   4.506  65.425  1.00  0.00    -0.192 C  
HETATM   18  O   UNL     1     -11.478   4.585  65.144  1.00  0.00    -1.105 OA 
HETATM   19  C   UNL     1      -9.577   5.501  66.506  1.00  0.00    -0.169 C  
HETATM   20  H   UNL     1     -11.952   4.385  65.943  1.00  0.00     0.000 HD 
BRANCH  19  21
HETATM   21  C   UNL     1     -10.638   6.461  67.080  1.00  0.00    -0.396 C  
BRANCH  21  22
HETATM   22  C   UNL     1     -11.259   6.001  68.375  1.00  0.00    -0.120 C  
HETATM   23  C   UNL     1     -11.402   6.678  69.523  1.00  0.00    -0.358 C  
BRANCH  23  24
HETATM   24  C   UNL     1     -10.920   8.068  69.813  1.00  0.00    -0.138 C  
BRANCH  24  25
HETATM   25  C   UNL     1     -11.051   8.436  71.293  1.00  0.00    -0.307 C  
BRANCH  25  26
HETATM   26  C   UNL     1     -11.493   9.884  71.519  1.00  0.00    -0.322 C  
HETATM   27  C   UNL     1     -12.993   9.982  71.696  1.00  0.00    -0.449 C  
HETATM   28  O   UNL     1     -13.773   9.050  71.664  1.00  0.00    -0.380 OA 
HETATM   29  O   UNL     1     -13.397  11.258  71.908  1.00  0.00    -0.429 OA 
ENDBRANCH  25  26
ENDBRANCH  24  25
ENDBRANCH  23  24
ENDBRANCH  21  22
ENDBRANCH  19  21
ENDBRANCH  11  12
ENDBRANCH  10  11
ENDBRANCH   8  10
ENDBRANCH   7   8
ENDBRANCH   6   7
ENDBRANCH   5   6
ENDBRANCH   4   5
ENDBRANCH   3   4
ENDBRANCH   2   3
TORSDOF 14
ENDMDL
MODEL      312
REMARK 921   NORMALIZED FREE ENERGY PREDICTED BY IDOCK:   -3.04 KCAL/MOL
REMARK 922        TOTAL FREE ENERGY PREDICTED BY IDOCK:   -8.48 KCAL/MOL
REMARK 923 INTER-LIGAND FREE ENERGY PREDICTED BY IDOCK:   -5.71 KCAL/MOL
REMARK 924 INTRA-LIGAND FREE ENERGY PREDICTED BY IDOCK:   -2.77 KCAL/MOL
REMARK 927      BINDING AFFINITY PREDICTED BY RF-SCORE:    0.00 PKD
ROOT
HETATM    1  C   UNL     1     -11.334  10.770  67.661  1.00  0.00    -0.328 C  
HETATM    2  C   UNL     1      -9.943  10.790  68.271  1.00  0.00    -0.182 C  
ENDROOT
BRANCH   2   3
HETATM    3  C   UNL     1      -8.850  10.686  67.205  1.00  0.00    -0.137 C  
BRANCH   3   4
HETATM    4  C   UNL     1      -8.333   9.251  67.119  1.00  0.00    -0.124 C  
BRANCH   4   5
HETATM    5  C   UNL     1      -6.811   9.155  67.237  1.00  0.00    -0.077 C  
BRANCH   5   6
HETATM    6  C   UNL     1      -6.436   8.432  68.536  1.00  0.00    -0.055 C  
BRANCH   6   7
HETATM    7  C   UNL     1      -7.636   8.215  69.447  1.00  0.00    -0.101 C  
BRANCH   7   8
HETATM    8  C   UNL     1      -7.491   8.934  70.790  1.00  0.00    -0.099 C  
HETATM    9  O   UNL     1      -7.230  10.131  70.880  1.00  0.00    -0.291 OA 
BRANCH   8  10
HETATM   10  C   UNL     1      -7.726   8.057  72.003  1.00  0.00    -0.124 C  
BRANCH  10  11
HETATM   11  C   UNL     1      -8.360   6.677  71.768  1.00  0.00    -0.111 C  
BRANCH  11  12
HETATM   12  C   UNL     1      -9.904   6.750  71.898  1.00  0.00    -0.173 C  
HETATM   13  C   UNL     1     -10.332   7.706  73.023  1.00  0.00    -0.335 C  
HETATM   14  O   UNL     1     -10.238   7.116  74.309  1.00  0.00    -0.439 OA 
HETATM   15  C   UNL     1     -11.774   8.011  72.714  1.00  0.00    -0.352 C  
HETATM   16  H   UNL     1     -10.502   7.707  75.004  1.00  0.00     0.000 HD 
HETATM   17  C   UNL     1     -11.800   8.184  71.209  1.00  0.00    -0.287 C  
HETATM   18  O   UNL     1     -13.103   7.870  70.756  1.00  0.00    -0.496 OA 
HETATM   19  C   UNL     1     -10.663   7.284  70.640  1.00  0.00    -0.252 C  
HETATM   20  H   UNL     1     -13.120   7.978  69.812  1.00  0.00     0.000 HD 
BRANCH  19  21
HETATM   21  C   UNL     1     -11.125   6.150  69.703  1.00  0.00    -0.489 C  
BRANCH  21  22
HETATM   22  C   UNL     1     -11.131   6.515  68.240  1.00  0.00    -0.332 C  
HETATM   23  C   UNL     1     -10.254   6.169  67.287  1.00  0.00    -0.236 C  
BRANCH  23  24
HETATM   24  C   UNL     1      -9.004   5.361  67.465  1.00  0.00    -0.108 C  
BRANCH  24  25
HETATM   25  C   UNL     1      -9.235   3.865  67.240  1.00  0.00    -0.200 C  
BRANCH  25  26
HETATM   26  C   UNL     1      -9.391   3.074  68.540  1.00  0.00    -0.243 C  
HETATM   27  C   UNL     1      -8.151   2.261  68.844  1.00  0.00    -0.051 C  
HETATM   28  O   UNL     1      -7.145   2.220  68.162  1.00  0.00    -0.046 OA 
HETATM   29  O   UNL     1      -8.271   1.564  70.000  1.00  0.00    -0.041 OA 
ENDBRANCH  25  26
ENDBRANCH  24  25
ENDBRANCH  23  24
ENDBRANCH  21  22
ENDBRANCH  19  21
ENDBRANCH  11  12
ENDBRANCH  10  11
ENDBRANCH   8  10
ENDBRANCH   7   8
ENDBRANCH   6   7
ENDBRANCH   5   6
ENDBRANCH   4   5
ENDBRANCH   3   4
ENDBRANCH   2   3
TORSDOF 14
ENDMDL
MODEL      313
REMARK 921   NORMALIZED FREE ENERGY PREDICTED BY IDOCK:   -3.02 KCAL/MOL
REMARK 922        TOTAL FREE ENERGY PREDICTED BY IDOCK:   -8.45 KCAL/MOL
REMARK 923 INTER-LIGAND FREE ENERGY PREDICTED BY IDOCK:   -5.79 KCAL/MOL
REMARK 924 INTRA-LIGAND FREE ENERGY PREDICTED BY IDOCK:   -2.67 KCAL/MOL
REMARK 927      BINDING AFFINITY PREDICTED BY RF-SCORE:    0.00 PKD
ROOT
HETATM    1  C   UNL     1     -11.895   9.695  70.919  1.00  0.00    -0.403 C  
HETATM    2  C   UNL     1     -12.236   8.538  71.842  1.00  0.00    -0.411 C  
ENDROOT
BRANCH   2   3
HETATM    3  C   UNL     1     -11.925   7.184  71.202  1.00  0.00    -0.381 C  
BRANCH   3   4
HETATM    4  C   UNL     1     -11.101   6.325  72.161  1.00  0.00    -0.312 C  
BRANCH   4   5
HETATM    5  C   UNL     1     -10.735   7.056  73.453  1.00  0.00    -0.379 C  
BRANCH   5   6
HETATM    6  C   UNL     1      -9.214   7.039  73.647  1.00  0.00    -0.211 C  
BRANCH   6   7
HETATM    7  C   UNL     1      -8.519   8.157  72.882  1.00  0.00    -0.259 C  
BRANCH   7   8
HETATM    8  C   UNL     1      -7.247   7.682  72.175  1.00  0.00    -0.071 C  
HETATM    9  O   UNL     1      -6.254   7.292  72.783  1.00  0.00    -0.054 OA 
BRANCH   8  10
HETATM   10  C   UNL     1      -7.322   7.703  70.662  1.00  0.00    -0.067 C  
BRANCH  10  11
HETATM   11  C   UNL     1      -8.685   8.007  70.022  1.00  0.00    -0.135 C  
BRANCH  11  12
HETATM   12  C   UNL     1      -8.956   7.059  68.824  1.00  0.00    -0.131 C  
HETATM   13  C   UNL     1      -9.227   5.621  69.293  1.00  0.00    -0.116 C  
HETATM   14  O   UNL     1      -8.039   4.912  69.604  1.00  0.00    -0.072 OA 
HETATM   15  C   UNL     1      -9.904   4.974  68.113  1.00  0.00    -0.203 C  
HETATM   16  H   UNL     1      -8.206   4.023  69.894  1.00  0.00     0.000 HD 
HETATM   17  C   UNL     1     -10.851   6.040  67.601  1.00  0.00    -0.295 C  
HETATM   18  O   UNL     1     -11.066   5.807  66.223  1.00  0.00    -0.733 OA 
HETATM   19  C   UNL     1     -10.203   7.413  67.951  1.00  0.00    -0.242 C  
HETATM   20  H   UNL     1     -11.660   6.476  65.901  1.00  0.00     0.000 HD 
BRANCH  19  21
HETATM   21  C   UNL     1      -9.844   8.300  66.742  1.00  0.00    -0.333 C  
BRANCH  21  22
HETATM   22  C   UNL     1      -9.664   9.760  67.073  1.00  0.00    -0.233 C  
HETATM   23  C   UNL     1      -8.530  10.474  67.121  1.00  0.00    -0.127 C  
BRANCH  23  24
HETATM   24  C   UNL     1      -7.137   9.966  66.904  1.00  0.00    -0.090 C  
BRANCH  24  25
HETATM   25  C   UNL     1      -6.567  10.381  65.546  1.00  0.00    -0.125 C  
BRANCH  25  26
HETATM   26  C   UNL     1      -7.463   9.991  64.368  1.00  0.00    -0.141 C  
HETATM   27  C   UNL     1      -6.933   8.767  63.652  1.00  0.00    -0.088 C  
HETATM   28  O   UNL     1      -5.927   8.152  63.948  1.00  0.00    -0.064 OA 
HETATM   29  O   UNL     1      -7.724   8.405  62.613  1.00  0.00    -0.114 OA 
ENDBRANCH  25  26
ENDBRANCH  24  25
ENDBRANCH  23  24
ENDBRANCH  21  22
ENDBRANCH  19  21
ENDBRANCH  11  12
ENDBRANCH  10  11
ENDBRANCH   8  10
ENDBRANCH   7   8
ENDBRANCH   6   7
ENDBRANCH   5   6
ENDBRANCH   4   5
ENDBRANCH   3   4
ENDBRANCH   2   3
TORSDOF 14
ENDMDL
MODEL      314
REMARK 921   NORMALIZED FREE ENERGY PREDICTED BY IDOCK:   -3.02 KCAL/MOL
REMARK 922        TOTAL FREE ENERGY PREDICTED BY IDOCK:   -8.45 KCAL/MOL
REMARK 923 INTER-LIGAND FREE ENERGY PREDICTED BY IDOCK:   -7.01 KCAL/MOL
REMARK 924 INTRA-LIGAND FREE ENERGY PREDICTED BY IDOCK:   -1.44 KCAL/MOL
REMARK 927      BINDING AFFINITY PREDICTED BY RF-SCORE:    0.00 PKD
ROOT
HETATM    1  C   UNL     1      -7.572   6.469  70.847  1.00  0.00    -0.089 C  
HETATM    2  C   UNL     1      -7.304   6.789  69.387  1.00  0.00    -0.092 C  
ENDROOT
BRANCH   2   3
HETATM    3  C   UNL     1      -8.086   8.017  68.917  1.00  0.00    -0.124 C  
BRANCH   3   4
HETATM    4  C   UNL     1      -7.854   8.250  67.424  1.00  0.00    -0.106 C  
BRANCH   4   5
HETATM    5  C   UNL     1      -9.109   8.013  66.582  1.00  0.00    -0.199 C  
BRANCH   5   6
HETATM    6  C   UNL     1      -9.105   8.952  65.369  1.00  0.00    -0.222 C  
BRANCH   6   7
HETATM    7  C   UNL     1      -9.622  10.342  65.711  1.00  0.00    -0.279 C  
BRANCH   7   8
HETATM    8  C   UNL     1      -9.838  11.209  64.469  1.00  0.00    -0.280 C  
HETATM    9  O   UNL     1      -9.065  11.211  63.515  1.00  0.00    -0.188 OA 
BRANCH   8  10
HETATM   10  C   UNL     1     -11.102  12.045  64.496  1.00  0.00    -0.384 C  
BRANCH  10  11
HETATM   11  C   UNL     1     -10.943  13.572  64.548  1.00  0.00    -0.405 C  
BRANCH  11  12
HETATM   12  C   UNL     1     -10.791  14.061  66.013  1.00  0.00    -0.295 C  
HETATM   13  C   UNL     1     -11.511  13.125  66.998  1.00  0.00    -0.336 C  
HETATM   14  O   UNL     1     -12.909  13.357  67.051  1.00  0.00     0.001 OA 
HETATM   15  C   UNL     1     -10.896  13.457  68.332  1.00  0.00    -0.284 C  
HETATM   16  H   UNL     1     -13.355  12.779  67.660  1.00  0.00     0.000 HD 
HETATM   17  C   UNL     1      -9.421  13.622  68.027  1.00  0.00    -0.209 C  
HETATM   18  O   UNL     1      -8.869  14.490  68.998  1.00  0.00    -0.310 OA 
HETATM   19  C   UNL     1      -9.326  14.123  66.555  1.00  0.00    -0.285 C  
HETATM   20  H   UNL     1      -7.944  14.593  68.807  1.00  0.00     0.000 HD 
BRANCH  19  21
HETATM   21  C   UNL     1      -8.688  15.515  66.373  1.00  0.00    -0.333 C  
BRANCH  21  22
HETATM   22  C   UNL     1      -9.649  16.585  65.920  1.00  0.00    -0.284 C  
HETATM   23  C   UNL     1     -10.368  17.437  66.666  1.00  0.00    -0.306 C  
BRANCH  23  24
HETATM   24  C   UNL     1     -10.426  17.492  68.162  1.00  0.00    -0.386 C  
BRANCH  24  25
HETATM   25  C   UNL     1      -9.534  18.592  68.744  1.00  0.00    -0.334 C  
BRANCH  25  26
HETATM   26  C   UNL     1      -8.310  18.900  67.878  1.00  0.00    -0.310 C  
HETATM   27  C   UNL     1      -8.483  20.197  67.119  1.00  0.00    -0.342 C  
HETATM   28  O   UNL     1      -9.457  20.923  67.168  1.00  0.00    -0.379 OA 
HETATM   29  O   UNL     1      -7.401  20.487  66.357  1.00  0.00    -0.249 OA 
ENDBRANCH  25  26
ENDBRANCH  24  25
ENDBRANCH  23  24
ENDBRANCH  21  22
ENDBRANCH  19  21
ENDBRANCH  11  12
ENDBRANCH  10  11
ENDBRANCH   8  10
ENDBRANCH   7   8
ENDBRANCH   6   7
ENDBRANCH   5   6
ENDBRANCH   4   5
ENDBRANCH   3   4
ENDBRANCH   2   3
TORSDOF 14
ENDMDL
MODEL      315
REMARK 921   NORMALIZED FREE ENERGY PREDICTED BY IDOCK:   -3.02 KCAL/MOL
REMARK 922        TOTAL FREE ENERGY PREDICTED BY IDOCK:   -8.45 KCAL/MOL
REMARK 923 INTER-LIGAND FREE ENERGY PREDICTED BY IDOCK:   -7.68 KCAL/MOL
REMARK 924 INTRA-LIGAND FREE ENERGY PREDICTED BY IDOCK:   -0.76 KCAL/MOL
REMARK 927      BINDING AFFINITY PREDICTED BY RF-SCORE:    0.00 PKD
ROOT
HETATM    1  C   UNL     1     -13.079  10.229  71.508  1.00  0.00    -0.534 C  
HETATM    2  C   UNL     1     -13.236   8.879  72.184  1.00  0.00    -0.478 C  
ENDROOT
BRANCH   2   3
HETATM    3  C   UNL     1     -13.487   7.758  71.173  1.00  0.00    -0.142 C  
BRANCH   3   4
HETATM    4  C   UNL     1     -12.340   6.749  71.210  1.00  0.00    -0.395 C  
BRANCH   4   5
HETATM    5  C   UNL     1     -12.177   6.079  72.576  1.00  0.00    -0.044 C  
BRANCH   5   6
HETATM    6  C   UNL     1     -10.697   6.069  72.977  1.00  0.00    -0.279 C  
BRANCH   6   7
HETATM    7  C   UNL     1     -10.239   7.408  73.536  1.00  0.00    -0.400 C  
BRANCH   7   8
HETATM    8  C   UNL     1      -8.753   7.673  73.282  1.00  0.00    -0.190 C  
HETATM    9  O   UNL     1      -7.864   7.223  74.000  1.00  0.00    -0.106 OA 
BRANCH   8  10
HETATM   10  C   UNL     1      -8.464   8.513  72.054  1.00  0.00    -0.231 C  
BRANCH  10  11
HETATM   11  C   UNL     1      -9.653   8.901  71.163  1.00  0.00    -0.342 C  
BRANCH  11  12
HETATM   12  C   UNL     1      -9.425   8.427  69.703  1.00  0.00    -0.166 C  
HETATM   13  C   UNL     1      -9.301   6.897  69.619  1.00  0.00    -0.145 C  
HETATM   14  O   UNL     1      -8.013   6.430  69.987  1.00  0.00    -0.108 OA 
HETATM   15  C   UNL     1      -9.551   6.590  68.165  1.00  0.00    -0.123 C  
HETATM   16  H   UNL     1      -7.936   5.485  69.935  1.00  0.00     0.000 HD 
HETATM   17  C   UNL     1     -10.694   7.509  67.786  1.00  0.00    -0.163 C  
HETATM   18  O   UNL     1     -10.610   7.758  66.396  1.00  0.00    -0.412 OA 
HETATM   19  C   UNL     1     -10.571   8.768  68.696  1.00  0.00    -0.174 C  
HETATM   20  H   UNL     1     -11.327   8.334  66.157  1.00  0.00     0.000 HD 
BRANCH  19  21
HETATM   21  C   UNL     1     -10.327  10.097  67.953  1.00  0.00    -0.234 C  
BRANCH  21  22
HETATM   22  C   UNL     1     -11.292  11.198  68.313  1.00  0.00    -0.365 C  
HETATM   23  C   UNL     1     -11.632  12.281  67.600  1.00  0.00    -0.421 C  
BRANCH  23  24
HETATM   24  C   UNL     1     -11.080  12.690  66.268  1.00  0.00    -0.330 C  
BRANCH  24  25
HETATM   25  C   UNL     1     -12.164  12.801  65.193  1.00  0.00    -0.530 C  
BRANCH  25  26
HETATM   26  C   UNL     1     -11.684  12.382  63.802  1.00  0.00    -0.566 C  
HETATM   27  C   UNL     1     -10.391  11.599  63.876  1.00  0.00    -0.369 C  
HETATM   28  O   UNL     1      -9.787  11.323  64.895  1.00  0.00    -0.238 OA 
HETATM   29  O   UNL     1      -9.961  11.212  62.652  1.00  0.00    -0.197 OA 
ENDBRANCH  25  26
ENDBRANCH  24  25
ENDBRANCH  23  24
ENDBRANCH  21  22
ENDBRANCH  19  21
ENDBRANCH  11  12
ENDBRANCH  10  11
ENDBRANCH   8  10
ENDBRANCH   7   8
ENDBRANCH   6   7
ENDBRANCH   5   6
ENDBRANCH   4   5
ENDBRANCH   3   4
ENDBRANCH   2   3
TORSDOF 14
ENDMDL
MODEL      316
REMARK 921   NORMALIZED FREE ENERGY PREDICTED BY IDOCK:   -2.99 KCAL/MOL
REMARK 922        TOTAL FREE ENERGY PREDICTED BY IDOCK:   -8.40 KCAL/MOL
REMARK 923 INTER-LIGAND FREE ENERGY PREDICTED BY IDOCK:   -6.78 KCAL/MOL
REMARK 924 INTRA-LIGAND FREE ENERGY PREDICTED BY IDOCK:   -1.62 KCAL/MOL
REMARK 927      BINDING AFFINITY PREDICTED BY RF-SCORE:    0.00 PKD
ROOT
HETATM    1  C   UNL     1      -5.957  18.126  66.232  1.00  0.00    -0.219 C  
HETATM    2  C   UNL     1      -7.458  17.908  66.171  1.00  0.00    -0.315 C  
ENDROOT
BRANCH   2   3
HETATM    3  C   UNL     1      -8.026  17.458  67.519  1.00  0.00    -0.205 C  
BRANCH   3   4
HETATM    4  C   UNL     1      -9.337  16.700  67.312  1.00  0.00    -0.234 C  
BRANCH   4   5
HETATM    5  C   UNL     1     -10.379  17.510  66.537  1.00  0.00    -0.325 C  
BRANCH   5   6
HETATM    6  C   UNL     1     -10.721  16.795  65.224  1.00  0.00    -0.183 C  
BRANCH   6   7
HETATM    7  C   UNL     1     -10.542  15.286  65.322  1.00  0.00    -0.438 C  
BRANCH   7   8
HETATM    8  C   UNL     1     -11.544  14.519  64.456  1.00  0.00    -0.377 C  
HETATM    9  O   UNL     1     -12.432  15.074  63.814  1.00  0.00    -0.745 OA 
BRANCH   8  10
HETATM   10  C   UNL     1     -11.334  13.019  64.429  1.00  0.00    -0.397 C  
BRANCH  10  11
HETATM   11  C   UNL     1     -11.554  12.247  65.739  1.00  0.00    -0.443 C  
BRANCH  11  12
HETATM   12  C   UNL     1     -10.300  11.409  66.103  1.00  0.00    -0.294 C  
HETATM   13  C   UNL     1      -9.508  11.005  64.849  1.00  0.00    -0.233 C  
HETATM   14  O   UNL     1     -10.075   9.892  64.177  1.00  0.00    -0.450 OA 
HETATM   15  C   UNL     1      -8.149  10.632  65.380  1.00  0.00    -0.106 C  
HETATM   16  H   UNL     1      -9.586   9.642  63.402  1.00  0.00     0.000 HD 
HETATM   17  C   UNL     1      -7.863  11.685  66.431  1.00  0.00     0.035 C  
HETATM   18  O   UNL     1      -6.970  11.127  67.376  1.00  0.00    -0.082 OA 
HETATM   19  C   UNL     1      -9.243  12.129  67.000  1.00  0.00    -0.202 C  
HETATM   20  H   UNL     1      -6.791  11.787  68.036  1.00  0.00     0.000 HD 
BRANCH  19  21
HETATM   21  C   UNL     1      -9.457  11.852  68.502  1.00  0.00    -0.151 C  
BRANCH  21  22
HETATM   22  C   UNL     1     -10.625  12.587  69.110  1.00  0.00    -0.000 C  
HETATM   23  C   UNL     1     -11.800  12.093  69.527  1.00  0.00    -0.386 C  
BRANCH  23  24
HETATM   24  C   UNL     1     -12.261  10.670  69.436  1.00  0.00    -0.173 C  
BRANCH  24  25
HETATM   25  C   UNL     1     -11.936   9.867  70.698  1.00  0.00    -0.361 C  
BRANCH  25  26
HETATM   26  C   UNL     1     -10.497  10.057  71.183  1.00  0.00     0.249 C  
HETATM   27  C   UNL     1      -9.766   8.736  71.275  1.00  0.00    -0.265 C  
HETATM   28  O   UNL     1     -10.233   7.646  71.006  1.00  0.00    -0.194 OA 
HETATM   29  O   UNL     1      -8.486   8.892  71.693  1.00  0.00    -0.282 OA 
ENDBRANCH  25  26
ENDBRANCH  24  25
ENDBRANCH  23  24
ENDBRANCH  21  22
ENDBRANCH  19  21
ENDBRANCH  11  12
ENDBRANCH  10  11
ENDBRANCH   8  10
ENDBRANCH   7   8
ENDBRANCH   6   7
ENDBRANCH   5   6
ENDBRANCH   4   5
ENDBRANCH   3   4
ENDBRANCH   2   3
TORSDOF 14
ENDMDL
MODEL      317
REMARK 921   NORMALIZED FREE ENERGY PREDICTED BY IDOCK:   -2.99 KCAL/MOL
REMARK 922        TOTAL FREE ENERGY PREDICTED BY IDOCK:   -8.40 KCAL/MOL
REMARK 923 INTER-LIGAND FREE ENERGY PREDICTED BY IDOCK:   -6.70 KCAL/MOL
REMARK 924 INTRA-LIGAND FREE ENERGY PREDICTED BY IDOCK:   -1.69 KCAL/MOL
REMARK 927      BINDING AFFINITY PREDICTED BY RF-SCORE:    0.00 PKD
ROOT
HETATM    1  C   UNL     1     -11.517  15.661  71.407  1.00  0.00    -0.488 C  
HETATM    2  C   UNL     1     -12.398  14.442  71.612  1.00  0.00    -0.415 C  
ENDROOT
BRANCH   2   3
HETATM    3  C   UNL     1     -12.195  13.397  70.513  1.00  0.00    -0.425 C  
BRANCH   3   4
HETATM    4  C   UNL     1     -12.061  14.082  69.153  1.00  0.00    -0.375 C  
BRANCH   4   5
HETATM    5  C   UNL     1     -12.258  13.122  67.979  1.00  0.00    -0.091 C  
BRANCH   5   6
HETATM    6  C   UNL     1     -11.584  11.780  68.287  1.00  0.00    -0.373 C  
BRANCH   6   7
HETATM    7  C   UNL     1     -10.268  11.607  67.541  1.00  0.00    -0.216 C  
BRANCH   7   8
HETATM    8  C   UNL     1     -10.403  11.880  66.042  1.00  0.00    -0.233 C  
HETATM    9  O   UNL     1     -10.712  11.010  65.231  1.00  0.00    -0.246 OA 
BRANCH   8  10
HETATM   10  C   UNL     1     -10.155  13.320  65.638  1.00  0.00    -0.281 C  
BRANCH  10  11
HETATM   11  C   UNL     1      -8.835  13.965  66.086  1.00  0.00     0.360 C  
BRANCH  11  12
HETATM   12  C   UNL     1      -9.018  14.715  67.433  1.00  0.00    -0.202 C  
HETATM   13  C   UNL     1      -7.900  14.367  68.429  1.00  0.00    -0.138 C  
HETATM   14  O   UNL     1      -8.111  13.123  69.076  1.00  0.00    -0.335 OA 
HETATM   15  C   UNL     1      -7.957  15.478  69.444  1.00  0.00    -0.229 C  
HETATM   16  H   UNL     1      -7.420  12.907  69.692  1.00  0.00     0.000 HD 
HETATM   17  C   UNL     1      -8.185  16.725  68.614  1.00  0.00    -0.252 C  
HETATM   18  O   UNL     1      -8.840  17.678  69.428  1.00  0.00     0.178 OA 
HETATM   19  C   UNL     1      -8.975  16.275  67.348  1.00  0.00    -0.197 C  
HETATM   20  H   UNL     1      -8.983  18.460  68.907  1.00  0.00     0.000 HD 
BRANCH  19  21
HETATM   21  C   UNL     1     -10.377  16.897  67.191  1.00  0.00    -0.304 C  
BRANCH  21  22
HETATM   22  C   UNL     1     -10.522  17.812  66.001  1.00  0.00    -0.286 C  
HETATM   23  C   UNL     1     -10.404  19.147  65.952  1.00  0.00    -0.463 C  
BRANCH  23  24
HETATM   24  C   UNL     1     -10.145  20.070  67.103  1.00  0.00    -0.587 C  
BRANCH  24  25
HETATM   25  C   UNL     1      -8.710  20.603  67.117  1.00  0.00    -0.313 C  
BRANCH  25  26
HETATM   26  C   UNL     1      -7.661  19.523  66.841  1.00  0.00    -0.267 C  
HETATM   27  C   UNL     1      -6.696  19.954  65.758  1.00  0.00    -0.260 C  
HETATM   28  O   UNL     1      -6.726  21.014  65.162  1.00  0.00    -0.104 OA 
HETATM   29  O   UNL     1      -5.755  19.011  65.512  1.00  0.00    -0.157 OA 
ENDBRANCH  25  26
ENDBRANCH  24  25
ENDBRANCH  23  24
ENDBRANCH  21  22
ENDBRANCH  19  21
ENDBRANCH  11  12
ENDBRANCH  10  11
ENDBRANCH   8  10
ENDBRANCH   7   8
ENDBRANCH   6   7
ENDBRANCH   5   6
ENDBRANCH   4   5
ENDBRANCH   3   4
ENDBRANCH   2   3
TORSDOF 14
ENDMDL
MODEL      318
REMARK 921   NORMALIZED FREE ENERGY PREDICTED BY IDOCK:   -2.97 KCAL/MOL
REMARK 922        TOTAL FREE ENERGY PREDICTED BY IDOCK:   -8.36 KCAL/MOL
REMARK 923 INTER-LIGAND FREE ENERGY PREDICTED BY IDOCK:   -6.69 KCAL/MOL
REMARK 924 INTRA-LIGAND FREE ENERGY PREDICTED BY IDOCK:   -1.67 KCAL/MOL
REMARK 927      BINDING AFFINITY PREDICTED BY RF-SCORE:    0.00 PKD
ROOT
HETATM    1  C   UNL     1     -11.775   7.726  71.207  1.00  0.00    -0.311 C  
HETATM    2  C   UNL     1     -11.991   6.325  71.749  1.00  0.00    -0.313 C  
ENDROOT
BRANCH   2   3
HETATM    3  C   UNL     1     -10.772   5.817  72.523  1.00  0.00    -0.279 C  
BRANCH   3   4
HETATM    4  C   UNL     1     -10.208   4.564  71.855  1.00  0.00    -0.241 C  
BRANCH   4   5
HETATM    5  C   UNL     1      -9.162   4.878  70.784  1.00  0.00    -0.196 C  
BRANCH   5   6
HETATM    6  C   UNL     1      -9.816   4.852  69.397  1.00  0.00    -0.281 C  
BRANCH   6   7
HETATM    7  C   UNL     1      -8.810   5.083  68.278  1.00  0.00    -0.110 C  
BRANCH   7   8
HETATM    8  C   UNL     1      -9.429   5.789  67.069  1.00  0.00    -0.124 C  
HETATM    9  O   UNL     1      -9.301   5.377  65.919  1.00  0.00    -0.159 OA 
BRANCH   8  10
HETATM   10  C   UNL     1     -10.241   7.023  67.408  1.00  0.00    -0.278 C  
BRANCH  10  11
HETATM   11  C   UNL     1      -9.914   8.318  66.649  1.00  0.00    -0.348 C  
BRANCH  11  12
HETATM   12  C   UNL     1      -8.655   9.004  67.244  1.00  0.00    -0.115 C  
HETATM   13  C   UNL     1      -7.501   9.044  66.230  1.00  0.00    -0.092 C  
HETATM   14  O   UNL     1      -6.806   7.811  66.141  1.00  0.00    -0.059 OA 
HETATM   15  C   UNL     1      -6.578  10.104  66.769  1.00  0.00    -0.073 C  
HETATM   16  H   UNL     1      -6.092   7.836  65.514  1.00  0.00     0.000 HD 
HETATM   17  C   UNL     1      -7.512  11.198  67.246  1.00  0.00    -0.118 C  
HETATM   18  O   UNL     1      -6.854  11.917  68.271  1.00  0.00    -0.059 OA 
HETATM   19  C   UNL     1      -8.837  10.497  67.669  1.00  0.00    -0.131 C  
HETATM   20  H   UNL     1      -7.440  12.603  68.570  1.00  0.00     0.000 HD 
BRANCH  19  21
HETATM   21  C   UNL     1      -9.216  10.646  69.156  1.00  0.00    -0.162 C  
BRANCH  21  22
HETATM   22  C   UNL     1     -10.693  10.815  69.407  1.00  0.00    -0.272 C  
HETATM   23  C   UNL     1     -11.649  11.208  68.553  1.00  0.00    -0.385 C  
BRANCH  23  24
HETATM   24  C   UNL     1     -11.463  11.632  67.128  1.00  0.00    -0.344 C  
BRANCH  24  25
HETATM   25  C   UNL     1     -11.205  13.134  66.991  1.00  0.00    -0.325 C  
BRANCH  25  26
HETATM   26  C   UNL     1     -11.069  13.596  65.539  1.00  0.00    -0.301 C  
HETATM   27  C   UNL     1     -12.389  14.092  64.990  1.00  0.00    -0.441 C  
HETATM   28  O   UNL     1     -13.441  14.130  65.599  1.00  0.00    -0.576 OA 
HETATM   29  O   UNL     1     -12.279  14.514  63.707  1.00  0.00    -0.599 OA 
ENDBRANCH  25  26
ENDBRANCH  24  25
ENDBRANCH  23  24
ENDBRANCH  21  22
ENDBRANCH  19  21
ENDBRANCH  11  12
ENDBRANCH  10  11
ENDBRANCH   8  10
ENDBRANCH   7   8
ENDBRANCH   6   7
ENDBRANCH   5   6
ENDBRANCH   4   5
ENDBRANCH   3   4
ENDBRANCH   2   3
TORSDOF 14
ENDMDL
MODEL      319
REMARK 921   NORMALIZED FREE ENERGY PREDICTED BY IDOCK:   -2.97 KCAL/MOL
REMARK 922        TOTAL FREE ENERGY PREDICTED BY IDOCK:   -8.36 KCAL/MOL
REMARK 923 INTER-LIGAND FREE ENERGY PREDICTED BY IDOCK:   -5.95 KCAL/MOL
REMARK 924 INTRA-LIGAND FREE ENERGY PREDICTED BY IDOCK:   -2.42 KCAL/MOL
REMARK 927      BINDING AFFINITY PREDICTED BY RF-SCORE:    0.00 PKD
ROOT
HETATM    1  C   UNL     1      -8.596   5.014  70.840  1.00  0.00    -0.129 C  
HETATM    2  C   UNL     1      -9.672   5.600  71.738  1.00  0.00    -0.192 C  
ENDROOT
BRANCH   2   3
HETATM    3  C   UNL     1     -10.962   5.893  70.970  1.00  0.00    -0.335 C  
BRANCH   3   4
HETATM    4  C   UNL     1     -11.997   6.525  71.900  1.00  0.00    -0.389 C  
BRANCH   4   5
HETATM    5  C   UNL     1     -11.450   7.726  72.673  1.00  0.00    -0.430 C  
BRANCH   5   6
HETATM    6  C   UNL     1     -12.386   8.928  72.497  1.00  0.00    -0.325 C  
BRANCH   6   7
HETATM    7  C   UNL     1     -12.567   9.311  71.035  1.00  0.00    -0.248 C  
BRANCH   7   8
HETATM    8  C   UNL     1     -11.880  10.633  70.685  1.00  0.00    -0.363 C  
HETATM    9  O   UNL     1     -12.294  11.722  71.074  1.00  0.00    -0.358 OA 
BRANCH   8  10
HETATM   10  C   UNL     1     -10.628  10.489  69.844  1.00  0.00    -0.261 C  
BRANCH  10  11
HETATM   11  C   UNL     1      -9.904   9.135  69.875  1.00  0.00    -0.206 C  
BRANCH  11  12
HETATM   12  C   UNL     1      -9.377   8.758  68.465  1.00  0.00    -0.142 C  
HETATM   13  C   UNL     1     -10.511   8.734  67.427  1.00  0.00    -0.279 C  
HETATM   14  O   UNL     1     -11.274   7.539  67.477  1.00  0.00    -0.516 OA 
HETATM   15  C   UNL     1      -9.797   8.819  66.104  1.00  0.00    -0.297 C  
HETATM   16  H   UNL     1     -11.975   7.523  66.836  1.00  0.00     0.000 HD 
HETATM   17  C   UNL     1      -8.700   9.836  66.342  1.00  0.00    -0.131 C  
HETATM   18  O   UNL     1      -7.646   9.560  65.440  1.00  0.00    -0.101 OA 
HETATM   19  C   UNL     1      -8.327   9.740  67.852  1.00  0.00    -0.114 C  
HETATM   20  H   UNL     1      -6.958  10.198  65.589  1.00  0.00     0.000 HD 
BRANCH  19  21
HETATM   21  C   UNL     1      -6.876   9.310  68.146  1.00  0.00    -0.064 C  
BRANCH  21  22
HETATM   22  C   UNL     1      -6.293   9.906  69.403  1.00  0.00    -0.045 C  
HETATM   23  C   UNL     1      -5.818  11.144  69.602  1.00  0.00    -0.073 C  
BRANCH  23  24
HETATM   24  C   UNL     1      -5.703  12.237  68.583  1.00  0.00    -0.053 C  
BRANCH  24  25
HETATM   25  C   UNL     1      -6.676  13.389  68.847  1.00  0.00    -0.110 C  
BRANCH  25  26
HETATM   26  C   UNL     1      -7.907  13.362  67.938  1.00  0.00    -0.152 C  
HETATM   27  C   UNL     1      -8.140  14.706  67.283  1.00  0.00    -0.206 C  
HETATM   28  O   UNL     1      -7.455  15.700  67.440  1.00  0.00    -0.166 OA 
HETATM   29  O   UNL     1      -9.221  14.693  66.467  1.00  0.00    -0.262 OA 
ENDBRANCH  25  26
ENDBRANCH  24  25
ENDBRANCH  23  24
ENDBRANCH  21  22
ENDBRANCH  19  21
ENDBRANCH  11  12
ENDBRANCH  10  11
ENDBRANCH   8  10
ENDBRANCH   7   8
ENDBRANCH   6   7
ENDBRANCH   5   6
ENDBRANCH   4   5
ENDBRANCH   3   4
ENDBRANCH   2   3
TORSDOF 14
ENDMDL
MODEL      320
REMARK 921   NORMALIZED FREE ENERGY PREDICTED BY IDOCK:   -2.97 KCAL/MOL
REMARK 922        TOTAL FREE ENERGY PREDICTED BY IDOCK:   -8.36 KCAL/MOL
REMARK 923 INTER-LIGAND FREE ENERGY PREDICTED BY IDOCK:   -6.20 KCAL/MOL
REMARK 924 INTRA-LIGAND FREE ENERGY PREDICTED BY IDOCK:   -2.16 KCAL/MOL
REMARK 927      BINDING AFFINITY PREDICTED BY RF-SCORE:    0.00 PKD
ROOT
HETATM    1  C   UNL     1     -10.674   8.322  71.242  1.00  0.00    -0.276 C  
HETATM    2  C   UNL     1      -9.560   8.706  72.201  1.00  0.00    -0.378 C  
ENDROOT
BRANCH   2   3
HETATM    3  C   UNL     1      -8.607   7.539  72.467  1.00  0.00    -0.149 C  
BRANCH   3   4
HETATM    4  C   UNL     1      -7.315   7.722  71.672  1.00  0.00    -0.067 C  
BRANCH   4   5
HETATM    5  C   UNL     1      -7.152   6.692  70.552  1.00  0.00    -0.068 C  
BRANCH   5   6
HETATM    6  C   UNL     1      -8.081   7.043  69.385  1.00  0.00    -0.130 C  
BRANCH   6   7
HETATM    7  C   UNL     1      -7.544   8.189  68.540  1.00  0.00    -0.104 C  
BRANCH   7   8
HETATM    8  C   UNL     1      -8.483   9.398  68.526  1.00  0.00    -0.119 C  
HETATM    9  O   UNL     1      -9.543   9.410  67.906  1.00  0.00    -0.132 OA 
BRANCH   8  10
HETATM   10  C   UNL     1      -8.014  10.570  69.364  1.00  0.00    -0.146 C  
BRANCH  10  11
HETATM   11  C   UNL     1      -6.642  11.176  69.034  1.00  0.00    -0.075 C  
BRANCH  11  12
HETATM   12  C   UNL     1      -6.640  12.707  69.287  1.00  0.00    -0.092 C  
HETATM   13  C   UNL     1      -5.498  13.121  70.230  1.00  0.00    -0.128 C  
HETATM   14  O   UNL     1      -5.800  12.881  71.595  1.00  0.00    -0.507 OA 
HETATM   15  C   UNL     1      -5.355  14.603  70.000  1.00  0.00    -0.098 C  
HETATM   16  H   UNL     1      -5.095  13.137  72.178  1.00  0.00     0.000 HD 
HETATM   17  C   UNL     1      -5.501  14.759  68.500  1.00  0.00    -0.102 C  
HETATM   18  O   UNL     1      -5.983  16.063  68.242  1.00  0.00    -0.097 OA 
HETATM   19  C   UNL     1      -6.427  13.600  68.023  1.00  0.00    -0.138 C  
HETATM   20  H   UNL     1      -6.075  16.161  67.302  1.00  0.00     0.000 HD 
BRANCH  19  21
HETATM   21  C   UNL     1      -7.758  14.042  67.382  1.00  0.00    -0.177 C  
BRANCH  21  22
HETATM   22  C   UNL     1      -8.755  14.620  68.354  1.00  0.00    -0.175 C  
HETATM   23  C   UNL     1      -9.940  14.121  68.736  1.00  0.00    -0.184 C  
BRANCH  23  24
HETATM   24  C   UNL     1     -10.590  12.867  68.236  1.00  0.00    -0.259 C  
BRANCH  24  25
HETATM   25  C   UNL     1     -11.754  13.149  67.284  1.00  0.00    -0.425 C  
BRANCH  25  26
HETATM   26  C   UNL     1     -11.647  12.396  65.956  1.00  0.00    -0.455 C  
HETATM   27  C   UNL     1     -12.551  13.000  64.903  1.00  0.00    -0.428 C  
HETATM   28  O   UNL     1     -13.282  13.959  65.062  1.00  0.00    -0.729 OA 
HETATM   29  O   UNL     1     -12.457  12.349  63.719  1.00  0.00    -0.557 OA 
ENDBRANCH  25  26
ENDBRANCH  24  25
ENDBRANCH  23  24
ENDBRANCH  21  22
ENDBRANCH  19  21
ENDBRANCH  11  12
ENDBRANCH  10  11
ENDBRANCH   8  10
ENDBRANCH   7   8
ENDBRANCH   6   7
ENDBRANCH   5   6
ENDBRANCH   4   5
ENDBRANCH   3   4
ENDBRANCH   2   3
TORSDOF 14
ENDMDL
MODEL      321
REMARK 921   NORMALIZED FREE ENERGY PREDICTED BY IDOCK:   -2.96 KCAL/MOL
REMARK 922        TOTAL FREE ENERGY PREDICTED BY IDOCK:   -8.34 KCAL/MOL
REMARK 923 INTER-LIGAND FREE ENERGY PREDICTED BY IDOCK:   -6.72 KCAL/MOL
REMARK 924 INTRA-LIGAND FREE ENERGY PREDICTED BY IDOCK:   -1.62 KCAL/MOL
REMARK 927      BINDING AFFINITY PREDICTED BY RF-SCORE:    0.00 PKD
ROOT
HETATM    1  C   UNL     1     -10.969  15.724  69.997  1.00  0.00    -0.344 C  
HETATM    2  C   UNL     1      -9.722  16.015  69.181  1.00  0.00    -0.251 C  
ENDROOT
BRANCH   2   3
HETATM    3  C   UNL     1     -10.038  16.186  67.694  1.00  0.00    -0.248 C  
BRANCH   3   4
HETATM    4  C   UNL     1     -11.261  15.352  67.315  1.00  0.00    -0.270 C  
BRANCH   4   5
HETATM    5  C   UNL     1     -11.083  14.595  65.998  1.00  0.00    -0.332 C  
BRANCH   5   6
HETATM    6  C   UNL     1     -11.833  13.260  66.060  1.00  0.00    -0.440 C  
BRANCH   6   7
HETATM    7  C   UNL     1     -11.861  12.676  67.465  1.00  0.00    -0.396 C  
BRANCH   7   8
HETATM    8  C   UNL     1     -11.388  11.221  67.506  1.00  0.00    -0.288 C  
HETATM    9  O   UNL     1     -11.665  10.456  68.427  1.00  0.00    -0.307 OA 
BRANCH   8  10
HETATM   10  C   UNL     1     -10.576  10.788  66.302  1.00  0.00    -0.257 C  
BRANCH  10  11
HETATM   11  C   UNL     1      -9.101  10.426  66.533  1.00  0.00    -0.175 C  
BRANCH  11  12
HETATM   12  C   UNL     1      -8.826   8.953  66.131  1.00  0.00    -0.193 C  
HETATM   13  C   UNL     1      -7.827   8.864  64.966  1.00  0.00    -0.112 C  
HETATM   14  O   UNL     1      -8.432   9.109  63.706  1.00  0.00    -0.180 OA 
HETATM   15  C   UNL     1      -7.333   7.442  65.017  1.00  0.00    -0.078 C  
HETATM   16  H   UNL     1      -7.815   9.054  62.986  1.00  0.00     0.000 HD 
HETATM   17  C   UNL     1      -7.150   7.169  66.496  1.00  0.00    -0.078 C  
HETATM   18  O   UNL     1      -7.287   5.776  66.703  1.00  0.00    -0.079 OA 
HETATM   19  C   UNL     1      -8.189   8.058  67.243  1.00  0.00    -0.122 C  
HETATM   20  H   UNL     1      -7.172   5.604  67.630  1.00  0.00     0.000 HD 
BRANCH  19  21
HETATM   21  C   UNL     1      -9.247   7.290  68.060  1.00  0.00    -0.131 C  
BRANCH  21  22
HETATM   22  C   UNL     1      -8.763   6.804  69.404  1.00  0.00    -0.136 C  
HETATM   23  C   UNL     1      -8.946   7.358  70.611  1.00  0.00    -0.155 C  
BRANCH  23  24
HETATM   24  C   UNL     1      -9.648   8.648  70.911  1.00  0.00    -0.252 C  
BRANCH  24  25
HETATM   25  C   UNL     1     -10.556   8.549  72.139  1.00  0.00    -0.419 C  
BRANCH  25  26
HETATM   26  C   UNL     1     -12.037   8.758  71.814  1.00  0.00    -0.418 C  
HETATM   27  C   UNL     1     -12.778   7.441  71.739  1.00  0.00    -0.334 C  
HETATM   28  O   UNL     1     -12.288   6.341  71.908  1.00  0.00    -0.312 OA 
HETATM   29  O   UNL     1     -14.093   7.613  71.464  1.00  0.00    -0.414 OA 
ENDBRANCH  25  26
ENDBRANCH  24  25
ENDBRANCH  23  24
ENDBRANCH  21  22
ENDBRANCH  19  21
ENDBRANCH  11  12
ENDBRANCH  10  11
ENDBRANCH   8  10
ENDBRANCH   7   8
ENDBRANCH   6   7
ENDBRANCH   5   6
ENDBRANCH   4   5
ENDBRANCH   3   4
ENDBRANCH   2   3
TORSDOF 14
ENDMDL
MODEL      322
REMARK 921   NORMALIZED FREE ENERGY PREDICTED BY IDOCK:   -2.96 KCAL/MOL
REMARK 922        TOTAL FREE ENERGY PREDICTED BY IDOCK:   -8.33 KCAL/MOL
REMARK 923 INTER-LIGAND FREE ENERGY PREDICTED BY IDOCK:   -7.03 KCAL/MOL
REMARK 924 INTRA-LIGAND FREE ENERGY PREDICTED BY IDOCK:   -1.31 KCAL/MOL
REMARK 927      BINDING AFFINITY PREDICTED BY RF-SCORE:    0.00 PKD
ROOT
HETATM    1  C   UNL     1      -8.377   5.261  69.607  1.00  0.00    -0.098 C  
HETATM    2  C   UNL     1      -9.337   6.077  70.454  1.00  0.00    -0.177 C  
ENDROOT
BRANCH   2   3
HETATM    3  C   UNL     1      -8.620   7.196  71.213  1.00  0.00    -0.124 C  
BRANCH   3   4
HETATM    4  C   UNL     1      -8.501   8.439  70.331  1.00  0.00    -0.130 C  
BRANCH   4   5
HETATM    5  C   UNL     1      -9.804   9.233  70.239  1.00  0.00    -0.265 C  
BRANCH   5   6
HETATM    6  C   UNL     1      -9.683  10.306  69.151  1.00  0.00    -0.229 C  
BRANCH   6   7
HETATM    7  C   UNL     1      -8.874   9.828  67.953  1.00  0.00    -0.122 C  
BRANCH   7   8
HETATM    8  C   UNL     1      -7.939  10.910  67.407  1.00  0.00    -0.113 C  
HETATM    9  O   UNL     1      -7.192  10.723  66.450  1.00  0.00    -0.126 OA 
BRANCH   8  10
HETATM   10  C   UNL     1      -8.032  12.243  68.122  1.00  0.00    -0.155 C  
BRANCH  10  11
HETATM   11  C   UNL     1      -7.884  13.515  67.274  1.00  0.00    -0.106 C  
BRANCH  11  12
HETATM   12  C   UNL     1      -9.212  14.316  67.245  1.00  0.00    -0.218 C  
HETATM   13  C   UNL     1     -10.172  13.779  66.171  1.00  0.00    -0.301 C  
HETATM   14  O   UNL     1      -9.849  14.238  64.869  1.00  0.00    -0.545 OA 
HETATM   15  C   UNL     1     -11.516  14.323  66.577  1.00  0.00    -0.368 C  
HETATM   16  H   UNL     1     -10.442  13.906  64.205  1.00  0.00     0.000 HD 
HETATM   17  C   UNL     1     -11.536  14.168  68.084  1.00  0.00    -0.331 C  
HETATM   18  O   UNL     1     -12.411  15.147  68.612  1.00  0.00    -0.583 OA 
HETATM   19  C   UNL     1     -10.056  14.273  68.560  1.00  0.00    -0.246 C  
HETATM   20  H   UNL     1     -12.423  15.050  69.557  1.00  0.00     0.000 HD 
BRANCH  19  21
HETATM   21  C   UNL     1      -9.747  15.457  69.498  1.00  0.00    -0.259 C  
BRANCH  21  22
HETATM   22  C   UNL     1      -8.279  15.761  69.655  1.00  0.00    -0.010 C  
HETATM   23  C   UNL     1      -7.589  16.818  69.204  1.00  0.00    -0.181 C  
BRANCH  23  24
HETATM   24  C   UNL     1      -8.118  17.949  68.374  1.00  0.00    -0.302 C  
BRANCH  24  25
HETATM   25  C   UNL     1      -9.636  18.106  68.496  1.00  0.00    -0.349 C  
BRANCH  25  26
HETATM   26  C   UNL     1     -10.369  17.960  67.160  1.00  0.00    -0.371 C  
HETATM   27  C   UNL     1     -10.445  19.280  66.425  1.00  0.00    -0.474 C  
HETATM   28  O   UNL     1      -9.993  20.339  66.818  1.00  0.00    -0.442 OA 
HETATM   29  O   UNL     1     -11.082  19.163  65.235  1.00  0.00    -0.406 OA 
ENDBRANCH  25  26
ENDBRANCH  24  25
ENDBRANCH  23  24
ENDBRANCH  21  22
ENDBRANCH  19  21
ENDBRANCH  11  12
ENDBRANCH  10  11
ENDBRANCH   8  10
ENDBRANCH   7   8
ENDBRANCH   6   7
ENDBRANCH   5   6
ENDBRANCH   4   5
ENDBRANCH   3   4
ENDBRANCH   2   3
TORSDOF 14
ENDMDL
MODEL      323
REMARK 921   NORMALIZED FREE ENERGY PREDICTED BY IDOCK:   -2.93 KCAL/MOL
REMARK 922        TOTAL FREE ENERGY PREDICTED BY IDOCK:   -8.28 KCAL/MOL
REMARK 923 INTER-LIGAND FREE ENERGY PREDICTED BY IDOCK:   -6.35 KCAL/MOL
REMARK 924 INTRA-LIGAND FREE ENERGY PREDICTED BY IDOCK:   -1.93 KCAL/MOL
REMARK 927      BINDING AFFINITY PREDICTED BY RF-SCORE:    0.00 PKD
ROOT
HETATM    1  C   UNL     1     -12.883  13.438  65.351  1.00  0.00    -0.388 C  
HETATM    2  C   UNL     1     -11.896  13.700  66.474  1.00  0.00    -0.441 C  
ENDROOT
BRANCH   2   3
HETATM    3  C   UNL     1     -10.533  13.061  66.199  1.00  0.00    -0.289 C  
BRANCH   3   4
HETATM    4  C   UNL     1      -9.411  14.004  66.632  1.00  0.00    -0.300 C  
BRANCH   4   5
HETATM    5  C   UNL     1      -9.303  14.146  68.152  1.00  0.00    -0.206 C  
BRANCH   5   6
HETATM    6  C   UNL     1      -7.830  14.107  68.573  1.00  0.00    -0.140 C  
BRANCH   6   7
HETATM    7  C   UNL     1      -7.016  13.122  67.747  1.00  0.00    -0.145 C  
BRANCH   7   8
HETATM    8  C   UNL     1      -6.709  11.830  68.509  1.00  0.00    -0.070 C  
HETATM    9  O   UNL     1      -6.182  11.820  69.618  1.00  0.00    -0.102 OA 
BRANCH   8  10
HETATM   10  C   UNL     1      -7.137  10.562  67.798  1.00  0.00    -0.083 C  
BRANCH  10  11
HETATM   11  C   UNL     1      -8.644  10.287  67.682  1.00  0.00    -0.118 C  
BRANCH  11  12
HETATM   12  C   UNL     1      -8.955   9.446  66.416  1.00  0.00    -0.182 C  
HETATM   13  C   UNL     1      -8.096   9.889  65.220  1.00  0.00    -0.139 C  
HETATM   14  O   UNL     1      -8.597  11.055  64.587  1.00  0.00    -0.364 OA 
HETATM   15  C   UNL     1      -8.174   8.726  64.265  1.00  0.00    -0.164 C  
HETATM   16  H   UNL     1      -8.066  11.328  63.848  1.00  0.00     0.000 HD 
HETATM   17  C   UNL     1      -8.067   7.508  65.159  1.00  0.00    -0.130 C  
HETATM   18  O   UNL     1      -8.714   6.431  64.508  1.00  0.00    -0.342 OA 
HETATM   19  C   UNL     1      -8.674   7.914  66.536  1.00  0.00    -0.162 C  
HETATM   20  H   UNL     1      -8.648   5.667  65.069  1.00  0.00     0.000 HD 
BRANCH  19  21
HETATM   21  C   UNL     1      -9.920   7.117  66.968  1.00  0.00    -0.283 C  
BRANCH  21  22
HETATM   22  C   UNL     1      -9.634   5.978  67.914  1.00  0.00    -0.118 C  
HETATM   23  C   UNL     1     -10.274   5.647  69.045  1.00  0.00    -0.291 C  
BRANCH  23  24
HETATM   24  C   UNL     1     -11.418   6.378  69.678  1.00  0.00    -0.446 C  
BRANCH  24  25
HETATM   25  C   UNL     1     -11.200   6.630  71.172  1.00  0.00    -0.340 C  
BRANCH  25  26
HETATM   26  C   UNL     1      -9.973   7.495  71.467  1.00  0.00    -0.197 C  
HETATM   27  C   UNL     1      -9.942   7.936  72.914  1.00  0.00    -0.294 C  
HETATM   28  O   UNL     1     -10.772   7.657  73.758  1.00  0.00    -0.275 OA 
HETATM   29  O   UNL     1      -8.854   8.694  73.191  1.00  0.00    -0.343 OA 
ENDBRANCH  25  26
ENDBRANCH  24  25
ENDBRANCH  23  24
ENDBRANCH  21  22
ENDBRANCH  19  21
ENDBRANCH  11  12
ENDBRANCH  10  11
ENDBRANCH   8  10
ENDBRANCH   7   8
ENDBRANCH   6   7
ENDBRANCH   5   6
ENDBRANCH   4   5
ENDBRANCH   3   4
ENDBRANCH   2   3
TORSDOF 14
ENDMDL
MODEL      324
REMARK 921   NORMALIZED FREE ENERGY PREDICTED BY IDOCK:   -2.92 KCAL/MOL
REMARK 922        TOTAL FREE ENERGY PREDICTED BY IDOCK:   -8.27 KCAL/MOL
REMARK 923 INTER-LIGAND FREE ENERGY PREDICTED BY IDOCK:   -6.83 KCAL/MOL
REMARK 924 INTRA-LIGAND FREE ENERGY PREDICTED BY IDOCK:   -1.45 KCAL/MOL
REMARK 927      BINDING AFFINITY PREDICTED BY RF-SCORE:    0.00 PKD
ROOT
HETATM    1  C   UNL     1     -11.296  15.817  70.138  1.00  0.00    -0.361 C  
HETATM    2  C   UNL     1     -10.319  16.035  68.996  1.00  0.00    -0.242 C  
ENDROOT
BRANCH   2   3
HETATM    3  C   UNL     1     -10.964  15.778  67.633  1.00  0.00    -0.302 C  
BRANCH   3   4
HETATM    4  C   UNL     1     -11.968  14.630  67.733  1.00  0.00    -0.302 C  
BRANCH   4   5
HETATM    5  C   UNL     1     -11.763  13.562  66.658  1.00  0.00    -0.425 C  
BRANCH   5   6
HETATM    6  C   UNL     1     -11.815  12.168  67.295  1.00  0.00    -0.293 C  
BRANCH   6   7
HETATM    7  C   UNL     1     -10.977  12.078  68.562  1.00  0.00    -0.280 C  
BRANCH   7   8
HETATM    8  C   UNL     1     -10.074  10.842  68.581  1.00  0.00    -0.191 C  
HETATM    9  O   UNL     1      -9.721  10.291  69.621  1.00  0.00    -0.228 OA 
BRANCH   8  10
HETATM   10  C   UNL     1      -9.674  10.332  67.212  1.00  0.00    -0.199 C  
BRANCH  10  11
HETATM   11  C   UNL     1      -8.615   9.221  67.149  1.00  0.00    -0.130 C  
BRANCH  11  12
HETATM   12  C   UNL     1      -9.234   7.898  66.625  1.00  0.00    -0.221 C  
HETATM   13  C   UNL     1      -8.301   7.196  65.625  1.00  0.00    -0.136 C  
HETATM   14  O   UNL     1      -8.367   7.759  64.325  1.00  0.00    -0.338 OA 
HETATM   15  C   UNL     1      -8.809   5.779  65.585  1.00  0.00    -0.141 C  
HETATM   16  H   UNL     1      -7.790   7.325  63.707  1.00  0.00     0.000 HD 
HETATM   17  C   UNL     1      -9.124   5.460  67.032  1.00  0.00    -0.112 C  
HETATM   18  O   UNL     1     -10.127   4.462  67.051  1.00  0.00    -0.193 OA 
HETATM   19  C   UNL     1      -9.515   6.808  67.709  1.00  0.00    -0.121 C  
HETATM   20  H   UNL     1     -10.325   4.261  67.958  1.00  0.00     0.000 HD 
BRANCH  19  21
HETATM   21  C   UNL     1     -10.954   6.878  68.257  1.00  0.00    -0.208 C  
BRANCH  21  22
HETATM   22  C   UNL     1     -11.174   6.095  69.527  1.00  0.00    -0.482 C  
HETATM   23  C   UNL     1     -11.562   6.542  70.731  1.00  0.00    -0.437 C  
BRANCH  23  24
HETATM   24  C   UNL     1     -11.823   7.966  71.119  1.00  0.00    -0.307 C  
BRANCH  24  25
HETATM   25  C   UNL     1     -10.776   8.509  72.095  1.00  0.00    -0.426 C  
BRANCH  25  26
HETATM   26  C   UNL     1     -10.387   7.509  73.186  1.00  0.00    -0.402 C  
HETATM   27  C   UNL     1      -8.975   7.001  72.992  1.00  0.00    -0.130 C  
HETATM   28  O   UNL     1      -8.221   7.325  72.094  1.00  0.00    -0.100 OA 
HETATM   29  O   UNL     1      -8.615   6.122  73.958  1.00  0.00    -0.119 OA 
ENDBRANCH  25  26
ENDBRANCH  24  25
ENDBRANCH  23  24
ENDBRANCH  21  22
ENDBRANCH  19  21
ENDBRANCH  11  12
ENDBRANCH  10  11
ENDBRANCH   8  10
ENDBRANCH   7   8
ENDBRANCH   6   7
ENDBRANCH   5   6
ENDBRANCH   4   5
ENDBRANCH   3   4
ENDBRANCH   2   3
TORSDOF 14
ENDMDL
MODEL      325
REMARK 921   NORMALIZED FREE ENERGY PREDICTED BY IDOCK:   -2.92 KCAL/MOL
REMARK 922        TOTAL FREE ENERGY PREDICTED BY IDOCK:   -8.27 KCAL/MOL
REMARK 923 INTER-LIGAND FREE ENERGY PREDICTED BY IDOCK:   -6.80 KCAL/MOL
REMARK 924 INTRA-LIGAND FREE ENERGY PREDICTED BY IDOCK:   -1.46 KCAL/MOL
REMARK 927      BINDING AFFINITY PREDICTED BY RF-SCORE:    0.00 PKD
ROOT
HETATM    1  C   UNL     1     -10.720  16.129  69.860  1.00  0.00    -0.328 C  
HETATM    2  C   UNL     1     -10.763  16.336  68.357  1.00  0.00    -0.311 C  
ENDROOT
BRANCH   2   3
HETATM    3  C   UNL     1     -11.252  15.086  67.621  1.00  0.00    -0.331 C  
BRANCH   3   4
HETATM    4  C   UNL     1     -10.746  13.828  68.325  1.00  0.00    -0.264 C  
BRANCH   4   5
HETATM    5  C   UNL     1     -11.877  12.908  68.790  1.00  0.00    -0.353 C  
BRANCH   5   6
HETATM    6  C   UNL     1     -11.293  11.595  69.324  1.00  0.00    -0.353 C  
BRANCH   6   7
HETATM    7  C   UNL     1     -12.102  11.030  70.482  1.00  0.00    -0.470 C  
BRANCH   7   8
HETATM    8  C   UNL     1     -11.397   9.862  71.176  1.00  0.00    -0.370 C  
HETATM    9  O   UNL     1     -11.865   9.288  72.155  1.00  0.00    -0.328 OA 
BRANCH   8  10
HETATM   10  C   UNL     1     -10.085   9.450  70.539  1.00  0.00    -0.335 C  
BRANCH  10  11
HETATM   11  C   UNL     1      -9.561   8.038  70.843  1.00  0.00    -0.179 C  
BRANCH  11  12
HETATM   12  C   UNL     1      -9.571   7.159  69.564  1.00  0.00    -0.154 C  
HETATM   13  C   UNL     1     -10.768   6.195  69.551  1.00  0.00    -0.320 C  
HETATM   14  O   UNL     1     -10.555   5.047  70.356  1.00  0.00    -0.215 OA 
HETATM   15  C   UNL     1     -10.888   5.781  68.108  1.00  0.00    -0.249 C  
HETATM   16  H   UNL     1     -11.295   4.451  70.349  1.00  0.00     0.000 HD 
HETATM   17  C   UNL     1     -10.645   7.063  67.336  1.00  0.00    -0.302 C  
HETATM   18  O   UNL     1     -10.140   6.715  66.061  1.00  0.00    -0.398 OA 
HETATM   19  C   UNL     1      -9.697   7.935  68.213  1.00  0.00    -0.172 C  
HETATM   20  H   UNL     1      -9.987   7.518  65.577  1.00  0.00     0.000 HD 
BRANCH  19  21
HETATM   21  C   UNL     1      -8.325   8.252  67.584  1.00  0.00    -0.127 C  
BRANCH  21  22
HETATM   22  C   UNL     1      -8.378   9.226  66.434  1.00  0.00    -0.120 C  
HETATM   23  C   UNL     1      -8.544  10.556  66.469  1.00  0.00    -0.140 C  
BRANCH  23  24
HETATM   24  C   UNL     1      -8.773  11.402  67.685  1.00  0.00    -0.136 C  
BRANCH  24  25
HETATM   25  C   UNL     1      -7.465  11.825  68.359  1.00  0.00    -0.105 C  
BRANCH  25  26
HETATM   26  C   UNL     1      -6.606  12.747  67.491  1.00  0.00    -0.158 C  
HETATM   27  C   UNL     1      -6.661  14.177  67.981  1.00  0.00    -0.148 C  
HETATM   28  O   UNL     1      -7.299  14.575  68.938  1.00  0.00    -0.116 OA 
HETATM   29  O   UNL     1      -5.896  15.002  67.227  1.00  0.00    -0.318 OA 
ENDBRANCH  25  26
ENDBRANCH  24  25
ENDBRANCH  23  24
ENDBRANCH  21  22
ENDBRANCH  19  21
ENDBRANCH  11  12
ENDBRANCH  10  11
ENDBRANCH   8  10
ENDBRANCH   7   8
ENDBRANCH   6   7
ENDBRANCH   5   6
ENDBRANCH   4   5
ENDBRANCH   3   4
ENDBRANCH   2   3
TORSDOF 14
ENDMDL
MODEL      326
REMARK 921   NORMALIZED FREE ENERGY PREDICTED BY IDOCK:   -2.90 KCAL/MOL
REMARK 922        TOTAL FREE ENERGY PREDICTED BY IDOCK:   -8.23 KCAL/MOL
REMARK 923 INTER-LIGAND FREE ENERGY PREDICTED BY IDOCK:   -6.52 KCAL/MOL
REMARK 924 INTRA-LIGAND FREE ENERGY PREDICTED BY IDOCK:   -1.71 KCAL/MOL
REMARK 927      BINDING AFFINITY PREDICTED BY RF-SCORE:    0.00 PKD
ROOT
HETATM    1  C   UNL     1     -10.338  19.636  68.274  1.00  0.00    -0.539 C  
HETATM    2  C   UNL     1     -10.545  19.227  66.826  1.00  0.00    -0.543 C  
ENDROOT
BRANCH   2   3
HETATM    3  C   UNL     1      -9.851  17.902  66.502  1.00  0.00    -0.343 C  
BRANCH   3   4
HETATM    4  C   UNL     1     -10.491  16.764  67.294  1.00  0.00    -0.310 C  
BRANCH   4   5
HETATM    5  C   UNL     1     -10.000  15.382  66.857  1.00  0.00    -0.247 C  
BRANCH   5   6
HETATM    6  C   UNL     1     -10.464  14.324  67.865  1.00  0.00    -0.240 C  
BRANCH   6   7
HETATM    7  C   UNL     1     -10.114  12.910  67.423  1.00  0.00    -0.223 C  
BRANCH   7   8
HETATM    8  C   UNL     1     -11.133  11.875  67.906  1.00  0.00    -0.242 C  
HETATM    9  O   UNL     1     -11.951  11.346  67.157  1.00  0.00    -0.532 OA 
BRANCH   8  10
HETATM   10  C   UNL     1     -11.032  11.531  69.378  1.00  0.00    -0.233 C  
BRANCH  10  11
HETATM   11  C   UNL     1     -11.906  10.380  69.899  1.00  0.00    -0.314 C  
BRANCH  11  12
HETATM   12  C   UNL     1     -11.054   9.104  70.135  1.00  0.00    -0.248 C  
HETATM   13  C   UNL     1     -11.811   8.068  70.981  1.00  0.00    -0.263 C  
HETATM   14  O   UNL     1     -11.779   8.364  72.368  1.00  0.00    -0.370 OA 
HETATM   15  C   UNL     1     -11.075   6.779  70.725  1.00  0.00    -0.323 C  
HETATM   16  H   UNL     1     -12.247   7.724  72.891  1.00  0.00     0.000 HD 
HETATM   17  C   UNL     1     -10.780   6.813  69.239  1.00  0.00    -0.253 C  
HETATM   18  O   UNL     1      -9.628   6.025  69.005  1.00  0.00    -0.128 OA 
HETATM   19  C   UNL     1     -10.648   8.316  68.848  1.00  0.00    -0.160 C  
HETATM   20  H   UNL     1      -9.443   6.047  68.074  1.00  0.00     0.000 HD 
BRANCH  19  21
HETATM   21  C   UNL     1      -9.267   8.738  68.308  1.00  0.00    -0.143 C  
BRANCH  21  22
HETATM   22  C   UNL     1      -8.184   8.807  69.355  1.00  0.00    -0.108 C  
HETATM   23  C   UNL     1      -7.446   9.862  69.729  1.00  0.00    -0.140 C  
BRANCH  23  24
HETATM   24  C   UNL     1      -7.489  11.242  69.146  1.00  0.00    -0.084 C  
BRANCH  24  25
HETATM   25  C   UNL     1      -6.104  11.886  69.061  1.00  0.00    -0.071 C  
BRANCH  25  26
HETATM   26  C   UNL     1      -6.057  13.102  68.133  1.00  0.00    -0.103 C  
HETATM   27  C   UNL     1      -6.256  14.391  68.900  1.00  0.00    -0.088 C  
HETATM   28  O   UNL     1      -6.435  14.483  70.099  1.00  0.00    -0.164 OA 
HETATM   29  O   UNL     1      -6.206  15.477  68.090  1.00  0.00    -0.110 OA 
ENDBRANCH  25  26
ENDBRANCH  24  25
ENDBRANCH  23  24
ENDBRANCH  21  22
ENDBRANCH  19  21
ENDBRANCH  11  12
ENDBRANCH  10  11
ENDBRANCH   8  10
ENDBRANCH   7   8
ENDBRANCH   6   7
ENDBRANCH   5   6
ENDBRANCH   4   5
ENDBRANCH   3   4
ENDBRANCH   2   3
TORSDOF 14
ENDMDL
MODEL      327
REMARK 921   NORMALIZED FREE ENERGY PREDICTED BY IDOCK:   -2.89 KCAL/MOL
REMARK 922        TOTAL FREE ENERGY PREDICTED BY IDOCK:   -8.22 KCAL/MOL
REMARK 923 INTER-LIGAND FREE ENERGY PREDICTED BY IDOCK:   -5.81 KCAL/MOL
REMARK 924 INTRA-LIGAND FREE ENERGY PREDICTED BY IDOCK:   -2.41 KCAL/MOL
REMARK 927      BINDING AFFINITY PREDICTED BY RF-SCORE:    0.00 PKD
ROOT
HETATM    1  C   UNL     1     -11.559   8.204  71.704  1.00  0.00    -0.325 C  
HETATM    2  C   UNL     1     -11.078   7.560  72.991  1.00  0.00    -0.413 C  
ENDROOT
BRANCH   2   3
HETATM    3  C   UNL     1      -9.600   7.854  73.261  1.00  0.00    -0.351 C  
BRANCH   3   4
HETATM    4  C   UNL     1      -8.769   6.584  73.082  1.00  0.00    -0.128 C  
BRANCH   4   5
HETATM    5  C   UNL     1      -8.384   6.323  71.624  1.00  0.00    -0.129 C  
BRANCH   5   6
HETATM    6  C   UNL     1      -9.332   5.284  71.015  1.00  0.00    -0.193 C  
BRANCH   6   7
HETATM    7  C   UNL     1      -8.649   4.425  69.960  1.00  0.00    -0.099 C  
BRANCH   7   8
HETATM    8  C   UNL     1      -9.557   4.134  68.762  1.00  0.00    -0.140 C  
HETATM    9  O   UNL     1      -9.506   3.083  68.128  1.00  0.00    -0.201 OA 
BRANCH   8  10
HETATM   10  C   UNL     1     -10.548   5.234  68.440  1.00  0.00    -0.077 C  
BRANCH  10  11
HETATM   11  C   UNL     1     -10.494   5.848  67.033  1.00  0.00    -0.341 C  
BRANCH  11  12
HETATM   12  C   UNL     1      -9.027   6.106  66.599  1.00  0.00    -0.133 C  
HETATM   13  C   UNL     1      -8.702   5.412  65.267  1.00  0.00    -0.145 C  
HETATM   14  O   UNL     1      -8.429   4.029  65.421  1.00  0.00    -0.108 OA 
HETATM   15  C   UNL     1      -7.464   6.118  64.780  1.00  0.00    -0.084 C  
HETATM   16  H   UNL     1      -8.228   3.600  64.598  1.00  0.00     0.000 HD 
HETATM   17  C   UNL     1      -7.724   7.577  65.095  1.00  0.00    -0.111 C  
HETATM   18  O   UNL     1      -6.473   8.218  65.256  1.00  0.00    -0.051 OA 
HETATM   19  C   UNL     1      -8.650   7.602  66.347  1.00  0.00    -0.149 C  
HETATM   20  H   UNL     1      -6.636   9.133  65.453  1.00  0.00     0.000 HD 
BRANCH  19  21
HETATM   21  C   UNL     1      -8.052   8.278  67.596  1.00  0.00    -0.126 C  
BRANCH  21  22
HETATM   22  C   UNL     1      -9.046   8.536  68.701  1.00  0.00    -0.139 C  
HETATM   23  C   UNL     1     -10.259   9.100  68.622  1.00  0.00    -0.225 C  
BRANCH  23  24
HETATM   24  C   UNL     1     -10.908   9.669  67.396  1.00  0.00    -0.242 C  
BRANCH  24  25
HETATM   25  C   UNL     1     -10.889  11.199  67.378  1.00  0.00    -0.317 C  
BRANCH  25  26
HETATM   26  C   UNL     1     -10.330  11.782  66.078  1.00  0.00    -0.276 C  
HETATM   27  C   UNL     1     -11.403  12.497  65.286  1.00  0.00    -0.324 C  
HETATM   28  O   UNL     1     -12.569  12.609  65.613  1.00  0.00    -0.611 OA 
HETATM   29  O   UNL     1     -10.918  13.028  64.138  1.00  0.00    -0.373 OA 
ENDBRANCH  25  26
ENDBRANCH  24  25
ENDBRANCH  23  24
ENDBRANCH  21  22
ENDBRANCH  19  21
ENDBRANCH  11  12
ENDBRANCH  10  11
ENDBRANCH   8  10
ENDBRANCH   7   8
ENDBRANCH   6   7
ENDBRANCH   5   6
ENDBRANCH   4   5
ENDBRANCH   3   4
ENDBRANCH   2   3
TORSDOF 14
ENDMDL
MODEL      328
REMARK 921   NORMALIZED FREE ENERGY PREDICTED BY IDOCK:   -2.89 KCAL/MOL
REMARK 922        TOTAL FREE ENERGY PREDICTED BY IDOCK:   -8.21 KCAL/MOL
REMARK 923 INTER-LIGAND FREE ENERGY PREDICTED BY IDOCK:   -5.68 KCAL/MOL
REMARK 924 INTRA-LIGAND FREE ENERGY PREDICTED BY IDOCK:   -2.53 KCAL/MOL
REMARK 927      BINDING AFFINITY PREDICTED BY RF-SCORE:    0.00 PKD
ROOT
HETATM    1  C   UNL     1     -11.113   9.646  71.123  1.00  0.00    -0.444 C  
HETATM    2  C   UNL     1     -10.259   8.637  70.376  1.00  0.00    -0.218 C  
ENDROOT
BRANCH   2   3
HETATM    3  C   UNL     1     -10.525   8.667  68.869  1.00  0.00    -0.211 C  
BRANCH   3   4
HETATM    4  C   UNL     1      -9.224   8.440  68.100  1.00  0.00    -0.141 C  
BRANCH   4   5
HETATM    5  C   UNL     1      -7.977   8.741  68.934  1.00  0.00    -0.105 C  
BRANCH   5   6
HETATM    6  C   UNL     1      -6.880   9.323  68.034  1.00  0.00    -0.068 C  
BRANCH   6   7
HETATM    7  C   UNL     1      -6.624  10.797  68.312  1.00  0.00    -0.058 C  
BRANCH   7   8
HETATM    8  C   UNL     1      -7.337  11.714  67.315  1.00  0.00    -0.136 C  
HETATM    9  O   UNL     1      -7.964  11.288  66.349  1.00  0.00    -0.164 OA 
BRANCH   8  10
HETATM   10  C   UNL     1      -7.233  13.192  67.633  1.00  0.00    -0.160 C  
BRANCH  10  11
HETATM   11  C   UNL     1      -8.247  14.134  66.966  1.00  0.00    -0.097 C  
BRANCH  11  12
HETATM   12  C   UNL     1      -8.656  15.278  67.933  1.00  0.00    -0.153 C  
HETATM   13  C   UNL     1      -7.948  16.596  67.579  1.00  0.00    -0.168 C  
HETATM   14  O   UNL     1      -6.615  16.648  68.058  1.00  0.00    -0.129 OA 
HETATM   15  C   UNL     1      -8.773  17.649  68.271  1.00  0.00    -0.276 C  
HETATM   16  H   UNL     1      -6.177  17.463  67.840  1.00  0.00     0.000 HD 
HETATM   17  C   UNL     1     -10.204  17.205  68.044  1.00  0.00    -0.332 C  
HETATM   18  O   UNL     1     -10.993  17.720  69.100  1.00  0.00    -0.158 OA 
HETATM   19  C   UNL     1     -10.173  15.652  67.932  1.00  0.00    -0.239 C  
HETATM   20  H   UNL     1     -11.890  17.441  68.958  1.00  0.00     0.000 HD 
BRANCH  19  21
HETATM   21  C   UNL     1     -10.967  14.897  69.017  1.00  0.00    -0.251 C  
BRANCH  21  22
HETATM   22  C   UNL     1     -10.449  13.513  69.318  1.00  0.00     0.108 C  
HETATM   23  C   UNL     1     -10.806  12.346  68.764  1.00  0.00    -0.263 C  
BRANCH  23  24
HETATM   24  C   UNL     1     -11.866  12.129  67.727  1.00  0.00    -0.327 C  
BRANCH  24  25
HETATM   25  C   UNL     1     -11.463  12.673  66.354  1.00  0.00    -0.409 C  
BRANCH  25  26
HETATM   26  C   UNL     1     -11.112  11.575  65.347  1.00  0.00    -0.250 C  
HETATM   27  C   UNL     1     -10.469  12.150  64.104  1.00  0.00    -0.362 C  
HETATM   28  O   UNL     1     -10.247  13.328  63.900  1.00  0.00    -0.322 OA 
HETATM   29  O   UNL     1     -10.143  11.186  63.209  1.00  0.00    -0.342 OA 
ENDBRANCH  25  26
ENDBRANCH  24  25
ENDBRANCH  23  24
ENDBRANCH  21  22
ENDBRANCH  19  21
ENDBRANCH  11  12
ENDBRANCH  10  11
ENDBRANCH   8  10
ENDBRANCH   7   8
ENDBRANCH   6   7
ENDBRANCH   5   6
ENDBRANCH   4   5
ENDBRANCH   3   4
ENDBRANCH   2   3
TORSDOF 14
ENDMDL
MODEL      329
REMARK 921   NORMALIZED FREE ENERGY PREDICTED BY IDOCK:   -2.88 KCAL/MOL
REMARK 922        TOTAL FREE ENERGY PREDICTED BY IDOCK:   -8.20 KCAL/MOL
REMARK 923 INTER-LIGAND FREE ENERGY PREDICTED BY IDOCK:   -7.43 KCAL/MOL
REMARK 924 INTRA-LIGAND FREE ENERGY PREDICTED BY IDOCK:   -0.77 KCAL/MOL
REMARK 927      BINDING AFFINITY PREDICTED BY RF-SCORE:    0.00 PKD
ROOT
HETATM    1  C   UNL     1      -7.277   7.924  66.233  1.00  0.00    -0.074 C  
HETATM    2  C   UNL     1      -6.961   7.005  65.067  1.00  0.00    -0.052 C  
ENDROOT
BRANCH   2   3
HETATM    3  C   UNL     1      -6.632   7.787  63.793  1.00  0.00    -0.062 C  
BRANCH   3   4
HETATM    4  C   UNL     1      -7.916   8.301  63.144  1.00  0.00    -0.158 C  
BRANCH   4   5
HETATM    5  C   UNL     1      -7.943   9.824  62.997  1.00  0.00    -0.138 C  
BRANCH   5   6
HETATM    6  C   UNL     1      -9.354  10.284  62.614  1.00  0.00    -0.335 C  
BRANCH   6   7
HETATM    7  C   UNL     1     -10.207  10.614  63.831  1.00  0.00    -0.306 C  
BRANCH   7   8
HETATM    8  C   UNL     1     -11.086  11.847  63.614  1.00  0.00    -0.440 C  
HETATM    9  O   UNL     1     -12.221  11.783  63.150  1.00  0.00    -0.429 OA 
BRANCH   8  10
HETATM   10  C   UNL     1     -10.455  13.155  64.049  1.00  0.00    -0.258 C  
BRANCH  10  11
HETATM   11  C   UNL     1     -10.893  13.740  65.400  1.00  0.00    -0.312 C  
BRANCH  11  12
HETATM   12  C   UNL     1     -10.283  15.151  65.614  1.00  0.00    -0.387 C  
HETATM   13  C   UNL     1     -11.271  16.259  65.213  1.00  0.00    -0.033 C  
HETATM   14  O   UNL     1     -11.315  16.474  63.812  1.00  0.00    -1.553 OA 
HETATM   15  C   UNL     1     -10.733  17.490  65.894  1.00  0.00    -0.119 C  
HETATM   16  H   UNL     1     -11.925  17.158  63.565  1.00  0.00     0.000 HD 
HETATM   17  C   UNL     1     -10.304  16.998  67.261  1.00  0.00    -0.311 C  
HETATM   18  O   UNL     1      -9.279  17.852  67.731  1.00  0.00    -0.252 OA 
HETATM   19  C   UNL     1      -9.897  15.504  67.086  1.00  0.00    -0.236 C  
HETATM   20  H   UNL     1      -9.010  17.544  68.588  1.00  0.00     0.000 HD 
BRANCH  19  21
HETATM   21  C   UNL     1      -8.423  15.181  67.404  1.00  0.00    -0.202 C  
BRANCH  21  22
HETATM   22  C   UNL     1      -8.148  14.893  68.858  1.00  0.00    -0.165 C  
HETATM   23  C   UNL     1      -7.128  15.317  69.618  1.00  0.00    -0.187 C  
BRANCH  23  24
HETATM   24  C   UNL     1      -5.965  16.153  69.177  1.00  0.00    -0.134 C  
BRANCH  24  25
HETATM   25  C   UNL     1      -6.081  17.608  69.636  1.00  0.00    -0.245 C  
BRANCH  25  26
HETATM   26  C   UNL     1      -6.728  18.523  68.594  1.00  0.00    -0.273 C  
HETATM   27  C   UNL     1      -6.145  19.919  68.645  1.00  0.00    -0.264 C  
HETATM   28  O   UNL     1      -5.275  20.296  69.407  1.00  0.00    -0.196 OA 
HETATM   29  O   UNL     1      -6.701  20.736  67.719  1.00  0.00    -0.311 OA 
ENDBRANCH  25  26
ENDBRANCH  24  25
ENDBRANCH  23  24
ENDBRANCH  21  22
ENDBRANCH  19  21
ENDBRANCH  11  12
ENDBRANCH  10  11
ENDBRANCH   8  10
ENDBRANCH   7   8
ENDBRANCH   6   7
ENDBRANCH   5   6
ENDBRANCH   4   5
ENDBRANCH   3   4
ENDBRANCH   2   3
TORSDOF 14
ENDMDL
MODEL      330
REMARK 921   NORMALIZED FREE ENERGY PREDICTED BY IDOCK:   -2.88 KCAL/MOL
REMARK 922        TOTAL FREE ENERGY PREDICTED BY IDOCK:   -8.19 KCAL/MOL
REMARK 923 INTER-LIGAND FREE ENERGY PREDICTED BY IDOCK:   -5.04 KCAL/MOL
REMARK 924 INTRA-LIGAND FREE ENERGY PREDICTED BY IDOCK:   -3.15 KCAL/MOL
REMARK 927      BINDING AFFINITY PREDICTED BY RF-SCORE:    0.00 PKD
ROOT
HETATM    1  C   UNL     1      -5.507   8.565  65.277  1.00  0.00    -0.035 C  
HETATM    2  C   UNL     1      -5.436   9.425  66.526  1.00  0.00    -0.045 C  
ENDROOT
BRANCH   2   3
HETATM    3  C   UNL     1      -6.708   9.315  67.370  1.00  0.00    -0.069 C  
BRANCH   3   4
HETATM    4  C   UNL     1      -7.064  10.675  67.967  1.00  0.00    -0.085 C  
BRANCH   4   5
HETATM    5  C   UNL     1      -7.413  10.602  69.454  1.00  0.00    -0.135 C  
BRANCH   5   6
HETATM    6  C   UNL     1      -6.298   9.873  70.214  1.00  0.00    -0.094 C  
BRANCH   6   7
HETATM    7  C   UNL     1      -6.836   9.019  71.353  1.00  0.00    -0.073 C  
BRANCH   7   8
HETATM    8  C   UNL     1      -7.103   7.573  70.927  1.00  0.00    -0.059 C  
HETATM    9  O   UNL     1      -6.215   6.729  70.842  1.00  0.00    -0.038 OA 
BRANCH   8  10
HETATM   10  C   UNL     1      -8.559   7.258  70.648  1.00  0.00    -0.142 C  
BRANCH  10  11
HETATM   11  C   UNL     1      -8.881   5.896  70.014  1.00  0.00    -0.139 C  
BRANCH  11  12
HETATM   12  C   UNL     1      -8.838   5.985  68.465  1.00  0.00    -0.112 C  
HETATM   13  C   UNL     1      -7.715   5.112  67.881  1.00  0.00    -0.087 C  
HETATM   14  O   UNL     1      -6.441   5.728  67.966  1.00  0.00    -0.040 OA 
HETATM   15  C   UNL     1      -8.097   4.947  66.433  1.00  0.00    -0.107 C  
HETATM   16  H   UNL     1      -5.747   5.189  67.605  1.00  0.00     0.000 HD 
HETATM   17  C   UNL     1      -9.597   4.732  66.470  1.00  0.00    -0.175 C  
HETATM   18  O   UNL     1     -10.130   5.163  65.233  1.00  0.00    -0.388 OA 
HETATM   19  C   UNL     1     -10.123   5.493  67.724  1.00  0.00    -0.214 C  
HETATM   20  H   UNL     1     -11.071   5.029  65.256  1.00  0.00     0.000 HD 
BRANCH  19  21
HETATM   21  C   UNL     1     -11.111   6.639  67.432  1.00  0.00    -0.398 C  
BRANCH  21  22
HETATM   22  C   UNL     1     -10.462   7.916  66.959  1.00  0.00    -0.419 C  
HETATM   23  C   UNL     1     -10.351   9.087  67.602  1.00  0.00    -0.317 C  
BRANCH  23  24
HETATM   24  C   UNL     1     -10.903   9.427  68.954  1.00  0.00    -0.151 C  
BRANCH  24  25
HETATM   25  C   UNL     1     -11.653  10.761  68.961  1.00  0.00    -0.370 C  
BRANCH  25  26
HETATM   26  C   UNL     1     -11.381  11.617  67.723  1.00  0.00    -0.356 C  
HETATM   27  C   UNL     1     -11.765  13.062  67.954  1.00  0.00    -0.357 C  
HETATM   28  O   UNL     1     -12.235  13.516  68.980  1.00  0.00    -0.320 OA 
HETATM   29  O   UNL     1     -11.518  13.833  66.868  1.00  0.00    -0.319 OA 
ENDBRANCH  25  26
ENDBRANCH  24  25
ENDBRANCH  23  24
ENDBRANCH  21  22
ENDBRANCH  19  21
ENDBRANCH  11  12
ENDBRANCH  10  11
ENDBRANCH   8  10
ENDBRANCH   7   8
ENDBRANCH   6   7
ENDBRANCH   5   6
ENDBRANCH   4   5
ENDBRANCH   3   4
ENDBRANCH   2   3
TORSDOF 14
ENDMDL
MODEL      331
REMARK 921   NORMALIZED FREE ENERGY PREDICTED BY IDOCK:   -2.88 KCAL/MOL
REMARK 922        TOTAL FREE ENERGY PREDICTED BY IDOCK:   -8.19 KCAL/MOL
REMARK 923 INTER-LIGAND FREE ENERGY PREDICTED BY IDOCK:   -5.59 KCAL/MOL
REMARK 924 INTRA-LIGAND FREE ENERGY PREDICTED BY IDOCK:   -2.60 KCAL/MOL
REMARK 927      BINDING AFFINITY PREDICTED BY RF-SCORE:    0.00 PKD
ROOT
HETATM    1  C   UNL     1     -11.899  13.358  64.146  1.00  0.00    -0.492 C  
HETATM    2  C   UNL     1     -11.827  11.879  63.813  1.00  0.00    -0.558 C  
ENDROOT
BRANCH   2   3
HETATM    3  C   UNL     1     -10.464  11.487  63.237  1.00  0.00    -0.421 C  
BRANCH   3   4
HETATM    4  C   UNL     1      -9.784  10.461  64.143  1.00  0.00    -0.387 C  
BRANCH   4   5
HETATM    5  C   UNL     1     -10.244  10.554  65.599  1.00  0.00    -0.315 C  
BRANCH   5   6
HETATM    6  C   UNL     1      -9.118  11.133  66.463  1.00  0.00    -0.193 C  
BRANCH   6   7
HETATM    7  C   UNL     1      -7.872  10.259  66.454  1.00  0.00    -0.119 C  
BRANCH   7   8
HETATM    8  C   UNL     1      -7.375   9.932  67.864  1.00  0.00    -0.088 C  
HETATM    9  O   UNL     1      -6.424   9.184  68.078  1.00  0.00    -0.058 OA 
BRANCH   8  10
HETATM   10  C   UNL     1      -8.131  10.628  68.977  1.00  0.00    -0.148 C  
BRANCH  10  11
HETATM   11  C   UNL     1      -9.394   9.940  69.517  1.00  0.00    -0.236 C  
BRANCH  11  12
HETATM   12  C   UNL     1      -9.260   8.396  69.429  1.00  0.00    -0.154 C  
HETATM   13  C   UNL     1      -8.672   7.806  70.721  1.00  0.00    -0.134 C  
HETATM   14  O   UNL     1      -7.262   7.939  70.792  1.00  0.00    -0.052 OA 
HETATM   15  C   UNL     1      -9.037   6.346  70.654  1.00  0.00    -0.148 C  
HETATM   16  H   UNL     1      -6.898   7.574  71.590  1.00  0.00     0.000 HD 
HETATM   17  C   UNL     1     -10.457   6.345  70.126  1.00  0.00    -0.216 C  
HETATM   18  O   UNL     1     -10.676   5.113  69.467  1.00  0.00    -0.195 OA 
HETATM   19  C   UNL     1     -10.598   7.613  69.231  1.00  0.00    -0.206 C  
HETATM   20  H   UNL     1     -11.567   5.112  69.136  1.00  0.00     0.000 HD 
BRANCH  19  21
HETATM   21  C   UNL     1     -10.908   7.339  67.746  1.00  0.00    -0.214 C  
BRANCH  21  22
HETATM   22  C   UNL     1      -9.688   7.133  66.883  1.00  0.00    -0.242 C  
HETATM   23  C   UNL     1      -9.350   6.062  66.152  1.00  0.00    -0.140 C  
BRANCH  23  24
HETATM   24  C   UNL     1     -10.097   4.765  66.058  1.00  0.00    -0.282 C  
BRANCH  24  25
HETATM   25  C   UNL     1      -9.208   3.554  66.351  1.00  0.00    -0.179 C  
BRANCH  25  26
HETATM   26  C   UNL     1      -8.413   3.686  67.652  1.00  0.00    -0.105 C  
HETATM   27  C   UNL     1      -8.739   2.566  68.615  1.00  0.00    -0.090 C  
HETATM   28  O   UNL     1      -9.528   1.663  68.412  1.00  0.00    -0.177 OA 
HETATM   29  O   UNL     1      -8.033   2.665  69.767  1.00  0.00    -0.043 OA 
ENDBRANCH  25  26
ENDBRANCH  24  25
ENDBRANCH  23  24
ENDBRANCH  21  22
ENDBRANCH  19  21
ENDBRANCH  11  12
ENDBRANCH  10  11
ENDBRANCH   8  10
ENDBRANCH   7   8
ENDBRANCH   6   7
ENDBRANCH   5   6
ENDBRANCH   4   5
ENDBRANCH   3   4
ENDBRANCH   2   3
TORSDOF 14
ENDMDL
MODEL      332
REMARK 921   NORMALIZED FREE ENERGY PREDICTED BY IDOCK:   -2.88 KCAL/MOL
REMARK 922        TOTAL FREE ENERGY PREDICTED BY IDOCK:   -8.19 KCAL/MOL
REMARK 923 INTER-LIGAND FREE ENERGY PREDICTED BY IDOCK:   -7.05 KCAL/MOL
REMARK 924 INTRA-LIGAND FREE ENERGY PREDICTED BY IDOCK:   -1.13 KCAL/MOL
REMARK 927      BINDING AFFINITY PREDICTED BY RF-SCORE:    0.00 PKD
ROOT
HETATM    1  C   UNL     1      -7.170   6.982  70.913  1.00  0.00    -0.072 C  
HETATM    2  C   UNL     1      -6.553   5.796  70.194  1.00  0.00    -0.047 C  
ENDROOT
BRANCH   2   3
HETATM    3  C   UNL     1      -7.598   4.988  69.421  1.00  0.00    -0.061 C  
BRANCH   3   4
HETATM    4  C   UNL     1      -7.443   5.224  67.920  1.00  0.00    -0.076 C  
BRANCH   4   5
HETATM    5  C   UNL     1      -8.261   6.415  67.415  1.00  0.00    -0.116 C  
BRANCH   5   6
HETATM    6  C   UNL     1      -9.617   5.928  66.891  1.00  0.00    -0.156 C  
BRANCH   6   7
HETATM    7  C   UNL     1     -10.761   6.271  67.835  1.00  0.00    -0.380 C  
BRANCH   7   8
HETATM    8  C   UNL     1     -10.624   7.671  68.437  1.00  0.00    -0.122 C  
HETATM    9  O   UNL     1     -10.432   7.865  69.635  1.00  0.00    -0.219 OA 
BRANCH   8  10
HETATM   10  C   UNL     1     -10.713   8.801  67.432  1.00  0.00    -0.216 C  
BRANCH  10  11
HETATM   11  C   UNL     1      -9.779  10.004  67.631  1.00  0.00    -0.185 C  
BRANCH  11  12
HETATM   12  C   UNL     1      -9.414  10.650  66.268  1.00  0.00    -0.213 C  
HETATM   13  C   UNL     1      -9.784   9.732  65.091  1.00  0.00    -0.268 C  
HETATM   14  O   UNL     1      -8.831   8.705  64.876  1.00  0.00    -0.361 OA 
HETATM   15  C   UNL     1      -9.805  10.655  63.901  1.00  0.00    -0.398 C  
HETATM   16  H   UNL     1      -9.059   8.137  64.149  1.00  0.00     0.000 HD 
HETATM   17  C   UNL     1     -10.474  11.911  64.421  1.00  0.00    -0.311 C  
HETATM   18  O   UNL     1     -10.020  13.002  63.643  1.00  0.00    -0.717 OA 
HETATM   19  C   UNL     1     -10.141  11.994  65.941  1.00  0.00    -0.264 C  
HETATM   20  H   UNL     1     -10.439  13.790  63.969  1.00  0.00     0.000 HD 
BRANCH  19  21
HETATM   21  C   UNL     1      -9.322  13.228  66.370  1.00  0.00    -0.185 C  
BRANCH  21  22
HETATM   22  C   UNL     1     -10.126  14.499  66.487  1.00  0.00    -0.280 C  
HETATM   23  C   UNL     1      -9.696  15.768  66.455  1.00  0.00    -0.305 C  
BRANCH  23  24
HETATM   24  C   UNL     1      -8.275  16.233  66.345  1.00  0.00    -0.354 C  
BRANCH  24  25
HETATM   25  C   UNL     1      -8.148  17.756  66.435  1.00  0.00    -0.296 C  
BRANCH  25  26
HETATM   26  C   UNL     1      -8.921  18.360  67.611  1.00  0.00    -0.282 C  
HETATM   27  C   UNL     1     -10.076  19.213  67.133  1.00  0.00    -0.373 C  
HETATM   28  O   UNL     1     -10.376  19.414  65.972  1.00  0.00    -0.455 OA 
HETATM   29  O   UNL     1     -10.775  19.744  68.165  1.00  0.00    -0.342 OA 
ENDBRANCH  25  26
ENDBRANCH  24  25
ENDBRANCH  23  24
ENDBRANCH  21  22
ENDBRANCH  19  21
ENDBRANCH  11  12
ENDBRANCH  10  11
ENDBRANCH   8  10
ENDBRANCH   7   8
ENDBRANCH   6   7
ENDBRANCH   5   6
ENDBRANCH   4   5
ENDBRANCH   3   4
ENDBRANCH   2   3
TORSDOF 14
ENDMDL
MODEL      333
REMARK 921   NORMALIZED FREE ENERGY PREDICTED BY IDOCK:   -2.87 KCAL/MOL
REMARK 922        TOTAL FREE ENERGY PREDICTED BY IDOCK:   -8.17 KCAL/MOL
REMARK 923 INTER-LIGAND FREE ENERGY PREDICTED BY IDOCK:   -5.42 KCAL/MOL
REMARK 924 INTRA-LIGAND FREE ENERGY PREDICTED BY IDOCK:   -2.75 KCAL/MOL
REMARK 927      BINDING AFFINITY PREDICTED BY RF-SCORE:    0.00 PKD
ROOT
HETATM    1  C   UNL     1     -11.330  10.765  67.663  1.00  0.00    -0.328 C  
HETATM    2  C   UNL     1      -9.937  10.787  68.267  1.00  0.00    -0.182 C  
ENDROOT
BRANCH   2   3
HETATM    3  C   UNL     1      -8.847  10.680  67.198  1.00  0.00    -0.139 C  
BRANCH   3   4
HETATM    4  C   UNL     1      -8.324   9.246  67.120  1.00  0.00    -0.124 C  
BRANCH   4   5
HETATM    5  C   UNL     1      -6.800   9.161  67.220  1.00  0.00    -0.077 C  
BRANCH   5   6
HETATM    6  C   UNL     1      -6.404   8.451  68.520  1.00  0.00    -0.054 C  
BRANCH   6   7
HETATM    7  C   UNL     1      -7.594   8.221  69.440  1.00  0.00    -0.096 C  
BRANCH   7   8
HETATM    8  C   UNL     1      -7.466   8.976  70.765  1.00  0.00    -0.115 C  
HETATM    9  O   UNL     1      -7.241  10.182  70.826  1.00  0.00    -0.320 OA 
BRANCH   8  10
HETATM   10  C   UNL     1      -7.670   8.121  72.000  1.00  0.00    -0.136 C  
BRANCH  10  11
HETATM   11  C   UNL     1      -8.245   6.711  71.800  1.00  0.00    -0.110 C  
BRANCH  11  12
HETATM   12  C   UNL     1      -9.794   6.728  71.892  1.00  0.00    -0.173 C  
HETATM   13  C   UNL     1     -10.286   7.755  72.924  1.00  0.00    -0.334 C  
HETATM   14  O   UNL     1     -10.198   7.278  74.257  1.00  0.00    -0.423 OA 
HETATM   15  C   UNL     1     -11.732   7.971  72.563  1.00  0.00    -0.446 C  
HETATM   16  H   UNL     1     -10.502   7.913  74.895  1.00  0.00     0.000 HD 
HETATM   17  C   UNL     1     -11.730   8.018  71.048  1.00  0.00    -0.277 C  
HETATM   18  O   UNL     1     -13.008   7.612  70.597  1.00  0.00    -0.489 OA 
HETATM   19  C   UNL     1     -10.544   7.124  70.579  1.00  0.00    -0.243 C  
HETATM   20  H   UNL     1     -13.007   7.640  69.648  1.00  0.00     0.000 HD 
BRANCH  19  21
HETATM   21  C   UNL     1     -10.938   5.897  69.732  1.00  0.00    -0.452 C  
BRANCH  21  22
HETATM   22  C   UNL     1     -10.892   6.129  68.242  1.00  0.00    -0.387 C  
HETATM   23  C   UNL     1      -9.982   5.701  67.355  1.00  0.00    -0.180 C  
BRANCH  23  24
HETATM   24  C   UNL     1      -8.740   4.915  67.649  1.00  0.00    -0.103 C  
BRANCH  24  25
HETATM   25  C   UNL     1      -7.896   4.661  66.398  1.00  0.00    -0.099 C  
BRANCH  25  26
HETATM   26  C   UNL     1      -7.153   5.905  65.905  1.00  0.00    -0.074 C  
HETATM   27  C   UNL     1      -7.789   6.469  64.653  1.00  0.00    -0.112 C  
HETATM   28  O   UNL     1      -8.764   6.015  64.086  1.00  0.00     0.113 OA 
HETATM   29  O   UNL     1      -7.146   7.578  64.213  1.00  0.00    -0.057 OA 
ENDBRANCH  25  26
ENDBRANCH  24  25
ENDBRANCH  23  24
ENDBRANCH  21  22
ENDBRANCH  19  21
ENDBRANCH  11  12
ENDBRANCH  10  11
ENDBRANCH   8  10
ENDBRANCH   7   8
ENDBRANCH   6   7
ENDBRANCH   5   6
ENDBRANCH   4   5
ENDBRANCH   3   4
ENDBRANCH   2   3
TORSDOF 14
ENDMDL
MODEL      334
REMARK 921   NORMALIZED FREE ENERGY PREDICTED BY IDOCK:   -2.86 KCAL/MOL
REMARK 922        TOTAL FREE ENERGY PREDICTED BY IDOCK:   -8.16 KCAL/MOL
REMARK 923 INTER-LIGAND FREE ENERGY PREDICTED BY IDOCK:   -6.42 KCAL/MOL
REMARK 924 INTRA-LIGAND FREE ENERGY PREDICTED BY IDOCK:   -1.74 KCAL/MOL
REMARK 927      BINDING AFFINITY PREDICTED BY RF-SCORE:    0.00 PKD
ROOT
HETATM    1  C   UNL     1      -9.843  19.871  68.711  1.00  0.00    -0.417 C  
HETATM    2  C   UNL     1     -10.191  20.091  67.249  1.00  0.00    -0.565 C  
ENDROOT
BRANCH   2   3
HETATM    3  C   UNL     1      -9.817  18.886  66.384  1.00  0.00    -0.412 C  
BRANCH   3   4
HETATM    4  C   UNL     1     -10.488  17.623  66.921  1.00  0.00    -0.290 C  
BRANCH   4   5
HETATM    5  C   UNL     1     -10.314  16.416  65.997  1.00  0.00    -0.365 C  
BRANCH   5   6
HETATM    6  C   UNL     1     -10.723  15.135  66.735  1.00  0.00    -0.311 C  
BRANCH   6   7
HETATM    7  C   UNL     1     -10.619  13.900  65.852  1.00  0.00    -0.293 C  
BRANCH   7   8
HETATM    8  C   UNL     1     -11.536  12.766  66.317  1.00  0.00    -0.354 C  
HETATM    9  O   UNL     1     -12.505  12.384  65.668  1.00  0.00    -0.640 OA 
BRANCH   8  10
HETATM   10  C   UNL     1     -11.133  12.130  67.633  1.00  0.00    -0.320 C  
BRANCH  10  11
HETATM   11  C   UNL     1     -11.521  10.661  67.859  1.00  0.00    -0.261 C  
BRANCH  11  12
HETATM   12  C   UNL     1     -10.293   9.731  67.669  1.00  0.00    -0.281 C  
HETATM   13  C   UNL     1     -10.471   8.401  68.420  1.00  0.00    -0.164 C  
HETATM   14  O   UNL     1     -10.192   8.512  69.806  1.00  0.00    -0.196 OA 
HETATM   15  C   UNL     1      -9.466   7.482  67.776  1.00  0.00    -0.157 C  
HETATM   16  H   UNL     1     -10.301   7.691  70.270  1.00  0.00     0.000 HD 
HETATM   17  C   UNL     1      -9.567   7.802  66.299  1.00  0.00    -0.108 C  
HETATM   18  O   UNL     1      -8.325   7.488  65.699  1.00  0.00    -0.130 OA 
HETATM   19  C   UNL     1      -9.995   9.297  66.198  1.00  0.00    -0.348 C  
HETATM   20  H   UNL     1      -8.388   7.689  64.772  1.00  0.00     0.000 HD 
BRANCH  19  21
HETATM   21  C   UNL     1      -8.982  10.227  65.501  1.00  0.00    -0.200 C  
BRANCH  21  22
HETATM   22  C   UNL     1      -8.288  11.195  66.426  1.00  0.00    -0.167 C  
HETATM   23  C   UNL     1      -7.215  10.989  67.203  1.00  0.00    -0.112 C  
BRANCH  23  24
HETATM   24  C   UNL     1      -6.465   9.702  67.378  1.00  0.00    -0.069 C  
BRANCH  24  25
HETATM   25  C   UNL     1      -6.172   9.390  68.847  1.00  0.00    -0.043 C  
BRANCH  25  26
HETATM   26  C   UNL     1      -6.028   7.893  69.131  1.00  0.00    -0.034 C  
HETATM   27  C   UNL     1      -6.972   7.445  70.226  1.00  0.00    -0.059 C  
HETATM   28  O   UNL     1      -7.754   8.158  70.824  1.00  0.00    -0.074 OA 
HETATM   29  O   UNL     1      -6.862   6.118  70.479  1.00  0.00    -0.051 OA 
ENDBRANCH  25  26
ENDBRANCH  24  25
ENDBRANCH  23  24
ENDBRANCH  21  22
ENDBRANCH  19  21
ENDBRANCH  11  12
ENDBRANCH  10  11
ENDBRANCH   8  10
ENDBRANCH   7   8
ENDBRANCH   6   7
ENDBRANCH   5   6
ENDBRANCH   4   5
ENDBRANCH   3   4
ENDBRANCH   2   3
TORSDOF 14
ENDMDL
MODEL      335
REMARK 921   NORMALIZED FREE ENERGY PREDICTED BY IDOCK:   -2.85 KCAL/MOL
REMARK 922        TOTAL FREE ENERGY PREDICTED BY IDOCK:   -8.14 KCAL/MOL
REMARK 923 INTER-LIGAND FREE ENERGY PREDICTED BY IDOCK:   -7.58 KCAL/MOL
REMARK 924 INTRA-LIGAND FREE ENERGY PREDICTED BY IDOCK:   -0.56 KCAL/MOL
REMARK 927      BINDING AFFINITY PREDICTED BY RF-SCORE:    0.00 PKD
ROOT
HETATM    1  C   UNL     1     -10.645  16.815  69.426  1.00  0.00    -0.318 C  
HETATM    2  C   UNL     1     -10.170  17.827  68.398  1.00  0.00    -0.384 C  
ENDROOT
BRANCH   2   3
HETATM    3  C   UNL     1      -9.046  18.711  68.941  1.00  0.00    -0.225 C  
BRANCH   3   4
HETATM    4  C   UNL     1      -7.711  18.311  68.315  1.00  0.00    -0.303 C  
BRANCH   4   5
HETATM    5  C   UNL     1      -7.072  17.099  68.996  1.00  0.00    -0.232 C  
BRANCH   5   6
HETATM    6  C   UNL     1      -6.806  16.002  67.959  1.00  0.00    -0.141 C  
BRANCH   6   7
HETATM    7  C   UNL     1      -7.919  15.898  66.926  1.00  0.00    -0.287 C  
BRANCH   7   8
HETATM    8  C   UNL     1      -8.744  14.618  67.079  1.00  0.00    -0.235 C  
HETATM    9  O   UNL     1      -8.662  13.886  68.062  1.00  0.00    -0.164 OA 
BRANCH   8  10
HETATM   10  C   UNL     1      -9.694  14.340  65.932  1.00  0.00    -0.289 C  
BRANCH  10  11
HETATM   11  C   UNL     1     -10.854  13.366  66.190  1.00  0.00    -0.287 C  
BRANCH  11  12
HETATM   12  C   UNL     1     -10.741  12.118  65.274  1.00  0.00    -0.328 C  
HETATM   13  C   UNL     1     -10.459  12.513  63.816  1.00  0.00    -0.419 C  
HETATM   14  O   UNL     1     -11.625  12.932  63.126  1.00  0.00    -0.796 OA 
HETATM   15  C   UNL     1      -9.932  11.248  63.191  1.00  0.00    -0.398 C  
HETATM   16  H   UNL     1     -11.450  13.176  62.224  1.00  0.00     0.000 HD 
HETATM   17  C   UNL     1      -9.018  10.666  64.250  1.00  0.00    -0.198 C  
HETATM   18  O   UNL     1      -8.961   9.266  64.056  1.00  0.00    -0.376 OA 
HETATM   19  C   UNL     1      -9.587  11.125  65.626  1.00  0.00    -0.259 C  
HETATM   20  H   UNL     1      -8.388   8.901  64.720  1.00  0.00     0.000 HD 
BRANCH  19  21
HETATM   21  C   UNL     1     -10.051   9.988  66.559  1.00  0.00    -0.296 C  
BRANCH  21  22
HETATM   22  C   UNL     1     -11.283  10.310  67.366  1.00  0.00    -0.145 C  
HETATM   23  C   UNL     1     -11.377  10.608  68.670  1.00  0.00    -0.345 C  
BRANCH  23  24
HETATM   24  C   UNL     1     -10.258  10.641  69.667  1.00  0.00    -0.156 C  
BRANCH  24  25
HETATM   25  C   UNL     1     -10.278   9.438  70.613  1.00  0.00    -0.353 C  
BRANCH  25  26
HETATM   26  C   UNL     1      -8.894   9.063  71.146  1.00  0.00    -0.282 C  
HETATM   27  C   UNL     1      -7.794   9.640  70.282  1.00  0.00    -0.178 C  
HETATM   28  O   UNL     1      -7.957  10.317  69.284  1.00  0.00    -0.123 OA 
HETATM   29  O   UNL     1      -6.562   9.325  70.750  1.00  0.00    -0.066 OA 
ENDBRANCH  25  26
ENDBRANCH  24  25
ENDBRANCH  23  24
ENDBRANCH  21  22
ENDBRANCH  19  21
ENDBRANCH  11  12
ENDBRANCH  10  11
ENDBRANCH   8  10
ENDBRANCH   7   8
ENDBRANCH   6   7
ENDBRANCH   5   6
ENDBRANCH   4   5
ENDBRANCH   3   4
ENDBRANCH   2   3
TORSDOF 14
ENDMDL
MODEL      336
REMARK 921   NORMALIZED FREE ENERGY PREDICTED BY IDOCK:   -2.85 KCAL/MOL
REMARK 922        TOTAL FREE ENERGY PREDICTED BY IDOCK:   -8.14 KCAL/MOL
REMARK 923 INTER-LIGAND FREE ENERGY PREDICTED BY IDOCK:   -6.22 KCAL/MOL
REMARK 924 INTRA-LIGAND FREE ENERGY PREDICTED BY IDOCK:   -1.92 KCAL/MOL
REMARK 927      BINDING AFFINITY PREDICTED BY RF-SCORE:    0.00 PKD
ROOT
HETATM    1  C   UNL     1     -11.645  13.991  67.196  1.00  0.00    -0.397 C  
HETATM    2  C   UNL     1     -11.680  12.835  66.212  1.00  0.00    -0.460 C  
ENDROOT
BRANCH   2   3
HETATM    3  C   UNL     1     -12.497  13.172  64.963  1.00  0.00    -0.516 C  
BRANCH   3   4
HETATM    4  C   UNL     1     -11.621  13.062  63.715  1.00  0.00    -0.517 C  
BRANCH   4   5
HETATM    5  C   UNL     1     -10.178  12.665  64.032  1.00  0.00    -0.363 C  
BRANCH   5   6
HETATM    6  C   UNL     1      -9.887  11.269  63.466  1.00  0.00    -0.394 C  
BRANCH   6   7
HETATM    7  C   UNL     1      -9.980  10.183  64.528  1.00  0.00    -0.275 C  
BRANCH   7   8
HETATM    8  C   UNL     1      -8.621   9.559  64.850  1.00  0.00    -0.172 C  
HETATM    9  O   UNL     1      -7.673   9.588  64.070  1.00  0.00    -0.113 OA 
BRANCH   8  10
HETATM   10  C   UNL     1      -8.527   8.926  66.224  1.00  0.00    -0.129 C  
BRANCH  10  11
HETATM   11  C   UNL     1      -9.702   9.147  67.189  1.00  0.00    -0.236 C  
BRANCH  11  12
HETATM   12  C   UNL     1      -9.877   7.927  68.132  1.00  0.00    -0.193 C  
HETATM   13  C   UNL     1     -10.135   6.635  67.341  1.00  0.00    -0.164 C  
HETATM   14  O   UNL     1     -11.481   6.514  66.911  1.00  0.00    -0.762 OA 
HETATM   15  C   UNL     1      -9.821   5.537  68.324  1.00  0.00    -0.185 C  
HETATM   16  H   UNL     1     -11.640   5.715  66.422  1.00  0.00     0.000 HD 
HETATM   17  C   UNL     1      -8.577   6.026  69.037  1.00  0.00    -0.120 C  
HETATM   18  O   UNL     1      -8.547   5.431  70.320  1.00  0.00    -0.119 OA 
HETATM   19  C   UNL     1      -8.643   7.583  69.027  1.00  0.00    -0.136 C  
HETATM   20  H   UNL     1      -7.767   5.738  70.768  1.00  0.00     0.000 HD 
BRANCH  19  21
HETATM   21  C   UNL     1      -8.716   8.249  70.415  1.00  0.00    -0.139 C  
BRANCH  21  22
HETATM   22  C   UNL     1      -7.379   8.654  70.983  1.00  0.00    -0.083 C  
HETATM   23  C   UNL     1      -6.590   9.675  70.621  1.00  0.00    -0.114 C  
BRANCH  23  24
HETATM   24  C   UNL     1      -6.833  10.648  69.507  1.00  0.00    -0.109 C  
BRANCH  24  25
HETATM   25  C   UNL     1      -5.534  11.137  68.862  1.00  0.00    -0.040 C  
BRANCH  25  26
HETATM   26  C   UNL     1      -5.293  12.637  69.048  1.00  0.00    -0.067 C  
HETATM   27  C   UNL     1      -5.916  13.440  67.926  1.00  0.00    -0.140 C  
HETATM   28  O   UNL     1      -6.533  12.981  66.984  1.00  0.00    -0.165 OA 
HETATM   29  O   UNL     1      -5.719  14.771  68.084  1.00  0.00    -0.112 OA 
ENDBRANCH  25  26
ENDBRANCH  24  25
ENDBRANCH  23  24
ENDBRANCH  21  22
ENDBRANCH  19  21
ENDBRANCH  11  12
ENDBRANCH  10  11
ENDBRANCH   8  10
ENDBRANCH   7   8
ENDBRANCH   6   7
ENDBRANCH   5   6
ENDBRANCH   4   5
ENDBRANCH   3   4
ENDBRANCH   2   3
TORSDOF 14
ENDMDL
MODEL      337
REMARK 921   NORMALIZED FREE ENERGY PREDICTED BY IDOCK:   -2.83 KCAL/MOL
REMARK 922        TOTAL FREE ENERGY PREDICTED BY IDOCK:   -8.10 KCAL/MOL
REMARK 923 INTER-LIGAND FREE ENERGY PREDICTED BY IDOCK:   -5.61 KCAL/MOL
REMARK 924 INTRA-LIGAND FREE ENERGY PREDICTED BY IDOCK:   -2.50 KCAL/MOL
REMARK 927      BINDING AFFINITY PREDICTED BY RF-SCORE:    0.00 PKD
ROOT
HETATM    1  C   UNL     1      -8.597   5.747  64.673  1.00  0.00    -0.001 C  
HETATM    2  C   UNL     1      -8.552   6.257  66.102  1.00  0.00    -0.143 C  
ENDROOT
BRANCH   2   3
HETATM    3  C   UNL     1      -7.150   6.149  66.705  1.00  0.00    -0.073 C  
BRANCH   3   4
HETATM    4  C   UNL     1      -6.769   7.459  67.393  1.00  0.00    -0.069 C  
BRANCH   4   5
HETATM    5  C   UNL     1      -7.272   8.695  66.644  1.00  0.00    -0.081 C  
BRANCH   5   6
HETATM    6  C   UNL     1      -6.421   9.913  67.023  1.00  0.00    -0.069 C  
BRANCH   6   7
HETATM    7  C   UNL     1      -6.030   9.912  68.494  1.00  0.00    -0.042 C  
BRANCH   7   8
HETATM    8  C   UNL     1      -6.973  10.757  69.353  1.00  0.00    -0.116 C  
HETATM    9  O   UNL     1      -7.119  11.966  69.191  1.00  0.00    -0.105 OA 
BRANCH   8  10
HETATM   10  C   UNL     1      -7.737   9.977  70.404  1.00  0.00     0.006 C  
BRANCH  10  11
HETATM   11  C   UNL     1      -8.342   8.628  69.986  1.00  0.00    -0.124 C  
BRANCH  11  12
HETATM   12  C   UNL     1      -9.888   8.721  69.896  1.00  0.00    -0.189 C  
HETATM   13  C   UNL     1     -10.545   8.546  71.276  1.00  0.00    -0.234 C  
HETATM   14  O   UNL     1     -10.635   7.187  71.671  1.00  0.00    -0.208 OA 
HETATM   15  C   UNL     1     -11.930   9.109  71.094  1.00  0.00    -0.374 C  
HETATM   16  H   UNL     1     -11.041   7.079  72.524  1.00  0.00     0.000 HD 
HETATM   17  C   UNL     1     -11.715  10.352  70.254  1.00  0.00    -0.321 C  
HETATM   18  O   UNL     1     -12.907  10.604  69.535  1.00  0.00    -0.608 OA 
HETATM   19  C   UNL     1     -10.454  10.083  69.379  1.00  0.00    -0.252 C  
HETATM   20  H   UNL     1     -12.772  11.383  69.008  1.00  0.00     0.000 HD 
BRANCH  19  21
HETATM   21  C   UNL     1     -10.696  10.081  67.857  1.00  0.00    -0.322 C  
BRANCH  21  22
HETATM   22  C   UNL     1     -10.097  11.259  67.130  1.00  0.00    -0.223 C  
HETATM   23  C   UNL     1     -10.651  12.451  66.866  1.00  0.00    -0.251 C  
BRANCH  23  24
HETATM   24  C   UNL     1     -12.048  12.885  67.193  1.00  0.00    -0.283 C  
BRANCH  24  25
HETATM   25  C   UNL     1     -12.160  14.399  67.389  1.00  0.00    -0.348 C  
BRANCH  25  26
HETATM   26  C   UNL     1     -10.998  14.994  68.188  1.00  0.00    -0.281 C  
HETATM   27  C   UNL     1     -11.318  15.057  69.665  1.00  0.00    -0.286 C  
HETATM   28  O   UNL     1     -12.356  14.691  70.183  1.00  0.00    -0.318 OA 
HETATM   29  O   UNL     1     -10.293  15.572  70.386  1.00  0.00    -0.293 OA 
ENDBRANCH  25  26
ENDBRANCH  24  25
ENDBRANCH  23  24
ENDBRANCH  21  22
ENDBRANCH  19  21
ENDBRANCH  11  12
ENDBRANCH  10  11
ENDBRANCH   8  10
ENDBRANCH   7   8
ENDBRANCH   6   7
ENDBRANCH   5   6
ENDBRANCH   4   5
ENDBRANCH   3   4
ENDBRANCH   2   3
TORSDOF 14
ENDMDL
MODEL      338
REMARK 921   NORMALIZED FREE ENERGY PREDICTED BY IDOCK:   -2.83 KCAL/MOL
REMARK 922        TOTAL FREE ENERGY PREDICTED BY IDOCK:   -8.10 KCAL/MOL
REMARK 923 INTER-LIGAND FREE ENERGY PREDICTED BY IDOCK:   -6.53 KCAL/MOL
REMARK 924 INTRA-LIGAND FREE ENERGY PREDICTED BY IDOCK:   -1.57 KCAL/MOL
REMARK 927      BINDING AFFINITY PREDICTED BY RF-SCORE:    0.00 PKD
ROOT
HETATM    1  C   UNL     1      -7.231   3.184  64.325  1.00  0.00    -0.058 C  
HETATM    2  C   UNL     1      -6.369   4.182  65.078  1.00  0.00    -0.034 C  
ENDROOT
BRANCH   2   3
HETATM    3  C   UNL     1      -6.520   5.600  64.525  1.00  0.00    -0.037 C  
BRANCH   3   4
HETATM    4  C   UNL     1      -7.134   6.516  65.584  1.00  0.00    -0.061 C  
BRANCH   4   5
HETATM    5  C   UNL     1      -8.558   6.956  65.240  1.00  0.00    -0.006 C  
BRANCH   5   6
HETATM    6  C   UNL     1      -8.739   8.440  65.578  1.00  0.00    -0.196 C  
BRANCH   6   7
HETATM    7  C   UNL     1      -7.595   8.987  66.420  1.00  0.00    -0.092 C  
BRANCH   7   8
HETATM    8  C   UNL     1      -7.599  10.515  66.494  1.00  0.00    -0.128 C  
HETATM    9  O   UNL     1      -6.600  11.196  66.276  1.00  0.00    -0.126 OA 
BRANCH   8  10
HETATM   10  C   UNL     1      -8.945  11.126  66.829  1.00  0.00    -0.169 C  
BRANCH  10  11
HETATM   11  C   UNL     1      -9.011  12.084  68.028  1.00  0.00    -0.187 C  
BRANCH  11  12
HETATM   12  C   UNL     1     -10.465  12.574  68.262  1.00  0.00    -0.243 C  
HETATM   13  C   UNL     1     -11.295  11.534  69.031  1.00  0.00    -0.276 C  
HETATM   14  O   UNL     1     -11.767  10.486  68.199  1.00  0.00    -0.706 OA 
HETATM   15  C   UNL     1     -12.465  12.320  69.561  1.00  0.00     0.174 C  
HETATM   16  H   UNL     1     -12.280   9.843  68.674  1.00  0.00     0.000 HD 
HETATM   17  C   UNL     1     -11.852  13.628  70.020  1.00  0.00    -0.308 C  
HETATM   18  O   UNL     1     -12.854  14.624  69.958  1.00  0.00    -0.560 OA 
HETATM   19  C   UNL     1     -10.609  13.876  69.114  1.00  0.00    -0.124 C  
HETATM   20  H   UNL     1     -12.470  15.445  70.246  1.00  0.00     0.000 HD 
BRANCH  19  21
HETATM   21  C   UNL     1     -10.671  15.148  68.244  1.00  0.00    -0.251 C  
BRANCH  21  22
HETATM   22  C   UNL     1      -9.574  15.252  67.215  1.00  0.00    -0.214 C  
HETATM   23  C   UNL     1      -9.623  15.795  65.990  1.00  0.00    -0.388 C  
BRANCH  23  24
HETATM   24  C   UNL     1     -10.822  16.395  65.320  1.00  0.00    -0.271 C  
BRANCH  24  25
HETATM   25  C   UNL     1     -11.426  15.470  64.261  1.00  0.00    -0.186 C  
BRANCH  25  26
HETATM   26  C   UNL     1     -11.259  13.984  64.588  1.00  0.00    -0.377 C  
HETATM   27  C   UNL     1     -12.512  13.413  65.215  1.00  0.00    -0.483 C  
HETATM   28  O   UNL     1     -13.535  14.029  65.444  1.00  0.00    -0.679 OA 
HETATM   29  O   UNL     1     -12.382  12.095  65.499  1.00  0.00    -0.548 OA 
ENDBRANCH  25  26
ENDBRANCH  24  25
ENDBRANCH  23  24
ENDBRANCH  21  22
ENDBRANCH  19  21
ENDBRANCH  11  12
ENDBRANCH  10  11
ENDBRANCH   8  10
ENDBRANCH   7   8
ENDBRANCH   6   7
ENDBRANCH   5   6
ENDBRANCH   4   5
ENDBRANCH   3   4
ENDBRANCH   2   3
TORSDOF 14
ENDMDL
MODEL      339
REMARK 921   NORMALIZED FREE ENERGY PREDICTED BY IDOCK:   -2.80 KCAL/MOL
REMARK 922        TOTAL FREE ENERGY PREDICTED BY IDOCK:   -8.06 KCAL/MOL
REMARK 923 INTER-LIGAND FREE ENERGY PREDICTED BY IDOCK:   -5.84 KCAL/MOL
REMARK 924 INTRA-LIGAND FREE ENERGY PREDICTED BY IDOCK:   -2.21 KCAL/MOL
REMARK 927      BINDING AFFINITY PREDICTED BY RF-SCORE:    0.00 PKD
ROOT
HETATM    1  C   UNL     1     -11.188   8.395  71.822  1.00  0.00    -0.360 C  
HETATM    2  C   UNL     1      -9.746   8.581  72.261  1.00  0.00    -0.380 C  
ENDROOT
BRANCH   2   3
HETATM    3  C   UNL     1      -9.001   7.248  72.361  1.00  0.00    -0.149 C  
BRANCH   3   4
HETATM    4  C   UNL     1      -7.697   7.313  71.566  1.00  0.00    -0.087 C  
BRANCH   4   5
HETATM    5  C   UNL     1      -7.520   6.129  70.613  1.00  0.00    -0.087 C  
BRANCH   5   6
HETATM    6  C   UNL     1      -8.749   6.006  69.704  1.00  0.00    -0.133 C  
BRANCH   6   7
HETATM    7  C   UNL     1      -8.576   6.756  68.391  1.00  0.00    -0.125 C  
BRANCH   7   8
HETATM    8  C   UNL     1      -9.682   7.786  68.153  1.00  0.00    -0.155 C  
HETATM    9  O   UNL     1     -10.778   7.490  67.685  1.00  0.00    -0.239 OA 
BRANCH   8  10
HETATM   10  C   UNL     1      -9.329   9.199  68.572  1.00  0.00    -0.137 C  
BRANCH  10  11
HETATM   11  C   UNL     1      -8.238   9.925  67.770  1.00  0.00    -0.114 C  
BRANCH  11  12
HETATM   12  C   UNL     1      -7.986  11.345  68.343  1.00  0.00    -0.142 C  
HETATM   13  C   UNL     1      -6.691  11.397  69.171  1.00  0.00    -0.106 C  
HETATM   14  O   UNL     1      -6.857  10.882  70.482  1.00  0.00    -0.483 OA 
HETATM   15  C   UNL     1      -6.365  12.866  69.246  1.00  0.00    -0.108 C  
HETATM   16  H   UNL     1      -6.057  10.914  70.993  1.00  0.00     0.000 HD 
HETATM   17  C   UNL     1      -6.668  13.382  67.854  1.00  0.00    -0.150 C  
HETATM   18  O   UNL     1      -6.985  14.757  67.958  1.00  0.00    -0.110 OA 
HETATM   19  C   UNL     1      -7.802  12.479  67.283  1.00  0.00    -0.160 C  
HETATM   20  H   UNL     1      -7.176  15.081  67.086  1.00  0.00     0.000 HD 
BRANCH  19  21
HETATM   21  C   UNL     1      -9.123  13.204  66.960  1.00  0.00    -0.231 C  
BRANCH  21  22
HETATM   22  C   UNL     1     -10.147  13.156  68.066  1.00  0.00    -0.232 C  
HETATM   23  C   UNL     1     -11.134  14.023  68.332  1.00  0.00    -0.275 C  
BRANCH  23  24
HETATM   24  C   UNL     1     -11.428  15.302  67.608  1.00  0.00    -0.287 C  
BRANCH  24  25
HETATM   25  C   UNL     1     -10.932  16.534  68.368  1.00  0.00    -0.348 C  
BRANCH  25  26
HETATM   26  C   UNL     1      -9.600  17.075  67.842  1.00  0.00    -0.249 C  
HETATM   27  C   UNL     1      -9.454  18.554  68.126  1.00  0.00    -0.317 C  
HETATM   28  O   UNL     1     -10.272  19.252  68.696  1.00  0.00    -0.411 OA 
HETATM   29  O   UNL     1      -8.274  19.044  67.675  1.00  0.00    -0.268 OA 
ENDBRANCH  25  26
ENDBRANCH  24  25
ENDBRANCH  23  24
ENDBRANCH  21  22
ENDBRANCH  19  21
ENDBRANCH  11  12
ENDBRANCH  10  11
ENDBRANCH   8  10
ENDBRANCH   7   8
ENDBRANCH   6   7
ENDBRANCH   5   6
ENDBRANCH   4   5
ENDBRANCH   3   4
ENDBRANCH   2   3
TORSDOF 14
ENDMDL
MODEL      340
REMARK 921   NORMALIZED FREE ENERGY PREDICTED BY IDOCK:   -2.80 KCAL/MOL
REMARK 922        TOTAL FREE ENERGY PREDICTED BY IDOCK:   -8.05 KCAL/MOL
REMARK 923 INTER-LIGAND FREE ENERGY PREDICTED BY IDOCK:   -5.90 KCAL/MOL
REMARK 924 INTRA-LIGAND FREE ENERGY PREDICTED BY IDOCK:   -2.15 KCAL/MOL
REMARK 927      BINDING AFFINITY PREDICTED BY RF-SCORE:    0.00 PKD
ROOT
HETATM    1  C   UNL     1     -12.088  14.674  64.329  1.00  0.00    -0.437 C  
HETATM    2  C   UNL     1     -12.485  13.279  63.879  1.00  0.00    -0.331 C  
ENDROOT
BRANCH   2   3
HETATM    3  C   UNL     1     -11.273  12.356  63.739  1.00  0.00    -0.520 C  
BRANCH   3   4
HETATM    4  C   UNL     1     -11.046  11.583  65.038  1.00  0.00    -0.268 C  
BRANCH   4   5
HETATM    5  C   UNL     1      -9.567  11.452  65.404  1.00  0.00    -0.255 C  
BRANCH   5   6
HETATM    6  C   UNL     1      -8.898  10.411  64.499  1.00  0.00    -0.225 C  
BRANCH   6   7
HETATM    7  C   UNL     1      -8.953   9.009  65.088  1.00  0.00    -0.216 C  
BRANCH   7   8
HETATM    8  C   UNL     1      -7.620   8.578  65.704  1.00  0.00    -0.090 C  
HETATM    9  O   UNL     1      -7.395   7.426  66.065  1.00  0.00    -0.072 OA 
BRANCH   8  10
HETATM   10  C   UNL     1      -6.586   9.681  65.804  1.00  0.00    -0.081 C  
BRANCH  10  11
HETATM   11  C   UNL     1      -6.489  10.445  67.133  1.00  0.00    -0.072 C  
BRANCH  11  12
HETATM   12  C   UNL     1      -6.902   9.536  68.322  1.00  0.00    -0.062 C  
HETATM   13  C   UNL     1      -5.688   8.811  68.926  1.00  0.00    -0.040 C  
HETATM   14  O   UNL     1      -5.299   7.674  68.173  1.00  0.00    -0.025 OA 
HETATM   15  C   UNL     1      -6.163   8.374  70.287  1.00  0.00    -0.034 C  
HETATM   16  H   UNL     1      -4.549   7.225  68.546  1.00  0.00     0.000 HD 
HETATM   17  C   UNL     1      -6.959   9.559  70.797  1.00  0.00    -0.102 C  
HETATM   18  O   UNL     1      -7.915   9.077  71.721  1.00  0.00    -0.343 OA 
HETATM   19  C   UNL     1      -7.546  10.271  69.542  1.00  0.00    -0.150 C  
HETATM   20  H   UNL     1      -8.414   9.819  72.041  1.00  0.00     0.000 HD 
BRANCH  19  21
HETATM   21  C   UNL     1      -9.086  10.306  69.464  1.00  0.00    -0.187 C  
BRANCH  21  22
HETATM   22  C   UNL     1      -9.685   9.277  68.537  1.00  0.00    -0.162 C  
HETATM   23  C   UNL     1     -10.235   8.094  68.843  1.00  0.00    -0.221 C  
BRANCH  23  24
HETATM   24  C   UNL     1     -10.340   7.475  70.204  1.00  0.00    -0.217 C  
BRANCH  24  25
HETATM   25  C   UNL     1     -11.709   6.839  70.455  1.00  0.00    -0.430 C  
BRANCH  25  26
HETATM   26  C   UNL     1     -12.309   7.211  71.813  1.00  0.00    -0.385 C  
HETATM   27  C   UNL     1     -12.705   8.670  71.863  1.00  0.00    -0.366 C  
HETATM   28  O   UNL     1     -12.573   9.472  70.957  1.00  0.00    -0.306 OA 
HETATM   29  O   UNL     1     -13.248   9.010  73.056  1.00  0.00    -0.306 OA 
ENDBRANCH  25  26
ENDBRANCH  24  25
ENDBRANCH  23  24
ENDBRANCH  21  22
ENDBRANCH  19  21
ENDBRANCH  11  12
ENDBRANCH  10  11
ENDBRANCH   8  10
ENDBRANCH   7   8
ENDBRANCH   6   7
ENDBRANCH   5   6
ENDBRANCH   4   5
ENDBRANCH   3   4
ENDBRANCH   2   3
TORSDOF 14
ENDMDL
MODEL      341
REMARK 921   NORMALIZED FREE ENERGY PREDICTED BY IDOCK:   -2.79 KCAL/MOL
REMARK 922        TOTAL FREE ENERGY PREDICTED BY IDOCK:   -8.03 KCAL/MOL
REMARK 923 INTER-LIGAND FREE ENERGY PREDICTED BY IDOCK:   -6.75 KCAL/MOL
REMARK 924 INTRA-LIGAND FREE ENERGY PREDICTED BY IDOCK:   -1.27 KCAL/MOL
REMARK 927      BINDING AFFINITY PREDICTED BY RF-SCORE:    0.00 PKD
ROOT
HETATM    1  C   UNL     1     -14.179  15.492  72.194  1.00  0.00    -0.617 C  
HETATM    2  C   UNL     1     -14.397  13.990  72.155  1.00  0.00    -0.577 C  
ENDROOT
BRANCH   2   3
HETATM    3  C   UNL     1     -13.142  13.240  71.701  1.00  0.00    -0.453 C  
BRANCH   3   4
HETATM    4  C   UNL     1     -12.137  14.217  71.092  1.00  0.00    -0.392 C  
BRANCH   4   5
HETATM    5  C   UNL     1     -11.686  13.811  69.688  1.00  0.00    -0.379 C  
BRANCH   5   6
HETATM    6  C   UNL     1     -11.865  12.299  69.502  1.00  0.00    -0.380 C  
BRANCH   6   7
HETATM    7  C   UNL     1     -10.794  11.695  68.605  1.00  0.00    -0.253 C  
BRANCH   7   8
HETATM    8  C   UNL     1     -11.009  12.029  67.127  1.00  0.00    -0.270 C  
HETATM    9  O   UNL     1     -11.433  11.211  66.314  1.00  0.00    -0.201 OA 
BRANCH   8  10
HETATM   10  C   UNL     1     -10.685  13.460  66.751  1.00  0.00    -0.277 C  
BRANCH  10  11
HETATM   11  C   UNL     1      -9.289  13.746  66.178  1.00  0.00    -0.104 C  
BRANCH  11  12
HETATM   12  C   UNL     1      -8.740  15.097  66.708  1.00  0.00    -0.307 C  
HETATM   13  C   UNL     1      -9.813  16.197  66.663  1.00  0.00    -0.249 C  
HETATM   14  O   UNL     1      -9.975  16.754  65.369  1.00  0.00    -0.572 OA 
HETATM   15  C   UNL     1      -9.292  17.253  67.603  1.00  0.00    -0.237 C  
HETATM   16  H   UNL     1     -10.638  17.434  65.341  1.00  0.00     0.000 HD 
HETATM   17  C   UNL     1      -8.735  16.465  68.770  1.00  0.00    -0.246 C  
HETATM   18  O   UNL     1      -7.724  17.244  69.381  1.00  0.00    -0.046 OA 
HETATM   19  C   UNL     1      -8.263  15.095  68.196  1.00  0.00    -0.145 C  
HETATM   20  H   UNL     1      -7.374  16.750  70.113  1.00  0.00     0.000 HD 
BRANCH  19  21
HETATM   21  C   UNL     1      -6.754  14.808  68.331  1.00  0.00    -0.102 C  
BRANCH  21  22
HETATM   22  C   UNL     1      -6.221  13.802  67.342  1.00  0.00     0.130 C  
HETATM   23  C   UNL     1      -6.186  12.466  67.444  1.00  0.00    -0.158 C  
BRANCH  23  24
HETATM   24  C   UNL     1      -6.631  11.640  68.613  1.00  0.00    -0.066 C  
BRANCH  24  25
HETATM   25  C   UNL     1      -6.954  10.196  68.222  1.00  0.00    -0.070 C  
BRANCH  25  26
HETATM   26  C   UNL     1      -8.152   9.617  68.979  1.00  0.00    -0.103 C  
HETATM   27  C   UNL     1      -7.931   9.656  70.476  1.00  0.00    -0.116 C  
HETATM   28  O   UNL     1      -6.940  10.084  71.036  1.00  0.00    -0.339 OA 
HETATM   29  O   UNL     1      -8.989   9.156  71.158  1.00  0.00    -0.223 OA 
ENDBRANCH  25  26
ENDBRANCH  24  25
ENDBRANCH  23  24
ENDBRANCH  21  22
ENDBRANCH  19  21
ENDBRANCH  11  12
ENDBRANCH  10  11
ENDBRANCH   8  10
ENDBRANCH   7   8
ENDBRANCH   6   7
ENDBRANCH   5   6
ENDBRANCH   4   5
ENDBRANCH   3   4
ENDBRANCH   2   3
TORSDOF 14
ENDMDL
MODEL      342
REMARK 921   NORMALIZED FREE ENERGY PREDICTED BY IDOCK:   -2.75 KCAL/MOL
REMARK 922        TOTAL FREE ENERGY PREDICTED BY IDOCK:   -7.95 KCAL/MOL
REMARK 923 INTER-LIGAND FREE ENERGY PREDICTED BY IDOCK:   -4.69 KCAL/MOL
REMARK 924 INTRA-LIGAND FREE ENERGY PREDICTED BY IDOCK:   -3.26 KCAL/MOL
REMARK 927      BINDING AFFINITY PREDICTED BY RF-SCORE:    0.00 PKD
ROOT
HETATM    1  C   UNL     1     -10.296  10.404  67.454  1.00  0.00    -0.275 C  
HETATM    2  C   UNL     1      -8.922  10.383  68.101  1.00  0.00    -0.132 C  
ENDROOT
BRANCH   2   3
HETATM    3  C   UNL     1      -7.800  10.373  67.061  1.00  0.00    -0.112 C  
BRANCH   3   4
HETATM    4  C   UNL     1      -7.500   8.939  66.624  1.00  0.00    -0.086 C  
BRANCH   4   5
HETATM    5  C   UNL     1      -6.025   8.564  66.780  1.00  0.00    -0.053 C  
BRANCH   5   6
HETATM    6  C   UNL     1      -5.899   7.298  67.636  1.00  0.00    -0.030 C  
BRANCH   6   7
HETATM    7  C   UNL     1      -7.209   6.926  68.317  1.00  0.00    -0.091 C  
BRANCH   7   8
HETATM    8  C   UNL     1      -7.151   7.103  69.836  1.00  0.00    -0.073 C  
HETATM    9  O   UNL     1      -6.875   8.173  70.372  1.00  0.00    -0.037 OA 
BRANCH   8  10
HETATM   10  C   UNL     1      -7.492   5.858  70.629  1.00  0.00    -0.087 C  
BRANCH  10  11
HETATM   11  C   UNL     1      -8.484   4.866  70.002  1.00  0.00    -0.091 C  
BRANCH  11  12
HETATM   12  C   UNL     1      -9.852   4.919  70.732  1.00  0.00    -0.285 C  
HETATM   13  C   UNL     1      -9.704   4.611  72.231  1.00  0.00    -0.161 C  
HETATM   14  O   UNL     1      -9.599   3.222  72.497  1.00  0.00    -0.114 OA 
HETATM   15  C   UNL     1     -10.974   5.144  72.840  1.00  0.00    -0.345 C  
HETATM   16  H   UNL     1      -9.507   3.031  73.423  1.00  0.00     0.000 HD 
HETATM   17  C   UNL     1     -11.204   6.458  72.121  1.00  0.00    -0.279 C  
HETATM   18  O   UNL     1     -12.592   6.731  72.145  1.00  0.00    -0.511 OA 
HETATM   19  C   UNL     1     -10.582   6.300  70.701  1.00  0.00    -0.301 C  
HETATM   20  H   UNL     1     -12.737   7.555  71.694  1.00  0.00     0.000 HD 
BRANCH  19  21
HETATM   21  C   UNL     1     -11.576   6.417  69.529  1.00  0.00    -0.303 C  
BRANCH  21  22
HETATM   22  C   UNL     1     -11.002   7.051  68.286  1.00  0.00    -0.148 C  
HETATM   23  C   UNL     1     -10.560   6.455  67.170  1.00  0.00    -0.389 C  
BRANCH  23  24
HETATM   24  C   UNL     1     -10.483   4.981  66.907  1.00  0.00    -0.243 C  
BRANCH  24  25
HETATM   25  C   UNL     1      -9.792   4.658  65.580  1.00  0.00    -0.217 C  
BRANCH  25  26
HETATM   26  C   UNL     1      -8.289   4.405  65.725  1.00  0.00    -0.113 C  
HETATM   27  C   UNL     1      -7.489   5.273  64.778  1.00  0.00    -0.069 C  
HETATM   28  O   UNL     1      -7.952   6.076  63.990  1.00  0.00    -0.116 OA 
HETATM   29  O   UNL     1      -6.156   5.067  64.904  1.00  0.00    -0.028 OA 
ENDBRANCH  25  26
ENDBRANCH  24  25
ENDBRANCH  23  24
ENDBRANCH  21  22
ENDBRANCH  19  21
ENDBRANCH  11  12
ENDBRANCH  10  11
ENDBRANCH   8  10
ENDBRANCH   7   8
ENDBRANCH   6   7
ENDBRANCH   5   6
ENDBRANCH   4   5
ENDBRANCH   3   4
ENDBRANCH   2   3
TORSDOF 14
ENDMDL
MODEL      343
REMARK 921   NORMALIZED FREE ENERGY PREDICTED BY IDOCK:   -2.74 KCAL/MOL
REMARK 922        TOTAL FREE ENERGY PREDICTED BY IDOCK:   -7.94 KCAL/MOL
REMARK 923 INTER-LIGAND FREE ENERGY PREDICTED BY IDOCK:   -6.13 KCAL/MOL
REMARK 924 INTRA-LIGAND FREE ENERGY PREDICTED BY IDOCK:   -1.82 KCAL/MOL
REMARK 927      BINDING AFFINITY PREDICTED BY RF-SCORE:    0.00 PKD
ROOT
HETATM    1  C   UNL     1     -12.823  10.194  71.291  1.00  0.00    -0.508 C  
HETATM    2  C   UNL     1     -11.954   8.974  71.540  1.00  0.00    -0.414 C  
ENDROOT
BRANCH   2   3
HETATM    3  C   UNL     1     -10.473   9.266  71.292  1.00  0.00    -0.408 C  
BRANCH   3   4
HETATM    4  C   UNL     1      -9.993   8.528  70.043  1.00  0.00    -0.191 C  
BRANCH   4   5
HETATM    5  C   UNL     1      -9.868   9.440  68.821  1.00  0.00    -0.172 C  
BRANCH   5   6
HETATM    6  C   UNL     1      -8.616   9.066  68.019  1.00  0.00    -0.129 C  
BRANCH   6   7
HETATM    7  C   UNL     1      -7.493  10.079  68.190  1.00  0.00    -0.083 C  
BRANCH   7   8
HETATM    8  C   UNL     1      -7.487  11.140  67.088  1.00  0.00    -0.121 C  
HETATM    9  O   UNL     1      -7.238  10.880  65.914  1.00  0.00    -0.123 OA 
BRANCH   8  10
HETATM   10  C   UNL     1      -7.844  12.537  67.556  1.00  0.00    -0.168 C  
BRANCH  10  11
HETATM   11  C   UNL     1      -9.155  13.146  67.038  1.00  0.00    -0.231 C  
BRANCH  11  12
HETATM   12  C   UNL     1      -9.423  14.523  67.701  1.00  0.00    -0.209 C  
HETATM   13  C   UNL     1      -9.380  14.428  69.235  1.00  0.00     0.170 C  
HETATM   14  O   UNL     1     -10.581  13.912  69.786  1.00  0.00    -0.426 OA 
HETATM   15  C   UNL     1      -9.194  15.854  69.684  1.00  0.00    -0.078 C  
HETATM   16  H   UNL     1     -10.555  13.853  70.734  1.00  0.00     0.000 HD 
HETATM   17  C   UNL     1      -8.188  16.420  68.702  1.00  0.00    -0.223 C  
HETATM   18  O   UNL     1      -8.390  17.819  68.629  1.00  0.00    -0.298 OA 
HETATM   19  C   UNL     1      -8.392  15.648  67.364  1.00  0.00    -0.198 C  
HETATM   20  H   UNL     1      -7.760  18.174  68.013  1.00  0.00     0.000 HD 
BRANCH  19  21
HETATM   21  C   UNL     1      -8.831  16.511  66.165  1.00  0.00    -0.342 C  
BRANCH  21  22
HETATM   22  C   UNL     1     -10.269  16.964  66.217  1.00  0.00    -0.337 C  
HETATM   23  C   UNL     1     -11.264  16.696  65.359  1.00  0.00     0.162 C  
BRANCH  23  24
HETATM   24  C   UNL     1     -11.167  15.907  64.089  1.00  0.00     0.082 C  
BRANCH  24  25
HETATM   25  C   UNL     1     -12.026  14.640  64.118  1.00  0.00    -0.316 C  
BRANCH  25  26
HETATM   26  C   UNL     1     -12.260  14.099  65.530  1.00  0.00    -0.443 C  
HETATM   27  C   UNL     1     -12.155  12.590  65.569  1.00  0.00    -0.419 C  
HETATM   28  O   UNL     1     -11.918  11.871  64.616  1.00  0.00    -0.274 OA 
HETATM   29  O   UNL     1     -12.349  12.099  66.816  1.00  0.00    -0.429 OA 
ENDBRANCH  25  26
ENDBRANCH  24  25
ENDBRANCH  23  24
ENDBRANCH  21  22
ENDBRANCH  19  21
ENDBRANCH  11  12
ENDBRANCH  10  11
ENDBRANCH   8  10
ENDBRANCH   7   8
ENDBRANCH   6   7
ENDBRANCH   5   6
ENDBRANCH   4   5
ENDBRANCH   3   4
ENDBRANCH   2   3
TORSDOF 14
ENDMDL
MODEL      344
REMARK 921   NORMALIZED FREE ENERGY PREDICTED BY IDOCK:   -2.74 KCAL/MOL
REMARK 922        TOTAL FREE ENERGY PREDICTED BY IDOCK:   -7.94 KCAL/MOL
REMARK 923 INTER-LIGAND FREE ENERGY PREDICTED BY IDOCK:   -5.82 KCAL/MOL
REMARK 924 INTRA-LIGAND FREE ENERGY PREDICTED BY IDOCK:   -2.12 KCAL/MOL
REMARK 927      BINDING AFFINITY PREDICTED BY RF-SCORE:    0.00 PKD
ROOT
HETATM    1  C   UNL     1      -7.341   8.512  66.275  1.00  0.00    -0.079 C  
HETATM    2  C   UNL     1      -7.580   9.664  65.315  1.00  0.00    -0.113 C  
ENDROOT
BRANCH   2   3
HETATM    3  C   UNL     1      -9.059   9.806  64.948  1.00  0.00    -0.278 C  
BRANCH   3   4
HETATM    4  C   UNL     1      -9.207  10.079  63.452  1.00  0.00    -0.317 C  
BRANCH   4   5
HETATM    5  C   UNL     1      -9.662  11.508  63.148  1.00  0.00    -0.412 C  
BRANCH   5   6
HETATM    6  C   UNL     1     -10.941  11.823  63.931  1.00  0.00    -0.476 C  
BRANCH   6   7
HETATM    7  C   UNL     1     -11.221  13.317  64.007  1.00  0.00    -0.374 C  
BRANCH   7   8
HETATM    8  C   UNL     1     -11.924  13.717  65.306  1.00  0.00    -0.374 C  
HETATM    9  O   UNL     1     -12.634  14.715  65.400  1.00  0.00    -0.265 OA 
BRANCH   8  10
HETATM   10  C   UNL     1     -11.699  12.765  66.464  1.00  0.00    -0.463 C  
BRANCH  10  11
HETATM   11  C   UNL     1     -11.828  13.333  67.885  1.00  0.00    -0.388 C  
BRANCH  11  12
HETATM   12  C   UNL     1     -11.090  12.429  68.909  1.00  0.00    -0.307 C  
HETATM   13  C   UNL     1     -12.069  11.519  69.667  1.00  0.00    -0.296 C  
HETATM   14  O   UNL     1     -12.738  12.191  70.721  1.00  0.00    -0.243 OA 
HETATM   15  C   UNL     1     -11.192  10.436  70.239  1.00  0.00    -0.395 C  
HETATM   16  H   UNL     1     -13.343  11.629  71.190  1.00  0.00     0.000 HD 
HETATM   17  C   UNL     1     -10.218  10.123  69.121  1.00  0.00    -0.214 C  
HETATM   18  O   UNL     1      -9.034   9.614  69.704  1.00  0.00    -0.171 OA 
HETATM   19  C   UNL     1     -10.045  11.438  68.303  1.00  0.00    -0.204 C  
HETATM   20  H   UNL     1      -8.423   9.418  69.004  1.00  0.00     0.000 HD 
BRANCH  19  21
HETATM   21  C   UNL     1      -8.618  12.021  68.288  1.00  0.00    -0.174 C  
BRANCH  21  22
HETATM   22  C   UNL     1      -8.282  12.810  67.047  1.00  0.00    -0.099 C  
HETATM   23  C   UNL     1      -8.210  14.140  66.894  1.00  0.00     0.007 C  
BRANCH  23  24
HETATM   24  C   UNL     1      -8.505  15.182  67.930  1.00  0.00    -0.152 C  
BRANCH  24  25
HETATM   25  C   UNL     1      -8.477  14.619  69.353  1.00  0.00     0.100 C  
BRANCH  25  26
HETATM   26  C   UNL     1      -7.335  15.179  70.204  1.00  0.00     0.161 C  
HETATM   27  C   UNL     1      -6.319  14.109  70.539  1.00  0.00    -0.081 C  
HETATM   28  O   UNL     1      -6.376  12.944  70.194  1.00  0.00    -0.076 OA 
HETATM   29  O   UNL     1      -5.297  14.595  71.284  1.00  0.00    -0.135 OA 
ENDBRANCH  25  26
ENDBRANCH  24  25
ENDBRANCH  23  24
ENDBRANCH  21  22
ENDBRANCH  19  21
ENDBRANCH  11  12
ENDBRANCH  10  11
ENDBRANCH   8  10
ENDBRANCH   7   8
ENDBRANCH   6   7
ENDBRANCH   5   6
ENDBRANCH   4   5
ENDBRANCH   3   4
ENDBRANCH   2   3
TORSDOF 14
ENDMDL
MODEL      345
REMARK 921   NORMALIZED FREE ENERGY PREDICTED BY IDOCK:   -2.74 KCAL/MOL
REMARK 922        TOTAL FREE ENERGY PREDICTED BY IDOCK:   -7.94 KCAL/MOL
REMARK 923 INTER-LIGAND FREE ENERGY PREDICTED BY IDOCK:   -4.99 KCAL/MOL
REMARK 924 INTRA-LIGAND FREE ENERGY PREDICTED BY IDOCK:   -2.95 KCAL/MOL
REMARK 927      BINDING AFFINITY PREDICTED BY RF-SCORE:    0.00 PKD
ROOT
HETATM    1  C   UNL     1     -11.932  13.491  63.917  1.00  0.00    -0.491 C  
HETATM    2  C   UNL     1     -11.898  12.079  63.360  1.00  0.00    -0.542 C  
ENDROOT
BRANCH   2   3
HETATM    3  C   UNL     1     -10.477  11.514  63.320  1.00  0.00    -0.421 C  
BRANCH   3   4
HETATM    4  C   UNL     1     -10.239  10.598  64.520  1.00  0.00    -0.399 C  
BRANCH   4   5
HETATM    5  C   UNL     1      -9.225  11.167  65.514  1.00  0.00    -0.236 C  
BRANCH   5   6
HETATM    6  C   UNL     1      -7.813  10.704  65.138  1.00  0.00    -0.015 C  
BRANCH   6   7
HETATM    7  C   UNL     1      -7.655   9.193  65.229  1.00  0.00    -0.098 C  
BRANCH   7   8
HETATM    8  C   UNL     1      -6.626   8.772  66.280  1.00  0.00    -0.066 C  
HETATM    9  O   UNL     1      -6.135   7.647  66.320  1.00  0.00    -0.039 OA 
BRANCH   8  10
HETATM   10  C   UNL     1      -6.237   9.867  67.254  1.00  0.00    -0.066 C  
BRANCH  10  11
HETATM   11  C   UNL     1      -7.160  10.108  68.458  1.00  0.00    -0.074 C  
BRANCH  11  12
HETATM   12  C   UNL     1      -7.859   8.791  68.888  1.00  0.00    -0.104 C  
HETATM   13  C   UNL     1      -7.004   8.000  69.891  1.00  0.00    -0.045 C  
HETATM   14  O   UNL     1      -5.968   7.262  69.266  1.00  0.00    -0.028 OA 
HETATM   15  C   UNL     1      -7.981   7.050  70.534  1.00  0.00    -0.113 C  
HETATM   16  H   UNL     1      -5.440   6.772  69.885  1.00  0.00     0.000 HD 
HETATM   17  C   UNL     1      -9.226   7.888  70.743  1.00  0.00    -0.157 C  
HETATM   18  O   UNL     1     -10.341   7.017  70.754  1.00  0.00    -0.205 OA 
HETATM   19  C   UNL     1      -9.232   8.963  69.615  1.00  0.00    -0.152 C  
HETATM   20  H   UNL     1     -11.122   7.542  70.886  1.00  0.00     0.000 HD 
BRANCH  19  21
HETATM   21  C   UNL     1     -10.427   8.892  68.644  1.00  0.00    -0.223 C  
BRANCH  21  22
HETATM   22  C   UNL     1     -10.098   8.310  67.293  1.00  0.00    -0.315 C  
HETATM   23  C   UNL     1     -10.233   7.045  66.870  1.00  0.00    -0.318 C  
BRANCH  23  24
HETATM   24  C   UNL     1     -10.708   5.873  67.675  1.00  0.00    -0.352 C  
BRANCH  24  25
HETATM   25  C   UNL     1      -9.589   4.870  67.965  1.00  0.00    -0.190 C  
BRANCH  25  26
HETATM   26  C   UNL     1      -8.245   5.266  67.351  1.00  0.00    -0.103 C  
HETATM   27  C   UNL     1      -7.805   4.274  66.297  1.00  0.00    -0.095 C  
HETATM   28  O   UNL     1      -8.417   3.278  65.961  1.00  0.00    -0.104 OA 
HETATM   29  O   UNL     1      -6.620   4.619  65.737  1.00  0.00    -0.042 OA 
ENDBRANCH  25  26
ENDBRANCH  24  25
ENDBRANCH  23  24
ENDBRANCH  21  22
ENDBRANCH  19  21
ENDBRANCH  11  12
ENDBRANCH  10  11
ENDBRANCH   8  10
ENDBRANCH   7   8
ENDBRANCH   6   7
ENDBRANCH   5   6
ENDBRANCH   4   5
ENDBRANCH   3   4
ENDBRANCH   2   3
TORSDOF 14
ENDMDL
MODEL      346
REMARK 921   NORMALIZED FREE ENERGY PREDICTED BY IDOCK:   -2.73 KCAL/MOL
REMARK 922        TOTAL FREE ENERGY PREDICTED BY IDOCK:   -7.92 KCAL/MOL
REMARK 923 INTER-LIGAND FREE ENERGY PREDICTED BY IDOCK:   -5.91 KCAL/MOL
REMARK 924 INTRA-LIGAND FREE ENERGY PREDICTED BY IDOCK:   -2.01 KCAL/MOL
REMARK 927      BINDING AFFINITY PREDICTED BY RF-SCORE:    0.00 PKD
ROOT
HETATM    1  C   UNL     1      -7.748   4.348  63.814  1.00  0.00    -0.075 C  
HETATM    2  C   UNL     1      -7.866   3.755  65.207  1.00  0.00    -0.086 C  
ENDROOT
BRANCH   2   3
HETATM    3  C   UNL     1      -8.805   2.547  65.237  1.00  0.00    -0.121 C  
BRANCH   3   4
HETATM    4  C   UNL     1      -9.389   2.369  66.638  1.00  0.00     0.026 C  
BRANCH   4   5
HETATM    5  C   UNL     1      -8.454   2.865  67.742  1.00  0.00    -0.103 C  
BRANCH   5   6
HETATM    6  C   UNL     1      -9.242   3.716  68.746  1.00  0.00    -0.222 C  
BRANCH   6   7
HETATM    7  C   UNL     1      -9.048   5.208  68.518  1.00  0.00    -0.133 C  
BRANCH   7   8
HETATM    8  C   UNL     1     -10.300   5.884  67.954  1.00  0.00    -0.211 C  
HETATM    9  O   UNL     1     -10.879   5.480  66.949  1.00  0.00    -0.266 OA 
BRANCH   8  10
HETATM   10  C   UNL     1     -10.788   7.075  68.754  1.00  0.00    -0.198 C  
BRANCH  10  11
HETATM   11  C   UNL     1     -11.729   6.799  69.936  1.00  0.00    -0.279 C  
BRANCH  11  12
HETATM   12  C   UNL     1     -10.990   6.996  71.287  1.00  0.00    -0.270 C  
HETATM   13  C   UNL     1     -10.882   5.677  72.068  1.00  0.00    -0.242 C  
HETATM   14  O   UNL     1     -12.079   5.347  72.754  1.00  0.00    -0.448 OA 
HETATM   15  C   UNL     1      -9.785   5.934  73.068  1.00  0.00    -0.162 C  
HETATM   16  H   UNL     1     -12.012   4.532  73.238  1.00  0.00     0.000 HD 
HETATM   17  C   UNL     1      -8.743   6.703  72.281  1.00  0.00    -0.132 C  
HETATM   18  O   UNL     1      -8.005   7.495  73.191  1.00  0.00    -0.099 OA 
HETATM   19  C   UNL     1      -9.513   7.495  71.182  1.00  0.00    -0.163 C  
HETATM   20  H   UNL     1      -7.352   7.977  72.698  1.00  0.00     0.000 HD 
BRANCH  19  21
HETATM   21  C   UNL     1      -9.400   9.029  71.274  1.00  0.00    -0.324 C  
BRANCH  21  22
HETATM   22  C   UNL     1      -8.648   9.668  70.133  1.00  0.00    -0.243 C  
HETATM   23  C   UNL     1      -9.122  10.444  69.147  1.00  0.00    -0.197 C  
BRANCH  23  24
HETATM   24  C   UNL     1     -10.552  10.826  68.913  1.00  0.00    -0.246 C  
BRANCH  24  25
HETATM   25  C   UNL     1     -10.697  11.961  67.896  1.00  0.00    -0.239 C  
BRANCH  25  26
HETATM   26  C   UNL     1     -10.358  11.539  66.465  1.00  0.00    -0.269 C  
HETATM   27  C   UNL     1     -11.439  11.962  65.493  1.00  0.00    -0.252 C  
HETATM   28  O   UNL     1     -12.458  12.559  65.782  1.00  0.00    -0.626 OA 
HETATM   29  O   UNL     1     -11.145  11.603  64.220  1.00  0.00    -0.332 OA 
ENDBRANCH  25  26
ENDBRANCH  24  25
ENDBRANCH  23  24
ENDBRANCH  21  22
ENDBRANCH  19  21
ENDBRANCH  11  12
ENDBRANCH  10  11
ENDBRANCH   8  10
ENDBRANCH   7   8
ENDBRANCH   6   7
ENDBRANCH   5   6
ENDBRANCH   4   5
ENDBRANCH   3   4
ENDBRANCH   2   3
TORSDOF 14
ENDMDL
MODEL      347
REMARK 921   NORMALIZED FREE ENERGY PREDICTED BY IDOCK:   -2.72 KCAL/MOL
REMARK 922        TOTAL FREE ENERGY PREDICTED BY IDOCK:   -7.91 KCAL/MOL
REMARK 923 INTER-LIGAND FREE ENERGY PREDICTED BY IDOCK:   -5.28 KCAL/MOL
REMARK 924 INTRA-LIGAND FREE ENERGY PREDICTED BY IDOCK:   -2.62 KCAL/MOL
REMARK 927      BINDING AFFINITY PREDICTED BY RF-SCORE:    0.00 PKD
ROOT
HETATM    1  C   UNL     1     -11.085   8.695  71.418  1.00  0.00    -0.343 C  
HETATM    2  C   UNL     1     -10.297   8.143  72.593  1.00  0.00    -0.398 C  
ENDROOT
BRANCH   2   3
HETATM    3  C   UNL     1      -8.788   8.299  72.394  1.00  0.00    -0.286 C  
BRANCH   3   4
HETATM    4  C   UNL     1      -8.215   7.061  71.707  1.00  0.00    -0.103 C  
BRANCH   4   5
HETATM    5  C   UNL     1      -7.823   7.314  70.250  1.00  0.00    -0.096 C  
BRANCH   5   6
HETATM    6  C   UNL     1      -8.851   6.665  69.315  1.00  0.00    -0.133 C  
BRANCH   6   7
HETATM    7  C   UNL     1      -8.256   6.303  67.962  1.00  0.00    -0.115 C  
BRANCH   7   8
HETATM    8  C   UNL     1      -9.241   6.518  66.811  1.00  0.00    -0.147 C  
HETATM    9  O   UNL     1      -9.324   5.755  65.852  1.00  0.00    -0.152 OA 
BRANCH   8  10
HETATM   10  C   UNL     1     -10.131   7.736  66.963  1.00  0.00    -0.343 C  
BRANCH  10  11
HETATM   11  C   UNL     1      -9.797   8.971  66.113  1.00  0.00    -0.349 C  
BRANCH  11  12
HETATM   12  C   UNL     1      -8.330   8.912  65.609  1.00  0.00    -0.144 C  
HETATM   13  C   UNL     1      -8.265   8.793  64.077  1.00  0.00    -0.161 C  
HETATM   14  O   UNL     1      -8.491   7.470  63.620  1.00  0.00    -0.367 OA 
HETATM   15  C   UNL     1      -6.857   9.209  63.739  1.00  0.00    -0.090 C  
HETATM   16  H   UNL     1      -8.450   7.397  62.673  1.00  0.00     0.000 HD 
HETATM   17  C   UNL     1      -6.593  10.391  64.650  1.00  0.00    -0.035 C  
HETATM   18  O   UNL     1      -5.197  10.469  64.869  1.00  0.00    -0.114 OA 
HETATM   19  C   UNL     1      -7.455  10.167  65.928  1.00  0.00    -0.125 C  
HETATM   20  H   UNL     1      -5.031  11.210  65.440  1.00  0.00     0.000 HD 
BRANCH  19  21
HETATM   21  C   UNL     1      -6.662  10.015  67.241  1.00  0.00    -0.074 C  
BRANCH  21  22
HETATM   22  C   UNL     1      -7.391  10.498  68.469  1.00  0.00    -0.088 C  
HETATM   23  C   UNL     1      -7.935  11.702  68.701  1.00  0.00    -0.127 C  
BRANCH  23  24
HETATM   24  C   UNL     1      -7.900  12.895  67.794  1.00  0.00    -0.158 C  
BRANCH  24  25
HETATM   25  C   UNL     1      -9.240  13.142  67.098  1.00  0.00    -0.227 C  
BRANCH  25  26
HETATM   26  C   UNL     1     -10.449  12.818  67.979  1.00  0.00    -0.233 C  
HETATM   27  C   UNL     1     -11.188  14.073  68.387  1.00  0.00    -0.266 C  
HETATM   28  O   UNL     1     -10.885  15.209  68.074  1.00  0.00    -0.267 OA 
HETATM   29  O   UNL     1     -12.267  13.799  69.159  1.00  0.00    -0.344 OA 
ENDBRANCH  25  26
ENDBRANCH  24  25
ENDBRANCH  23  24
ENDBRANCH  21  22
ENDBRANCH  19  21
ENDBRANCH  11  12
ENDBRANCH  10  11
ENDBRANCH   8  10
ENDBRANCH   7   8
ENDBRANCH   6   7
ENDBRANCH   5   6
ENDBRANCH   4   5
ENDBRANCH   3   4
ENDBRANCH   2   3
TORSDOF 14
ENDMDL
MODEL      348
REMARK 921   NORMALIZED FREE ENERGY PREDICTED BY IDOCK:   -2.71 KCAL/MOL
REMARK 922        TOTAL FREE ENERGY PREDICTED BY IDOCK:   -7.88 KCAL/MOL
REMARK 923 INTER-LIGAND FREE ENERGY PREDICTED BY IDOCK:   -5.57 KCAL/MOL
REMARK 924 INTRA-LIGAND FREE ENERGY PREDICTED BY IDOCK:   -2.32 KCAL/MOL
REMARK 927      BINDING AFFINITY PREDICTED BY RF-SCORE:    0.00 PKD
ROOT
HETATM    1  C   UNL     1      -8.541   3.733  66.695  1.00  0.00    -0.109 C  
HETATM    2  C   UNL     1      -9.641   3.955  67.718  1.00  0.00    -0.199 C  
ENDROOT
BRANCH   2   3
HETATM    3  C   UNL     1      -9.219   3.505  69.118  1.00  0.00    -0.225 C  
BRANCH   3   4
HETATM    4  C   UNL     1      -9.490   4.616  70.132  1.00  0.00    -0.246 C  
BRANCH   4   5
HETATM    5  C   UNL     1     -10.722   5.454  69.785  1.00  0.00    -0.280 C  
BRANCH   5   6
HETATM    6  C   UNL     1     -11.163   6.262  71.012  1.00  0.00    -0.372 C  
BRANCH   6   7
HETATM    7  C   UNL     1     -12.026   7.458  70.638  1.00  0.00    -0.208 C  
BRANCH   7   8
HETATM    8  C   UNL     1     -11.315   8.792  70.877  1.00  0.00    -0.275 C  
HETATM    9  O   UNL     1     -10.332   8.902  71.605  1.00  0.00    -0.290 OA 
BRANCH   8  10
HETATM   10  C   UNL     1     -11.902   9.964  70.116  1.00  0.00    -0.191 C  
BRANCH  10  11
HETATM   11  C   UNL     1     -11.248  11.340  70.316  1.00  0.00    -0.049 C  
BRANCH  11  12
HETATM   12  C   UNL     1     -11.029  12.050  68.954  1.00  0.00    -0.277 C  
HETATM   13  C   UNL     1     -11.386  13.543  69.032  1.00  0.00    -0.288 C  
HETATM   14  O   UNL     1     -12.782  13.778  68.947  1.00  0.00    -0.142 OA 
HETATM   15  C   UNL     1     -10.700  14.145  67.833  1.00  0.00    -0.245 C  
HETATM   16  H   UNL     1     -13.002  14.701  68.995  1.00  0.00     0.000 HD 
HETATM   17  C   UNL     1      -9.353  13.453  67.793  1.00  0.00    -0.211 C  
HETATM   18  O   UNL     1      -8.898  13.462  66.454  1.00  0.00    -0.447 OA 
HETATM   19  C   UNL     1      -9.562  12.040  68.415  1.00  0.00    -0.190 C  
HETATM   20  H   UNL     1      -8.053  13.028  66.428  1.00  0.00     0.000 HD 
BRANCH  19  21
HETATM   21  C   UNL     1      -9.289  10.855  67.467  1.00  0.00    -0.164 C  
BRANCH  21  22
HETATM   22  C   UNL     1     -10.501  10.010  67.162  1.00  0.00    -0.305 C  
HETATM   23  C   UNL     1     -10.567   8.689  66.942  1.00  0.00    -0.270 C  
BRANCH  23  24
HETATM   24  C   UNL     1      -9.419   7.727  66.895  1.00  0.00    -0.238 C  
BRANCH  24  25
HETATM   25  C   UNL     1      -8.682   7.626  68.232  1.00  0.00    -0.123 C  
BRANCH  25  26
HETATM   26  C   UNL     1      -7.346   6.886  68.134  1.00  0.00    -0.097 C  
HETATM   27  C   UNL     1      -6.741   6.654  69.501  1.00  0.00    -0.050 C  
HETATM   28  O   UNL     1      -7.228   7.000  70.560  1.00  0.00    -0.066 OA 
HETATM   29  O   UNL     1      -5.562   5.989  69.428  1.00  0.00    -0.011 OA 
ENDBRANCH  25  26
ENDBRANCH  24  25
ENDBRANCH  23  24
ENDBRANCH  21  22
ENDBRANCH  19  21
ENDBRANCH  11  12
ENDBRANCH  10  11
ENDBRANCH   8  10
ENDBRANCH   7   8
ENDBRANCH   6   7
ENDBRANCH   5   6
ENDBRANCH   4   5
ENDBRANCH   3   4
ENDBRANCH   2   3
TORSDOF 14
ENDMDL
MODEL      349
REMARK 921   NORMALIZED FREE ENERGY PREDICTED BY IDOCK:   -2.71 KCAL/MOL
REMARK 922        TOTAL FREE ENERGY PREDICTED BY IDOCK:   -7.88 KCAL/MOL
REMARK 923 INTER-LIGAND FREE ENERGY PREDICTED BY IDOCK:   -6.78 KCAL/MOL
REMARK 924 INTRA-LIGAND FREE ENERGY PREDICTED BY IDOCK:   -1.10 KCAL/MOL
REMARK 927      BINDING AFFINITY PREDICTED BY RF-SCORE:    0.00 PKD
ROOT
HETATM    1  C   UNL     1      -8.455   3.528  66.367  1.00  0.00    -0.108 C  
HETATM    2  C   UNL     1      -9.171   4.162  67.546  1.00  0.00    -0.184 C  
ENDROOT
BRANCH   2   3
HETATM    3  C   UNL     1      -8.252   4.311  68.761  1.00  0.00    -0.084 C  
BRANCH   3   4
HETATM    4  C   UNL     1      -8.276   5.753  69.266  1.00  0.00    -0.105 C  
BRANCH   4   5
HETATM    5  C   UNL     1      -9.414   6.578  68.663  1.00  0.00    -0.123 C  
BRANCH   5   6
HETATM    6  C   UNL     1      -9.709   7.788  69.557  1.00  0.00    -0.165 C  
BRANCH   6   7
HETATM    7  C   UNL     1     -10.588   8.820  68.865  1.00  0.00    -0.178 C  
BRANCH   7   8
HETATM    8  C   UNL     1      -9.823   9.636  67.820  1.00  0.00    -0.159 C  
HETATM    9  O   UNL     1      -8.611   9.530  67.649  1.00  0.00    -0.122 OA 
BRANCH   8  10
HETATM   10  C   UNL     1     -10.686  10.565  66.991  1.00  0.00    -0.310 C  
BRANCH  10  11
HETATM   11  C   UNL     1     -10.326  12.058  66.992  1.00  0.00    -0.235 C  
BRANCH  11  12
HETATM   12  C   UNL     1     -10.436  12.653  65.563  1.00  0.00    -0.304 C  
HETATM   13  C   UNL     1     -10.070  11.615  64.490  1.00  0.00    -0.278 C  
HETATM   14  O   UNL     1      -8.669  11.459  64.333  1.00  0.00    -0.365 OA 
HETATM   15  C   UNL     1     -10.658  12.177  63.222  1.00  0.00    -0.367 C  
HETATM   16  H   UNL     1      -8.443  10.817  63.670  1.00  0.00     0.000 HD 
HETATM   17  C   UNL     1     -12.007  12.720  63.651  1.00  0.00    -0.539 C  
HETATM   18  O   UNL     1     -12.362  13.759  62.760  1.00  0.00    -0.863 OA 
HETATM   19  C   UNL     1     -11.859  13.143  65.143  1.00  0.00    -0.392 C  
HETATM   20  H   UNL     1     -13.207  14.100  63.028  1.00  0.00     0.000 HD 
BRANCH  19  21
HETATM   21  C   UNL     1     -12.074  14.644  65.427  1.00  0.00    -0.250 C  
BRANCH  21  22
HETATM   22  C   UNL     1     -11.108  15.556  64.714  1.00  0.00    -0.421 C  
HETATM   23  C   UNL     1     -10.343  16.531  65.226  1.00  0.00    -0.162 C  
BRANCH  23  24
HETATM   24  C   UNL     1     -10.304  16.988  66.652  1.00  0.00    -0.299 C  
BRANCH  24  25
HETATM   25  C   UNL     1      -9.407  16.108  67.526  1.00  0.00    -0.217 C  
BRANCH  25  26
HETATM   26  C   UNL     1      -8.584  16.903  68.543  1.00  0.00    -0.251 C  
HETATM   27  C   UNL     1      -7.507  16.047  69.173  1.00  0.00    -0.216 C  
HETATM   28  O   UNL     1      -7.298  14.874  68.925  1.00  0.00    -0.118 OA 
HETATM   29  O   UNL     1      -6.764  16.742  70.067  1.00  0.00     0.030 OA 
ENDBRANCH  25  26
ENDBRANCH  24  25
ENDBRANCH  23  24
ENDBRANCH  21  22
ENDBRANCH  19  21
ENDBRANCH  11  12
ENDBRANCH  10  11
ENDBRANCH   8  10
ENDBRANCH   7   8
ENDBRANCH   6   7
ENDBRANCH   5   6
ENDBRANCH   4   5
ENDBRANCH   3   4
ENDBRANCH   2   3
TORSDOF 14
ENDMDL
MODEL      350
REMARK 921   NORMALIZED FREE ENERGY PREDICTED BY IDOCK:   -2.70 KCAL/MOL
REMARK 922        TOTAL FREE ENERGY PREDICTED BY IDOCK:   -7.87 KCAL/MOL
REMARK 923 INTER-LIGAND FREE ENERGY PREDICTED BY IDOCK:   -6.26 KCAL/MOL
REMARK 924 INTRA-LIGAND FREE ENERGY PREDICTED BY IDOCK:   -1.61 KCAL/MOL
REMARK 927      BINDING AFFINITY PREDICTED BY RF-SCORE:    0.00 PKD
ROOT
HETATM    1  C   UNL     1      -9.113   7.927  67.838  1.00  0.00    -0.133 C  
HETATM    2  C   UNL     1      -7.614   8.090  67.659  1.00  0.00    -0.102 C  
ENDROOT
BRANCH   2   3
HETATM    3  C   UNL     1      -7.234   9.527  67.295  1.00  0.00    -0.087 C  
BRANCH   3   4
HETATM    4  C   UNL     1      -7.519   9.790  65.817  1.00  0.00    -0.105 C  
BRANCH   4   5
HETATM    5  C   UNL     1      -8.365  11.044  65.586  1.00  0.00    -0.060 C  
BRANCH   5   6
HETATM    6  C   UNL     1      -9.773  10.644  65.129  1.00  0.00    -0.327 C  
BRANCH   6   7
HETATM    7  C   UNL     1     -10.804  11.727  65.413  1.00  0.00    -0.347 C  
BRANCH   7   8
HETATM    8  C   UNL     1     -10.793  12.839  64.362  1.00  0.00    -0.368 C  
HETATM    9  O   UNL     1     -11.201  12.675  63.215  1.00  0.00    -0.439 OA 
BRANCH   8  10
HETATM   10  C   UNL     1     -10.265  14.170  64.858  1.00  0.00    -0.371 C  
BRANCH  10  11
HETATM   11  C   UNL     1     -11.203  15.030  65.718  1.00  0.00    -0.318 C  
BRANCH  11  12
HETATM   12  C   UNL     1     -10.494  15.483  67.022  1.00  0.00    -0.304 C  
HETATM   13  C   UNL     1     -11.266  16.616  67.718  1.00  0.00    -0.064 C  
HETATM   14  O   UNL     1     -11.026  17.884  67.130  1.00  0.00    -0.207 OA 
HETATM   15  C   UNL     1     -10.734  16.607  69.128  1.00  0.00    -0.342 C  
HETATM   16  H   UNL     1     -11.503  18.585  67.560  1.00  0.00     0.000 HD 
HETATM   17  C   UNL     1     -10.621  15.136  69.469  1.00  0.00    -0.270 C  
HETATM   18  O   UNL     1      -9.614  14.992  70.453  1.00  0.00    -0.323 OA 
HETATM   19  C   UNL     1     -10.352  14.389  68.129  1.00  0.00    -0.231 C  
HETATM   20  H   UNL     1      -9.543  14.070  70.668  1.00  0.00     0.000 HD 
BRANCH  19  21
HETATM   21  C   UNL     1      -9.006  13.641  68.049  1.00  0.00    -0.188 C  
BRANCH  21  22
HETATM   22  C   UNL     1      -7.874  14.318  68.780  1.00  0.00    -0.128 C  
HETATM   23  C   UNL     1      -7.018  15.245  68.326  1.00  0.00    -0.119 C  
BRANCH  23  24
HETATM   24  C   UNL     1      -6.949  15.801  66.936  1.00  0.00    -0.009 C  
BRANCH  24  25
HETATM   25  C   UNL     1      -6.656  17.303  66.919  1.00  0.00    -0.229 C  
BRANCH  25  26
HETATM   26  C   UNL     1      -7.898  18.160  66.664  1.00  0.00    -0.268 C  
HETATM   27  C   UNL     1      -8.011  19.281  67.674  1.00  0.00    -0.278 C  
HETATM   28  O   UNL     1      -7.234  19.498  68.584  1.00  0.00    -0.312 OA 
HETATM   29  O   UNL     1      -9.101  20.055  67.454  1.00  0.00    -0.329 OA 
ENDBRANCH  25  26
ENDBRANCH  24  25
ENDBRANCH  23  24
ENDBRANCH  21  22
ENDBRANCH  19  21
ENDBRANCH  11  12
ENDBRANCH  10  11
ENDBRANCH   8  10
ENDBRANCH   7   8
ENDBRANCH   6   7
ENDBRANCH   5   6
ENDBRANCH   4   5
ENDBRANCH   3   4
ENDBRANCH   2   3
TORSDOF 14
ENDMDL
MODEL      351
REMARK 921   NORMALIZED FREE ENERGY PREDICTED BY IDOCK:   -2.70 KCAL/MOL
REMARK 922        TOTAL FREE ENERGY PREDICTED BY IDOCK:   -7.86 KCAL/MOL
REMARK 923 INTER-LIGAND FREE ENERGY PREDICTED BY IDOCK:   -5.62 KCAL/MOL
REMARK 924 INTRA-LIGAND FREE ENERGY PREDICTED BY IDOCK:   -2.24 KCAL/MOL
REMARK 927      BINDING AFFINITY PREDICTED BY RF-SCORE:    0.00 PKD
ROOT
HETATM    1  C   UNL     1     -12.440   9.351  71.159  1.00  0.00    -0.370 C  
HETATM    2  C   UNL     1     -12.322   7.879  71.512  1.00  0.00    -0.340 C  
ENDROOT
BRANCH   2   3
HETATM    3  C   UNL     1     -12.142   7.005  70.269  1.00  0.00    -0.135 C  
BRANCH   3   4
HETATM    4  C   UNL     1     -10.785   6.304  70.309  1.00  0.00    -0.339 C  
BRANCH   4   5
HETATM    5  C   UNL     1     -10.400   5.826  71.711  1.00  0.00    -0.271 C  
BRANCH   5   6
HETATM    6  C   UNL     1      -9.001   6.340  72.069  1.00  0.00    -0.142 C  
BRANCH   6   7
HETATM    7  C   UNL     1      -9.005   7.813  72.453  1.00  0.00    -0.202 C  
BRANCH   7   8
HETATM    8  C   UNL     1      -7.693   8.516  72.100  1.00  0.00    -0.078 C  
HETATM    9  O   UNL     1      -6.625   8.248  72.646  1.00  0.00    -0.079 OA 
BRANCH   8  10
HETATM   10  C   UNL     1      -7.808   9.549  70.998  1.00  0.00     0.097 C  
BRANCH  10  11
HETATM   11  C   UNL     1      -9.122   9.597  70.203  1.00  0.00    -0.280 C  
BRANCH  11  12
HETATM   12  C   UNL     1      -8.854   9.437  68.683  1.00  0.00    -0.132 C  
HETATM   13  C   UNL     1      -8.125   8.119  68.374  1.00  0.00    -0.128 C  
HETATM   14  O   UNL     1      -6.731   8.192  68.628  1.00  0.00    -0.056 OA 
HETATM   15  C   UNL     1      -8.357   7.910  66.901  1.00  0.00    -0.116 C  
HETATM   16  H   UNL     1      -6.280   7.378  68.437  1.00  0.00     0.000 HD 
HETATM   17  C   UNL     1      -9.805   8.308  66.697  1.00  0.00    -0.267 C  
HETATM   18  O   UNL     1      -9.956   8.731  65.355  1.00  0.00    -0.323 OA 
HETATM   19  C   UNL     1     -10.124   9.387  67.775  1.00  0.00    -0.246 C  
HETATM   20  H   UNL     1     -10.864   8.981  65.227  1.00  0.00     0.000 HD 
BRANCH  19  21
HETATM   21  C   UNL     1     -10.512  10.774  67.225  1.00  0.00    -0.282 C  
BRANCH  21  22
HETATM   22  C   UNL     1     -11.440  11.560  68.116  1.00  0.00    -0.385 C  
HETATM   23  C   UNL     1     -11.451  12.878  68.360  1.00  0.00    -0.347 C  
BRANCH  23  24
HETATM   24  C   UNL     1     -10.489  13.899  67.830  1.00  0.00    -0.242 C  
BRANCH  24  25
HETATM   25  C   UNL     1      -9.632  14.525  68.933  1.00  0.00    -0.158 C  
BRANCH  25  26
HETATM   26  C   UNL     1     -10.435  14.913  70.177  1.00  0.00    -0.020 C  
HETATM   27  C   UNL     1     -10.891  16.355  70.113  1.00  0.00    -0.261 C  
HETATM   28  O   UNL     1     -10.662  17.131  69.205  1.00  0.00    -0.300 OA 
HETATM   29  O   UNL     1     -11.612  16.708  71.204  1.00  0.00    -0.219 OA 
ENDBRANCH  25  26
ENDBRANCH  24  25
ENDBRANCH  23  24
ENDBRANCH  21  22
ENDBRANCH  19  21
ENDBRANCH  11  12
ENDBRANCH  10  11
ENDBRANCH   8  10
ENDBRANCH   7   8
ENDBRANCH   6   7
ENDBRANCH   5   6
ENDBRANCH   4   5
ENDBRANCH   3   4
ENDBRANCH   2   3
TORSDOF 14
ENDMDL
MODEL      352
REMARK 921   NORMALIZED FREE ENERGY PREDICTED BY IDOCK:   -2.65 KCAL/MOL
REMARK 922        TOTAL FREE ENERGY PREDICTED BY IDOCK:   -7.77 KCAL/MOL
REMARK 923 INTER-LIGAND FREE ENERGY PREDICTED BY IDOCK:   -4.96 KCAL/MOL
REMARK 924 INTRA-LIGAND FREE ENERGY PREDICTED BY IDOCK:   -2.81 KCAL/MOL
REMARK 927      BINDING AFFINITY PREDICTED BY RF-SCORE:    0.00 PKD
ROOT
HETATM    1  C   UNL     1     -11.602  11.035  67.752  1.00  0.00    -0.277 C  
HETATM    2  C   UNL     1     -10.426  11.492  68.597  1.00  0.00    -0.224 C  
ENDROOT
BRANCH   2   3
HETATM    3  C   UNL     1      -9.086  11.181  67.927  1.00  0.00    -0.150 C  
BRANCH   3   4
HETATM    4  C   UNL     1      -8.393  10.025  68.648  1.00  0.00    -0.116 C  
BRANCH   4   5
HETATM    5  C   UNL     1      -7.070  10.435  69.299  1.00  0.00    -0.090 C  
BRANCH   5   6
HETATM    6  C   UNL     1      -6.953   9.792  70.686  1.00  0.00    -0.102 C  
BRANCH   6   7
HETATM    7  C   UNL     1      -8.162   8.935  71.032  1.00  0.00    -0.217 C  
BRANCH   7   8
HETATM    8  C   UNL     1      -7.969   8.144  72.328  1.00  0.00    -0.135 C  
HETATM    9  O   UNL     1      -8.230   8.607  73.436  1.00  0.00    -0.408 OA 
BRANCH   8  10
HETATM   10  C   UNL     1      -7.460   6.731  72.134  1.00  0.00    -0.093 C  
BRANCH  10  11
HETATM   11  C   UNL     1      -7.998   5.941  70.931  1.00  0.00    -0.111 C  
BRANCH  11  12
HETATM   12  C   UNL     1      -8.909   4.775  71.400  1.00  0.00    -0.152 C  
HETATM   13  C   UNL     1      -8.084   3.549  71.823  1.00  0.00    -0.062 C  
HETATM   14  O   UNL     1      -7.642   2.778  70.717  1.00  0.00    -0.036 OA 
HETATM   15  C   UNL     1      -9.040   2.734  72.653  1.00  0.00    -0.119 C  
HETATM   16  H   UNL     1      -7.132   2.021  70.979  1.00  0.00     0.000 HD 
HETATM   17  C   UNL     1      -9.774   3.765  73.487  1.00  0.00    -0.107 C  
HETATM   18  O   UNL     1     -11.042   3.233  73.821  1.00  0.00    -0.221 OA 
HETATM   19  C   UNL     1      -9.803   5.076  72.646  1.00  0.00    -0.195 C  
HETATM   20  H   UNL     1     -11.503   3.879  74.344  1.00  0.00     0.000 HD 
BRANCH  19  21
HETATM   21  C   UNL     1     -11.208   5.579  72.257  1.00  0.00    -0.281 C  
BRANCH  21  22
HETATM   22  C   UNL     1     -11.228   6.956  71.642  1.00  0.00    -0.280 C  
HETATM   23  C   UNL     1     -11.318   7.294  70.348  1.00  0.00    -0.299 C  
BRANCH  23  24
HETATM   24  C   UNL     1     -11.370   6.361  69.176  1.00  0.00    -0.366 C  
BRANCH  24  25
HETATM   25  C   UNL     1     -10.855   7.008  67.888  1.00  0.00    -0.252 C  
BRANCH  25  26
HETATM   26  C   UNL     1      -9.452   6.540  67.495  1.00  0.00    -0.131 C  
HETATM   27  C   UNL     1      -9.508   5.411  66.490  1.00  0.00    -0.149 C  
HETATM   28  O   UNL     1     -10.521   4.915  66.036  1.00  0.00    -0.282 OA 
HETATM   29  O   UNL     1      -8.271   4.994  66.124  1.00  0.00    -0.107 OA 
ENDBRANCH  25  26
ENDBRANCH  24  25
ENDBRANCH  23  24
ENDBRANCH  21  22
ENDBRANCH  19  21
ENDBRANCH  11  12
ENDBRANCH  10  11
ENDBRANCH   8  10
ENDBRANCH   7   8
ENDBRANCH   6   7
ENDBRANCH   5   6
ENDBRANCH   4   5
ENDBRANCH   3   4
ENDBRANCH   2   3
TORSDOF 14
ENDMDL
MODEL      353
REMARK 921   NORMALIZED FREE ENERGY PREDICTED BY IDOCK:   -2.64 KCAL/MOL
REMARK 922        TOTAL FREE ENERGY PREDICTED BY IDOCK:   -7.76 KCAL/MOL
REMARK 923 INTER-LIGAND FREE ENERGY PREDICTED BY IDOCK:   -6.10 KCAL/MOL
REMARK 924 INTRA-LIGAND FREE ENERGY PREDICTED BY IDOCK:   -1.66 KCAL/MOL
REMARK 927      BINDING AFFINITY PREDICTED BY RF-SCORE:    0.00 PKD
ROOT
HETATM    1  C   UNL     1      -6.343  14.159  68.246  1.00  0.00    -0.118 C  
HETATM    2  C   UNL     1      -7.176  14.943  67.248  1.00  0.00    -0.142 C  
ENDROOT
BRANCH   2   3
HETATM    3  C   UNL     1      -8.220  15.823  67.940  1.00  0.00    -0.151 C  
BRANCH   3   4
HETATM    4  C   UNL     1      -9.627  15.310  67.634  1.00  0.00    -0.206 C  
BRANCH   4   5
HETATM    5  C   UNL     1     -10.350  16.145  66.576  1.00  0.00    -0.311 C  
BRANCH   5   6
HETATM    6  C   UNL     1     -11.405  15.287  65.868  1.00  0.00    -0.172 C  
BRANCH   6   7
HETATM    7  C   UNL     1     -12.029  14.254  66.796  1.00  0.00    -0.462 C  
BRANCH   7   8
HETATM    8  C   UNL     1     -11.847  12.822  66.288  1.00  0.00    -0.423 C  
HETATM    9  O   UNL     1     -12.488  12.363  65.346  1.00  0.00    -0.637 OA 
BRANCH   8  10
HETATM   10  C   UNL     1     -10.789  12.023  67.021  1.00  0.00    -0.297 C  
BRANCH  10  11
HETATM   11  C   UNL     1     -11.203  10.663  67.604  1.00  0.00    -0.361 C  
BRANCH  11  12
HETATM   12  C   UNL     1     -10.909  10.604  69.127  1.00  0.00    -0.279 C  
HETATM   13  C   UNL     1     -12.158  10.947  69.956  1.00  0.00    -0.355 C  
HETATM   14  O   UNL     1     -12.392  12.343  70.041  1.00  0.00    -0.200 OA 
HETATM   15  C   UNL     1     -11.845  10.405  71.326  1.00  0.00    -0.381 C  
HETATM   16  H   UNL     1     -13.164  12.555  70.554  1.00  0.00     0.000 HD 
HETATM   17  C   UNL     1     -11.178   9.072  71.052  1.00  0.00    -0.295 C  
HETATM   18  O   UNL     1     -10.330   8.776  72.145  1.00  0.00    -0.331 OA 
HETATM   19  C   UNL     1     -10.464   9.209  69.674  1.00  0.00    -0.230 C  
HETATM   20  H   UNL     1      -9.912   7.940  71.974  1.00  0.00     0.000 HD 
BRANCH  19  21
HETATM   21  C   UNL     1      -8.931   9.050  69.707  1.00  0.00    -0.157 C  
BRANCH  21  22
HETATM   22  C   UNL     1      -8.447   7.639  69.491  1.00  0.00    -0.132 C  
HETATM   23  C   UNL     1      -7.188   7.195  69.361  1.00  0.00    -0.084 C  
BRANCH  23  24
HETATM   24  C   UNL     1      -5.939   8.024  69.348  1.00  0.00    -0.033 C  
BRANCH  24  25
HETATM   25  C   UNL     1      -5.189   7.934  68.018  1.00  0.00    -0.032 C  
BRANCH  25  26
HETATM   26  C   UNL     1      -5.137   9.262  67.259  1.00  0.00    -0.036 C  
HETATM   27  C   UNL     1      -6.315   9.409  66.320  1.00  0.00    -0.069 C  
HETATM   28  O   UNL     1      -7.203   8.593  66.164  1.00  0.00    -0.082 OA 
HETATM   29  O   UNL     1      -6.287  10.586  65.651  1.00  0.00    -0.120 OA 
ENDBRANCH  25  26
ENDBRANCH  24  25
ENDBRANCH  23  24
ENDBRANCH  21  22
ENDBRANCH  19  21
ENDBRANCH  11  12
ENDBRANCH  10  11
ENDBRANCH   8  10
ENDBRANCH   7   8
ENDBRANCH   6   7
ENDBRANCH   5   6
ENDBRANCH   4   5
ENDBRANCH   3   4
ENDBRANCH   2   3
TORSDOF 14
ENDMDL
MODEL      354
REMARK 921   NORMALIZED FREE ENERGY PREDICTED BY IDOCK:   -2.62 KCAL/MOL
REMARK 922        TOTAL FREE ENERGY PREDICTED BY IDOCK:   -7.71 KCAL/MOL
REMARK 923 INTER-LIGAND FREE ENERGY PREDICTED BY IDOCK:   -6.14 KCAL/MOL
REMARK 924 INTRA-LIGAND FREE ENERGY PREDICTED BY IDOCK:   -1.57 KCAL/MOL
REMARK 927      BINDING AFFINITY PREDICTED BY RF-SCORE:    0.00 PKD
ROOT
HETATM    1  C   UNL     1     -11.498   7.961  71.285  1.00  0.00    -0.293 C  
HETATM    2  C   UNL     1     -11.888   6.575  70.803  1.00  0.00    -0.394 C  
ENDROOT
BRANCH   2   3
HETATM    3  C   UNL     1     -11.130   6.176  69.535  1.00  0.00    -0.490 C  
BRANCH   3   4
HETATM    4  C   UNL     1     -10.307   4.913  69.789  1.00  0.00    -0.203 C  
BRANCH   4   5
HETATM    5  C   UNL     1     -10.062   4.649  71.275  1.00  0.00    -0.245 C  
BRANCH   5   6
HETATM    6  C   UNL     1      -8.576   4.844  71.599  1.00  0.00    -0.132 C  
BRANCH   6   7
HETATM    7  C   UNL     1      -8.105   6.265  71.324  1.00  0.00    -0.118 C  
BRANCH   7   8
HETATM    8  C   UNL     1      -6.678   6.314  70.774  1.00  0.00    -0.061 C  
HETATM    9  O   UNL     1      -5.843   5.445  71.009  1.00  0.00    -0.019 OA 
BRANCH   8  10
HETATM   10  C   UNL     1      -6.385   7.509  69.888  1.00  0.00    -0.027 C  
BRANCH  10  11
HETATM   11  C   UNL     1      -7.566   8.144  69.139  1.00  0.00    -0.096 C  
BRANCH  11  12
HETATM   12  C   UNL     1      -7.637   7.623  67.679  1.00  0.00    -0.109 C  
HETATM   13  C   UNL     1      -6.904   6.281  67.522  1.00  0.00    -0.063 C  
HETATM   14  O   UNL     1      -5.498   6.434  67.415  1.00  0.00    -0.005 OA 
HETATM   15  C   UNL     1      -7.448   5.716  66.236  1.00  0.00    -0.083 C  
HETATM   16  H   UNL     1      -5.044   5.605  67.318  1.00  0.00     0.000 HD 
HETATM   17  C   UNL     1      -8.929   6.030  66.293  1.00  0.00    -0.149 C  
HETATM   18  O   UNL     1      -9.409   6.111  64.965  1.00  0.00    -0.218 OA 
HETATM   19  C   UNL     1      -9.073   7.334  67.134  1.00  0.00    -0.144 C  
HETATM   20  H   UNL     1     -10.338   6.309  65.000  1.00  0.00     0.000 HD 
BRANCH  19  21
HETATM   21  C   UNL     1      -9.673   8.539  66.383  1.00  0.00    -0.328 C  
BRANCH  21  22
HETATM   22  C   UNL     1     -10.470   9.480  67.253  1.00  0.00    -0.328 C  
HETATM   23  C   UNL     1     -10.597  10.811  67.149  1.00  0.00    -0.306 C  
BRANCH  23  24
HETATM   24  C   UNL     1      -9.920  11.704  66.154  1.00  0.00    -0.252 C  
BRANCH  24  25
HETATM   25  C   UNL     1     -10.787  12.901  65.757  1.00  0.00    -0.292 C  
BRANCH  25  26
HETATM   26  C   UNL     1     -12.165  12.501  65.223  1.00  0.00    -0.493 C  
HETATM   27  C   UNL     1     -12.110  12.167  63.748  1.00  0.00    -0.525 C  
HETATM   28  O   UNL     1     -11.116  12.204  63.049  1.00  0.00    -0.261 OA 
HETATM   29  O   UNL     1     -13.322  11.800  63.265  1.00  0.00    -0.510 OA 
ENDBRANCH  25  26
ENDBRANCH  24  25
ENDBRANCH  23  24
ENDBRANCH  21  22
ENDBRANCH  19  21
ENDBRANCH  11  12
ENDBRANCH  10  11
ENDBRANCH   8  10
ENDBRANCH   7   8
ENDBRANCH   6   7
ENDBRANCH   5   6
ENDBRANCH   4   5
ENDBRANCH   3   4
ENDBRANCH   2   3
TORSDOF 14
ENDMDL
MODEL      355
REMARK 921   NORMALIZED FREE ENERGY PREDICTED BY IDOCK:   -2.59 KCAL/MOL
REMARK 922        TOTAL FREE ENERGY PREDICTED BY IDOCK:   -7.66 KCAL/MOL
REMARK 923 INTER-LIGAND FREE ENERGY PREDICTED BY IDOCK:   -6.39 KCAL/MOL
REMARK 924 INTRA-LIGAND FREE ENERGY PREDICTED BY IDOCK:   -1.27 KCAL/MOL
REMARK 927      BINDING AFFINITY PREDICTED BY RF-SCORE:    0.00 PKD
ROOT
HETATM    1  C   UNL     1     -11.906  12.717  67.707  1.00  0.00    -0.387 C  
HETATM    2  C   UNL     1     -12.481  13.563  66.584  1.00  0.00    -0.263 C  
ENDROOT
BRANCH   2   3
HETATM    3  C   UNL     1     -11.417  14.451  65.935  1.00  0.00    -0.341 C  
BRANCH   3   4
HETATM    4  C   UNL     1     -11.294  14.124  64.447  1.00  0.00    -0.310 C  
BRANCH   4   5
HETATM    5  C   UNL     1     -12.456  13.278  63.924  1.00  0.00    -0.331 C  
BRANCH   5   6
HETATM    6  C   UNL     1     -11.935  11.913  63.458  1.00  0.00    -0.567 C  
BRANCH   6   7
HETATM    7  C   UNL     1     -10.427  11.907  63.253  1.00  0.00    -0.427 C  
BRANCH   7   8
HETATM    8  C   UNL     1      -9.747  10.717  63.934  1.00  0.00    -0.321 C  
HETATM    9  O   UNL     1      -8.911  10.015  63.370  1.00  0.00    -0.215 OA 
BRANCH   8  10
HETATM   10  C   UNL     1     -10.165  10.491  65.372  1.00  0.00    -0.340 C  
BRANCH  10  11
HETATM   11  C   UNL     1      -9.055  10.242  66.404  1.00  0.00    -0.174 C  
BRANCH  11  12
HETATM   12  C   UNL     1      -9.234   8.860  67.086  1.00  0.00    -0.169 C  
HETATM   13  C   UNL     1     -10.718   8.542  67.334  1.00  0.00    -0.145 C  
HETATM   14  O   UNL     1     -11.233   9.193  68.484  1.00  0.00    -0.452 OA 
HETATM   15  C   UNL     1     -10.741   7.051  67.548  1.00  0.00    -0.352 C  
HETATM   16  H   UNL     1     -12.150   8.996  68.638  1.00  0.00     0.000 HD 
HETATM   17  C   UNL     1      -9.777   6.515  66.508  1.00  0.00    -0.126 C  
HETATM   18  O   UNL     1      -9.264   5.285  66.982  1.00  0.00    -0.114 OA 
HETATM   19  C   UNL     1      -8.717   7.632  66.270  1.00  0.00    -0.170 C  
HETATM   20  H   UNL     1      -8.659   4.949  66.331  1.00  0.00     0.000 HD 
BRANCH  19  21
HETATM   21  C   UNL     1      -7.267   7.252  66.631  1.00  0.00    -0.080 C  
BRANCH  21  22
HETATM   22  C   UNL     1      -7.147   6.078  67.571  1.00  0.00    -0.074 C  
HETATM   23  C   UNL     1      -6.892   6.082  68.887  1.00  0.00    -0.066 C  
BRANCH  23  24
HETATM   24  C   UNL     1      -6.609   7.278  69.745  1.00  0.00    -0.040 C  
BRANCH  24  25
HETATM   25  C   UNL     1      -7.536   7.361  70.960  1.00  0.00    -0.074 C  
BRANCH  25  26
HETATM   26  C   UNL     1      -8.945   7.847  70.614  1.00  0.00    -0.148 C  
HETATM   27  C   UNL     1      -9.733   8.191  71.859  1.00  0.00    -0.205 C  
HETATM   28  O   UNL     1      -9.326   8.103  73.002  1.00  0.00    -0.251 OA 
HETATM   29  O   UNL     1     -10.979   8.633  71.566  1.00  0.00    -0.249 OA 
ENDBRANCH  25  26
ENDBRANCH  24  25
ENDBRANCH  23  24
ENDBRANCH  21  22
ENDBRANCH  19  21
ENDBRANCH  11  12
ENDBRANCH  10  11
ENDBRANCH   8  10
ENDBRANCH   7   8
ENDBRANCH   6   7
ENDBRANCH   5   6
ENDBRANCH   4   5
ENDBRANCH   3   4
ENDBRANCH   2   3
TORSDOF 14
ENDMDL
MODEL      356
REMARK 921   NORMALIZED FREE ENERGY PREDICTED BY IDOCK:   -2.54 KCAL/MOL
REMARK 922        TOTAL FREE ENERGY PREDICTED BY IDOCK:   -7.57 KCAL/MOL
REMARK 923 INTER-LIGAND FREE ENERGY PREDICTED BY IDOCK:   -6.13 KCAL/MOL
REMARK 924 INTRA-LIGAND FREE ENERGY PREDICTED BY IDOCK:   -1.44 KCAL/MOL
REMARK 927      BINDING AFFINITY PREDICTED BY RF-SCORE:    0.00 PKD
ROOT
HETATM    1  C   UNL     1      -8.229   6.293  74.275  1.00  0.00    -0.116 C  
HETATM    2  C   UNL     1      -7.442   6.710  73.045  1.00  0.00    -0.088 C  
ENDROOT
BRANCH   2   3
HETATM    3  C   UNL     1      -8.341   6.861  71.815  1.00  0.00    -0.108 C  
BRANCH   3   4
HETATM    4  C   UNL     1      -9.160   5.588  71.601  1.00  0.00    -0.155 C  
BRANCH   4   5
HETATM    5  C   UNL     1      -8.826   4.877  70.288  1.00  0.00    -0.134 C  
BRANCH   5   6
HETATM    6  C   UNL     1     -10.085   4.774  69.419  1.00  0.00    -0.241 C  
BRANCH   6   7
HETATM    7  C   UNL     1      -9.778   4.918  67.935  1.00  0.00    -0.202 C  
BRANCH   7   8
HETATM    8  C   UNL     1     -10.131   6.305  67.395  1.00  0.00    -0.156 C  
HETATM    9  O   UNL     1     -11.285   6.660  67.170  1.00  0.00    -0.392 OA 
BRANCH   8  10
HETATM   10  C   UNL     1      -8.942   7.221  67.186  1.00  0.00    -0.132 C  
BRANCH  10  11
HETATM   11  C   UNL     1      -8.075   7.550  68.412  1.00  0.00    -0.125 C  
BRANCH  11  12
HETATM   12  C   UNL     1      -7.357   8.914  68.229  1.00  0.00    -0.083 C  
HETATM   13  C   UNL     1      -5.844   8.732  68.027  1.00  0.00    -0.046 C  
HETATM   14  O   UNL     1      -5.151   8.513  69.244  1.00  0.00    -0.030 OA 
HETATM   15  C   UNL     1      -5.398  10.038  67.422  1.00  0.00    -0.041 C  
HETATM   16  H   UNL     1      -4.216   8.401  69.120  1.00  0.00     0.000 HD 
HETATM   17  C   UNL     1      -6.492  10.377  66.431  1.00  0.00    -0.097 C  
HETATM   18  O   UNL     1      -6.513  11.783  66.269  1.00  0.00    -0.377 OA 
HETATM   19  C   UNL     1      -7.806   9.753  66.990  1.00  0.00    -0.102 C  
HETATM   20  H   UNL     1      -7.199  11.996  65.647  1.00  0.00     0.000 HD 
BRANCH  19  21
HETATM   21  C   UNL     1      -8.922  10.760  67.331  1.00  0.00    -0.141 C  
BRANCH  21  22
HETATM   22  C   UNL     1     -10.126  10.685  66.427  1.00  0.00    -0.279 C  
HETATM   23  C   UNL     1     -11.281  11.361  66.512  1.00  0.00    -0.276 C  
BRANCH  23  24
HETATM   24  C   UNL     1     -11.676  12.335  67.580  1.00  0.00    -0.402 C  
BRANCH  24  25
HETATM   25  C   UNL     1     -11.406  13.787  67.178  1.00  0.00    -0.344 C  
BRANCH  25  26
HETATM   26  C   UNL     1     -12.407  14.329  66.155  1.00  0.00    -0.411 C  
HETATM   27  C   UNL     1     -11.779  14.467  64.786  1.00  0.00    -0.416 C  
HETATM   28  O   UNL     1     -10.629  14.192  64.502  1.00  0.00    -0.406 OA 
HETATM   29  O   UNL     1     -12.659  14.935  63.868  1.00  0.00    -0.831 OA 
ENDBRANCH  25  26
ENDBRANCH  24  25
ENDBRANCH  23  24
ENDBRANCH  21  22
ENDBRANCH  19  21
ENDBRANCH  11  12
ENDBRANCH  10  11
ENDBRANCH   8  10
ENDBRANCH   7   8
ENDBRANCH   6   7
ENDBRANCH   5   6
ENDBRANCH   4   5
ENDBRANCH   3   4
ENDBRANCH   2   3
TORSDOF 14
ENDMDL
MODEL      357
REMARK 921   NORMALIZED FREE ENERGY PREDICTED BY IDOCK:   -2.53 KCAL/MOL
REMARK 922        TOTAL FREE ENERGY PREDICTED BY IDOCK:   -7.56 KCAL/MOL
REMARK 923 INTER-LIGAND FREE ENERGY PREDICTED BY IDOCK:   -6.27 KCAL/MOL
REMARK 924 INTRA-LIGAND FREE ENERGY PREDICTED BY IDOCK:   -1.29 KCAL/MOL
REMARK 927      BINDING AFFINITY PREDICTED BY RF-SCORE:    0.00 PKD
ROOT
HETATM    1  C   UNL     1     -10.249  19.991  67.461  1.00  0.00    -0.551 C  
HETATM    2  C   UNL     1      -9.760  18.777  68.231  1.00  0.00    -0.406 C  
ENDROOT
BRANCH   2   3
HETATM    3  C   UNL     1      -8.796  17.924  67.403  1.00  0.00    -0.245 C  
BRANCH   3   4
HETATM    4  C   UNL     1      -9.534  17.283  66.229  1.00  0.00    -0.256 C  
BRANCH   4   5
HETATM    5  C   UNL     1     -10.817  16.564  66.651  1.00  0.00    -0.053 C  
BRANCH   5   6
HETATM    6  C   UNL     1     -10.632  15.048  66.511  1.00  0.00    -0.305 C  
BRANCH   6   7
HETATM    7  C   UNL     1     -11.943  14.289  66.661  1.00  0.00    -0.454 C  
BRANCH   7   8
HETATM    8  C   UNL     1     -11.863  12.865  66.105  1.00  0.00    -0.429 C  
HETATM    9  O   UNL     1     -12.437  12.519  65.076  1.00  0.00    -0.523 OA 
BRANCH   8  10
HETATM   10  C   UNL     1     -10.993  11.922  66.911  1.00  0.00    -0.335 C  
BRANCH  10  11
HETATM   11  C   UNL     1      -9.541  11.728  66.450  1.00  0.00    -0.234 C  
BRANCH  11  12
HETATM   12  C   UNL     1      -8.979  10.372  66.955  1.00  0.00    -0.151 C  
HETATM   13  C   UNL     1      -8.509   9.487  65.789  1.00  0.00    -0.134 C  
HETATM   14  O   UNL     1      -9.580   8.819  65.142  1.00  0.00    -0.405 OA 
HETATM   15  C   UNL     1      -7.605   8.473  66.441  1.00  0.00    -0.091 C  
HETATM   16  H   UNL     1      -9.290   8.271  64.422  1.00  0.00     0.000 HD 
HETATM   17  C   UNL     1      -6.812   9.281  67.448  1.00  0.00    -0.077 C  
HETATM   18  O   UNL     1      -6.412   8.410  68.488  1.00  0.00    -0.052 OA 
HETATM   19  C   UNL     1      -7.727  10.464  67.886  1.00  0.00    -0.089 C  
HETATM   20  H   UNL     1      -5.915   8.916  69.120  1.00  0.00     0.000 HD 
BRANCH  19  21
HETATM   21  C   UNL     1      -8.104  10.488  69.381  1.00  0.00    -0.136 C  
BRANCH  21  22
HETATM   22  C   UNL     1      -9.515  10.044  69.674  1.00  0.00    -0.247 C  
HETATM   23  C   UNL     1      -9.965   9.299  70.694  1.00  0.00    -0.336 C  
BRANCH  23  24
HETATM   24  C   UNL     1      -9.144   8.675  71.781  1.00  0.00    -0.317 C  
BRANCH  24  25
HETATM   25  C   UNL     1      -8.921   7.176  71.562  1.00  0.00    -0.135 C  
BRANCH  25  26
HETATM   26  C   UNL     1      -8.484   6.437  72.828  1.00  0.00    -0.121 C  
HETATM   27  C   UNL     1      -7.010   6.098  72.790  1.00  0.00    -0.076 C  
HETATM   28  O   UNL     1      -6.244   6.365  71.883  1.00  0.00    -0.041 OA 
HETATM   29  O   UNL     1      -6.607   5.453  73.911  1.00  0.00    -0.070 OA 
ENDBRANCH  25  26
ENDBRANCH  24  25
ENDBRANCH  23  24
ENDBRANCH  21  22
ENDBRANCH  19  21
ENDBRANCH  11  12
ENDBRANCH  10  11
ENDBRANCH   8  10
ENDBRANCH   7   8
ENDBRANCH   6   7
ENDBRANCH   5   6
ENDBRANCH   4   5
ENDBRANCH   3   4
ENDBRANCH   2   3
TORSDOF 14
ENDMDL
MODEL      358
REMARK 921   NORMALIZED FREE ENERGY PREDICTED BY IDOCK:   -2.53 KCAL/MOL
REMARK 922        TOTAL FREE ENERGY PREDICTED BY IDOCK:   -7.55 KCAL/MOL
REMARK 923 INTER-LIGAND FREE ENERGY PREDICTED BY IDOCK:   -6.03 KCAL/MOL
REMARK 924 INTRA-LIGAND FREE ENERGY PREDICTED BY IDOCK:   -1.53 KCAL/MOL
REMARK 927      BINDING AFFINITY PREDICTED BY RF-SCORE:    0.00 PKD
ROOT
HETATM    1  C   UNL     1      -7.946   7.475  65.626  1.00  0.00    -0.117 C  
HETATM    2  C   UNL     1      -7.651   7.317  64.145  1.00  0.00    -0.113 C  
ENDROOT
BRANCH   2   3
HETATM    3  C   UNL     1      -7.514   8.669  63.441  1.00  0.00    -0.110 C  
BRANCH   3   4
HETATM    4  C   UNL     1      -8.893   9.287  63.214  1.00  0.00    -0.159 C  
BRANCH   4   5
HETATM    5  C   UNL     1      -8.968  10.752  63.647  1.00  0.00    -0.179 C  
BRANCH   5   6
HETATM    6  C   UNL     1     -10.376  11.068  64.167  1.00  0.00    -0.434 C  
BRANCH   6   7
HETATM    7  C   UNL     1     -10.428  11.150  65.686  1.00  0.00    -0.308 C  
BRANCH   7   8
HETATM    8  C   UNL     1     -11.087  12.439  66.182  1.00  0.00    -0.302 C  
HETATM    9  O   UNL     1     -12.260  12.492  66.543  1.00  0.00    -0.569 OA 
BRANCH   8  10
HETATM   10  C   UNL     1     -10.167  13.643  66.221  1.00  0.00    -0.296 C  
BRANCH  10  11
HETATM   11  C   UNL     1     -10.187  14.511  67.488  1.00  0.00    -0.232 C  
BRANCH  11  12
HETATM   12  C   UNL     1      -9.235  15.728  67.338  1.00  0.00    -0.208 C  
HETATM   13  C   UNL     1     -10.011  17.012  67.001  1.00  0.00    -0.288 C  
HETATM   14  O   UNL     1     -10.360  17.097  65.629  1.00  0.00    -0.557 OA 
HETATM   15  C   UNL     1      -9.049  18.119  67.345  1.00  0.00    -0.253 C  
HETATM   16  H   UNL     1     -10.839  17.891  65.421  1.00  0.00     0.000 HD 
HETATM   17  C   UNL     1      -8.411  17.664  68.641  1.00  0.00    -0.267 C  
HETATM   18  O   UNL     1      -7.132  18.262  68.731  1.00  0.00    -0.265 OA 
HETATM   19  C   UNL     1      -8.416  16.106  68.614  1.00  0.00    -0.216 C  
HETATM   20  H   UNL     1      -6.731  17.977  69.544  1.00  0.00     0.000 HD 
BRANCH  19  21
HETATM   21  C   UNL     1      -7.025  15.442  68.640  1.00  0.00    -0.111 C  
BRANCH  21  22
HETATM   22  C   UNL     1      -6.891  14.242  67.736  1.00  0.00    -0.189 C  
HETATM   23  C   UNL     1      -6.302  13.065  67.988  1.00  0.00    -0.115 C  
BRANCH  23  24
HETATM   24  C   UNL     1      -5.575  12.672  69.239  1.00  0.00    -0.076 C  
BRANCH  24  25
HETATM   25  C   UNL     1      -6.313  11.588  70.029  1.00  0.00    -0.116 C  
BRANCH  25  26
HETATM   26  C   UNL     1      -6.571  10.316  69.217  1.00  0.00    -0.055 C  
HETATM   27  C   UNL     1      -7.337   9.291  70.025  1.00  0.00    -0.083 C  
HETATM   28  O   UNL     1      -7.712   9.430  71.174  1.00  0.00    -0.318 OA 
HETATM   29  O   UNL     1      -7.582   8.165  69.314  1.00  0.00    -0.091 OA 
ENDBRANCH  25  26
ENDBRANCH  24  25
ENDBRANCH  23  24
ENDBRANCH  21  22
ENDBRANCH  19  21
ENDBRANCH  11  12
ENDBRANCH  10  11
ENDBRANCH   8  10
ENDBRANCH   7   8
ENDBRANCH   6   7
ENDBRANCH   5   6
ENDBRANCH   4   5
ENDBRANCH   3   4
ENDBRANCH   2   3
TORSDOF 14
ENDMDL
MODEL      359
REMARK 921   NORMALIZED FREE ENERGY PREDICTED BY IDOCK:   -2.53 KCAL/MOL
REMARK 922        TOTAL FREE ENERGY PREDICTED BY IDOCK:   -7.55 KCAL/MOL
REMARK 923 INTER-LIGAND FREE ENERGY PREDICTED BY IDOCK:   -4.58 KCAL/MOL
REMARK 924 INTRA-LIGAND FREE ENERGY PREDICTED BY IDOCK:   -2.97 KCAL/MOL
REMARK 927      BINDING AFFINITY PREDICTED BY RF-SCORE:    0.00 PKD
ROOT
HETATM    1  C   UNL     1     -10.263  10.366  67.663  1.00  0.00    -0.240 C  
HETATM    2  C   UNL     1      -9.209  10.622  68.725  1.00  0.00    -0.182 C  
ENDROOT
BRANCH   2   3
HETATM    3  C   UNL     1      -7.797  10.647  68.137  1.00  0.00    -0.110 C  
BRANCH   3   4
HETATM    4  C   UNL     1      -7.179   9.251  68.191  1.00  0.00    -0.078 C  
BRANCH   4   5
HETATM    5  C   UNL     1      -6.072   9.128  69.240  1.00  0.00    -0.041 C  
BRANCH   5   6
HETATM    6  C   UNL     1      -5.978   7.678  69.729  1.00  0.00    -0.023 C  
BRANCH   6   7
HETATM    7  C   UNL     1      -7.146   6.828  69.249  1.00  0.00    -0.087 C  
BRANCH   7   8
HETATM    8  C   UNL     1      -6.821   5.333  69.242  1.00  0.00    -0.054 C  
HETATM    9  O   UNL     1      -6.643   4.685  70.271  1.00  0.00    -0.033 OA 
BRANCH   8  10
HETATM   10  C   UNL     1      -6.766   4.705  67.864  1.00  0.00    -0.054 C  
BRANCH  10  11
HETATM   11  C   UNL     1      -6.658   5.650  66.658  1.00  0.00    -0.056 C  
BRANCH  11  12
HETATM   12  C   UNL     1      -7.950   5.599  65.800  1.00  0.00    -0.109 C  
HETATM   13  C   UNL     1      -7.739   4.786  64.511  1.00  0.00    -0.082 C  
HETATM   14  O   UNL     1      -7.078   5.527  63.498  1.00  0.00    -0.044 OA 
HETATM   15  C   UNL     1      -9.136   4.452  64.059  1.00  0.00    -0.143 C  
HETATM   16  H   UNL     1      -6.948   5.025  62.702  1.00  0.00     0.000 HD 
HETATM   17  C   UNL     1      -9.864   4.099  65.340  1.00  0.00    -0.208 C  
HETATM   18  O   UNL     1     -11.240   4.361  65.147  1.00  0.00    -0.909 OA 
HETATM   19  C   UNL     1      -9.183   4.919  66.477  1.00  0.00    -0.135 C  
HETATM   20  H   UNL     1     -11.697   4.140  65.950  1.00  0.00     0.000 HD 
BRANCH  19  21
HETATM   21  C   UNL     1     -10.096   5.934  67.194  1.00  0.00    -0.213 C  
BRANCH  21  22
HETATM   22  C   UNL     1     -10.707   5.424  68.475  1.00  0.00    -0.075 C  
HETATM   23  C   UNL     1     -10.920   6.084  69.623  1.00  0.00    -0.470 C  
BRANCH  23  24
HETATM   24  C   UNL     1     -10.545   7.503  69.927  1.00  0.00    -0.243 C  
BRANCH  24  25
HETATM   25  C   UNL     1     -10.686   7.842  71.413  1.00  0.00    -0.250 C  
BRANCH  25  26
HETATM   26  C   UNL     1      -9.654   7.136  72.295  1.00  0.00    -0.161 C  
HETATM   27  C   UNL     1      -8.394   7.962  72.441  1.00  0.00    -0.138 C  
HETATM   28  O   UNL     1      -8.196   9.049  71.933  1.00  0.00    -0.362 OA 
HETATM   29  O   UNL     1      -7.476   7.353  73.229  1.00  0.00    -0.080 OA 
ENDBRANCH  25  26
ENDBRANCH  24  25
ENDBRANCH  23  24
ENDBRANCH  21  22
ENDBRANCH  19  21
ENDBRANCH  11  12
ENDBRANCH  10  11
ENDBRANCH   8  10
ENDBRANCH   7   8
ENDBRANCH   6   7
ENDBRANCH   5   6
ENDBRANCH   4   5
ENDBRANCH   3   4
ENDBRANCH   2   3
TORSDOF 14
ENDMDL
MODEL      360
REMARK 921   NORMALIZED FREE ENERGY PREDICTED BY IDOCK:   -2.52 KCAL/MOL
REMARK 922        TOTAL FREE ENERGY PREDICTED BY IDOCK:   -7.54 KCAL/MOL
REMARK 923 INTER-LIGAND FREE ENERGY PREDICTED BY IDOCK:   -5.80 KCAL/MOL
REMARK 924 INTRA-LIGAND FREE ENERGY PREDICTED BY IDOCK:   -1.73 KCAL/MOL
REMARK 927      BINDING AFFINITY PREDICTED BY RF-SCORE:    0.00 PKD
ROOT
HETATM    1  C   UNL     1      -5.311   5.357  64.920  1.00  0.00    -0.010 C  
HETATM    2  C   UNL     1      -6.544   6.108  65.392  1.00  0.00    -0.043 C  
ENDROOT
BRANCH   2   3
HETATM    3  C   UNL     1      -7.570   5.175  66.038  1.00  0.00    -0.087 C  
BRANCH   3   4
HETATM    4  C   UNL     1      -8.018   5.737  67.386  1.00  0.00    -0.102 C  
BRANCH   4   5
HETATM    5  C   UNL     1      -7.196   6.949  67.831  1.00  0.00    -0.095 C  
BRANCH   5   6
HETATM    6  C   UNL     1      -7.192   7.040  69.361  1.00  0.00    -0.085 C  
BRANCH   6   7
HETATM    7  C   UNL     1      -7.651   5.747  70.020  1.00  0.00    -0.083 C  
BRANCH   7   8
HETATM    8  C   UNL     1      -8.454   5.994  71.299  1.00  0.00    -0.128 C  
HETATM    9  O   UNL     1      -7.952   6.449  72.324  1.00  0.00    -0.103 OA 
BRANCH   8  10
HETATM   10  C   UNL     1      -9.929   5.661  71.192  1.00  0.00    -0.244 C  
BRANCH  10  11
HETATM   11  C   UNL     1     -10.687   6.184  69.963  1.00  0.00    -0.370 C  
BRANCH  11  12
HETATM   12  C   UNL     1     -11.611   7.370  70.349  1.00  0.00    -0.210 C  
HETATM   13  C   UNL     1     -11.981   7.334  71.840  1.00  0.00    -0.306 C  
HETATM   14  O   UNL     1     -13.021   6.412  72.125  1.00  0.00    -0.512 OA 
HETATM   15  C   UNL     1     -12.457   8.733  72.132  1.00  0.00    -0.460 C  
HETATM   16  H   UNL     1     -13.250   6.390  73.047  1.00  0.00     0.000 HD 
HETATM   17  C   UNL     1     -11.484   9.617  71.377  1.00  0.00    -0.385 C  
HETATM   18  O   UNL     1     -12.144  10.831  71.073  1.00  0.00    -0.341 OA 
HETATM   19  C   UNL     1     -11.002   8.795  70.145  1.00  0.00    -0.236 C  
HETATM   20  H   UNL     1     -11.535  11.386  70.599  1.00  0.00     0.000 HD 
BRANCH  19  21
HETATM   21  C   UNL     1     -11.355   9.397  68.771  1.00  0.00     0.234 C  
BRANCH  21  22
HETATM   22  C   UNL     1     -10.393  10.453  68.288  1.00  0.00    -0.198 C  
HETATM   23  C   UNL     1     -10.639  11.737  67.989  1.00  0.00    -0.235 C  
BRANCH  23  24
HETATM   24  C   UNL     1     -11.969  12.428  68.016  1.00  0.00    -0.264 C  
BRANCH  24  25
HETATM   25  C   UNL     1     -11.892  13.824  68.638  1.00  0.00    -0.409 C  
BRANCH  25  26
HETATM   26  C   UNL     1     -11.576  13.803  70.136  1.00  0.00    -0.230 C  
HETATM   27  C   UNL     1     -12.484  14.736  70.906  1.00  0.00    -0.328 C  
HETATM   28  O   UNL     1     -13.361  15.429  70.426  1.00  0.00    -0.237 OA 
HETATM   29  O   UNL     1     -12.222  14.718  72.235  1.00  0.00    -0.337 OA 
ENDBRANCH  25  26
ENDBRANCH  24  25
ENDBRANCH  23  24
ENDBRANCH  21  22
ENDBRANCH  19  21
ENDBRANCH  11  12
ENDBRANCH  10  11
ENDBRANCH   8  10
ENDBRANCH   7   8
ENDBRANCH   6   7
ENDBRANCH   5   6
ENDBRANCH   4   5
ENDBRANCH   3   4
ENDBRANCH   2   3
TORSDOF 14
ENDMDL
MODEL      361
REMARK 921   NORMALIZED FREE ENERGY PREDICTED BY IDOCK:   -2.50 KCAL/MOL
REMARK 922        TOTAL FREE ENERGY PREDICTED BY IDOCK:   -7.51 KCAL/MOL
REMARK 923 INTER-LIGAND FREE ENERGY PREDICTED BY IDOCK:   -5.92 KCAL/MOL
REMARK 924 INTRA-LIGAND FREE ENERGY PREDICTED BY IDOCK:   -1.59 KCAL/MOL
REMARK 927      BINDING AFFINITY PREDICTED BY RF-SCORE:    0.00 PKD
ROOT
HETATM    1  C   UNL     1      -6.885   3.054  64.152  1.00  0.00    -0.037 C  
HETATM    2  C   UNL     1      -6.554   4.091  65.211  1.00  0.00    -0.047 C  
ENDROOT
BRANCH   2   3
HETATM    3  C   UNL     1      -6.280   5.467  64.599  1.00  0.00    -0.022 C  
BRANCH   3   4
HETATM    4  C   UNL     1      -7.055   6.544  65.356  1.00  0.00    -0.064 C  
BRANCH   4   5
HETATM    5  C   UNL     1      -7.945   7.391  64.445  1.00  0.00    -0.109 C  
BRANCH   5   6
HETATM    6  C   UNL     1      -7.788   8.875  64.798  1.00  0.00    -0.121 C  
BRANCH   6   7
HETATM    7  C   UNL     1      -6.883   9.091  66.003  1.00  0.00    -0.080 C  
BRANCH   7   8
HETATM    8  C   UNL     1      -7.276  10.326  66.817  1.00  0.00    -0.105 C  
HETATM    9  O   UNL     1      -6.487  11.230  67.078  1.00  0.00    -0.090 OA 
BRANCH   8  10
HETATM   10  C   UNL     1      -8.728  10.359  67.251  1.00  0.00    -0.125 C  
BRANCH  10  11
HETATM   11  C   UNL     1      -9.032  10.847  68.676  1.00  0.00    -0.162 C  
BRANCH  11  12
HETATM   12  C   UNL     1     -10.328  10.189  69.219  1.00  0.00    -0.242 C  
HETATM   13  C   UNL     1     -10.016   9.114  70.273  1.00  0.00    -0.208 C  
HETATM   14  O   UNL     1      -9.614   7.882  69.697  1.00  0.00    -0.163 OA 
HETATM   15  C   UNL     1     -11.321   8.927  71.001  1.00  0.00    -0.350 C  
HETATM   16  H   UNL     1      -9.421   7.218  70.348  1.00  0.00     0.000 HD 
HETATM   17  C   UNL     1     -11.861  10.334  71.157  1.00  0.00    -0.362 C  
HETATM   18  O   UNL     1     -13.270  10.253  71.251  1.00  0.00    -0.375 OA 
HETATM   19  C   UNL     1     -11.321  11.153  69.946  1.00  0.00    -0.348 C  
HETATM   20  H   UNL     1     -13.609  11.135  71.348  1.00  0.00     0.000 HD 
BRANCH  19  21
HETATM   21  C   UNL     1     -12.399  11.715  68.997  1.00  0.00     0.026 C  
BRANCH  21  22
HETATM   22  C   UNL     1     -11.872  12.664  67.950  1.00  0.00    -0.388 C  
HETATM   23  C   UNL     1     -11.209  13.816  68.121  1.00  0.00    -0.298 C  
BRANCH  23  24
HETATM   24  C   UNL     1     -10.872  14.475  69.425  1.00  0.00    -0.249 C  
BRANCH  24  25
HETATM   25  C   UNL     1     -12.052  15.253  70.011  1.00  0.00    -0.386 C  
BRANCH  25  26
HETATM   26  C   UNL     1     -12.047  15.300  71.541  1.00  0.00    -0.424 C  
HETATM   27  C   UNL     1     -13.186  14.492  72.123  1.00  0.00    -0.369 C  
HETATM   28  O   UNL     1     -14.017  13.875  71.484  1.00  0.00    -0.294 OA 
HETATM   29  O   UNL     1     -13.186  14.517  73.477  1.00  0.00    -0.526 OA 
ENDBRANCH  25  26
ENDBRANCH  24  25
ENDBRANCH  23  24
ENDBRANCH  21  22
ENDBRANCH  19  21
ENDBRANCH  11  12
ENDBRANCH  10  11
ENDBRANCH   8  10
ENDBRANCH   7   8
ENDBRANCH   6   7
ENDBRANCH   5   6
ENDBRANCH   4   5
ENDBRANCH   3   4
ENDBRANCH   2   3
TORSDOF 14
ENDMDL
MODEL      362
REMARK 921   NORMALIZED FREE ENERGY PREDICTED BY IDOCK:   -2.50 KCAL/MOL
REMARK 922        TOTAL FREE ENERGY PREDICTED BY IDOCK:   -7.50 KCAL/MOL
REMARK 923 INTER-LIGAND FREE ENERGY PREDICTED BY IDOCK:   -5.44 KCAL/MOL
REMARK 924 INTRA-LIGAND FREE ENERGY PREDICTED BY IDOCK:   -2.06 KCAL/MOL
REMARK 927      BINDING AFFINITY PREDICTED BY RF-SCORE:    0.00 PKD
ROOT
HETATM    1  C   UNL     1     -10.423  19.740  67.560  1.00  0.00    -0.569 C  
HETATM    2  C   UNL     1      -9.806  18.504  68.189  1.00  0.00    -0.376 C  
ENDROOT
BRANCH   2   3
HETATM    3  C   UNL     1      -8.781  17.842  67.265  1.00  0.00    -0.241 C  
BRANCH   3   4
HETATM    4  C   UNL     1      -9.491  16.968  66.231  1.00  0.00    -0.281 C  
BRANCH   4   5
HETATM    5  C   UNL     1     -10.441  15.948  66.862  1.00  0.00    -0.309 C  
BRANCH   5   6
HETATM    6  C   UNL     1      -9.735  14.593  66.991  1.00  0.00    -0.247 C  
BRANCH   6   7
HETATM    7  C   UNL     1     -10.640  13.522  67.582  1.00  0.00    -0.246 C  
BRANCH   7   8
HETATM    8  C   UNL     1     -10.106  12.107  67.349  1.00  0.00    -0.199 C  
HETATM    9  O   UNL     1     -10.115  11.565  66.247  1.00  0.00    -0.213 OA 
BRANCH   8  10
HETATM   10  C   UNL     1      -9.535  11.438  68.582  1.00  0.00    -0.168 C  
BRANCH  10  11
HETATM   11  C   UNL     1      -8.174  10.737  68.445  1.00  0.00    -0.129 C  
BRANCH  11  12
HETATM   12  C   UNL     1      -8.260   9.266  68.933  1.00  0.00    -0.111 C  
HETATM   13  C   UNL     1      -7.677   8.293  67.895  1.00  0.00    -0.103 C  
HETATM   14  O   UNL     1      -8.581   8.011  66.840  1.00  0.00    -0.123 OA 
HETATM   15  C   UNL     1      -7.414   7.036  68.682  1.00  0.00    -0.102 C  
HETATM   16  H   UNL     1      -8.221   7.409  66.199  1.00  0.00     0.000 HD 
HETATM   17  C   UNL     1      -6.846   7.535  69.995  1.00  0.00    -0.051 C  
HETATM   18  O   UNL     1      -7.128   6.568  70.988  1.00  0.00    -0.066 OA 
HETATM   19  C   UNL     1      -7.468   8.942  70.241  1.00  0.00    -0.074 C  
HETATM   20  H   UNL     1      -6.772   6.880  71.812  1.00  0.00     0.000 HD 
BRANCH  19  21
HETATM   21  C   UNL     1      -8.342   9.065  71.505  1.00  0.00    -0.070 C  
BRANCH  21  22
HETATM   22  C   UNL     1      -9.826   9.079  71.237  1.00  0.00    -0.376 C  
HETATM   23  C   UNL     1     -10.669   8.042  71.136  1.00  0.00    -0.250 C  
BRANCH  23  24
HETATM   24  C   UNL     1     -10.319   6.587  71.217  1.00  0.00    -0.234 C  
BRANCH  24  25
HETATM   25  C   UNL     1     -11.219   5.717  70.336  1.00  0.00    -0.211 C  
BRANCH  25  26
HETATM   26  C   UNL     1     -10.486   5.101  69.143  1.00  0.00    -0.170 C  
HETATM   27  C   UNL     1     -10.640   5.950  67.900  1.00  0.00    -0.251 C  
HETATM   28  O   UNL     1     -11.263   6.993  67.826  1.00  0.00    -0.125 OA 
HETATM   29  O   UNL     1      -9.986   5.421  66.839  1.00  0.00    -0.148 OA 
ENDBRANCH  25  26
ENDBRANCH  24  25
ENDBRANCH  23  24
ENDBRANCH  21  22
ENDBRANCH  19  21
ENDBRANCH  11  12
ENDBRANCH  10  11
ENDBRANCH   8  10
ENDBRANCH   7   8
ENDBRANCH   6   7
ENDBRANCH   5   6
ENDBRANCH   4   5
ENDBRANCH   3   4
ENDBRANCH   2   3
TORSDOF 14
ENDMDL
MODEL      363
REMARK 921   NORMALIZED FREE ENERGY PREDICTED BY IDOCK:   -2.49 KCAL/MOL
REMARK 922        TOTAL FREE ENERGY PREDICTED BY IDOCK:   -7.49 KCAL/MOL
REMARK 923 INTER-LIGAND FREE ENERGY PREDICTED BY IDOCK:   -5.74 KCAL/MOL
REMARK 924 INTRA-LIGAND FREE ENERGY PREDICTED BY IDOCK:   -1.75 KCAL/MOL
REMARK 927      BINDING AFFINITY PREDICTED BY RF-SCORE:    0.00 PKD
ROOT
HETATM    1  C   UNL     1      -8.392   8.704  63.015  1.00  0.00    -0.153 C  
HETATM    2  C   UNL     1      -7.976  10.137  63.294  1.00  0.00    -0.155 C  
ENDROOT
BRANCH   2   3
HETATM    3  C   UNL     1      -8.987  10.865  64.182  1.00  0.00    -0.113 C  
BRANCH   3   4
HETATM    4  C   UNL     1      -9.831   9.854  64.957  1.00  0.00    -0.323 C  
BRANCH   4   5
HETATM    5  C   UNL     1      -9.527   9.847  66.456  1.00  0.00    -0.230 C  
BRANCH   5   6
HETATM    6  C   UNL     1      -8.650  11.052  66.814  1.00  0.00    -0.152 C  
BRANCH   6   7
HETATM    7  C   UNL     1      -7.792  10.800  68.045  1.00  0.00    -0.106 C  
BRANCH   7   8
HETATM    8  C   UNL     1      -6.655  11.815  68.187  1.00  0.00    -0.056 C  
HETATM    9  O   UNL     1      -5.470  11.493  68.178  1.00  0.00    -0.043 OA 
BRANCH   8  10
HETATM   10  C   UNL     1      -7.108  13.256  68.308  1.00  0.00    -0.109 C  
BRANCH  10  11
HETATM   11  C   UNL     1      -6.264  14.328  67.601  1.00  0.00    -0.099 C  
BRANCH  11  12
HETATM   12  C   UNL     1      -6.742  15.752  67.991  1.00  0.00    -0.144 C  
HETATM   13  C   UNL     1      -5.867  16.355  69.102  1.00  0.00    -0.142 C  
HETATM   14  O   UNL     1      -6.208  15.872  70.391  1.00  0.00    -0.059 OA 
HETATM   15  C   UNL     1      -6.152  17.833  69.028  1.00  0.00    -0.211 C  
HETATM   16  H   UNL     1      -5.667  16.246  71.078  1.00  0.00     0.000 HD 
HETATM   17  C   UNL     1      -6.200  18.124  67.542  1.00  0.00    -0.172 C  
HETATM   18  O   UNL     1      -7.024  19.258  67.346  1.00  0.00    -0.204 OA 
HETATM   19  C   UNL     1      -6.691  16.817  66.850  1.00  0.00    -0.256 C  
HETATM   20  H   UNL     1      -7.055  19.441  66.414  1.00  0.00     0.000 HD 
BRANCH  19  21
HETATM   21  C   UNL     1      -8.028  16.935  66.092  1.00  0.00    -0.290 C  
BRANCH  21  22
HETATM   22  C   UNL     1      -9.208  16.333  66.813  1.00  0.00    -0.253 C  
HETATM   23  C   UNL     1     -10.399  15.972  66.316  1.00  0.00    -0.330 C  
BRANCH  23  24
HETATM   24  C   UNL     1     -10.870  16.135  64.902  1.00  0.00    -0.353 C  
BRANCH  24  25
HETATM   25  C   UNL     1     -12.099  15.277  64.591  1.00  0.00    -0.190 C  
BRANCH  25  26
HETATM   26  C   UNL     1     -12.149  13.976  65.396  1.00  0.00    -0.411 C  
HETATM   27  C   UNL     1     -12.334  12.775  64.494  1.00  0.00    -0.445 C  
HETATM   28  O   UNL     1     -12.436  12.806  63.283  1.00  0.00    -0.665 OA 
HETATM   29  O   UNL     1     -12.369  11.615  65.194  1.00  0.00    -0.074 OA 
ENDBRANCH  25  26
ENDBRANCH  24  25
ENDBRANCH  23  24
ENDBRANCH  21  22
ENDBRANCH  19  21
ENDBRANCH  11  12
ENDBRANCH  10  11
ENDBRANCH   8  10
ENDBRANCH   7   8
ENDBRANCH   6   7
ENDBRANCH   5   6
ENDBRANCH   4   5
ENDBRANCH   3   4
ENDBRANCH   2   3
TORSDOF 14
ENDMDL
MODEL      364
REMARK 921   NORMALIZED FREE ENERGY PREDICTED BY IDOCK:   -2.49 KCAL/MOL
REMARK 922        TOTAL FREE ENERGY PREDICTED BY IDOCK:   -7.48 KCAL/MOL
REMARK 923 INTER-LIGAND FREE ENERGY PREDICTED BY IDOCK:   -6.07 KCAL/MOL
REMARK 924 INTRA-LIGAND FREE ENERGY PREDICTED BY IDOCK:   -1.42 KCAL/MOL
REMARK 927      BINDING AFFINITY PREDICTED BY RF-SCORE:    0.00 PKD
ROOT
HETATM    1  C   UNL     1     -10.409  19.750  67.548  1.00  0.00    -0.578 C  
HETATM    2  C   UNL     1      -9.868  18.544  68.294  1.00  0.00    -0.394 C  
ENDROOT
BRANCH   2   3
HETATM    3  C   UNL     1      -8.587  18.002  67.655  1.00  0.00    -0.247 C  
BRANCH   3   4
HETATM    4  C   UNL     1      -8.913  17.287  66.344  1.00  0.00    -0.282 C  
BRANCH   4   5
HETATM    5  C   UNL     1     -10.034  16.256  66.490  1.00  0.00    -0.290 C  
BRANCH   5   6
HETATM    6  C   UNL     1      -9.432  14.864  66.715  1.00  0.00    -0.269 C  
BRANCH   6   7
HETATM    7  C   UNL     1     -10.487  13.767  66.699  1.00  0.00    -0.272 C  
BRANCH   7   8
HETATM    8  C   UNL     1      -9.882  12.374  66.510  1.00  0.00    -0.235 C  
HETATM    9  O   UNL     1      -9.353  12.014  65.461  1.00  0.00    -0.162 OA 
BRANCH   8  10
HETATM   10  C   UNL     1      -9.960  11.481  67.732  1.00  0.00    -0.195 C  
BRANCH  10  11
HETATM   11  C   UNL     1      -8.702  10.687  68.113  1.00  0.00    -0.130 C  
BRANCH  11  12
HETATM   12  C   UNL     1      -9.004   9.165  68.161  1.00  0.00    -0.129 C  
HETATM   13  C   UNL     1     -10.420   8.854  67.649  1.00  0.00    -0.255 C  
HETATM   14  O   UNL     1     -11.421   9.099  68.624  1.00  0.00    -0.248 OA 
HETATM   15  C   UNL     1     -10.378   7.383  67.331  1.00  0.00    -0.340 C  
HETATM   16  H   UNL     1     -12.296   8.907  68.307  1.00  0.00     0.000 HD 
HETATM   17  C   UNL     1      -9.026   7.187  66.674  1.00  0.00    -0.146 C  
HETATM   18  O   UNL     1      -8.629   5.845  66.886  1.00  0.00    -0.112 OA 
HETATM   19  C   UNL     1      -8.078   8.265  67.281  1.00  0.00    -0.109 C  
HETATM   20  H   UNL     1      -7.781   5.722  66.475  1.00  0.00     0.000 HD 
BRANCH  19  21
HETATM   21  C   UNL     1      -6.871   7.714  68.066  1.00  0.00    -0.067 C  
BRANCH  21  22
HETATM   22  C   UNL     1      -6.990   7.846  69.564  1.00  0.00    -0.054 C  
HETATM   23  C   UNL     1      -7.645   7.054  70.425  1.00  0.00    -0.090 C  
BRANCH  23  24
HETATM   24  C   UNL     1      -8.475   5.853  70.089  1.00  0.00    -0.126 C  
BRANCH  24  25
HETATM   25  C   UNL     1      -9.476   5.504  71.193  1.00  0.00    -0.197 C  
BRANCH  25  26
HETATM   26  C   UNL     1     -10.917   5.886  70.848  1.00  0.00    -0.335 C  
HETATM   27  C   UNL     1     -11.317   7.187  71.509  1.00  0.00    -0.255 C  
HETATM   28  O   UNL     1     -10.609   7.864  72.229  1.00  0.00    -0.231 OA 
HETATM   29  O   UNL     1     -12.588   7.542  71.202  1.00  0.00    -0.317 OA 
ENDBRANCH  25  26
ENDBRANCH  24  25
ENDBRANCH  23  24
ENDBRANCH  21  22
ENDBRANCH  19  21
ENDBRANCH  11  12
ENDBRANCH  10  11
ENDBRANCH   8  10
ENDBRANCH   7   8
ENDBRANCH   6   7
ENDBRANCH   5   6
ENDBRANCH   4   5
ENDBRANCH   3   4
ENDBRANCH   2   3
TORSDOF 14
ENDMDL
MODEL      365
REMARK 921   NORMALIZED FREE ENERGY PREDICTED BY IDOCK:   -2.49 KCAL/MOL
REMARK 922        TOTAL FREE ENERGY PREDICTED BY IDOCK:   -7.48 KCAL/MOL
REMARK 923 INTER-LIGAND FREE ENERGY PREDICTED BY IDOCK:   -5.97 KCAL/MOL
REMARK 924 INTRA-LIGAND FREE ENERGY PREDICTED BY IDOCK:   -1.51 KCAL/MOL
REMARK 927      BINDING AFFINITY PREDICTED BY RF-SCORE:    0.00 PKD
ROOT
HETATM    1  C   UNL     1     -11.061  15.648  69.915  1.00  0.00    -0.323 C  
HETATM    2  C   UNL     1      -9.990  15.968  68.887  1.00  0.00    -0.232 C  
ENDROOT
BRANCH   2   3
HETATM    3  C   UNL     1     -10.560  16.037  67.469  1.00  0.00    -0.313 C  
BRANCH   3   4
HETATM    4  C   UNL     1     -11.624  14.958  67.275  1.00  0.00    -0.337 C  
BRANCH   4   5
HETATM    5  C   UNL     1     -11.595  14.335  65.878  1.00  0.00    -0.358 C  
BRANCH   5   6
HETATM    6  C   UNL     1     -12.030  12.866  65.955  1.00  0.00    -0.504 C  
BRANCH   6   7
HETATM    7  C   UNL     1     -11.601  12.202  67.255  1.00  0.00    -0.404 C  
BRANCH   7   8
HETATM    8  C   UNL     1     -10.835  10.898  67.023  1.00  0.00    -0.266 C  
HETATM    9  O   UNL     1     -10.816   9.982  67.841  1.00  0.00    -0.253 OA 
BRANCH   8  10
HETATM   10  C   UNL     1     -10.125  10.814  65.687  1.00  0.00    -0.327 C  
BRANCH  10  11
HETATM   11  C   UNL     1      -8.590  10.743  65.702  1.00  0.00    -0.185 C  
BRANCH  11  12
HETATM   12  C   UNL     1      -8.089   9.474  64.963  1.00  0.00    -0.125 C  
HETATM   13  C   UNL     1      -6.989   9.812  63.944  1.00  0.00    -0.119 C  
HETATM   14  O   UNL     1      -7.507  10.332  62.730  1.00  0.00    -0.137 OA 
HETATM   15  C   UNL     1      -6.319   8.488  63.679  1.00  0.00    -0.077 C  
HETATM   16  H   UNL     1      -6.827  10.540  62.100  1.00  0.00     0.000 HD 
HETATM   17  C   UNL     1      -6.233   7.839  65.045  1.00  0.00    -0.038 C  
HETATM   18  O   UNL     1      -6.205   6.437  64.860  1.00  0.00    -0.029 OA 
HETATM   19  C   UNL     1      -7.442   8.377  65.868  1.00  0.00    -0.081 C  
HETATM   20  H   UNL     1      -6.151   6.029  65.716  1.00  0.00     0.000 HD 
BRANCH  19  21
HETATM   21  C   UNL     1      -8.458   7.310  66.321  1.00  0.00    -0.135 C  
BRANCH  21  22
HETATM   22  C   UNL     1      -8.077   6.586  67.588  1.00  0.00    -0.118 C  
HETATM   23  C   UNL     1      -8.831   5.785  68.354  1.00  0.00    -0.109 C  
BRANCH  23  24
HETATM   24  C   UNL     1     -10.279   5.454  68.156  1.00  0.00    -0.226 C  
BRANCH  24  25
HETATM   25  C   UNL     1     -11.169   6.031  69.259  1.00  0.00    -0.367 C  
BRANCH  25  26
HETATM   26  C   UNL     1     -10.492   6.059  70.632  1.00  0.00    -0.305 C  
HETATM   27  C   UNL     1     -10.484   7.455  71.216  1.00  0.00    -0.208 C  
HETATM   28  O   UNL     1     -10.947   8.448  70.687  1.00  0.00    -0.235 OA 
HETATM   29  O   UNL     1      -9.897   7.491  72.436  1.00  0.00    -0.158 OA 
ENDBRANCH  25  26
ENDBRANCH  24  25
ENDBRANCH  23  24
ENDBRANCH  21  22
ENDBRANCH  19  21
ENDBRANCH  11  12
ENDBRANCH  10  11
ENDBRANCH   8  10
ENDBRANCH   7   8
ENDBRANCH   6   7
ENDBRANCH   5   6
ENDBRANCH   4   5
ENDBRANCH   3   4
ENDBRANCH   2   3
TORSDOF 14
ENDMDL
MODEL      366
REMARK 921   NORMALIZED FREE ENERGY PREDICTED BY IDOCK:   -2.44 KCAL/MOL
REMARK 922        TOTAL FREE ENERGY PREDICTED BY IDOCK:   -7.39 KCAL/MOL
REMARK 923 INTER-LIGAND FREE ENERGY PREDICTED BY IDOCK:   -5.18 KCAL/MOL
REMARK 924 INTRA-LIGAND FREE ENERGY PREDICTED BY IDOCK:   -2.21 KCAL/MOL
REMARK 927      BINDING AFFINITY PREDICTED BY RF-SCORE:    0.00 PKD
ROOT
HETATM    1  C   UNL     1     -13.217  12.108  71.934  1.00  0.00    -0.474 C  
HETATM    2  C   UNL     1     -13.002  10.790  71.212  1.00  0.00    -0.502 C  
ENDROOT
BRANCH   2   3
HETATM    3  C   UNL     1     -13.271   9.589  72.120  1.00  0.00    -0.539 C  
BRANCH   3   4
HETATM    4  C   UNL     1     -12.097   8.611  72.064  1.00  0.00    -0.442 C  
BRANCH   4   5
HETATM    5  C   UNL     1     -11.183   8.845  70.859  1.00  0.00    -0.334 C  
BRANCH   5   6
HETATM    6  C   UNL     1      -9.758   9.142  71.340  1.00  0.00    -0.338 C  
BRANCH   6   7
HETATM    7  C   UNL     1      -8.918   9.830  70.273  1.00  0.00    -0.198 C  
BRANCH   7   8
HETATM    8  C   UNL     1      -9.707  10.100  68.989  1.00  0.00    -0.206 C  
HETATM    9  O   UNL     1     -10.345  11.133  68.804  1.00  0.00    -0.191 OA 
BRANCH   8  10
HETATM   10  C   UNL     1      -9.613   9.002  67.949  1.00  0.00    -0.170 C  
BRANCH  10  11
HETATM   11  C   UNL     1      -9.743   9.409  66.474  1.00  0.00    -0.299 C  
BRANCH  11  12
HETATM   12  C   UNL     1      -8.422   9.132  65.707  1.00  0.00    -0.152 C  
HETATM   13  C   UNL     1      -7.535  10.386  65.642  1.00  0.00    -0.149 C  
HETATM   14  O   UNL     1      -7.945  11.296  64.635  1.00  0.00    -0.118 OA 
HETATM   15  C   UNL     1      -6.168   9.848  65.307  1.00  0.00    -0.093 C  
HETATM   16  H   UNL     1      -7.396  12.071  64.594  1.00  0.00     0.000 HD 
HETATM   17  C   UNL     1      -6.047   8.596  66.152  1.00  0.00    -0.049 C  
HETATM   18  O   UNL     1      -5.142   7.720  65.507  1.00  0.00    -0.027 OA 
HETATM   19  C   UNL     1      -7.492   8.044  66.335  1.00  0.00    -0.087 C  
HETATM   20  H   UNL     1      -5.066   6.935  66.037  1.00  0.00     0.000 HD 
BRANCH  19  21
HETATM   21  C   UNL     1      -7.742   6.642  65.744  1.00  0.00    -0.092 C  
BRANCH  21  22
HETATM   22  C   UNL     1      -8.941   5.930  66.317  1.00  0.00    -0.153 C  
HETATM   23  C   UNL     1      -9.065   5.320  67.505  1.00  0.00    -0.110 C  
BRANCH  23  24
HETATM   24  C   UNL     1      -8.000   5.154  68.546  1.00  0.00    -0.086 C  
BRANCH  24  25
HETATM   25  C   UNL     1      -8.186   6.105  69.731  1.00  0.00    -0.123 C  
BRANCH  25  26
HETATM   26  C   UNL     1      -6.936   6.929  70.048  1.00  0.00    -0.062 C  
HETATM   27  C   UNL     1      -6.794   7.170  71.535  1.00  0.00    -0.056 C  
HETATM   28  O   UNL     1      -7.560   6.774  72.394  1.00  0.00    -0.091 OA 
HETATM   29  O   UNL     1      -5.685   7.890  71.830  1.00  0.00    -0.035 OA 
ENDBRANCH  25  26
ENDBRANCH  24  25
ENDBRANCH  23  24
ENDBRANCH  21  22
ENDBRANCH  19  21
ENDBRANCH  11  12
ENDBRANCH  10  11
ENDBRANCH   8  10
ENDBRANCH   7   8
ENDBRANCH   6   7
ENDBRANCH   5   6
ENDBRANCH   4   5
ENDBRANCH   3   4
ENDBRANCH   2   3
TORSDOF 14
ENDMDL
MODEL      367
REMARK 921   NORMALIZED FREE ENERGY PREDICTED BY IDOCK:   -2.43 KCAL/MOL
REMARK 922        TOTAL FREE ENERGY PREDICTED BY IDOCK:   -7.38 KCAL/MOL
REMARK 923 INTER-LIGAND FREE ENERGY PREDICTED BY IDOCK:   -5.18 KCAL/MOL
REMARK 924 INTRA-LIGAND FREE ENERGY PREDICTED BY IDOCK:   -2.19 KCAL/MOL
REMARK 927      BINDING AFFINITY PREDICTED BY RF-SCORE:    0.00 PKD
ROOT
HETATM    1  C   UNL     1      -7.129   6.137  71.654  1.00  0.00    -0.082 C  
HETATM    2  C   UNL     1      -8.528   5.591  71.434  1.00  0.00    -0.127 C  
ENDROOT
BRANCH   2   3
HETATM    3  C   UNL     1      -8.593   4.653  70.226  1.00  0.00    -0.105 C  
BRANCH   3   4
HETATM    4  C   UNL     1      -9.812   4.985  69.366  1.00  0.00    -0.273 C  
BRANCH   4   5
HETATM    5  C   UNL     1      -9.894   4.139  68.094  1.00  0.00    -0.084 C  
BRANCH   5   6
HETATM    6  C   UNL     1      -8.482   3.779  67.618  1.00  0.00    -0.104 C  
BRANCH   6   7
HETATM    7  C   UNL     1      -7.848   4.890  66.793  1.00  0.00    -0.099 C  
BRANCH   7   8
HETATM    8  C   UNL     1      -8.866   5.623  65.916  1.00  0.00    -0.152 C  
HETATM    9  O   UNL     1      -9.379   5.114  64.923  1.00  0.00    -0.060 OA 
BRANCH   8  10
HETATM   10  C   UNL     1      -9.214   7.020  66.390  1.00  0.00    -0.186 C  
BRANCH  10  11
HETATM   11  C   UNL     1      -8.068   8.036  66.509  1.00  0.00    -0.103 C  
BRANCH  11  12
HETATM   12  C   UNL     1      -7.572   8.137  67.977  1.00  0.00    -0.106 C  
HETATM   13  C   UNL     1      -6.055   8.378  68.044  1.00  0.00    -0.051 C  
HETATM   14  O   UNL     1      -5.302   7.191  67.856  1.00  0.00    -0.021 OA 
HETATM   15  C   UNL     1      -5.831   8.900  69.439  1.00  0.00    -0.034 C  
HETATM   16  H   UNL     1      -4.365   7.340  67.898  1.00  0.00     0.000 HD 
HETATM   17  C   UNL     1      -6.992   9.846  69.670  1.00  0.00    -0.086 C  
HETATM   18  O   UNL     1      -7.232   9.912  71.062  1.00  0.00    -0.330 OA 
HETATM   19  C   UNL     1      -8.178   9.308  68.815  1.00  0.00    -0.112 C  
HETATM   20  H   UNL     1      -7.960  10.505  71.207  1.00  0.00     0.000 HD 
BRANCH  19  21
HETATM   21  C   UNL     1      -9.425   8.879  69.614  1.00  0.00    -0.168 C  
BRANCH  21  22
HETATM   22  C   UNL     1     -10.372  10.005  69.943  1.00  0.00    -0.315 C  
HETATM   23  C   UNL     1     -11.097  10.761  69.106  1.00  0.00    -0.304 C  
BRANCH  23  24
HETATM   24  C   UNL     1     -11.099  10.698  67.609  1.00  0.00    -0.385 C  
BRANCH  24  25
HETATM   25  C   UNL     1     -11.311  12.070  66.964  1.00  0.00    -0.396 C  
BRANCH  25  26
HETATM   26  C   UNL     1     -10.482  12.276  65.694  1.00  0.00    -0.293 C  
HETATM   27  C   UNL     1     -11.366  12.471  64.482  1.00  0.00    -0.330 C  
HETATM   28  O   UNL     1     -12.582  12.467  64.483  1.00  0.00    -0.517 OA 
HETATM   29  O   UNL     1     -10.644  12.666  63.352  1.00  0.00    -0.360 OA 
ENDBRANCH  25  26
ENDBRANCH  24  25
ENDBRANCH  23  24
ENDBRANCH  21  22
ENDBRANCH  19  21
ENDBRANCH  11  12
ENDBRANCH  10  11
ENDBRANCH   8  10
ENDBRANCH   7   8
ENDBRANCH   6   7
ENDBRANCH   5   6
ENDBRANCH   4   5
ENDBRANCH   3   4
ENDBRANCH   2   3
TORSDOF 14
ENDMDL
MODEL      368
REMARK 921   NORMALIZED FREE ENERGY PREDICTED BY IDOCK:   -2.43 KCAL/MOL
REMARK 922        TOTAL FREE ENERGY PREDICTED BY IDOCK:   -7.38 KCAL/MOL
REMARK 923 INTER-LIGAND FREE ENERGY PREDICTED BY IDOCK:   -5.66 KCAL/MOL
REMARK 924 INTRA-LIGAND FREE ENERGY PREDICTED BY IDOCK:   -1.71 KCAL/MOL
REMARK 927      BINDING AFFINITY PREDICTED BY RF-SCORE:    0.00 PKD
ROOT
HETATM    1  C   UNL     1     -12.799  13.483  65.226  1.00  0.00    -0.410 C  
HETATM    2  C   UNL     1     -11.832  14.178  66.168  1.00  0.00    -0.420 C  
ENDROOT
BRANCH   2   3
HETATM    3  C   UNL     1     -10.583  13.334  66.433  1.00  0.00    -0.288 C  
BRANCH   3   4
HETATM    4  C   UNL     1      -9.340  14.222  66.449  1.00  0.00    -0.270 C  
BRANCH   4   5
HETATM    5  C   UNL     1      -9.255  15.107  67.694  1.00  0.00    -0.181 C  
BRANCH   5   6
HETATM    6  C   UNL     1      -7.791  15.255  68.126  1.00  0.00    -0.122 C  
BRANCH   6   7
HETATM    7  C   UNL     1      -6.991  13.978  67.913  1.00  0.00    -0.168 C  
BRANCH   7   8
HETATM    8  C   UNL     1      -6.659  13.267  69.227  1.00  0.00    -0.093 C  
HETATM    9  O   UNL     1      -6.318  13.869  70.242  1.00  0.00    -0.139 OA 
BRANCH   8  10
HETATM   10  C   UNL     1      -6.814  11.760  69.184  1.00  0.00    -0.106 C  
BRANCH  10  11
HETATM   11  C   UNL     1      -7.959  11.188  68.335  1.00  0.00    -0.137 C  
BRANCH  11  12
HETATM   12  C   UNL     1      -7.426  10.130  67.333  1.00  0.00    -0.094 C  
HETATM   13  C   UNL     1      -6.029  10.502  66.809  1.00  0.00    -0.063 C  
HETATM   14  O   UNL     1      -6.072  11.477  65.780  1.00  0.00    -0.454 OA 
HETATM   15  C   UNL     1      -5.491   9.209  66.254  1.00  0.00    -0.044 C  
HETATM   16  H   UNL     1      -5.209  11.708  65.456  1.00  0.00     0.000 HD 
HETATM   17  C   UNL     1      -5.919   8.167  67.267  1.00  0.00    -0.050 C  
HETATM   18  O   UNL     1      -6.020   6.925  66.599  1.00  0.00    -0.027 OA 
HETATM   19  C   UNL     1      -7.241   8.688  67.907  1.00  0.00    -0.088 C  
HETATM   20  H   UNL     1      -6.289   6.271  67.234  1.00  0.00     0.000 HD 
BRANCH  19  21
HETATM   21  C   UNL     1      -8.479   7.799  67.678  1.00  0.00    -0.121 C  
BRANCH  21  22
HETATM   22  C   UNL     1      -8.463   6.500  68.445  1.00  0.00    -0.120 C  
HETATM   23  C   UNL     1      -9.500   5.791  68.913  1.00  0.00    -0.149 C  
BRANCH  23  24
HETATM   24  C   UNL     1     -10.952   6.156  68.828  1.00  0.00    -0.421 C  
BRANCH  24  25
HETATM   25  C   UNL     1     -11.504   6.680  70.155  1.00  0.00    -0.444 C  
BRANCH  25  26
HETATM   26  C   UNL     1     -11.094   8.124  70.455  1.00  0.00    -0.257 C  
HETATM   27  C   UNL     1     -12.163   8.851  71.241  1.00  0.00    -0.299 C  
HETATM   28  O   UNL     1     -13.224   8.377  71.601  1.00  0.00    -0.335 OA 
HETATM   29  O   UNL     1     -11.807  10.127  71.522  1.00  0.00    -0.362 OA 
ENDBRANCH  25  26
ENDBRANCH  24  25
ENDBRANCH  23  24
ENDBRANCH  21  22
ENDBRANCH  19  21
ENDBRANCH  11  12
ENDBRANCH  10  11
ENDBRANCH   8  10
ENDBRANCH   7   8
ENDBRANCH   6   7
ENDBRANCH   5   6
ENDBRANCH   4   5
ENDBRANCH   3   4
ENDBRANCH   2   3
TORSDOF 14
ENDMDL
MODEL      369
REMARK 921   NORMALIZED FREE ENERGY PREDICTED BY IDOCK:   -2.40 KCAL/MOL
REMARK 922        TOTAL FREE ENERGY PREDICTED BY IDOCK:   -7.33 KCAL/MOL
REMARK 923 INTER-LIGAND FREE ENERGY PREDICTED BY IDOCK:   -7.51 KCAL/MOL
REMARK 924 INTRA-LIGAND FREE ENERGY PREDICTED BY IDOCK:    0.18 KCAL/MOL
REMARK 927      BINDING AFFINITY PREDICTED BY RF-SCORE:    0.00 PKD
ROOT
HETATM    1  C   UNL     1     -10.279  17.032  68.685  1.00  0.00    -0.321 C  
HETATM    2  C   UNL     1     -10.513  16.791  67.204  1.00  0.00    -0.299 C  
ENDROOT
BRANCH   2   3
HETATM    3  C   UNL     1     -10.528  15.300  66.862  1.00  0.00    -0.289 C  
BRANCH   3   4
HETATM    4  C   UNL     1     -10.610  14.466  68.140  1.00  0.00    -0.236 C  
BRANCH   4   5
HETATM    5  C   UNL     1     -11.875  13.609  68.213  1.00  0.00    -0.404 C  
BRANCH   5   6
HETATM    6  C   UNL     1     -11.640  12.415  69.146  1.00  0.00    -0.369 C  
BRANCH   6   7
HETATM    7  C   UNL     1     -12.525  12.462  70.383  1.00  0.00    -0.214 C  
BRANCH   7   8
HETATM    8  C   UNL     1     -12.749  11.079  70.998  1.00  0.00    -0.386 C  
HETATM    9  O   UNL     1     -13.619  10.855  71.835  1.00  0.00    -0.251 OA 
BRANCH   8  10
HETATM   10  C   UNL     1     -11.829   9.998  70.468  1.00  0.00    -0.387 C  
BRANCH  10  11
HETATM   11  C   UNL     1     -10.541   9.712  71.255  1.00  0.00    -0.269 C  
BRANCH  11  12
HETATM   12  C   UNL     1     -10.228   8.192  71.267  1.00  0.00    -0.240 C  
HETATM   13  C   UNL     1     -11.057   7.454  72.331  1.00  0.00    -0.287 C  
HETATM   14  O   UNL     1     -10.519   7.590  73.636  1.00  0.00    -0.349 OA 
HETATM   15  C   UNL     1     -10.990   6.010  71.908  1.00  0.00    -0.316 C  
HETATM   16  H   UNL     1     -11.031   7.133  74.294  1.00  0.00     0.000 HD 
HETATM   17  C   UNL     1     -11.139   6.060  70.401  1.00  0.00    -0.329 C  
HETATM   18  O   UNL     1     -10.506   4.915  69.861  1.00  0.00    -0.238 OA 
HETATM   19  C   UNL     1     -10.547   7.426  69.943  1.00  0.00    -0.245 C  
HETATM   20  H   UNL     1     -10.600   4.947  68.916  1.00  0.00     0.000 HD 
BRANCH  19  21
HETATM   21  C   UNL     1      -9.326   7.334  69.006  1.00  0.00    -0.148 C  
BRANCH  21  22
HETATM   22  C   UNL     1      -9.669   7.305  67.537  1.00  0.00    -0.181 C  
HETATM   23  C   UNL     1     -10.090   8.310  66.755  1.00  0.00    -0.373 C  
BRANCH  23  24
HETATM   24  C   UNL     1     -10.375   9.719  67.178  1.00  0.00    -0.311 C  
BRANCH  24  25
HETATM   25  C   UNL     1      -9.592  10.747  66.357  1.00  0.00    -0.226 C  
BRANCH  25  26
HETATM   26  C   UNL     1      -9.566  10.434  64.860  1.00  0.00    -0.348 C  
HETATM   27  C   UNL     1      -8.647   9.272  64.553  1.00  0.00    -0.195 C  
HETATM   28  O   UNL     1      -7.997   8.647  65.370  1.00  0.00    -0.099 OA 
HETATM   29  O   UNL     1      -8.624   8.977  63.231  1.00  0.00    -0.197 OA 
ENDBRANCH  25  26
ENDBRANCH  24  25
ENDBRANCH  23  24
ENDBRANCH  21  22
ENDBRANCH  19  21
ENDBRANCH  11  12
ENDBRANCH  10  11
ENDBRANCH   8  10
ENDBRANCH   7   8
ENDBRANCH   6   7
ENDBRANCH   5   6
ENDBRANCH   4   5
ENDBRANCH   3   4
ENDBRANCH   2   3
TORSDOF 14
ENDMDL
MODEL      370
REMARK 921   NORMALIZED FREE ENERGY PREDICTED BY IDOCK:   -2.40 KCAL/MOL
REMARK 922        TOTAL FREE ENERGY PREDICTED BY IDOCK:   -7.32 KCAL/MOL
REMARK 923 INTER-LIGAND FREE ENERGY PREDICTED BY IDOCK:   -6.21 KCAL/MOL
REMARK 924 INTRA-LIGAND FREE ENERGY PREDICTED BY IDOCK:   -1.10 KCAL/MOL
REMARK 927      BINDING AFFINITY PREDICTED BY RF-SCORE:    0.00 PKD
ROOT
HETATM    1  C   UNL     1      -7.376   5.850  69.924  1.00  0.00    -0.075 C  
HETATM    2  C   UNL     1      -7.366   4.333  69.962  1.00  0.00    -0.046 C  
ENDROOT
BRANCH   2   3
HETATM    3  C   UNL     1      -8.546   3.733  69.194  1.00  0.00    -0.115 C  
BRANCH   3   4
HETATM    4  C   UNL     1      -8.244   3.711  67.696  1.00  0.00    -0.091 C  
BRANCH   4   5
HETATM    5  C   UNL     1      -8.258   5.103  67.063  1.00  0.00    -0.107 C  
BRANCH   5   6
HETATM    6  C   UNL     1      -9.505   5.261  66.184  1.00  0.00    -0.170 C  
BRANCH   6   7
HETATM    7  C   UNL     1     -10.756   5.551  67.001  1.00  0.00    -0.286 C  
BRANCH   7   8
HETATM    8  C   UNL     1     -10.517   6.598  68.090  1.00  0.00    -0.214 C  
HETATM    9  O   UNL     1     -10.807   6.412  69.269  1.00  0.00    -0.258 OA 
BRANCH   8  10
HETATM   10  C   UNL     1      -9.864   7.876  67.603  1.00  0.00    -0.212 C  
BRANCH  10  11
HETATM   11  C   UNL     1     -10.733   8.857  66.802  1.00  0.00    -0.098 C  
BRANCH  11  12
HETATM   12  C   UNL     1     -11.147  10.069  67.679  1.00  0.00    -0.222 C  
HETATM   13  C   UNL     1     -10.641   9.919  69.123  1.00  0.00    -0.220 C  
HETATM   14  O   UNL     1     -11.454   9.058  69.903  1.00  0.00    -0.441 OA 
HETATM   15  C   UNL     1     -10.710  11.317  69.681  1.00  0.00    -0.085 C  
HETATM   16  H   UNL     1     -11.141   8.966  70.795  1.00  0.00     0.000 HD 
HETATM   17  C   UNL     1     -10.214  12.191  68.547  1.00  0.00    -0.207 C  
HETATM   18  O   UNL     1     -10.785  13.476  68.704  1.00  0.00    -0.245 OA 
HETATM   19  C   UNL     1     -10.586  11.455  67.225  1.00  0.00    -0.264 C  
HETATM   20  H   UNL     1     -10.474  14.024  67.993  1.00  0.00     0.000 HD 
BRANCH  19  21
HETATM   21  C   UNL     1     -11.562  12.212  66.301  1.00  0.00    -0.424 C  
BRANCH  21  22
HETATM   22  C   UNL     1     -11.018  12.500  64.924  1.00  0.00    -0.335 C  
HETATM   23  C   UNL     1     -11.060  13.647  64.230  1.00  0.00    -0.332 C  
BRANCH  23  24
HETATM   24  C   UNL     1     -11.719  14.927  64.647  1.00  0.00    -0.406 C  
BRANCH  24  25
HETATM   25  C   UNL     1     -10.712  16.056  64.878  1.00  0.00    -0.339 C  
BRANCH  25  26
HETATM   26  C   UNL     1      -9.694  15.745  65.977  1.00  0.00    -0.377 C  
HETATM   27  C   UNL     1     -10.091  16.376  67.293  1.00  0.00    -0.270 C  
HETATM   28  O   UNL     1     -11.084  17.051  67.486  1.00  0.00    -0.183 OA 
HETATM   29  O   UNL     1      -9.202  16.098  68.278  1.00  0.00    -0.191 OA 
ENDBRANCH  25  26
ENDBRANCH  24  25
ENDBRANCH  23  24
ENDBRANCH  21  22
ENDBRANCH  19  21
ENDBRANCH  11  12
ENDBRANCH  10  11
ENDBRANCH   8  10
ENDBRANCH   7   8
ENDBRANCH   6   7
ENDBRANCH   5   6
ENDBRANCH   4   5
ENDBRANCH   3   4
ENDBRANCH   2   3
TORSDOF 14
ENDMDL
MODEL      371
REMARK 921   NORMALIZED FREE ENERGY PREDICTED BY IDOCK:   -2.38 KCAL/MOL
REMARK 922        TOTAL FREE ENERGY PREDICTED BY IDOCK:   -7.28 KCAL/MOL
REMARK 923 INTER-LIGAND FREE ENERGY PREDICTED BY IDOCK:   -5.72 KCAL/MOL
REMARK 924 INTRA-LIGAND FREE ENERGY PREDICTED BY IDOCK:   -1.57 KCAL/MOL
REMARK 927      BINDING AFFINITY PREDICTED BY RF-SCORE:    0.00 PKD
ROOT
HETATM    1  C   UNL     1      -6.602   4.192  62.781  1.00  0.00    -0.030 C  
HETATM    2  C   UNL     1      -6.739   4.816  64.159  1.00  0.00    -0.043 C  
ENDROOT
BRANCH   2   3
HETATM    3  C   UNL     1      -7.919   4.231  64.938  1.00  0.00    -0.093 C  
BRANCH   3   4
HETATM    4  C   UNL     1      -8.900   5.339  65.319  1.00  0.00    -0.144 C  
BRANCH   4   5
HETATM    5  C   UNL     1      -8.222   6.524  66.009  1.00  0.00    -0.127 C  
BRANCH   5   6
HETATM    6  C   UNL     1      -9.153   7.743  65.980  1.00  0.00    -0.169 C  
BRANCH   6   7
HETATM    7  C   UNL     1      -8.397   9.044  65.749  1.00  0.00    -0.133 C  
BRANCH   7   8
HETATM    8  C   UNL     1      -9.258  10.110  65.068  1.00  0.00    -0.217 C  
HETATM    9  O   UNL     1      -9.633  10.018  63.902  1.00  0.00    -0.283 OA 
BRANCH   8  10
HETATM   10  C   UNL     1      -9.639  11.275  65.958  1.00  0.00    -0.245 C  
BRANCH  10  11
HETATM   11  C   UNL     1     -10.698  11.024  67.042  1.00  0.00    -0.319 C  
BRANCH  11  12
HETATM   12  C   UNL     1     -10.043  10.952  68.447  1.00  0.00    -0.196 C  
HETATM   13  C   UNL     1     -10.168   9.545  69.055  1.00  0.00    -0.200 C  
HETATM   14  O   UNL     1     -11.445   9.305  69.623  1.00  0.00    -0.438 OA 
HETATM   15  C   UNL     1      -9.124   9.524  70.141  1.00  0.00    -0.276 C  
HETATM   16  H   UNL     1     -11.523   8.436  69.999  1.00  0.00     0.000 HD 
HETATM   17  C   UNL     1      -7.934  10.229  69.521  1.00  0.00    -0.165 C  
HETATM   18  O   UNL     1      -7.168  10.794  70.568  1.00  0.00    -0.442 OA 
HETATM   19  C   UNL     1      -8.509  11.248  68.492  1.00  0.00    -0.156 C  
HETATM   20  H   UNL     1      -6.422  11.236  70.180  1.00  0.00     0.000 HD 
BRANCH  19  21
HETATM   21  C   UNL     1      -8.202  12.729  68.790  1.00  0.00     0.117 C  
BRANCH  21  22
HETATM   22  C   UNL     1      -7.175  13.348  67.875  1.00  0.00    -0.133 C  
HETATM   23  C   UNL     1      -7.133  14.595  67.385  1.00  0.00    -0.157 C  
BRANCH  23  24
HETATM   24  C   UNL     1      -8.147  15.678  67.594  1.00  0.00    -0.166 C  
BRANCH  24  25
HETATM   25  C   UNL     1      -8.506  16.405  66.296  1.00  0.00    -0.372 C  
BRANCH  25  26
HETATM   26  C   UNL     1      -8.115  17.884  66.301  1.00  0.00    -0.266 C  
HETATM   27  C   UNL     1      -9.316  18.773  66.539  1.00  0.00    -0.336 C  
HETATM   28  O   UNL     1     -10.459  18.391  66.705  1.00  0.00    -0.380 OA 
HETATM   29  O   UNL     1      -8.981  20.086  66.557  1.00  0.00    -0.348 OA 
ENDBRANCH  25  26
ENDBRANCH  24  25
ENDBRANCH  23  24
ENDBRANCH  21  22
ENDBRANCH  19  21
ENDBRANCH  11  12
ENDBRANCH  10  11
ENDBRANCH   8  10
ENDBRANCH   7   8
ENDBRANCH   6   7
ENDBRANCH   5   6
ENDBRANCH   4   5
ENDBRANCH   3   4
ENDBRANCH   2   3
TORSDOF 14
ENDMDL
MODEL      372
REMARK 921   NORMALIZED FREE ENERGY PREDICTED BY IDOCK:   -2.36 KCAL/MOL
REMARK 922        TOTAL FREE ENERGY PREDICTED BY IDOCK:   -7.25 KCAL/MOL
REMARK 923 INTER-LIGAND FREE ENERGY PREDICTED BY IDOCK:   -6.18 KCAL/MOL
REMARK 924 INTRA-LIGAND FREE ENERGY PREDICTED BY IDOCK:   -1.08 KCAL/MOL
REMARK 927      BINDING AFFINITY PREDICTED BY RF-SCORE:    0.00 PKD
ROOT
HETATM    1  C   UNL     1      -9.750  17.334  67.399  1.00  0.00    -0.258 C  
HETATM    2  C   UNL     1      -8.332  17.625  67.857  1.00  0.00    -0.235 C  
ENDROOT
BRANCH   2   3
HETATM    3  C   UNL     1      -7.499  16.348  67.989  1.00  0.00    -0.151 C  
BRANCH   3   4
HETATM    4  C   UNL     1      -8.314  15.138  67.533  1.00  0.00    -0.188 C  
BRANCH   4   5
HETATM    5  C   UNL     1      -7.514  13.835  67.560  1.00  0.00    -0.182 C  
BRANCH   5   6
HETATM    6  C   UNL     1      -8.471  12.637  67.533  1.00  0.00    -0.176 C  
BRANCH   6   7
HETATM    7  C   UNL     1      -8.985  12.275  68.919  1.00  0.00     0.269 C  
BRANCH   7   8
HETATM    8  C   UNL     1      -8.963  10.766  69.177  1.00  0.00    -0.087 C  
HETATM    9  O   UNL     1      -8.147  10.230  69.922  1.00  0.00    -0.157 OA 
BRANCH   8  10
HETATM   10  C   UNL     1     -10.051   9.989  68.464  1.00  0.00    -0.187 C  
BRANCH  10  11
HETATM   11  C   UNL     1     -11.508  10.315  68.823  1.00  0.00    -0.176 C  
BRANCH  11  12
HETATM   12  C   UNL     1     -11.726  10.251  70.358  1.00  0.00    -0.404 C  
HETATM   13  C   UNL     1     -12.776  11.274  70.822  1.00  0.00    -0.269 C  
HETATM   14  O   UNL     1     -12.249  12.585  70.937  1.00  0.00    -0.407 OA 
HETATM   15  C   UNL     1     -13.192  10.778  72.183  1.00  0.00    -0.360 C  
HETATM   16  H   UNL     1     -12.898  13.218  71.224  1.00  0.00     0.000 HD 
HETATM   17  C   UNL     1     -13.286   9.275  72.014  1.00  0.00    -0.447 C  
HETATM   18  O   UNL     1     -13.065   8.679  73.278  1.00  0.00    -0.705 OA 
HETATM   19  C   UNL     1     -12.258   8.888  70.908  1.00  0.00    -0.177 C  
HETATM   20  H   UNL     1     -13.124   7.737  73.173  1.00  0.00     0.000 HD 
BRANCH  19  21
HETATM   21  C   UNL     1     -11.122   7.951  71.362  1.00  0.00    -0.275 C  
BRANCH  21  22
HETATM   22  C   UNL     1     -10.185   8.556  72.377  1.00  0.00    -0.369 C  
HETATM   23  C   UNL     1      -9.470   7.940  73.330  1.00  0.00    -0.350 C  
BRANCH  23  24
HETATM   24  C   UNL     1      -9.474   6.476  73.652  1.00  0.00    -0.169 C  
BRANCH  24  25
HETATM   25  C   UNL     1      -8.339   5.720  72.958  1.00  0.00    -0.118 C  
BRANCH  25  26
HETATM   26  C   UNL     1      -8.586   4.213  72.859  1.00  0.00    -0.100 C  
HETATM   27  C   UNL     1      -9.796   3.906  72.003  1.00  0.00    -0.174 C  
HETATM   28  O   UNL     1     -10.502   4.729  71.452  1.00  0.00    -0.159 OA 
HETATM   29  O   UNL     1     -10.019   2.574  71.899  1.00  0.00    -0.160 OA 
ENDBRANCH  25  26
ENDBRANCH  24  25
ENDBRANCH  23  24
ENDBRANCH  21  22
ENDBRANCH  19  21
ENDBRANCH  11  12
ENDBRANCH  10  11
ENDBRANCH   8  10
ENDBRANCH   7   8
ENDBRANCH   6   7
ENDBRANCH   5   6
ENDBRANCH   4   5
ENDBRANCH   3   4
ENDBRANCH   2   3
TORSDOF 14
ENDMDL
MODEL      373
REMARK 921   NORMALIZED FREE ENERGY PREDICTED BY IDOCK:   -2.34 KCAL/MOL
REMARK 922        TOTAL FREE ENERGY PREDICTED BY IDOCK:   -7.21 KCAL/MOL
REMARK 923 INTER-LIGAND FREE ENERGY PREDICTED BY IDOCK:   -4.99 KCAL/MOL
REMARK 924 INTRA-LIGAND FREE ENERGY PREDICTED BY IDOCK:   -2.22 KCAL/MOL
REMARK 927      BINDING AFFINITY PREDICTED BY RF-SCORE:    0.00 PKD
ROOT
HETATM    1  C   UNL     1     -12.007  14.395  64.666  1.00  0.00    -0.475 C  
HETATM    2  C   UNL     1     -12.633  13.211  65.381  1.00  0.00    -0.512 C  
ENDROOT
BRANCH   2   3
HETATM    3  C   UNL     1     -11.579  12.221  65.880  1.00  0.00    -0.450 C  
BRANCH   3   4
HETATM    4  C   UNL     1     -11.653  12.095  67.402  1.00  0.00    -0.410 C  
BRANCH   4   5
HETATM    5  C   UNL     1     -10.547  12.871  68.119  1.00  0.00    -0.249 C  
BRANCH   5   6
HETATM    6  C   UNL     1      -9.365  13.090  67.168  1.00  0.00    -0.230 C  
BRANCH   6   7
HETATM    7  C   UNL     1      -8.136  12.291  67.578  1.00  0.00    -0.170 C  
BRANCH   7   8
HETATM    8  C   UNL     1      -8.006  10.976  66.807  1.00  0.00    -0.152 C  
HETATM    9  O   UNL     1      -8.220  10.887  65.600  1.00  0.00    -0.154 OA 
BRANCH   8  10
HETATM   10  C   UNL     1      -7.563   9.794  67.645  1.00  0.00    -0.091 C  
BRANCH  10  11
HETATM   11  C   UNL     1      -8.542   9.269  68.706  1.00  0.00    -0.131 C  
BRANCH  11  12
HETATM   12  C   UNL     1      -9.099   7.878  68.303  1.00  0.00    -0.134 C  
HETATM   13  C   UNL     1      -9.110   7.696  66.776  1.00  0.00    -0.151 C  
HETATM   14  O   UNL     1     -10.215   8.334  66.157  1.00  0.00    -0.457 OA 
HETATM   15  C   UNL     1      -9.220   6.206  66.587  1.00  0.00    -0.155 C  
HETATM   16  H   UNL     1     -10.222   8.222  65.213  1.00  0.00     0.000 HD 
HETATM   17  C   UNL     1      -8.297   5.632  67.642  1.00  0.00    -0.100 C  
HETATM   18  O   UNL     1      -8.758   4.334  67.966  1.00  0.00    -0.100 OA 
HETATM   19  C   UNL     1      -8.286   6.649  68.823  1.00  0.00    -0.120 C  
HETATM   20  H   UNL     1      -8.179   3.974  68.628  1.00  0.00     0.000 HD 
BRANCH  19  21
HETATM   21  C   UNL     1      -8.826   6.109  70.162  1.00  0.00    -0.144 C  
BRANCH  21  22
HETATM   22  C   UNL     1      -8.071   6.589  71.376  1.00  0.00    -0.112 C  
HETATM   23  C   UNL     1      -6.980   6.059  71.948  1.00  0.00    -0.077 C  
BRANCH  23  24
HETATM   24  C   UNL     1      -6.268   4.806  71.538  1.00  0.00    -0.018 C  
BRANCH  24  25
HETATM   25  C   UNL     1      -6.924   3.545  72.105  1.00  0.00    -0.034 C  
BRANCH  25  26
HETATM   26  C   UNL     1      -7.595   2.678  71.038  1.00  0.00    -0.036 C  
HETATM   27  C   UNL     1      -9.100   2.670  71.198  1.00  0.00    -0.111 C  
HETATM   28  O   UNL     1      -9.725   3.264  72.056  1.00  0.00    -0.144 OA 
HETATM   29  O   UNL     1      -9.708   1.915  70.252  1.00  0.00    -0.066 OA 
ENDBRANCH  25  26
ENDBRANCH  24  25
ENDBRANCH  23  24
ENDBRANCH  21  22
ENDBRANCH  19  21
ENDBRANCH  11  12
ENDBRANCH  10  11
ENDBRANCH   8  10
ENDBRANCH   7   8
ENDBRANCH   6   7
ENDBRANCH   5   6
ENDBRANCH   4   5
ENDBRANCH   3   4
ENDBRANCH   2   3
TORSDOF 14
ENDMDL
MODEL      374
REMARK 921   NORMALIZED FREE ENERGY PREDICTED BY IDOCK:   -2.32 KCAL/MOL
REMARK 922        TOTAL FREE ENERGY PREDICTED BY IDOCK:   -7.17 KCAL/MOL
REMARK 923 INTER-LIGAND FREE ENERGY PREDICTED BY IDOCK:   -5.27 KCAL/MOL
REMARK 924 INTRA-LIGAND FREE ENERGY PREDICTED BY IDOCK:   -1.90 KCAL/MOL
REMARK 927      BINDING AFFINITY PREDICTED BY RF-SCORE:    0.00 PKD
ROOT
HETATM    1  C   UNL     1     -10.031  19.372  70.323  1.00  0.00     0.857 C  
HETATM    2  C   UNL     1     -10.308  20.188  69.073  1.00  0.00    -0.135 C  
ENDROOT
BRANCH   2   3
HETATM    3  C   UNL     1      -9.647  19.579  67.834  1.00  0.00    -0.445 C  
BRANCH   3   4
HETATM    4  C   UNL     1     -10.449  19.933  66.582  1.00  0.00    -0.580 C  
BRANCH   4   5
HETATM    5  C   UNL     1     -10.358  18.863  65.493  1.00  0.00     0.102 C  
BRANCH   5   6
HETATM    6  C   UNL     1     -10.722  17.494  66.078  1.00  0.00    -0.116 C  
BRANCH   6   7
HETATM    7  C   UNL     1      -9.639  16.452  65.833  1.00  0.00    -0.309 C  
BRANCH   7   8
HETATM    8  C   UNL     1     -10.065  15.049  66.270  1.00  0.00    -0.282 C  
HETATM    9  O   UNL     1      -9.955  14.063  65.546  1.00  0.00    -0.316 OA 
BRANCH   8  10
HETATM   10  C   UNL     1     -10.606  14.967  67.684  1.00  0.00    -0.264 C  
BRANCH  10  11
HETATM   11  C   UNL     1      -9.715  14.309  68.748  1.00  0.00    -0.173 C  
BRANCH  11  12
HETATM   12  C   UNL     1     -10.297  12.938  69.184  1.00  0.00     0.158 C  
HETATM   13  C   UNL     1     -11.834  12.959  69.206  1.00  0.00    -0.309 C  
HETATM   14  O   UNL     1     -12.357  13.569  70.374  1.00  0.00    -0.338 OA 
HETATM   15  C   UNL     1     -12.220  11.503  69.184  1.00  0.00    -0.221 C  
HETATM   16  H   UNL     1     -13.307  13.582  70.388  1.00  0.00     0.000 HD 
HETATM   17  C   UNL     1     -11.255  10.882  68.194  1.00  0.00    -0.301 C  
HETATM   18  O   UNL     1     -11.105   9.516  68.530  1.00  0.00    -0.449 OA 
HETATM   19  C   UNL     1      -9.950  11.731  68.254  1.00  0.00    -0.200 C  
HETATM   20  H   UNL     1     -10.500   9.126  67.909  1.00  0.00     0.000 HD 
BRANCH  19  21
HETATM   21  C   UNL     1      -8.691  10.971  68.719  1.00  0.00    -0.146 C  
BRANCH  21  22
HETATM   22  C   UNL     1      -7.551  10.995  67.733  1.00  0.00    -0.099 C  
HETATM   23  C   UNL     1      -7.452  10.370  66.551  1.00  0.00    -0.119 C  
BRANCH  23  24
HETATM   24  C   UNL     1      -8.454   9.438  65.940  1.00  0.00    -0.135 C  
BRANCH  24  25
HETATM   25  C   UNL     1      -8.919   9.900  64.557  1.00  0.00    -0.272 C  
BRANCH  25  26
HETATM   26  C   UNL     1     -10.352  10.439  64.548  1.00  0.00    -0.155 C  
HETATM   27  C   UNL     1     -10.541  11.487  63.473  1.00  0.00    -0.423 C  
HETATM   28  O   UNL     1      -9.685  11.875  62.702  1.00  0.00    -0.140 OA 
HETATM   29  O   UNL     1     -11.809  11.964  63.447  1.00  0.00    -0.463 OA 
ENDBRANCH  25  26
ENDBRANCH  24  25
ENDBRANCH  23  24
ENDBRANCH  21  22
ENDBRANCH  19  21
ENDBRANCH  11  12
ENDBRANCH  10  11
ENDBRANCH   8  10
ENDBRANCH   7   8
ENDBRANCH   6   7
ENDBRANCH   5   6
ENDBRANCH   4   5
ENDBRANCH   3   4
ENDBRANCH   2   3
TORSDOF 14
ENDMDL
MODEL      375
REMARK 921   NORMALIZED FREE ENERGY PREDICTED BY IDOCK:   -2.29 KCAL/MOL
REMARK 922        TOTAL FREE ENERGY PREDICTED BY IDOCK:   -7.11 KCAL/MOL
REMARK 923 INTER-LIGAND FREE ENERGY PREDICTED BY IDOCK:   -5.88 KCAL/MOL
REMARK 924 INTRA-LIGAND FREE ENERGY PREDICTED BY IDOCK:   -1.24 KCAL/MOL
REMARK 927      BINDING AFFINITY PREDICTED BY RF-SCORE:    0.00 PKD
ROOT
HETATM    1  C   UNL     1     -10.760  16.034  69.541  1.00  0.00    -0.298 C  
HETATM    2  C   UNL     1     -10.619  15.956  68.031  1.00  0.00    -0.287 C  
ENDROOT
BRANCH   2   3
HETATM    3  C   UNL     1     -11.209  14.661  67.467  1.00  0.00    -0.343 C  
BRANCH   3   4
HETATM    4  C   UNL     1     -10.846  13.481  68.367  1.00  0.00    -0.286 C  
BRANCH   4   5
HETATM    5  C   UNL     1     -12.005  12.502  68.565  1.00  0.00    -0.266 C  
BRANCH   5   6
HETATM    6  C   UNL     1     -11.506  11.244  69.285  1.00  0.00    -0.369 C  
BRANCH   6   7
HETATM    7  C   UNL     1     -12.576  10.618  70.168  1.00  0.00    -0.283 C  
BRANCH   7   8
HETATM    8  C   UNL     1     -11.988   9.688  71.232  1.00  0.00    -0.380 C  
HETATM    9  O   UNL     1     -12.682   9.091  72.051  1.00  0.00    -0.344 OA 
BRANCH   8  10
HETATM   10  C   UNL     1     -10.481   9.539  71.176  1.00  0.00    -0.358 C  
BRANCH  10  11
HETATM   11  C   UNL     1      -9.851   8.395  71.985  1.00  0.00    -0.354 C  
BRANCH  11  12
HETATM   12  C   UNL     1      -9.233   7.328  71.042  1.00  0.00    -0.154 C  
HETATM   13  C   UNL     1     -10.276   6.283  70.612  1.00  0.00    -0.194 C  
HETATM   14  O   UNL     1     -10.503   5.296  71.605  1.00  0.00    -0.217 OA 
HETATM   15  C   UNL     1      -9.667   5.640  69.394  1.00  0.00    -0.208 C  
HETATM   16  H   UNL     1     -11.148   4.650  71.339  1.00  0.00     0.000 HD 
HETATM   17  C   UNL     1      -9.060   6.800  68.630  1.00  0.00    -0.127 C  
HETATM   18  O   UNL     1      -7.992   6.296  67.851  1.00  0.00    -0.108 OA 
HETATM   19  C   UNL     1      -8.663   7.870  69.691  1.00  0.00    -0.134 C  
HETATM   20  H   UNL     1      -7.610   7.023  67.372  1.00  0.00     0.000 HD 
BRANCH  19  21
HETATM   21  C   UNL     1      -7.157   8.190  69.773  1.00  0.00    -0.060 C  
BRANCH  21  22
HETATM   22  C   UNL     1      -6.508   8.470  68.440  1.00  0.00    -0.055 C  
HETATM   23  C   UNL     1      -6.766   9.460  67.574  1.00  0.00    -0.068 C  
BRANCH  23  24
HETATM   24  C   UNL     1      -7.821  10.517  67.704  1.00  0.00    -0.105 C  
BRANCH  24  25
HETATM   25  C   UNL     1      -8.037  11.293  66.403  1.00  0.00    -0.138 C  
BRANCH  25  26
HETATM   26  C   UNL     1      -7.908  10.423  65.150  1.00  0.00    -0.122 C  
HETATM   27  C   UNL     1      -9.264  10.068  64.581  1.00  0.00    -0.258 C  
HETATM   28  O   UNL     1     -10.337  10.411  65.039  1.00  0.00    -0.306 OA 
HETATM   29  O   UNL     1      -9.163   9.307  63.465  1.00  0.00    -0.056 OA 
ENDBRANCH  25  26
ENDBRANCH  24  25
ENDBRANCH  23  24
ENDBRANCH  21  22
ENDBRANCH  19  21
ENDBRANCH  11  12
ENDBRANCH  10  11
ENDBRANCH   8  10
ENDBRANCH   7   8
ENDBRANCH   6   7
ENDBRANCH   5   6
ENDBRANCH   4   5
ENDBRANCH   3   4
ENDBRANCH   2   3
TORSDOF 14
ENDMDL
MODEL      376
REMARK 921   NORMALIZED FREE ENERGY PREDICTED BY IDOCK:   -2.26 KCAL/MOL
REMARK 922        TOTAL FREE ENERGY PREDICTED BY IDOCK:   -7.07 KCAL/MOL
REMARK 923 INTER-LIGAND FREE ENERGY PREDICTED BY IDOCK:   -6.23 KCAL/MOL
REMARK 924 INTRA-LIGAND FREE ENERGY PREDICTED BY IDOCK:   -0.84 KCAL/MOL
REMARK 927      BINDING AFFINITY PREDICTED BY RF-SCORE:    0.00 PKD
ROOT
HETATM    1  C   UNL     1      -9.155   8.940  69.323  1.00  0.00    -0.145 C  
HETATM    2  C   UNL     1      -9.074   7.639  68.544  1.00  0.00    -0.131 C  
ENDROOT
BRANCH   2   3
HETATM    3  C   UNL     1     -10.397   7.304  67.851  1.00  0.00    -0.253 C  
BRANCH   3   4
HETATM    4  C   UNL     1     -10.264   7.500  66.341  1.00  0.00    -0.022 C  
BRANCH   4   5
HETATM    5  C   UNL     1      -9.292   8.621  65.967  1.00  0.00    -0.284 C  
BRANCH   5   6
HETATM    6  C   UNL     1     -10.045   9.738  65.234  1.00  0.00    -0.124 C  
BRANCH   6   7
HETATM    7  C   UNL     1      -9.645  11.123  65.722  1.00  0.00    -0.255 C  
BRANCH   7   8
HETATM    8  C   UNL     1     -10.592  11.664  66.794  1.00  0.00    -0.244 C  
HETATM    9  O   UNL     1     -11.791  11.398  66.820  1.00  0.00    -0.443 OA 
BRANCH   8  10
HETATM   10  C   UNL     1      -9.927  12.533  67.843  1.00  0.00    -0.212 C  
BRANCH  10  11
HETATM   11  C   UNL     1      -9.561  13.971  67.447  1.00  0.00    -0.227 C  
BRANCH  11  12
HETATM   12  C   UNL     1      -8.688  14.640  68.541  1.00  0.00    -0.176 C  
HETATM   13  C   UNL     1      -7.341  13.918  68.707  1.00  0.00    -0.118 C  
HETATM   14  O   UNL     1      -7.442  12.739  69.488  1.00  0.00    -0.266 OA 
HETATM   15  C   UNL     1      -6.475  14.922  69.422  1.00  0.00    -0.131 C  
HETATM   16  H   UNL     1      -6.610  12.293  69.590  1.00  0.00     0.000 HD 
HETATM   17  C   UNL     1      -6.813  16.241  68.757  1.00  0.00    -0.151 C  
HETATM   18  O   UNL     1      -6.561  17.276  69.688  1.00  0.00    -0.227 OA 
HETATM   19  C   UNL     1      -8.289  16.126  68.272  1.00  0.00    -0.171 C  
HETATM   20  H   UNL     1      -6.773  18.103  69.271  1.00  0.00     0.000 HD 
BRANCH  19  21
HETATM   21  C   UNL     1      -9.272  17.126  68.912  1.00  0.00    -0.200 C  
BRANCH  21  22
HETATM   22  C   UNL     1     -10.519  17.379  68.102  1.00  0.00    -0.389 C  
HETATM   23  C   UNL     1     -10.637  17.993  66.916  1.00  0.00    -0.291 C  
BRANCH  23  24
HETATM   24  C   UNL     1      -9.539  18.632  66.121  1.00  0.00    -0.214 C  
BRANCH  24  25
HETATM   25  C   UNL     1      -9.561  20.160  66.213  1.00  0.00    -0.487 C  
BRANCH  25  26
HETATM   26  C   UNL     1      -8.844  20.703  67.451  1.00  0.00    -0.331 C  
HETATM   27  C   UNL     1      -7.533  19.986  67.689  1.00  0.00    -0.292 C  
HETATM   28  O   UNL     1      -7.081  19.088  67.004  1.00  0.00    -0.203 OA 
HETATM   29  O   UNL     1      -6.882  20.465  68.777  1.00  0.00    -0.245 OA 
ENDBRANCH  25  26
ENDBRANCH  24  25
ENDBRANCH  23  24
ENDBRANCH  21  22
ENDBRANCH  19  21
ENDBRANCH  11  12
ENDBRANCH  10  11
ENDBRANCH   8  10
ENDBRANCH   7   8
ENDBRANCH   6   7
ENDBRANCH   5   6
ENDBRANCH   4   5
ENDBRANCH   3   4
ENDBRANCH   2   3
TORSDOF 14
ENDMDL
MODEL      377
REMARK 921   NORMALIZED FREE ENERGY PREDICTED BY IDOCK:   -2.26 KCAL/MOL
REMARK 922        TOTAL FREE ENERGY PREDICTED BY IDOCK:   -7.06 KCAL/MOL
REMARK 923 INTER-LIGAND FREE ENERGY PREDICTED BY IDOCK:   -5.84 KCAL/MOL
REMARK 924 INTRA-LIGAND FREE ENERGY PREDICTED BY IDOCK:   -1.23 KCAL/MOL
REMARK 927      BINDING AFFINITY PREDICTED BY RF-SCORE:    0.00 PKD
ROOT
HETATM    1  C   UNL     1      -6.246   3.643  62.515  1.00  0.00    -0.017 C  
HETATM    2  C   UNL     1      -6.378   4.562  63.716  1.00  0.00    -0.026 C  
ENDROOT
BRANCH   2   3
HETATM    3  C   UNL     1      -7.537   4.152  64.627  1.00  0.00    -0.077 C  
BRANCH   3   4
HETATM    4  C   UNL     1      -8.497   5.325  64.818  1.00  0.00    -0.149 C  
BRANCH   4   5
HETATM    5  C   UNL     1      -7.789   6.614  65.238  1.00  0.00    -0.110 C  
BRANCH   5   6
HETATM    6  C   UNL     1      -8.826   7.706  65.527  1.00  0.00    -0.029 C  
BRANCH   6   7
HETATM    7  C   UNL     1      -8.319   9.096  65.169  1.00  0.00    -0.160 C  
BRANCH   7   8
HETATM    8  C   UNL     1      -9.452  10.057  64.801  1.00  0.00    -0.304 C  
HETATM    9  O   UNL     1      -9.959  10.092  63.682  1.00  0.00    -0.017 OA 
BRANCH   8  10
HETATM   10  C   UNL     1      -9.921  10.943  65.937  1.00  0.00    -0.294 C  
BRANCH  10  11
HETATM   11  C   UNL     1     -10.622  10.266  67.123  1.00  0.00    -0.320 C  
BRANCH  11  12
HETATM   12  C   UNL     1      -9.880  10.572  68.451  1.00  0.00    -0.171 C  
HETATM   13  C   UNL     1      -9.394   9.285  69.136  1.00  0.00    -0.157 C  
HETATM   14  O   UNL     1     -10.424   8.620  69.848  1.00  0.00    -0.209 OA 
HETATM   15  C   UNL     1      -8.341   9.761  70.102  1.00  0.00    -0.201 C  
HETATM   16  H   UNL     1     -10.123   7.824  70.272  1.00  0.00     0.000 HD 
HETATM   17  C   UNL     1      -7.578  10.814  69.326  1.00  0.00    -0.129 C  
HETATM   18  O   UNL     1      -7.014  11.719  70.256  1.00  0.00    -0.386 OA 
HETATM   19  C   UNL     1      -8.587  11.440  68.317  1.00  0.00    -0.156 C  
HETATM   20  H   UNL     1      -6.535  12.380  69.769  1.00  0.00     0.000 HD 
BRANCH  19  21
HETATM   21  C   UNL     1      -8.864  12.944  68.509  1.00  0.00    -0.044 C  
BRANCH  21  22
HETATM   22  C   UNL     1      -8.064  13.845  67.601  1.00  0.00    -0.183 C  
HETATM   23  C   UNL     1      -8.460  14.954  66.960  1.00  0.00    -0.260 C  
BRANCH  23  24
HETATM   24  C   UNL     1      -9.838  15.545  66.954  1.00  0.00    -0.245 C  
BRANCH  24  25
HETATM   25  C   UNL     1     -10.934  14.478  66.970  1.00  0.00    -0.312 C  
BRANCH  25  26
HETATM   26  C   UNL     1     -12.017  14.707  65.912  1.00  0.00    -0.242 C  
HETATM   27  C   UNL     1     -11.616  14.122  64.575  1.00  0.00    -0.389 C  
HETATM   28  O   UNL     1     -10.574  13.541  64.339  1.00  0.00    -0.419 OA 
HETATM   29  O   UNL     1     -12.571  14.307  63.633  1.00  0.00    -0.831 OA 
ENDBRANCH  25  26
ENDBRANCH  24  25
ENDBRANCH  23  24
ENDBRANCH  21  22
ENDBRANCH  19  21
ENDBRANCH  11  12
ENDBRANCH  10  11
ENDBRANCH   8  10
ENDBRANCH   7   8
ENDBRANCH   6   7
ENDBRANCH   5   6
ENDBRANCH   4   5
ENDBRANCH   3   4
ENDBRANCH   2   3
TORSDOF 14
ENDMDL
MODEL      378
REMARK 921   NORMALIZED FREE ENERGY PREDICTED BY IDOCK:   -2.24 KCAL/MOL
REMARK 922        TOTAL FREE ENERGY PREDICTED BY IDOCK:   -7.04 KCAL/MOL
REMARK 923 INTER-LIGAND FREE ENERGY PREDICTED BY IDOCK:   -5.05 KCAL/MOL
REMARK 924 INTRA-LIGAND FREE ENERGY PREDICTED BY IDOCK:   -1.99 KCAL/MOL
REMARK 927      BINDING AFFINITY PREDICTED BY RF-SCORE:    0.00 PKD
ROOT
HETATM    1  C   UNL     1      -9.450   8.310  71.255  1.00  0.00    -0.219 C  
HETATM    2  C   UNL     1      -8.323   7.399  70.803  1.00  0.00    -0.119 C  
ENDROOT
BRANCH   2   3
HETATM    3  C   UNL     1      -8.554   6.860  69.390  1.00  0.00    -0.133 C  
BRANCH   3   4
HETATM    4  C   UNL     1      -7.382   7.236  68.484  1.00  0.00    -0.100 C  
BRANCH   4   5
HETATM    5  C   UNL     1      -6.614   8.462  68.980  1.00  0.00    -0.048 C  
BRANCH   5   6
HETATM    6  C   UNL     1      -6.884   9.654  68.053  1.00  0.00    -0.073 C  
BRANCH   6   7
HETATM    7  C   UNL     1      -7.829  10.671  68.677  1.00  0.00    -0.121 C  
BRANCH   7   8
HETATM    8  C   UNL     1      -9.216  10.657  68.031  1.00  0.00    -0.148 C  
HETATM    9  O   UNL     1      -9.746   9.630  67.614  1.00  0.00    -0.143 OA 
BRANCH   8  10
HETATM   10  C   UNL     1      -9.898  12.008  67.974  1.00  0.00    -0.199 C  
BRANCH  10  11
HETATM   11  C   UNL     1      -9.211  13.117  67.163  1.00  0.00    -0.227 C  
BRANCH  11  12
HETATM   12  C   UNL     1     -10.261  14.071  66.534  1.00  0.00    -0.279 C  
HETATM   13  C   UNL     1     -10.501  15.307  67.415  1.00  0.00    -0.270 C  
HETATM   14  O   UNL     1     -11.371  15.045  68.503  1.00  0.00    -0.274 OA 
HETATM   15  C   UNL     1     -11.147  16.300  66.484  1.00  0.00     0.120 C  
HETATM   16  H   UNL     1     -11.519  15.809  69.048  1.00  0.00     0.000 HD 
HETATM   17  C   UNL     1     -10.375  16.146  65.189  1.00  0.00    -0.171 C  
HETATM   18  O   UNL     1     -11.224  16.534  64.126  1.00  0.00    -1.355 OA 
HETATM   19  C   UNL     1      -9.881  14.669  65.141  1.00  0.00    -0.156 C  
HETATM   20  H   UNL     1     -10.741  16.437  63.314  1.00  0.00     0.000 HD 
BRANCH  19  21
HETATM   21  C   UNL     1     -10.428  13.829  63.969  1.00  0.00     0.423 C  
BRANCH  21  22
HETATM   22  C   UNL     1     -11.619  12.973  64.319  1.00  0.00    -0.437 C  
HETATM   23  C   UNL     1     -11.660  11.658  64.577  1.00  0.00    -0.231 C  
BRANCH  23  24
HETATM   24  C   UNL     1     -10.512  10.696  64.526  1.00  0.00    -0.266 C  
BRANCH  24  25
HETATM   25  C   UNL     1      -9.798  10.706  63.173  1.00  0.00    -0.351 C  
BRANCH  25  26
HETATM   26  C   UNL     1      -8.306  11.031  63.278  1.00  0.00     0.133 C  
HETATM   27  C   UNL     1      -7.560   9.963  64.049  1.00  0.00    -0.138 C  
HETATM   28  O   UNL     1      -8.055   8.964  64.536  1.00  0.00    -0.133 OA 
HETATM   29  O   UNL     1      -6.236  10.233  64.139  1.00  0.00    -0.133 OA 
ENDBRANCH  25  26
ENDBRANCH  24  25
ENDBRANCH  23  24
ENDBRANCH  21  22
ENDBRANCH  19  21
ENDBRANCH  11  12
ENDBRANCH  10  11
ENDBRANCH   8  10
ENDBRANCH   7   8
ENDBRANCH   6   7
ENDBRANCH   5   6
ENDBRANCH   4   5
ENDBRANCH   3   4
ENDBRANCH   2   3
TORSDOF 14
ENDMDL
MODEL      379
REMARK 921   NORMALIZED FREE ENERGY PREDICTED BY IDOCK:   -2.24 KCAL/MOL
REMARK 922        TOTAL FREE ENERGY PREDICTED BY IDOCK:   -7.03 KCAL/MOL
REMARK 923 INTER-LIGAND FREE ENERGY PREDICTED BY IDOCK:   -6.31 KCAL/MOL
REMARK 924 INTRA-LIGAND FREE ENERGY PREDICTED BY IDOCK:   -0.72 KCAL/MOL
REMARK 927      BINDING AFFINITY PREDICTED BY RF-SCORE:    0.00 PKD
ROOT
HETATM    1  C   UNL     1      -9.182   8.920  71.413  1.00  0.00    -0.328 C  
HETATM    2  C   UNL     1      -7.775   8.489  71.040  1.00  0.00    -0.104 C  
ENDROOT
BRANCH   2   3
HETATM    3  C   UNL     1      -7.602   8.345  69.527  1.00  0.00    -0.090 C  
BRANCH   3   4
HETATM    4  C   UNL     1      -6.314   9.033  69.075  1.00  0.00    -0.043 C  
BRANCH   4   5
HETATM    5  C   UNL     1      -5.863  10.140  70.029  1.00  0.00    -0.053 C  
BRANCH   5   6
HETATM    6  C   UNL     1      -5.559  11.417  69.236  1.00  0.00    -0.049 C  
BRANCH   6   7
HETATM    7  C   UNL     1      -6.074  12.669  69.933  1.00  0.00    -0.125 C  
BRANCH   7   8
HETATM    8  C   UNL     1      -7.062  13.457  69.071  1.00  0.00    -0.053 C  
HETATM    9  O   UNL     1      -7.936  12.917  68.396  1.00  0.00    -0.146 OA 
BRANCH   8  10
HETATM   10  C   UNL     1      -6.897  14.961  69.138  1.00  0.00    -0.132 C  
BRANCH  10  11
HETATM   11  C   UNL     1      -7.293  15.776  67.898  1.00  0.00    -0.151 C  
BRANCH  11  12
HETATM   12  C   UNL     1      -8.006  17.092  68.307  1.00  0.00    -0.236 C  
HETATM   13  C   UNL     1      -7.080  18.309  68.147  1.00  0.00    -0.236 C  
HETATM   14  O   UNL     1      -6.170  18.450  69.224  1.00  0.00    -0.235 OA 
HETATM   15  C   UNL     1      -8.022  19.484  68.127  1.00  0.00    -0.353 C  
HETATM   16  H   UNL     1      -5.597  19.202  69.126  1.00  0.00     0.000 HD 
HETATM   17  C   UNL     1      -9.185  19.010  67.279  1.00  0.00    -0.286 C  
HETATM   18  O   UNL     1     -10.336  19.731  67.675  1.00  0.00    -0.410 OA 
HETATM   19  C   UNL     1      -9.269  17.466  67.465  1.00  0.00    -0.233 C  
HETATM   20  H   UNL     1     -11.066  19.434  67.143  1.00  0.00     0.000 HD 
BRANCH  19  21
HETATM   21  C   UNL     1     -10.576  16.949  68.100  1.00  0.00    -0.360 C  
BRANCH  21  22
HETATM   22  C   UNL     1     -10.382  16.172  69.378  1.00  0.00    -0.277 C  
HETATM   23  C   UNL     1     -10.764  14.919  69.663  1.00  0.00    -0.245 C  
BRANCH  23  24
HETATM   24  C   UNL     1     -11.537  13.991  68.776  1.00  0.00    -0.366 C  
BRANCH  24  25
HETATM   25  C   UNL     1     -12.075  14.688  67.524  1.00  0.00    -0.212 C  
BRANCH  25  26
HETATM   26  C   UNL     1     -11.243  14.410  66.270  1.00  0.00    -0.338 C  
HETATM   27  C   UNL     1     -11.538  13.038  65.704  1.00  0.00    -0.354 C  
HETATM   28  O   UNL     1     -12.328  12.235  66.165  1.00  0.00    -0.588 OA 
HETATM   29  O   UNL     1     -10.815  12.783  64.587  1.00  0.00    -0.302 OA 
ENDBRANCH  25  26
ENDBRANCH  24  25
ENDBRANCH  23  24
ENDBRANCH  21  22
ENDBRANCH  19  21
ENDBRANCH  11  12
ENDBRANCH  10  11
ENDBRANCH   8  10
ENDBRANCH   7   8
ENDBRANCH   6   7
ENDBRANCH   5   6
ENDBRANCH   4   5
ENDBRANCH   3   4
ENDBRANCH   2   3
TORSDOF 14
ENDMDL
MODEL      380
REMARK 921   NORMALIZED FREE ENERGY PREDICTED BY IDOCK:   -2.23 KCAL/MOL
REMARK 922        TOTAL FREE ENERGY PREDICTED BY IDOCK:   -7.01 KCAL/MOL
REMARK 923 INTER-LIGAND FREE ENERGY PREDICTED BY IDOCK:   -5.03 KCAL/MOL
REMARK 924 INTRA-LIGAND FREE ENERGY PREDICTED BY IDOCK:   -1.98 KCAL/MOL
REMARK 927      BINDING AFFINITY PREDICTED BY RF-SCORE:    0.00 PKD
ROOT
HETATM    1  C   UNL     1      -8.846  16.723  68.050  1.00  0.00    -0.216 C  
HETATM    2  C   UNL     1      -7.451  16.775  68.645  1.00  0.00    -0.219 C  
ENDROOT
BRANCH   2   3
HETATM    3  C   UNL     1      -6.878  15.377  68.886  1.00  0.00    -0.124 C  
BRANCH   3   4
HETATM    4  C   UNL     1      -7.766  14.322  68.226  1.00  0.00    -0.136 C  
BRANCH   4   5
HETATM    5  C   UNL     1      -7.004  13.048  67.855  1.00  0.00    -0.127 C  
BRANCH   5   6
HETATM    6  C   UNL     1      -7.985  11.877  67.725  1.00  0.00    -0.144 C  
BRANCH   6   7
HETATM    7  C   UNL     1      -8.063  11.043  68.996  1.00  0.00    -0.105 C  
BRANCH   7   8
HETATM    8  C   UNL     1      -8.085   9.539  68.711  1.00  0.00    -0.096 C  
HETATM    9  O   UNL     1      -7.309   8.749  69.242  1.00  0.00    -0.068 OA 
BRANCH   8  10
HETATM   10  C   UNL     1      -9.162   9.097  67.741  1.00  0.00    -0.145 C  
BRANCH  10  11
HETATM   11  C   UNL     1     -10.624   9.236  68.191  1.00  0.00    -0.248 C  
BRANCH  11  12
HETATM   12  C   UNL     1     -10.743   9.081  69.731  1.00  0.00    -0.233 C  
HETATM   13  C   UNL     1     -11.699  10.124  70.331  1.00  0.00    -0.308 C  
HETATM   14  O   UNL     1     -11.092  11.396  70.492  1.00  0.00    -0.310 OA 
HETATM   15  C   UNL     1     -12.052   9.561  71.683  1.00  0.00    -0.474 C  
HETATM   16  H   UNL     1     -11.682  12.041  70.863  1.00  0.00     0.000 HD 
HETATM   17  C   UNL     1     -12.244   8.080  71.426  1.00  0.00    -0.309 C  
HETATM   18  O   UNL     1     -11.975   7.390  72.631  1.00  0.00    -0.512 OA 
HETATM   19  C   UNL     1     -11.316   7.714  70.229  1.00  0.00    -0.197 C  
HETATM   20  H   UNL     1     -12.095   6.461  72.471  1.00  0.00     0.000 HD 
BRANCH  19  21
HETATM   21  C   UNL     1     -10.207   6.690  70.543  1.00  0.00    -0.215 C  
BRANCH  21  22
HETATM   22  C   UNL     1      -9.788   5.846  69.365  1.00  0.00    -0.207 C  
HETATM   23  C   UNL     1      -8.620   5.223  69.155  1.00  0.00    -0.102 C  
BRANCH  23  24
HETATM   24  C   UNL     1      -7.408   5.261  70.037  1.00  0.00    -0.064 C  
BRANCH  24  25
HETATM   25  C   UNL     1      -7.301   4.030  70.940  1.00  0.00    -0.037 C  
BRANCH  25  26
HETATM   26  C   UNL     1      -7.589   4.331  72.412  1.00  0.00    -0.074 C  
HETATM   27  C   UNL     1      -8.986   3.896  72.801  1.00  0.00    -0.104 C  
HETATM   28  O   UNL     1      -9.798   3.374  72.062  1.00  0.00    -0.154 OA 
HETATM   29  O   UNL     1      -9.250   4.147  74.106  1.00  0.00    -0.102 OA 
ENDBRANCH  25  26
ENDBRANCH  24  25
ENDBRANCH  23  24
ENDBRANCH  21  22
ENDBRANCH  19  21
ENDBRANCH  11  12
ENDBRANCH  10  11
ENDBRANCH   8  10
ENDBRANCH   7   8
ENDBRANCH   6   7
ENDBRANCH   5   6
ENDBRANCH   4   5
ENDBRANCH   3   4
ENDBRANCH   2   3
TORSDOF 14
ENDMDL
MODEL      381
REMARK 921   NORMALIZED FREE ENERGY PREDICTED BY IDOCK:   -2.23 KCAL/MOL
REMARK 922        TOTAL FREE ENERGY PREDICTED BY IDOCK:   -7.00 KCAL/MOL
REMARK 923 INTER-LIGAND FREE ENERGY PREDICTED BY IDOCK:   -5.36 KCAL/MOL
REMARK 924 INTRA-LIGAND FREE ENERGY PREDICTED BY IDOCK:   -1.64 KCAL/MOL
REMARK 927      BINDING AFFINITY PREDICTED BY RF-SCORE:    0.00 PKD
ROOT
HETATM    1  C   UNL     1      -9.662   3.752  69.035  1.00  0.00    -0.094 C  
HETATM    2  C   UNL     1      -8.748   3.508  70.222  1.00  0.00    -0.120 C  
ENDROOT
BRANCH   2   3
HETATM    3  C   UNL     1      -9.146   4.351  71.435  1.00  0.00    -0.176 C  
BRANCH   3   4
HETATM    4  C   UNL     1     -10.461   5.081  71.160  1.00  0.00    -0.205 C  
BRANCH   4   5
HETATM    5  C   UNL     1     -10.297   6.601  71.092  1.00  0.00    -0.232 C  
BRANCH   5   6
HETATM    6  C   UNL     1      -8.867   6.987  71.488  1.00  0.00    -0.128 C  
BRANCH   6   7
HETATM    7  C   UNL     1      -8.068   7.531  70.312  1.00  0.00    -0.112 C  
BRANCH   7   8
HETATM    8  C   UNL     1      -8.958   7.947  69.139  1.00  0.00    -0.145 C  
HETATM    9  O   UNL     1      -9.340   7.157  68.279  1.00  0.00    -0.132 OA 
BRANCH   8  10
HETATM   10  C   UNL     1      -9.359   9.408  69.140  1.00  0.00    -0.159 C  
BRANCH  10  11
HETATM   11  C   UNL     1      -8.281  10.440  69.506  1.00  0.00    -0.137 C  
BRANCH  11  12
HETATM   12  C   UNL     1      -7.768  11.175  68.240  1.00  0.00    -0.116 C  
HETATM   13  C   UNL     1      -7.056  12.489  68.600  1.00  0.00    -0.100 C  
HETATM   14  O   UNL     1      -7.961  13.548  68.865  1.00  0.00    -0.317 OA 
HETATM   15  C   UNL     1      -6.248  12.814  67.371  1.00  0.00    -0.133 C  
HETATM   16  H   UNL     1      -7.521  14.360  69.088  1.00  0.00     0.000 HD 
HETATM   17  C   UNL     1      -5.688  11.476  66.933  1.00  0.00    -0.131 C  
HETATM   18  O   UNL     1      -5.451  11.537  65.540  1.00  0.00    -0.490 OA 
HETATM   19  C   UNL     1      -6.715  10.396  67.387  1.00  0.00    -0.072 C  
HETATM   20  H   UNL     1      -5.100  10.698  65.265  1.00  0.00     0.000 HD 
BRANCH  19  21
HETATM   21  C   UNL     1      -7.362   9.582  66.249  1.00  0.00    -0.093 C  
BRANCH  21  22
HETATM   22  C   UNL     1      -7.857  10.414  65.093  1.00  0.00    -0.122 C  
HETATM   23  C   UNL     1      -9.108  10.816  64.826  1.00  0.00    -0.222 C  
BRANCH  23  24
HETATM   24  C   UNL     1     -10.345  10.483  65.603  1.00  0.00    -0.274 C  
BRANCH  24  25
HETATM   25  C   UNL     1     -10.885  11.680  66.389  1.00  0.00    -0.333 C  
BRANCH  25  26
HETATM   26  C   UNL     1     -10.118  12.977  66.118  1.00  0.00    -0.287 C  
HETATM   27  C   UNL     1     -11.000  14.191  66.312  1.00  0.00    -0.303 C  
HETATM   28  O   UNL     1     -12.171  14.172  66.638  1.00  0.00    -0.448 OA 
HETATM   29  O   UNL     1     -10.329  15.347  66.086  1.00  0.00    -0.283 OA 
ENDBRANCH  25  26
ENDBRANCH  24  25
ENDBRANCH  23  24
ENDBRANCH  21  22
ENDBRANCH  19  21
ENDBRANCH  11  12
ENDBRANCH  10  11
ENDBRANCH   8  10
ENDBRANCH   7   8
ENDBRANCH   6   7
ENDBRANCH   5   6
ENDBRANCH   4   5
ENDBRANCH   3   4
ENDBRANCH   2   3
TORSDOF 14
ENDMDL
MODEL      382
REMARK 921   NORMALIZED FREE ENERGY PREDICTED BY IDOCK:   -2.21 KCAL/MOL
REMARK 922        TOTAL FREE ENERGY PREDICTED BY IDOCK:   -6.98 KCAL/MOL
REMARK 923 INTER-LIGAND FREE ENERGY PREDICTED BY IDOCK:   -5.72 KCAL/MOL
REMARK 924 INTRA-LIGAND FREE ENERGY PREDICTED BY IDOCK:   -1.26 KCAL/MOL
REMARK 927      BINDING AFFINITY PREDICTED BY RF-SCORE:    0.00 PKD
ROOT
HETATM    1  C   UNL     1      -8.791   8.888  62.331  1.00  0.00    -0.134 C  
HETATM    2  C   UNL     1      -7.852  10.043  62.627  1.00  0.00    -0.138 C  
ENDROOT
BRANCH   2   3
HETATM    3  C   UNL     1      -8.612  11.336  62.933  1.00  0.00    -0.038 C  
BRANCH   3   4
HETATM    4  C   UNL     1     -10.074  11.025  63.251  1.00  0.00    -0.400 C  
BRANCH   4   5
HETATM    5  C   UNL     1     -10.323  10.782  64.741  1.00  0.00    -0.380 C  
BRANCH   5   6
HETATM    6  C   UNL     1      -9.196  11.416  65.565  1.00  0.00    -0.193 C  
BRANCH   6   7
HETATM    7  C   UNL     1      -8.921  10.652  66.853  1.00  0.00    -0.147 C  
BRANCH   7   8
HETATM    8  C   UNL     1      -7.661  11.145  67.569  1.00  0.00    -0.108 C  
HETATM    9  O   UNL     1      -6.636  10.473  67.652  1.00  0.00    -0.064 OA 
BRANCH   8  10
HETATM   10  C   UNL     1      -7.768  12.543  68.142  1.00  0.00    -0.141 C  
BRANCH  10  11
HETATM   11  C   UNL     1      -7.148  13.692  67.332  1.00  0.00    -0.097 C  
BRANCH  11  12
HETATM   12  C   UNL     1      -7.245  15.031  68.111  1.00  0.00    -0.122 C  
HETATM   13  C   UNL     1      -6.278  15.059  69.306  1.00  0.00    -0.111 C  
HETATM   14  O   UNL     1      -6.775  14.352  70.431  1.00  0.00    -0.372 OA 
HETATM   15  C   UNL     1      -6.160  16.523  69.645  1.00  0.00    -0.213 C  
HETATM   16  H   UNL     1      -6.177  14.370  71.169  1.00  0.00     0.000 HD 
HETATM   17  C   UNL     1      -6.082  17.208  68.295  1.00  0.00    -0.143 C  
HETATM   18  O   UNL     1      -6.570  18.527  68.447  1.00  0.00    -0.215 OA 
HETATM   19  C   UNL     1      -6.878  16.314  67.298  1.00  0.00    -0.230 C  
HETATM   20  H   UNL     1      -6.522  18.957  67.601  1.00  0.00     0.000 HD 
BRANCH  19  21
HETATM   21  C   UNL     1      -8.112  16.979  66.657  1.00  0.00    -0.297 C  
BRANCH  21  22
HETATM   22  C   UNL     1      -9.109  17.526  67.647  1.00  0.00    -0.243 C  
HETATM   23  C   UNL     1     -10.293  17.014  68.014  1.00  0.00    -0.341 C  
BRANCH  23  24
HETATM   24  C   UNL     1     -10.942  15.774  67.477  1.00  0.00    -0.293 C  
BRANCH  24  25
HETATM   25  C   UNL     1     -11.915  15.142  68.474  1.00  0.00    -0.243 C  
BRANCH  25  26
HETATM   26  C   UNL     1     -11.379  13.859  69.114  1.00  0.00    -0.331 C  
HETATM   27  C   UNL     1     -11.789  12.635  68.324  1.00  0.00    -0.306 C  
HETATM   28  O   UNL     1     -12.459  12.637  67.309  1.00  0.00    -0.203 OA 
HETATM   29  O   UNL     1     -11.311  11.493  68.874  1.00  0.00    -0.219 OA 
ENDBRANCH  25  26
ENDBRANCH  24  25
ENDBRANCH  23  24
ENDBRANCH  21  22
ENDBRANCH  19  21
ENDBRANCH  11  12
ENDBRANCH  10  11
ENDBRANCH   8  10
ENDBRANCH   7   8
ENDBRANCH   6   7
ENDBRANCH   5   6
ENDBRANCH   4   5
ENDBRANCH   3   4
ENDBRANCH   2   3
TORSDOF 14
ENDMDL
MODEL      383
REMARK 921   NORMALIZED FREE ENERGY PREDICTED BY IDOCK:   -2.20 KCAL/MOL
REMARK 922        TOTAL FREE ENERGY PREDICTED BY IDOCK:   -6.96 KCAL/MOL
REMARK 923 INTER-LIGAND FREE ENERGY PREDICTED BY IDOCK:   -6.33 KCAL/MOL
REMARK 924 INTRA-LIGAND FREE ENERGY PREDICTED BY IDOCK:   -0.64 KCAL/MOL
REMARK 927      BINDING AFFINITY PREDICTED BY RF-SCORE:    0.00 PKD
ROOT
HETATM    1  C   UNL     1     -10.721  19.463  65.896  1.00  0.00    -0.501 C  
HETATM    2  C   UNL     1      -9.381  19.925  66.440  1.00  0.00    -0.493 C  
ENDROOT
BRANCH   2   3
HETATM    3  C   UNL     1      -9.215  19.579  67.922  1.00  0.00    -0.398 C  
BRANCH   3   4
HETATM    4  C   UNL     1      -9.542  18.105  68.159  1.00  0.00    -0.312 C  
BRANCH   4   5
HETATM    5  C   UNL     1      -8.323  17.284  68.583  1.00  0.00    -0.255 C  
BRANCH   5   6
HETATM    6  C   UNL     1      -8.781  15.991  69.268  1.00  0.00    -0.224 C  
BRANCH   6   7
HETATM    7  C   UNL     1      -7.630  15.026  69.514  1.00  0.00    -0.181 C  
BRANCH   7   8
HETATM    8  C   UNL     1      -7.437  14.037  68.362  1.00  0.00    -0.119 C  
HETATM    9  O   UNL     1      -6.501  14.111  67.570  1.00  0.00    -0.264 OA 
BRANCH   8  10
HETATM   10  C   UNL     1      -8.479  12.939  68.293  1.00  0.00    -0.161 C  
BRANCH  10  11
HETATM   11  C   UNL     1      -9.712  13.184  67.409  1.00  0.00    -0.220 C  
BRANCH  11  12
HETATM   12  C   UNL     1     -10.309  11.841  66.911  1.00  0.00    -0.247 C  
HETATM   13  C   UNL     1      -9.315  11.077  66.022  1.00  0.00    -0.201 C  
HETATM   14  O   UNL     1      -9.278  11.570  64.692  1.00  0.00    -0.399 OA 
HETATM   15  C   UNL     1      -9.839   9.665  66.019  1.00  0.00    -0.345 C  
HETATM   16  H   UNL     1      -8.664  11.098  64.142  1.00  0.00     0.000 HD 
HETATM   17  C   UNL     1     -10.263   9.427  67.454  1.00  0.00    -0.239 C  
HETATM   18  O   UNL     1     -11.278   8.441  67.452  1.00  0.00    -0.343 OA 
HETATM   19  C   UNL     1     -10.683  10.813  68.028  1.00  0.00    -0.270 C  
HETATM   20  H   UNL     1     -11.545   8.292  68.351  1.00  0.00     0.000 HD 
BRANCH  19  21
HETATM   21  C   UNL     1     -12.157  10.927  68.464  1.00  0.00     0.004 C  
BRANCH  21  22
HETATM   22  C   UNL     1     -12.450  10.345  69.825  1.00  0.00    -0.051 C  
HETATM   23  C   UNL     1     -11.586   9.953  70.772  1.00  0.00    -0.430 C  
BRANCH  23  24
HETATM   24  C   UNL     1     -10.090   9.952  70.680  1.00  0.00    -0.146 C  
BRANCH  24  25
HETATM   25  C   UNL     1      -9.494   8.552  70.846  1.00  0.00    -0.221 C  
BRANCH  25  26
HETATM   26  C   UNL     1      -8.004   8.566  71.195  1.00  0.00    -0.144 C  
HETATM   27  C   UNL     1      -7.151   8.224  69.994  1.00  0.00    -0.043 C  
HETATM   28  O   UNL     1      -7.565   7.964  68.880  1.00  0.00    -0.096 OA 
HETATM   29  O   UNL     1      -5.828   8.244  70.287  1.00  0.00    -0.028 OA 
ENDBRANCH  25  26
ENDBRANCH  24  25
ENDBRANCH  23  24
ENDBRANCH  21  22
ENDBRANCH  19  21
ENDBRANCH  11  12
ENDBRANCH  10  11
ENDBRANCH   8  10
ENDBRANCH   7   8
ENDBRANCH   6   7
ENDBRANCH   5   6
ENDBRANCH   4   5
ENDBRANCH   3   4
ENDBRANCH   2   3
TORSDOF 14
ENDMDL
MODEL      384
REMARK 921   NORMALIZED FREE ENERGY PREDICTED BY IDOCK:   -2.18 KCAL/MOL
REMARK 922        TOTAL FREE ENERGY PREDICTED BY IDOCK:   -6.93 KCAL/MOL
REMARK 923 INTER-LIGAND FREE ENERGY PREDICTED BY IDOCK:   -5.08 KCAL/MOL
REMARK 924 INTRA-LIGAND FREE ENERGY PREDICTED BY IDOCK:   -1.85 KCAL/MOL
REMARK 927      BINDING AFFINITY PREDICTED BY RF-SCORE:    0.00 PKD
ROOT
HETATM    1  C   UNL     1      -9.094  16.658  68.474  1.00  0.00    -0.234 C  
HETATM    2  C   UNL     1      -7.650  16.605  68.941  1.00  0.00    -0.240 C  
ENDROOT
BRANCH   2   3
HETATM    3  C   UNL     1      -7.097  15.178  68.931  1.00  0.00    -0.125 C  
BRANCH   3   4
HETATM    4  C   UNL     1      -8.068  14.242  68.214  1.00  0.00    -0.143 C  
BRANCH   4   5
HETATM    5  C   UNL     1      -7.361  13.133  67.432  1.00  0.00    -0.119 C  
BRANCH   5   6
HETATM    6  C   UNL     1      -8.338  11.983  67.163  1.00  0.00    -0.181 C  
BRANCH   6   7
HETATM    7  C   UNL     1      -7.976  10.722  67.934  1.00  0.00    -0.110 C  
BRANCH   7   8
HETATM    8  C   UNL     1      -8.243   9.446  67.132  1.00  0.00    -0.113 C  
HETATM    9  O   UNL     1      -7.380   8.598  66.922  1.00  0.00    -0.078 OA 
BRANCH   8  10
HETATM   10  C   UNL     1      -9.670   9.297  66.643  1.00  0.00    -0.281 C  
BRANCH  10  11
HETATM   11  C   UNL     1     -10.775   9.175  67.702  1.00  0.00    -0.257 C  
BRANCH  11  12
HETATM   12  C   UNL     1     -10.326   8.246  68.862  1.00  0.00    -0.230 C  
HETATM   13  C   UNL     1     -10.763   8.799  70.229  1.00  0.00    -0.227 C  
HETATM   14  O   UNL     1      -9.909   9.828  70.702  1.00  0.00    -0.316 OA 
HETATM   15  C   UNL     1     -10.675   7.610  71.149  1.00  0.00    -0.242 C  
HETATM   16  H   UNL     1     -10.179  10.170  71.547  1.00  0.00     0.000 HD 
HETATM   17  C   UNL     1     -11.229   6.465  70.325  1.00  0.00    -0.382 C  
HETATM   18  O   UNL     1     -10.659   5.264  70.808  1.00  0.00    -0.245 OA 
HETATM   19  C   UNL     1     -10.915   6.799  68.835  1.00  0.00    -0.272 C  
HETATM   20  H   UNL     1     -11.005   4.546  70.291  1.00  0.00     0.000 HD 
BRANCH  19  21
HETATM   21  C   UNL     1      -9.989   5.798  68.117  1.00  0.00    -0.181 C  
BRANCH  21  22
HETATM   22  C   UNL     1     -10.495   5.336  66.773  1.00  0.00    -0.330 C  
HETATM   23  C   UNL     1      -9.822   4.722  65.790  1.00  0.00    -0.214 C  
BRANCH  23  24
HETATM   24  C   UNL     1      -8.360   4.389  65.773  1.00  0.00    -0.113 C  
BRANCH  24  25
HETATM   25  C   UNL     1      -8.069   2.996  66.337  1.00  0.00    -0.085 C  
BRANCH  25  26
HETATM   26  C   UNL     1      -7.539   3.023  67.773  1.00  0.00    -0.057 C  
HETATM   27  C   UNL     1      -8.532   2.416  68.740  1.00  0.00    -0.067 C  
HETATM   28  O   UNL     1      -9.620   1.959  68.446  1.00  0.00    -0.198 OA 
HETATM   29  O   UNL     1      -8.070   2.423  70.013  1.00  0.00    -0.042 OA 
ENDBRANCH  25  26
ENDBRANCH  24  25
ENDBRANCH  23  24
ENDBRANCH  21  22
ENDBRANCH  19  21
ENDBRANCH  11  12
ENDBRANCH  10  11
ENDBRANCH   8  10
ENDBRANCH   7   8
ENDBRANCH   6   7
ENDBRANCH   5   6
ENDBRANCH   4   5
ENDBRANCH   3   4
ENDBRANCH   2   3
TORSDOF 14
ENDMDL
MODEL      385
REMARK 921   NORMALIZED FREE ENERGY PREDICTED BY IDOCK:   -2.17 KCAL/MOL
REMARK 922        TOTAL FREE ENERGY PREDICTED BY IDOCK:   -6.90 KCAL/MOL
REMARK 923 INTER-LIGAND FREE ENERGY PREDICTED BY IDOCK:   -5.41 KCAL/MOL
REMARK 924 INTRA-LIGAND FREE ENERGY PREDICTED BY IDOCK:   -1.50 KCAL/MOL
REMARK 927      BINDING AFFINITY PREDICTED BY RF-SCORE:    0.00 PKD
ROOT
HETATM    1  C   UNL     1      -9.746  10.801  65.981  1.00  0.00    -0.264 C  
HETATM    2  C   UNL     1      -9.049  11.292  67.237  1.00  0.00    -0.156 C  
ENDROOT
BRANCH   2   3
HETATM    3  C   UNL     1      -9.849  10.967  68.500  1.00  0.00    -0.188 C  
BRANCH   3   4
HETATM    4  C   UNL     1     -11.172  11.733  68.498  1.00  0.00    -0.306 C  
BRANCH   4   5
HETATM    5  C   UNL     1     -12.117  11.295  69.618  1.00  0.00    -0.391 C  
BRANCH   5   6
HETATM    6  C   UNL     1     -11.662   9.945  70.184  1.00  0.00    -0.239 C  
BRANCH   6   7
HETATM    7  C   UNL     1     -12.272   9.652  71.547  1.00  0.00    -0.483 C  
BRANCH   7   8
HETATM    8  C   UNL     1     -12.199   8.169  71.917  1.00  0.00    -0.331 C  
HETATM    9  O   UNL     1     -12.866   7.307  71.350  1.00  0.00    -0.366 OA 
BRANCH   8  10
HETATM   10  C   UNL     1     -11.212   7.842  73.019  1.00  0.00    -0.346 C  
BRANCH  10  11
HETATM   11  C   UNL     1      -9.719   7.839  72.658  1.00  0.00    -0.278 C  
BRANCH  11  12
HETATM   12  C   UNL     1      -9.087   6.448  72.935  1.00  0.00    -0.132 C  
HETATM   13  C   UNL     1      -8.147   6.488  74.150  1.00  0.00    -0.122 C  
HETATM   14  O   UNL     1      -6.870   7.021  73.838  1.00  0.00    -0.077 OA 
HETATM   15  C   UNL     1      -8.004   5.042  74.548  1.00  0.00    -0.095 C  
HETATM   16  H   UNL     1      -6.289   7.046  74.589  1.00  0.00     0.000 HD 
HETATM   17  C   UNL     1      -9.403   4.479  74.401  1.00  0.00    -0.117 C  
HETATM   18  O   UNL     1      -9.291   3.092  74.151  1.00  0.00    -0.081 OA 
HETATM   19  C   UNL     1     -10.096   5.305  73.276  1.00  0.00    -0.198 C  
HETATM   20  H   UNL     1     -10.168   2.738  74.058  1.00  0.00     0.000 HD 
BRANCH  19  21
HETATM   21  C   UNL     1     -10.517   4.498  72.031  1.00  0.00    -0.167 C  
BRANCH  21  22
HETATM   22  C   UNL     1      -9.627   4.698  70.830  1.00  0.00    -0.251 C  
HETATM   23  C   UNL     1      -9.274   3.808  69.891  1.00  0.00    -0.219 C  
BRANCH  23  24
HETATM   24  C   UNL     1      -9.649   2.358  69.841  1.00  0.00    -0.050 C  
BRANCH  24  25
HETATM   25  C   UNL     1      -9.164   1.671  68.562  1.00  0.00    -0.215 C  
BRANCH  25  26
HETATM   26  C   UNL     1      -9.305   2.545  67.314  1.00  0.00    -0.115 C  
HETATM   27  C   UNL     1      -7.967   3.097  66.872  1.00  0.00    -0.079 C  
HETATM   28  O   UNL     1      -6.900   2.892  67.418  1.00  0.00    -0.044 OA 
HETATM   29  O   UNL     1      -8.077   3.865  65.761  1.00  0.00    -0.096 OA 
ENDBRANCH  25  26
ENDBRANCH  24  25
ENDBRANCH  23  24
ENDBRANCH  21  22
ENDBRANCH  19  21
ENDBRANCH  11  12
ENDBRANCH  10  11
ENDBRANCH   8  10
ENDBRANCH   7   8
ENDBRANCH   6   7
ENDBRANCH   5   6
ENDBRANCH   4   5
ENDBRANCH   3   4
ENDBRANCH   2   3
TORSDOF 14
ENDMDL
MODEL      386
REMARK 921   NORMALIZED FREE ENERGY PREDICTED BY IDOCK:   -2.13 KCAL/MOL
REMARK 922        TOTAL FREE ENERGY PREDICTED BY IDOCK:   -6.83 KCAL/MOL
REMARK 923 INTER-LIGAND FREE ENERGY PREDICTED BY IDOCK:   -6.68 KCAL/MOL
REMARK 924 INTRA-LIGAND FREE ENERGY PREDICTED BY IDOCK:   -0.14 KCAL/MOL
REMARK 927      BINDING AFFINITY PREDICTED BY RF-SCORE:    0.00 PKD
ROOT
HETATM    1  C   UNL     1      -7.891  17.861  68.159  1.00  0.00    -0.266 C  
HETATM    2  C   UNL     1      -6.660  17.478  67.357  1.00  0.00    -0.180 C  
ENDROOT
BRANCH   2   3
HETATM    3  C   UNL     1      -6.541  15.962  67.180  1.00  0.00    -0.132 C  
BRANCH   3   4
HETATM    4  C   UNL     1      -7.519  15.244  68.109  1.00  0.00    -0.117 C  
BRANCH   4   5
HETATM    5  C   UNL     1      -6.934  13.970  68.722  1.00  0.00    -0.106 C  
BRANCH   5   6
HETATM    6  C   UNL     1      -7.869  12.786  68.448  1.00  0.00    -0.132 C  
BRANCH   6   7
HETATM    7  C   UNL     1      -7.256  11.456  68.862  1.00  0.00    -0.113 C  
BRANCH   7   8
HETATM    8  C   UNL     1      -7.897  10.266  68.143  1.00  0.00    -0.104 C  
HETATM    9  O   UNL     1      -7.305   9.601  67.297  1.00  0.00    -0.087 OA 
BRANCH   8  10
HETATM   10  C   UNL     1      -9.313   9.953  68.582  1.00  0.00    -0.149 C  
BRANCH  10  11
HETATM   11  C   UNL     1      -9.491   9.088  69.839  1.00  0.00    -0.186 C  
BRANCH  11  12
HETATM   12  C   UNL     1     -10.995   8.930  70.191  1.00  0.00    -0.245 C  
HETATM   13  C   UNL     1     -11.314   7.508  70.680  1.00  0.00    -0.281 C  
HETATM   14  O   UNL     1     -11.451   6.581  69.616  1.00  0.00    -0.499 OA 
HETATM   15  C   UNL     1     -12.633   7.655  71.392  1.00  0.00    -0.359 C  
HETATM   16  H   UNL     1     -11.648   5.702  69.918  1.00  0.00     0.000 HD 
HETATM   17  C   UNL     1     -12.496   8.954  72.159  1.00  0.00    -0.389 C  
HETATM   18  O   UNL     1     -13.792   9.488  72.348  1.00  0.00    -0.585 OA 
HETATM   19  C   UNL     1     -11.519   9.851  71.340  1.00  0.00    -0.393 C  
HETATM   20  H   UNL     1     -13.706  10.303  72.829  1.00  0.00     0.000 HD 
BRANCH  19  21
HETATM   21  C   UNL     1     -12.121  11.169  70.812  1.00  0.00    -0.458 C  
BRANCH  21  22
HETATM   22  C   UNL     1     -12.157  11.278  69.309  1.00  0.00    -0.372 C  
HETATM   23  C   UNL     1     -12.120  12.382  68.548  1.00  0.00    -0.126 C  
BRANCH  23  24
HETATM   24  C   UNL     1     -12.085  13.802  69.025  1.00  0.00    -0.359 C  
BRANCH  24  25
HETATM   25  C   UNL     1     -10.967  14.053  70.040  1.00  0.00     0.137 C  
BRANCH  25  26
HETATM   26  C   UNL     1     -10.761  15.535  70.359  1.00  0.00    -0.342 C  
HETATM   27  C   UNL     1     -10.663  16.365  69.098  1.00  0.00    -0.317 C  
HETATM   28  O   UNL     1     -10.734  15.938  67.961  1.00  0.00    -0.280 OA 
HETATM   29  O   UNL     1     -10.492  17.681  69.367  1.00  0.00    -0.242 OA 
ENDBRANCH  25  26
ENDBRANCH  24  25
ENDBRANCH  23  24
ENDBRANCH  21  22
ENDBRANCH  19  21
ENDBRANCH  11  12
ENDBRANCH  10  11
ENDBRANCH   8  10
ENDBRANCH   7   8
ENDBRANCH   6   7
ENDBRANCH   5   6
ENDBRANCH   4   5
ENDBRANCH   3   4
ENDBRANCH   2   3
TORSDOF 14
ENDMDL
MODEL      387
REMARK 921   NORMALIZED FREE ENERGY PREDICTED BY IDOCK:   -2.10 KCAL/MOL
REMARK 922        TOTAL FREE ENERGY PREDICTED BY IDOCK:   -6.78 KCAL/MOL
REMARK 923 INTER-LIGAND FREE ENERGY PREDICTED BY IDOCK:   -5.21 KCAL/MOL
REMARK 924 INTRA-LIGAND FREE ENERGY PREDICTED BY IDOCK:   -1.57 KCAL/MOL
REMARK 927      BINDING AFFINITY PREDICTED BY RF-SCORE:    0.00 PKD
ROOT
HETATM    1  C   UNL     1      -9.603  18.585  67.544  1.00  0.00    -0.303 C  
HETATM    2  C   UNL     1      -8.270  18.641  68.269  1.00  0.00    -0.349 C  
ENDROOT
BRANCH   2   3
HETATM    3  C   UNL     1      -7.838  17.265  68.778  1.00  0.00    -0.254 C  
BRANCH   3   4
HETATM    4  C   UNL     1      -8.687  16.172  68.130  1.00  0.00    -0.175 C  
BRANCH   4   5
HETATM    5  C   UNL     1      -8.112  14.769  68.335  1.00  0.00    -0.144 C  
BRANCH   5   6
HETATM    6  C   UNL     1      -9.112  13.720  67.834  1.00  0.00    -0.193 C  
BRANCH   6   7
HETATM    7  C   UNL     1      -8.689  12.301  68.187  1.00  0.00    -0.186 C  
BRANCH   7   8
HETATM    8  C   UNL     1      -8.717  11.363  66.979  1.00  0.00    -0.160 C  
HETATM    9  O   UNL     1      -7.711  11.071  66.338  1.00  0.00    -0.150 OA 
BRANCH   8  10
HETATM   10  C   UNL     1     -10.084  10.794  66.654  1.00  0.00    -0.265 C  
BRANCH  10  11
HETATM   11  C   UNL     1     -10.955  10.324  67.829  1.00  0.00    -0.360 C  
BRANCH  11  12
HETATM   12  C   UNL     1     -10.341   9.068  68.502  1.00  0.00    -0.233 C  
HETATM   13  C   UNL     1     -10.672   9.013  70.002  1.00  0.00    -0.229 C  
HETATM   14  O   UNL     1      -9.837   9.855  70.779  1.00  0.00    -0.334 OA 
HETATM   15  C   UNL     1     -10.426   7.575  70.378  1.00  0.00    -0.227 C  
HETATM   16  H   UNL     1     -10.041   9.821  71.707  1.00  0.00     0.000 HD 
HETATM   17  C   UNL     1     -10.991   6.788  69.213  1.00  0.00    -0.259 C  
HETATM   18  O   UNL     1     -10.308   5.551  69.150  1.00  0.00    -0.216 OA 
HETATM   19  C   UNL     1     -10.846   7.694  67.954  1.00  0.00    -0.105 C  
HETATM   20  H   UNL     1     -10.662   5.057  68.419  1.00  0.00     0.000 HD 
BRANCH  19  21
HETATM   21  C   UNL     1      -9.939   7.134  66.840  1.00  0.00    -0.293 C  
BRANCH  21  22
HETATM   22  C   UNL     1      -8.494   7.554  66.944  1.00  0.00    -0.122 C  
HETATM   23  C   UNL     1      -7.409   6.956  66.432  1.00  0.00    -0.073 C  
BRANCH  23  24
HETATM   24  C   UNL     1      -7.370   5.671  65.661  1.00  0.00    -0.073 C  
BRANCH  24  25
HETATM   25  C   UNL     1      -7.646   4.450  66.541  1.00  0.00    -0.086 C  
BRANCH  25  26
HETATM   26  C   UNL     1      -8.861   3.638  66.086  1.00  0.00    -0.127 C  
HETATM   27  C   UNL     1      -8.511   2.714  64.939  1.00  0.00    -0.095 C  
HETATM   28  O   UNL     1      -7.415   2.609  64.423  1.00  0.00    -0.064 OA 
HETATM   29  O   UNL     1      -9.576   1.982  64.534  1.00  0.00    -0.134 OA 
ENDBRANCH  25  26
ENDBRANCH  24  25
ENDBRANCH  23  24
ENDBRANCH  21  22
ENDBRANCH  19  21
ENDBRANCH  11  12
ENDBRANCH  10  11
ENDBRANCH   8  10
ENDBRANCH   7   8
ENDBRANCH   6   7
ENDBRANCH   5   6
ENDBRANCH   4   5
ENDBRANCH   3   4
ENDBRANCH   2   3
TORSDOF 14
ENDMDL
MODEL      388
REMARK 921   NORMALIZED FREE ENERGY PREDICTED BY IDOCK:   -2.09 KCAL/MOL
REMARK 922        TOTAL FREE ENERGY PREDICTED BY IDOCK:   -6.76 KCAL/MOL
REMARK 923 INTER-LIGAND FREE ENERGY PREDICTED BY IDOCK:   -6.07 KCAL/MOL
REMARK 924 INTRA-LIGAND FREE ENERGY PREDICTED BY IDOCK:   -0.70 KCAL/MOL
REMARK 927      BINDING AFFINITY PREDICTED BY RF-SCORE:    0.00 PKD
ROOT
HETATM    1  C   UNL     1      -7.476   5.173  71.295  1.00  0.00    -0.090 C  
HETATM    2  C   UNL     1      -6.374   4.138  71.157  1.00  0.00    -0.015 C  
ENDROOT
BRANCH   2   3
HETATM    3  C   UNL     1      -6.858   2.881  70.430  1.00  0.00    -0.033 C  
BRANCH   3   4
HETATM    4  C   UNL     1      -6.837   3.105  68.919  1.00  0.00    -0.044 C  
BRANCH   4   5
HETATM    5  C   UNL     1      -7.904   4.094  68.447  1.00  0.00    -0.073 C  
BRANCH   5   6
HETATM    6  C   UNL     1      -8.449   3.657  67.082  1.00  0.00    -0.103 C  
BRANCH   6   7
HETATM    7  C   UNL     1      -9.893   4.090  66.868  1.00  0.00    -0.157 C  
BRANCH   7   8
HETATM    8  C   UNL     1     -10.163   5.505  67.385  1.00  0.00    -0.209 C  
HETATM    9  O   UNL     1     -10.551   5.734  68.528  1.00  0.00    -0.222 OA 
BRANCH   8  10
HETATM   10  C   UNL     1      -9.884   6.607  66.383  1.00  0.00    -0.101 C  
BRANCH  10  11
HETATM   11  C   UNL     1     -10.019   8.058  66.867  1.00  0.00    -0.338 C  
BRANCH  11  12
HETATM   12  C   UNL     1      -8.861   8.933  66.317  1.00  0.00    -0.187 C  
HETATM   13  C   UNL     1      -7.574   8.114  66.132  1.00  0.00    -0.089 C  
HETATM   14  O   UNL     1      -6.869   7.920  67.347  1.00  0.00    -0.066 OA 
HETATM   15  C   UNL     1      -6.741   8.950  65.196  1.00  0.00    -0.072 C  
HETATM   16  H   UNL     1      -6.073   7.414  67.234  1.00  0.00     0.000 HD 
HETATM   17  C   UNL     1      -7.737   9.464  64.177  1.00  0.00    -0.117 C  
HETATM   18  O   UNL     1      -7.236  10.679  63.652  1.00  0.00    -0.346 OA 
HETATM   19  C   UNL     1      -9.107   9.571  64.911  1.00  0.00    -0.276 C  
HETATM   20  H   UNL     1      -7.861  11.002  63.013  1.00  0.00     0.000 HD 
BRANCH  19  21
HETATM   21  C   UNL     1      -9.696  10.993  65.004  1.00  0.00    -0.303 C  
BRANCH  21  22
HETATM   22  C   UNL     1     -10.729  11.308  63.951  1.00  0.00    -0.451 C  
HETATM   23  C   UNL     1     -11.288  12.489  63.653  1.00  0.00    -0.555 C  
BRANCH  23  24
HETATM   24  C   UNL     1     -11.050  13.797  64.345  1.00  0.00    -0.356 C  
BRANCH  24  25
HETATM   25  C   UNL     1     -12.310  14.338  65.025  1.00  0.00    -0.434 C  
BRANCH  25  26
HETATM   26  C   UNL     1     -12.534  13.767  66.427  1.00  0.00    -0.404 C  
HETATM   27  C   UNL     1     -11.814  14.583  67.478  1.00  0.00    -0.374 C  
HETATM   28  O   UNL     1     -11.134  15.570  67.268  1.00  0.00    -0.319 OA 
HETATM   29  O   UNL     1     -12.013  14.094  68.726  1.00  0.00    -0.334 OA 
ENDBRANCH  25  26
ENDBRANCH  24  25
ENDBRANCH  23  24
ENDBRANCH  21  22
ENDBRANCH  19  21
ENDBRANCH  11  12
ENDBRANCH  10  11
ENDBRANCH   8  10
ENDBRANCH   7   8
ENDBRANCH   6   7
ENDBRANCH   5   6
ENDBRANCH   4   5
ENDBRANCH   3   4
ENDBRANCH   2   3
TORSDOF 14
ENDMDL
MODEL      389
REMARK 921   NORMALIZED FREE ENERGY PREDICTED BY IDOCK:   -2.07 KCAL/MOL
REMARK 922        TOTAL FREE ENERGY PREDICTED BY IDOCK:   -6.72 KCAL/MOL
REMARK 923 INTER-LIGAND FREE ENERGY PREDICTED BY IDOCK:   -6.49 KCAL/MOL
REMARK 924 INTRA-LIGAND FREE ENERGY PREDICTED BY IDOCK:   -0.23 KCAL/MOL
REMARK 927      BINDING AFFINITY PREDICTED BY RF-SCORE:    0.00 PKD
ROOT
HETATM    1  C   UNL     1      -9.967   4.831  70.013  1.00  0.00    -0.314 C  
HETATM    2  C   UNL     1      -9.805   4.900  71.521  1.00  0.00    -0.247 C  
ENDROOT
BRANCH   2   3
HETATM    3  C   UNL     1     -10.776   5.897  72.156  1.00  0.00    -0.278 C  
BRANCH   3   4
HETATM    4  C   UNL     1     -11.869   6.277  71.158  1.00  0.00    -0.234 C  
BRANCH   4   5
HETATM    5  C   UNL     1     -11.846   7.760  70.783  1.00  0.00    -0.205 C  
BRANCH   5   6
HETATM    6  C   UNL     1     -10.893   8.517  71.716  1.00  0.00    -0.374 C  
BRANCH   6   7
HETATM    7  C   UNL     1      -9.618   8.955  71.009  1.00  0.00    -0.321 C  
BRANCH   7   8
HETATM    8  C   UNL     1      -9.839   9.239  69.522  1.00  0.00    -0.181 C  
HETATM    9  O   UNL     1     -10.492   8.498  68.792  1.00  0.00    -0.217 OA 
BRANCH   8  10
HETATM   10  C   UNL     1      -9.213  10.527  69.027  1.00  0.00    -0.193 C  
BRANCH  10  11
HETATM   11  C   UNL     1      -7.747  10.475  68.571  1.00  0.00    -0.104 C  
BRANCH  11  12
HETATM   12  C   UNL     1      -7.647  10.553  67.024  1.00  0.00    -0.107 C  
HETATM   13  C   UNL     1      -6.215  10.873  66.567  1.00  0.00    -0.122 C  
HETATM   14  O   UNL     1      -5.901  12.252  66.671  1.00  0.00    -0.492 OA 
HETATM   15  C   UNL     1      -6.194  10.461  65.118  1.00  0.00    -0.114 C  
HETATM   16  H   UNL     1      -5.016  12.450  66.388  1.00  0.00     0.000 HD 
HETATM   17  C   UNL     1      -6.970   9.160  65.094  1.00  0.00    -0.087 C  
HETATM   18  O   UNL     1      -7.526   9.007  63.802  1.00  0.00    -0.102 OA 
HETATM   19  C   UNL     1      -8.003   9.239  66.258  1.00  0.00    -0.107 C  
HETATM   20  H   UNL     1      -8.013   8.191  63.787  1.00  0.00     0.000 HD 
BRANCH  19  21
HETATM   21  C   UNL     1      -9.484   9.188  65.829  1.00  0.00    -0.322 C  
BRANCH  21  22
HETATM   22  C   UNL     1      -9.953  10.403  65.069  1.00  0.00    -0.399 C  
HETATM   23  C   UNL     1     -10.534  11.515  65.542  1.00  0.00    -0.327 C  
BRANCH  23  24
HETATM   24  C   UNL     1     -10.909  11.798  66.966  1.00  0.00    -0.306 C  
BRANCH  24  25
HETATM   25  C   UNL     1     -10.533  13.216  67.401  1.00  0.00    -0.243 C  
BRANCH  25  26
HETATM   26  C   UNL     1      -9.572  13.912  66.433  1.00  0.00    -0.292 C  
HETATM   27  C   UNL     1      -9.972  15.352  66.197  1.00  0.00    -0.307 C  
HETATM   28  O   UNL     1     -10.929  15.913  66.695  1.00  0.00    -0.262 OA 
HETATM   29  O   UNL     1      -9.123  15.983  65.351  1.00  0.00    -0.233 OA 
ENDBRANCH  25  26
ENDBRANCH  24  25
ENDBRANCH  23  24
ENDBRANCH  21  22
ENDBRANCH  19  21
ENDBRANCH  11  12
ENDBRANCH  10  11
ENDBRANCH   8  10
ENDBRANCH   7   8
ENDBRANCH   6   7
ENDBRANCH   5   6
ENDBRANCH   4   5
ENDBRANCH   3   4
ENDBRANCH   2   3
TORSDOF 14
ENDMDL
MODEL      390
REMARK 921   NORMALIZED FREE ENERGY PREDICTED BY IDOCK:   -2.03 KCAL/MOL
REMARK 922        TOTAL FREE ENERGY PREDICTED BY IDOCK:   -6.66 KCAL/MOL
REMARK 923 INTER-LIGAND FREE ENERGY PREDICTED BY IDOCK:   -4.69 KCAL/MOL
REMARK 924 INTRA-LIGAND FREE ENERGY PREDICTED BY IDOCK:   -1.97 KCAL/MOL
REMARK 927      BINDING AFFINITY PREDICTED BY RF-SCORE:    0.00 PKD
ROOT
HETATM    1  C   UNL     1      -7.312   5.694  70.769  1.00  0.00    -0.084 C  
HETATM    2  C   UNL     1      -7.724   4.486  69.946  1.00  0.00    -0.057 C  
ENDROOT
BRANCH   2   3
HETATM    3  C   UNL     1      -6.747   4.216  68.799  1.00  0.00    -0.046 C  
BRANCH   3   4
HETATM    4  C   UNL     1      -7.095   2.896  68.111  1.00  0.00    -0.049 C  
BRANCH   4   5
HETATM    5  C   UNL     1      -7.624   3.085  66.688  1.00  0.00    -0.076 C  
BRANCH   5   6
HETATM    6  C   UNL     1      -9.008   3.744  66.732  1.00  0.00    -0.150 C  
BRANCH   6   7
HETATM    7  C   UNL     1      -9.195   4.772  65.625  1.00  0.00    -0.152 C  
BRANCH   7   8
HETATM    8  C   UNL     1      -9.138   6.210  66.144  1.00  0.00    -0.145 C  
HETATM    9  O   UNL     1      -8.523   7.103  65.567  1.00  0.00    -0.138 OA 
BRANCH   8  10
HETATM   10  C   UNL     1      -9.929   6.453  67.414  1.00  0.00    -0.172 C  
BRANCH  10  11
HETATM   11  C   UNL     1     -10.797   7.719  67.479  1.00  0.00    -0.182 C  
BRANCH  11  12
HETATM   12  C   UNL     1     -10.325   8.654  68.623  1.00  0.00    -0.219 C  
HETATM   13  C   UNL     1     -10.593   8.035  70.005  1.00  0.00    -0.242 C  
HETATM   14  O   UNL     1     -11.941   8.184  70.419  1.00  0.00    -0.479 OA 
HETATM   15  C   UNL     1      -9.694   8.809  70.932  1.00  0.00    -0.277 C  
HETATM   16  H   UNL     1     -12.107   7.802  71.273  1.00  0.00     0.000 HD 
HETATM   17  C   UNL     1      -8.403   8.960  70.153  1.00  0.00    -0.139 C  
HETATM   18  O   UNL     1      -7.746  10.123  70.618  1.00  0.00    -0.428 OA 
HETATM   19  C   UNL     1      -8.796   8.976  68.645  1.00  0.00    -0.137 C  
HETATM   20  H   UNL     1      -6.937  10.218  70.129  1.00  0.00     0.000 HD 
BRANCH  19  21
HETATM   21  C   UNL     1      -8.455  10.275  67.888  1.00  0.00    -0.118 C  
BRANCH  21  22
HETATM   22  C   UNL     1      -9.221  11.487  68.358  1.00  0.00    -0.190 C  
HETATM   23  C   UNL     1      -8.951  12.783  68.144  1.00  0.00    -0.199 C  
BRANCH  23  24
HETATM   24  C   UNL     1      -7.770  13.347  67.414  1.00  0.00    -0.146 C  
BRANCH  24  25
HETATM   25  C   UNL     1      -6.447  13.054  68.125  1.00  0.00    -0.100 C  
BRANCH  25  26
HETATM   26  C   UNL     1      -6.136  14.036  69.257  1.00  0.00    -0.100 C  
HETATM   27  C   UNL     1      -5.881  13.313  70.562  1.00  0.00    -0.154 C  
HETATM   28  O   UNL     1      -5.913  12.108  70.723  1.00  0.00    -0.310 OA 
HETATM   29  O   UNL     1      -5.594  14.171  71.570  1.00  0.00    -0.198 OA 
ENDBRANCH  25  26
ENDBRANCH  24  25
ENDBRANCH  23  24
ENDBRANCH  21  22
ENDBRANCH  19  21
ENDBRANCH  11  12
ENDBRANCH  10  11
ENDBRANCH   8  10
ENDBRANCH   7   8
ENDBRANCH   6   7
ENDBRANCH   5   6
ENDBRANCH   4   5
ENDBRANCH   3   4
ENDBRANCH   2   3
TORSDOF 14
ENDMDL
MODEL      391
REMARK 921   NORMALIZED FREE ENERGY PREDICTED BY IDOCK:   -2.02 KCAL/MOL
REMARK 922        TOTAL FREE ENERGY PREDICTED BY IDOCK:   -6.63 KCAL/MOL
REMARK 923 INTER-LIGAND FREE ENERGY PREDICTED BY IDOCK:   -4.98 KCAL/MOL
REMARK 924 INTRA-LIGAND FREE ENERGY PREDICTED BY IDOCK:   -1.65 KCAL/MOL
REMARK 927      BINDING AFFINITY PREDICTED BY RF-SCORE:    0.00 PKD
ROOT
HETATM    1  C   UNL     1      -7.096   6.588  73.737  1.00  0.00    -0.081 C  
HETATM    2  C   UNL     1      -6.563   7.376  72.553  1.00  0.00    -0.055 C  
ENDROOT
BRANCH   2   3
HETATM    3  C   UNL     1      -7.576   8.405  72.047  1.00  0.00    -0.152 C  
BRANCH   3   4
HETATM    4  C   UNL     1      -9.000   7.905  72.287  1.00  0.00    -0.211 C  
BRANCH   4   5
HETATM    5  C   UNL     1      -9.534   7.051  71.135  1.00  0.00    -0.165 C  
BRANCH   5   6
HETATM    6  C   UNL     1     -11.063   6.969  71.217  1.00  0.00    -0.282 C  
BRANCH   6   7
HETATM    7  C   UNL     1     -11.747   8.017  70.350  1.00  0.00    -0.001 C  
BRANCH   7   8
HETATM    8  C   UNL     1     -11.700   9.414  70.972  1.00  0.00    -0.323 C  
HETATM    9  O   UNL     1     -12.166   9.667  72.079  1.00  0.00    -0.354 OA 
BRANCH   8  10
HETATM   10  C   UNL     1     -11.002  10.458  70.123  1.00  0.00    -0.365 C  
BRANCH  10  11
HETATM   11  C   UNL     1     -11.860  11.251  69.125  1.00  0.00    -0.423 C  
BRANCH  11  12
HETATM   12  C   UNL     1     -10.965  12.059  68.148  1.00  0.00    -0.273 C  
HETATM   13  C   UNL     1     -11.461  13.506  67.994  1.00  0.00    -0.307 C  
HETATM   14  O   UNL     1     -12.559  13.617  67.104  1.00  0.00    -0.317 OA 
HETATM   15  C   UNL     1     -10.275  14.239  67.424  1.00  0.00    -0.247 C  
HETATM   16  H   UNL     1     -12.865  14.512  67.008  1.00  0.00     0.000 HD 
HETATM   17  C   UNL     1      -9.093  13.677  68.188  1.00  0.00    -0.195 C  
HETATM   18  O   UNL     1      -7.944  13.808  67.372  1.00  0.00    -0.166 OA 
HETATM   19  C   UNL     1      -9.470  12.216  68.575  1.00  0.00    -0.125 C  
HETATM   20  H   UNL     1      -7.203  13.456  67.850  1.00  0.00     0.000 HD 
BRANCH  19  21
HETATM   21  C   UNL     1      -8.567  11.120  67.974  1.00  0.00    -0.140 C  
BRANCH  21  22
HETATM   22  C   UNL     1      -9.047  10.572  66.654  1.00  0.00    -0.172 C  
HETATM   23  C   UNL     1      -9.063   9.300  66.230  1.00  0.00    -0.213 C  
BRANCH  23  24
HETATM   24  C   UNL     1      -8.548   8.101  66.967  1.00  0.00    -0.124 C  
BRANCH  24  25
HETATM   25  C   UNL     1      -7.041   7.903  66.784  1.00  0.00    -0.077 C  
BRANCH  25  26
HETATM   26  C   UNL     1      -6.551   8.250  65.376  1.00  0.00    -0.052 C  
HETATM   27  C   UNL     1      -6.647   7.058  64.449  1.00  0.00    -0.045 C  
HETATM   28  O   UNL     1      -7.055   5.953  64.753  1.00  0.00    -0.057 OA 
HETATM   29  O   UNL     1      -6.226   7.355  63.196  1.00  0.00    -0.052 OA 
ENDBRANCH  25  26
ENDBRANCH  24  25
ENDBRANCH  23  24
ENDBRANCH  21  22
ENDBRANCH  19  21
ENDBRANCH  11  12
ENDBRANCH  10  11
ENDBRANCH   8  10
ENDBRANCH   7   8
ENDBRANCH   6   7
ENDBRANCH   5   6
ENDBRANCH   4   5
ENDBRANCH   3   4
ENDBRANCH   2   3
TORSDOF 14
ENDMDL
MODEL      392
REMARK 921   NORMALIZED FREE ENERGY PREDICTED BY IDOCK:   -2.01 KCAL/MOL
REMARK 922        TOTAL FREE ENERGY PREDICTED BY IDOCK:   -6.62 KCAL/MOL
REMARK 923 INTER-LIGAND FREE ENERGY PREDICTED BY IDOCK:   -3.70 KCAL/MOL
REMARK 924 INTRA-LIGAND FREE ENERGY PREDICTED BY IDOCK:   -2.92 KCAL/MOL
REMARK 927      BINDING AFFINITY PREDICTED BY RF-SCORE:    0.00 PKD
ROOT
HETATM    1  C   UNL     1     -11.028   9.034  70.179  1.00  0.00    -0.256 C  
HETATM    2  C   UNL     1      -9.672   8.735  70.793  1.00  0.00    -0.257 C  
ENDROOT
BRANCH   2   3
HETATM    3  C   UNL     1      -9.774   8.448  72.293  1.00  0.00    -0.386 C  
BRANCH   3   4
HETATM    4  C   UNL     1      -8.386   8.173  72.872  1.00  0.00    -0.248 C  
BRANCH   4   5
HETATM    5  C   UNL     1      -8.422   7.794  74.353  1.00  0.00    -0.251 C  
BRANCH   5   6
HETATM    6  C   UNL     1      -8.378   6.268  74.500  1.00  0.00    -0.131 C  
BRANCH   6   7
HETATM    7  C   UNL     1      -7.773   5.586  73.282  1.00  0.00    -0.100 C  
BRANCH   7   8
HETATM    8  C   UNL     1      -7.895   4.062  73.341  1.00  0.00    -0.085 C  
HETATM    9  O   UNL     1      -8.580   3.480  74.178  1.00  0.00    -0.087 OA 
BRANCH   8  10
HETATM   10  C   UNL     1      -7.125   3.325  72.263  1.00  0.00    -0.038 C  
BRANCH  10  11
HETATM   11  C   UNL     1      -6.636   4.141  71.057  1.00  0.00    -0.027 C  
BRANCH  11  12
HETATM   12  C   UNL     1      -7.347   3.683  69.756  1.00  0.00    -0.045 C  
HETATM   13  C   UNL     1      -6.517   2.633  68.999  1.00  0.00    -0.029 C  
HETATM   14  O   UNL     1      -5.467   3.208  68.240  1.00  0.00    -0.016 OA 
HETATM   15  C   UNL     1      -7.510   1.983  68.072  1.00  0.00    -0.054 C  
HETATM   16  H   UNL     1      -4.954   2.559  67.772  1.00  0.00     0.000 HD 
HETATM   17  C   UNL     1      -8.759   1.832  68.916  1.00  0.00    -0.071 C  
HETATM   18  O   UNL     1      -9.875   1.818  68.047  1.00  0.00    -0.366 OA 
HETATM   19  C   UNL     1      -8.737   2.996  69.952  1.00  0.00    -0.133 C  
HETATM   20  H   UNL     1     -10.658   1.724  68.576  1.00  0.00     0.000 HD 
BRANCH  19  21
HETATM   21  C   UNL     1      -9.908   3.993  69.849  1.00  0.00    -0.185 C  
BRANCH  21  22
HETATM   22  C   UNL     1      -9.537   5.330  69.259  1.00  0.00    -0.214 C  
HETATM   23  C   UNL     1      -9.688   5.761  67.999  1.00  0.00    -0.142 C  
BRANCH  23  24
HETATM   24  C   UNL     1     -10.226   4.979  66.839  1.00  0.00    -0.270 C  
BRANCH  24  25
HETATM   25  C   UNL     1      -9.455   5.244  65.544  1.00  0.00    -0.055 C  
BRANCH  25  26
HETATM   26  C   UNL     1      -8.433   4.153  65.214  1.00  0.00    -0.114 C  
HETATM   27  C   UNL     1      -7.025   4.598  65.544  1.00  0.00    -0.062 C  
HETATM   28  O   UNL     1      -6.712   5.676  66.011  1.00  0.00    -0.053 OA 
HETATM   29  O   UNL     1      -6.111   3.637  65.267  1.00  0.00    -0.022 OA 
ENDBRANCH  25  26
ENDBRANCH  24  25
ENDBRANCH  23  24
ENDBRANCH  21  22
ENDBRANCH  19  21
ENDBRANCH  11  12
ENDBRANCH  10  11
ENDBRANCH   8  10
ENDBRANCH   7   8
ENDBRANCH   6   7
ENDBRANCH   5   6
ENDBRANCH   4   5
ENDBRANCH   3   4
ENDBRANCH   2   3
TORSDOF 14
ENDMDL
MODEL      393
REMARK 921   NORMALIZED FREE ENERGY PREDICTED BY IDOCK:   -1.91 KCAL/MOL
REMARK 922        TOTAL FREE ENERGY PREDICTED BY IDOCK:   -6.44 KCAL/MOL
REMARK 923 INTER-LIGAND FREE ENERGY PREDICTED BY IDOCK:   -4.56 KCAL/MOL
REMARK 924 INTRA-LIGAND FREE ENERGY PREDICTED BY IDOCK:   -1.88 KCAL/MOL
REMARK 927      BINDING AFFINITY PREDICTED BY RF-SCORE:    0.00 PKD
ROOT
HETATM    1  C   UNL     1     -11.321  15.807  64.548  1.00  0.00    -0.324 C  
HETATM    2  C   UNL     1     -12.260  14.650  64.257  1.00  0.00    -0.432 C  
ENDROOT
BRANCH   2   3
HETATM    3  C   UNL     1     -11.582  13.294  64.470  1.00  0.00    -0.407 C  
BRANCH   3   4
HETATM    4  C   UNL     1     -12.204  12.575  65.665  1.00  0.00    -0.403 C  
BRANCH   4   5
HETATM    5  C   UNL     1     -11.465  12.846  66.977  1.00  0.00    -0.390 C  
BRANCH   5   6
HETATM    6  C   UNL     1      -9.965  13.007  66.703  1.00  0.00    -0.250 C  
BRANCH   6   7
HETATM    7  C   UNL     1      -9.141  11.879  67.308  1.00  0.00    -0.178 C  
BRANCH   7   8
HETATM    8  C   UNL     1      -9.360  10.544  66.592  1.00  0.00    -0.161 C  
HETATM    9  O   UNL     1      -9.351  10.435  65.368  1.00  0.00    -0.176 OA 
BRANCH   8  10
HETATM   10  C   UNL     1      -9.558   9.358  67.514  1.00  0.00    -0.174 C  
BRANCH  10  11
HETATM   11  C   UNL     1      -8.959   9.450  68.926  1.00  0.00    -0.136 C  
BRANCH  11  12
HETATM   12  C   UNL     1     -10.016   9.076  69.999  1.00  0.00    -0.207 C  
HETATM   13  C   UNL     1     -11.344   9.813  69.762  1.00  0.00    -0.158 C  
HETATM   14  O   UNL     1     -11.320  11.151  70.230  1.00  0.00    -0.433 OA 
HETATM   15  C   UNL     1     -12.348   9.020  70.558  1.00  0.00     0.170 C  
HETATM   16  H   UNL     1     -12.141  11.606  70.084  1.00  0.00     0.000 HD 
HETATM   17  C   UNL     1     -11.961   7.577  70.305  1.00  0.00     0.127 C  
HETATM   18  O   UNL     1     -12.393   6.809  71.412  1.00  0.00    -0.354 OA 
HETATM   19  C   UNL     1     -10.424   7.569  70.049  1.00  0.00    -0.231 C  
HETATM   20  H   UNL     1     -12.151   5.904  71.254  1.00  0.00     0.000 HD 
BRANCH  19  21
HETATM   21  C   UNL     1      -9.591   6.765  71.067  1.00  0.00    -0.175 C  
BRANCH  21  22
HETATM   22  C   UNL     1      -8.370   7.487  71.580  1.00  0.00    -0.111 C  
HETATM   23  C   UNL     1      -7.110   7.431  71.124  1.00  0.00    -0.059 C  
BRANCH  23  24
HETATM   24  C   UNL     1      -6.597   6.579  70.003  1.00  0.00    -0.048 C  
BRANCH  24  25
HETATM   25  C   UNL     1      -5.301   5.850  70.366  1.00  0.00    -0.012 C  
BRANCH  25  26
HETATM   26  C   UNL     1      -5.380   4.336  70.163  1.00  0.00    -0.008 C  
HETATM   27  C   UNL     1      -5.611   3.614  71.473  1.00  0.00    -0.008 C  
HETATM   28  O   UNL     1      -5.721   4.141  72.564  1.00  0.00    -0.006 OA 
HETATM   29  O   UNL     1      -5.694   2.272  71.306  1.00  0.00    -0.012 OA 
ENDBRANCH  25  26
ENDBRANCH  24  25
ENDBRANCH  23  24
ENDBRANCH  21  22
ENDBRANCH  19  21
ENDBRANCH  11  12
ENDBRANCH  10  11
ENDBRANCH   8  10
ENDBRANCH   7   8
ENDBRANCH   6   7
ENDBRANCH   5   6
ENDBRANCH   4   5
ENDBRANCH   3   4
ENDBRANCH   2   3
TORSDOF 14
ENDMDL
MODEL      394
REMARK 921   NORMALIZED FREE ENERGY PREDICTED BY IDOCK:   -1.87 KCAL/MOL
REMARK 922        TOTAL FREE ENERGY PREDICTED BY IDOCK:   -6.36 KCAL/MOL
REMARK 923 INTER-LIGAND FREE ENERGY PREDICTED BY IDOCK:   -4.42 KCAL/MOL
REMARK 924 INTRA-LIGAND FREE ENERGY PREDICTED BY IDOCK:   -1.95 KCAL/MOL
REMARK 927      BINDING AFFINITY PREDICTED BY RF-SCORE:    0.00 PKD
ROOT
HETATM    1  C   UNL     1      -9.755  10.161  64.698  1.00  0.00    -0.377 C  
HETATM    2  C   UNL     1      -9.122   9.641  65.976  1.00  0.00    -0.212 C  
ENDROOT
BRANCH   2   3
HETATM    3  C   UNL     1      -9.234   8.119  66.093  1.00  0.00    -0.230 C  
BRANCH   3   4
HETATM    4  C   UNL     1      -8.053   7.448  65.393  1.00  0.00    -0.133 C  
BRANCH   4   5
HETATM    5  C   UNL     1      -7.855   5.992  65.819  1.00  0.00    -0.104 C  
BRANCH   5   6
HETATM    6  C   UNL     1      -7.649   5.919  67.336  1.00  0.00    -0.096 C  
BRANCH   6   7
HETATM    7  C   UNL     1      -8.186   4.625  67.932  1.00  0.00    -0.099 C  
BRANCH   7   8
HETATM    8  C   UNL     1      -8.022   4.566  69.452  1.00  0.00    -0.061 C  
HETATM    9  O   UNL     1      -6.925   4.530  70.003  1.00  0.00    -0.043 OA 
BRANCH   8  10
HETATM   10  C   UNL     1      -9.324   4.589  70.227  1.00  0.00    -0.218 C  
BRANCH  10  11
HETATM   11  C   UNL     1     -10.364   5.651  69.839  1.00  0.00    -0.347 C  
BRANCH  11  12
HETATM   12  C   UNL     1     -10.581   6.660  70.998  1.00  0.00    -0.263 C  
HETATM   13  C   UNL     1     -11.880   6.367  71.765  1.00  0.00    -0.321 C  
HETATM   14  O   UNL     1     -13.032   6.860  71.101  1.00  0.00    -0.378 OA 
HETATM   15  C   UNL     1     -11.704   7.094  73.073  1.00  0.00     0.111 C  
HETATM   16  H   UNL     1     -13.835   6.679  71.575  1.00  0.00     0.000 HD 
HETATM   17  C   UNL     1     -10.259   6.836  73.446  1.00  0.00    -0.268 C  
HETATM   18  O   UNL     1      -9.822   7.904  74.264  1.00  0.00    -0.054 OA 
HETATM   19  C   UNL     1      -9.480   6.661  72.108  1.00  0.00    -0.146 C  
HETATM   20  H   UNL     1      -8.915   7.742  74.498  1.00  0.00     0.000 HD 
BRANCH  19  21
HETATM   21  C   UNL     1      -8.378   7.706  71.845  1.00  0.00    -0.125 C  
BRANCH  21  22
HETATM   22  C   UNL     1      -8.683   8.663  70.720  1.00  0.00    -0.202 C  
HETATM   23  C   UNL     1      -7.831   9.395  69.989  1.00  0.00    -0.135 C  
BRANCH  23  24
HETATM   24  C   UNL     1      -6.344   9.476  70.154  1.00  0.00    -0.063 C  
BRANCH  24  25
HETATM   25  C   UNL     1      -5.774  10.818  69.689  1.00  0.00    -0.044 C  
BRANCH  25  26
HETATM   26  C   UNL     1      -5.204  11.662  70.832  1.00  0.00    -0.134 C  
HETATM   27  C   UNL     1      -5.655  13.103  70.733  1.00  0.00    -0.187 C  
HETATM   28  O   UNL     1      -6.375  13.563  69.868  1.00  0.00    -0.126 OA 
HETATM   29  O   UNL     1      -5.165  13.859  71.745  1.00  0.00    -0.162 OA 
ENDBRANCH  25  26
ENDBRANCH  24  25
ENDBRANCH  23  24
ENDBRANCH  21  22
ENDBRANCH  19  21
ENDBRANCH  11  12
ENDBRANCH  10  11
ENDBRANCH   8  10
ENDBRANCH   7   8
ENDBRANCH   6   7
ENDBRANCH   5   6
ENDBRANCH   4   5
ENDBRANCH   3   4
ENDBRANCH   2   3
TORSDOF 14
ENDMDL
MODEL      395
REMARK 921   NORMALIZED FREE ENERGY PREDICTED BY IDOCK:   -1.87 KCAL/MOL
REMARK 922        TOTAL FREE ENERGY PREDICTED BY IDOCK:   -6.35 KCAL/MOL
REMARK 923 INTER-LIGAND FREE ENERGY PREDICTED BY IDOCK:   -5.43 KCAL/MOL
REMARK 924 INTRA-LIGAND FREE ENERGY PREDICTED BY IDOCK:   -0.92 KCAL/MOL
REMARK 927      BINDING AFFINITY PREDICTED BY RF-SCORE:    0.00 PKD
ROOT
HETATM    1  C   UNL     1      -5.517   8.429  66.783  1.00  0.00    -0.033 C  
HETATM    2  C   UNL     1      -5.485   9.226  65.491  1.00  0.00    -0.040 C  
ENDROOT
BRANCH   2   3
HETATM    3  C   UNL     1      -6.303  10.515  65.593  1.00  0.00    -0.126 C  
BRANCH   3   4
HETATM    4  C   UNL     1      -6.882  10.662  67.000  1.00  0.00    -0.091 C  
BRANCH   4   5
HETATM    5  C   UNL     1      -8.279  11.284  67.008  1.00  0.00    -0.151 C  
BRANCH   5   6
HETATM    6  C   UNL     1      -9.340  10.182  66.901  1.00  0.00    -0.185 C  
BRANCH   6   7
HETATM    7  C   UNL     1     -10.675  10.709  66.397  1.00  0.00    -0.198 C  
BRANCH   7   8
HETATM    8  C   UNL     1     -11.280  11.762  67.329  1.00  0.00    -0.305 C  
HETATM    9  O   UNL     1     -11.333  12.955  67.041  1.00  0.00    -0.279 OA 
BRANCH   8  10
HETATM   10  C   UNL     1     -11.837  11.209  68.625  1.00  0.00    -0.357 C  
BRANCH  10  11
HETATM   11  C   UNL     1     -10.958  11.318  69.880  1.00  0.00    -0.096 C  
BRANCH  11  12
HETATM   12  C   UNL     1     -11.426  10.318  70.970  1.00  0.00    -0.386 C  
HETATM   13  C   UNL     1     -12.956  10.319  71.117  1.00  0.00    -0.409 C  
HETATM   14  O   UNL     1     -13.432  11.408  71.891  1.00  0.00    -0.360 OA 
HETATM   15  C   UNL     1     -13.255   9.027  71.830  1.00  0.00    -0.462 C  
HETATM   16  H   UNL     1     -14.378  11.408  71.982  1.00  0.00     0.000 HD 
HETATM   17  C   UNL     1     -12.327   8.022  71.178  1.00  0.00    -0.218 C  
HETATM   18  O   UNL     1     -12.072   6.992  72.113  1.00  0.00    -0.367 OA 
HETATM   19  C   UNL     1     -11.073   8.819  70.707  1.00  0.00    -0.306 C  
HETATM   20  H   UNL     1     -11.490   6.362  71.704  1.00  0.00     0.000 HD 
BRANCH  19  21
HETATM   21  C   UNL     1      -9.742   8.401  71.364  1.00  0.00    -0.260 C  
BRANCH  21  22
HETATM   22  C   UNL     1      -8.512   8.834  70.607  1.00  0.00    -0.193 C  
HETATM   23  C   UNL     1      -7.595   8.072  69.993  1.00  0.00    -0.082 C  
BRANCH  23  24
HETATM   24  C   UNL     1      -7.549   6.574  69.956  1.00  0.00    -0.100 C  
BRANCH  24  25
HETATM   25  C   UNL     1      -8.485   5.984  68.900  1.00  0.00    -0.116 C  
BRANCH  25  26
HETATM   26  C   UNL     1      -8.831   4.514  69.150  1.00  0.00    -0.127 C  
HETATM   27  C   UNL     1      -8.225   4.016  70.444  1.00  0.00    -0.058 C  
HETATM   28  O   UNL     1      -7.544   4.674  71.207  1.00  0.00    -0.075 OA 
HETATM   29  O   UNL     1      -8.534   2.719  70.684  1.00  0.00    -0.051 OA 
ENDBRANCH  25  26
ENDBRANCH  24  25
ENDBRANCH  23  24
ENDBRANCH  21  22
ENDBRANCH  19  21
ENDBRANCH  11  12
ENDBRANCH  10  11
ENDBRANCH   8  10
ENDBRANCH   7   8
ENDBRANCH   6   7
ENDBRANCH   5   6
ENDBRANCH   4   5
ENDBRANCH   3   4
ENDBRANCH   2   3
TORSDOF 14
ENDMDL
MODEL      396
REMARK 921   NORMALIZED FREE ENERGY PREDICTED BY IDOCK:   -1.83 KCAL/MOL
REMARK 922        TOTAL FREE ENERGY PREDICTED BY IDOCK:   -6.28 KCAL/MOL
REMARK 923 INTER-LIGAND FREE ENERGY PREDICTED BY IDOCK:   -4.17 KCAL/MOL
REMARK 924 INTRA-LIGAND FREE ENERGY PREDICTED BY IDOCK:   -2.12 KCAL/MOL
REMARK 927      BINDING AFFINITY PREDICTED BY RF-SCORE:    0.00 PKD
ROOT
HETATM    1  C   UNL     1     -11.294   9.247  70.481  1.00  0.00    -0.306 C  
HETATM    2  C   UNL     1     -10.099   8.596  71.153  1.00  0.00    -0.290 C  
ENDROOT
BRANCH   2   3
HETATM    3  C   UNL     1     -10.494   7.858  72.434  1.00  0.00    -0.339 C  
BRANCH   3   4
HETATM    4  C   UNL     1      -9.262   7.226  73.081  1.00  0.00    -0.201 C  
BRANCH   4   5
HETATM    5  C   UNL     1      -9.585   6.476  74.374  1.00  0.00    -0.295 C  
BRANCH   5   6
HETATM    6  C   UNL     1      -9.978   5.029  74.051  1.00  0.00    -0.205 C  
BRANCH   6   7
HETATM    7  C   UNL     1      -9.095   4.416  72.973  1.00  0.00    -0.129 C  
BRANCH   7   8
HETATM    8  C   UNL     1      -9.707   3.154  72.362  1.00  0.00    -0.148 C  
HETATM    9  O   UNL     1     -10.903   2.886  72.444  1.00  0.00     0.071 OA 
BRANCH   8  10
HETATM   10  C   UNL     1      -8.724   2.274  71.618  1.00  0.00    -0.102 C  
BRANCH  10  11
HETATM   11  C   UNL     1      -7.467   2.943  71.041  1.00  0.00    -0.033 C  
BRANCH  11  12
HETATM   12  C   UNL     1      -7.604   3.143  69.508  1.00  0.00    -0.044 C  
HETATM   13  C   UNL     1      -6.988   1.970  68.729  1.00  0.00    -0.039 C  
HETATM   14  O   UNL     1      -5.576   2.059  68.629  1.00  0.00    -0.017 OA 
HETATM   15  C   UNL     1      -7.596   2.084  67.355  1.00  0.00    -0.060 C  
HETATM   16  H   UNL     1      -5.195   1.334  68.148  1.00  0.00     0.000 HD 
HETATM   17  C   UNL     1      -9.045   2.439  67.623  1.00  0.00    -0.178 C  
HETATM   18  O   UNL     1      -9.536   3.144  66.499  1.00  0.00    -0.386 OA 
HETATM   19  C   UNL     1      -9.067   3.230  68.966  1.00  0.00    -0.207 C  
HETATM   20  H   UNL     1     -10.445   3.367  66.666  1.00  0.00     0.000 HD 
BRANCH  19  21
HETATM   21  C   UNL     1      -9.575   4.682  68.867  1.00  0.00    -0.233 C  
BRANCH  21  22
HETATM   22  C   UNL     1      -8.594   5.719  69.355  1.00  0.00    -0.111 C  
HETATM   23  C   UNL     1      -8.164   6.824  68.730  1.00  0.00    -0.121 C  
BRANCH  23  24
HETATM   24  C   UNL     1      -8.526   7.274  67.347  1.00  0.00    -0.119 C  
BRANCH  24  25
HETATM   25  C   UNL     1      -7.418   8.102  66.691  1.00  0.00    -0.089 C  
BRANCH  25  26
HETATM   26  C   UNL     1      -7.950   9.232  65.806  1.00  0.00    -0.109 C  
HETATM   27  C   UNL     1      -8.238   8.746  64.402  1.00  0.00    -0.168 C  
HETATM   28  O   UNL     1      -8.076   7.611  63.997  1.00  0.00    -0.122 OA 
HETATM   29  O   UNL     1      -8.720   9.735  63.612  1.00  0.00    -0.187 OA 
ENDBRANCH  25  26
ENDBRANCH  24  25
ENDBRANCH  23  24
ENDBRANCH  21  22
ENDBRANCH  19  21
ENDBRANCH  11  12
ENDBRANCH  10  11
ENDBRANCH   8  10
ENDBRANCH   7   8
ENDBRANCH   6   7
ENDBRANCH   5   6
ENDBRANCH   4   5
ENDBRANCH   3   4
ENDBRANCH   2   3
TORSDOF 14
ENDMDL
MODEL      397
REMARK 921   NORMALIZED FREE ENERGY PREDICTED BY IDOCK:   -1.76 KCAL/MOL
REMARK 922        TOTAL FREE ENERGY PREDICTED BY IDOCK:   -6.16 KCAL/MOL
REMARK 923 INTER-LIGAND FREE ENERGY PREDICTED BY IDOCK:   -5.12 KCAL/MOL
REMARK 924 INTRA-LIGAND FREE ENERGY PREDICTED BY IDOCK:   -1.03 KCAL/MOL
REMARK 927      BINDING AFFINITY PREDICTED BY RF-SCORE:    0.00 PKD
ROOT
HETATM    1  C   UNL     1     -13.079  13.307  64.566  1.00  0.00     0.215 C  
HETATM    2  C   UNL     1     -12.291  14.288  65.415  1.00  0.00    -0.421 C  
ENDROOT
BRANCH   2   3
HETATM    3  C   UNL     1     -10.813  13.902  65.512  1.00  0.00    -0.306 C  
BRANCH   3   4
HETATM    4  C   UNL     1      -9.932  15.110  65.195  1.00  0.00    -0.267 C  
BRANCH   4   5
HETATM    5  C   UNL     1     -10.377  16.381  65.919  1.00  0.00    -0.378 C  
BRANCH   5   6
HETATM    6  C   UNL     1      -9.149  17.197  66.340  1.00  0.00    -0.285 C  
BRANCH   6   7
HETATM    7  C   UNL     1      -7.994  16.314  66.792  1.00  0.00    -0.306 C  
BRANCH   7   8
HETATM    8  C   UNL     1      -7.910  16.192  68.315  1.00  0.00    -0.153 C  
HETATM    9  O   UNL     1      -7.822  17.166  69.058  1.00  0.00    -0.234 OA 
BRANCH   8  10
HETATM   10  C   UNL     1      -7.975  14.771  68.838  1.00  0.00    -0.160 C  
BRANCH  10  11
HETATM   11  C   UNL     1      -8.501  13.687  67.884  1.00  0.00    -0.177 C  
BRANCH  11  12
HETATM   12  C   UNL     1      -7.613  12.416  67.951  1.00  0.00    -0.130 C  
HETATM   13  C   UNL     1      -6.199  12.742  68.459  1.00  0.00    -0.068 C  
HETATM   14  O   UNL     1      -5.367  13.288  67.449  1.00  0.00    -0.327 OA 
HETATM   15  C   UNL     1      -5.652  11.407  68.894  1.00  0.00    -0.042 C  
HETATM   16  H   UNL     1      -4.493  13.489  67.763  1.00  0.00     0.000 HD 
HETATM   17  C   UNL     1      -6.821  10.739  69.590  1.00  0.00    -0.133 C  
HETATM   18  O   UNL     1      -6.643   9.339  69.494  1.00  0.00    -0.042 OA 
HETATM   19  C   UNL     1      -8.112  11.294  68.918  1.00  0.00    -0.090 C  
HETATM   20  H   UNL     1      -7.375   8.920  69.929  1.00  0.00     0.000 HD 
BRANCH  19  21
HETATM   21  C   UNL     1      -8.986  10.244  68.203  1.00  0.00    -0.130 C  
BRANCH  21  22
HETATM   22  C   UNL     1      -8.227   9.336  67.267  1.00  0.00    -0.121 C  
HETATM   23  C   UNL     1      -8.634   8.193  66.697  1.00  0.00    -0.140 C  
BRANCH  23  24
HETATM   24  C   UNL     1      -9.950   7.505  66.900  1.00  0.00    -0.318 C  
BRANCH  24  25
HETATM   25  C   UNL     1      -9.917   6.506  68.059  1.00  0.00    -0.146 C  
BRANCH  25  26
HETATM   26  C   UNL     1     -10.537   7.053  69.347  1.00  0.00    -0.248 C  
HETATM   27  C   UNL     1     -10.520   6.018  70.451  1.00  0.00    -0.246 C  
HETATM   28  O   UNL     1     -10.080   4.888  70.358  1.00  0.00    -0.231 OA 
HETATM   29  O   UNL     1     -11.056   6.494  71.601  1.00  0.00    -0.240 OA 
ENDBRANCH  25  26
ENDBRANCH  24  25
ENDBRANCH  23  24
ENDBRANCH  21  22
ENDBRANCH  19  21
ENDBRANCH  11  12
ENDBRANCH  10  11
ENDBRANCH   8  10
ENDBRANCH   7   8
ENDBRANCH   6   7
ENDBRANCH   5   6
ENDBRANCH   4   5
ENDBRANCH   3   4
ENDBRANCH   2   3
TORSDOF 14
ENDMDL
MODEL      398
REMARK 921   NORMALIZED FREE ENERGY PREDICTED BY IDOCK:   -1.68 KCAL/MOL
REMARK 922        TOTAL FREE ENERGY PREDICTED BY IDOCK:   -6.02 KCAL/MOL
REMARK 923 INTER-LIGAND FREE ENERGY PREDICTED BY IDOCK:   -3.87 KCAL/MOL
REMARK 924 INTRA-LIGAND FREE ENERGY PREDICTED BY IDOCK:   -2.14 KCAL/MOL
REMARK 927      BINDING AFFINITY PREDICTED BY RF-SCORE:    0.00 PKD
ROOT
HETATM    1  C   UNL     1      -8.938   8.706  72.028  1.00  0.00    -0.286 C  
HETATM    2  C   UNL     1      -7.734   8.703  71.103  1.00  0.00    -0.131 C  
ENDROOT
BRANCH   2   3
HETATM    3  C   UNL     1      -7.618  10.006  70.310  1.00  0.00    -0.122 C  
BRANCH   3   4
HETATM    4  C   UNL     1      -8.089   9.791  68.872  1.00  0.00    -0.101 C  
BRANCH   4   5
HETATM    5  C   UNL     1      -9.435  10.457  68.579  1.00  0.00    -0.159 C  
BRANCH   5   6
HETATM    6  C   UNL     1     -10.258   9.570  67.637  1.00  0.00    -0.273 C  
BRANCH   6   7
HETATM    7  C   UNL     1     -10.094   9.967  66.176  1.00  0.00    -0.317 C  
BRANCH   7   8
HETATM    8  C   UNL     1      -8.716   9.603  65.621  1.00  0.00    -0.141 C  
HETATM    9  O   UNL     1      -7.828  10.434  65.443  1.00  0.00    -0.147 OA 
BRANCH   8  10
HETATM   10  C   UNL     1      -8.521   8.128  65.335  1.00  0.00    -0.164 C  
BRANCH  10  11
HETATM   11  C   UNL     1      -8.031   7.240  66.489  1.00  0.00    -0.115 C  
BRANCH  11  12
HETATM   12  C   UNL     1      -8.685   5.834  66.419  1.00  0.00    -0.128 C  
HETATM   13  C   UNL     1     -10.196   5.927  66.156  1.00  0.00     0.065 C  
HETATM   14  O   UNL     1     -10.939   6.230  67.326  1.00  0.00    -0.351 OA 
HETATM   15  C   UNL     1     -10.567   4.551  65.668  1.00  0.00    -0.231 C  
HETATM   16  H   UNL     1     -11.873   6.288  67.163  1.00  0.00     0.000 HD 
HETATM   17  C   UNL     1      -9.427   4.168  64.746  1.00  0.00    -0.170 C  
HETATM   18  O   UNL     1      -9.342   2.756  64.722  1.00  0.00    -0.144 OA 
HETATM   19  C   UNL     1      -8.160   4.901  65.280  1.00  0.00    -0.115 C  
HETATM   20  H   UNL     1      -8.627   2.515  64.144  1.00  0.00     0.000 HD 
BRANCH  19  21
HETATM   21  C   UNL     1      -7.015   3.982  65.750  1.00  0.00    -0.062 C  
BRANCH  21  22
HETATM   22  C   UNL     1      -7.429   2.935  66.754  1.00  0.00    -0.071 C  
HETATM   23  C   UNL     1      -7.150   2.873  68.064  1.00  0.00    -0.049 C  
BRANCH  23  24
HETATM   24  C   UNL     1      -6.296   3.825  68.847  1.00  0.00    -0.032 C  
BRANCH  24  25
HETATM   25  C   UNL     1      -6.922   4.203  70.191  1.00  0.00    -0.041 C  
BRANCH  25  26
HETATM   26  C   UNL     1      -7.796   5.457  70.121  1.00  0.00    -0.081 C  
HETATM   27  C   UNL     1      -9.267   5.112  70.213  1.00  0.00    -0.146 C  
HETATM   28  O   UNL     1      -9.726   3.992  70.326  1.00  0.00    -0.190 OA 
HETATM   29  O   UNL     1     -10.052   6.215  70.162  1.00  0.00    -0.172 OA 
ENDBRANCH  25  26
ENDBRANCH  24  25
ENDBRANCH  23  24
ENDBRANCH  21  22
ENDBRANCH  19  21
ENDBRANCH  11  12
ENDBRANCH  10  11
ENDBRANCH   8  10
ENDBRANCH   7   8
ENDBRANCH   6   7
ENDBRANCH   5   6
ENDBRANCH   4   5
ENDBRANCH   3   4
ENDBRANCH   2   3
TORSDOF 14
ENDMDL
MODEL      399
REMARK 921   NORMALIZED FREE ENERGY PREDICTED BY IDOCK:   -1.66 KCAL/MOL
REMARK 922        TOTAL FREE ENERGY PREDICTED BY IDOCK:   -5.97 KCAL/MOL
REMARK 923 INTER-LIGAND FREE ENERGY PREDICTED BY IDOCK:   -5.77 KCAL/MOL
REMARK 924 INTRA-LIGAND FREE ENERGY PREDICTED BY IDOCK:   -0.20 KCAL/MOL
REMARK 927      BINDING AFFINITY PREDICTED BY RF-SCORE:    0.00 PKD
ROOT
HETATM    1  C   UNL     1     -11.270  14.360  65.127  1.00  0.00    -0.359 C  
HETATM    2  C   UNL     1     -12.067  13.075  65.265  1.00  0.00    -0.484 C  
ENDROOT
BRANCH   2   3
HETATM    3  C   UNL     1     -11.238  11.951  65.889  1.00  0.00    -0.373 C  
BRANCH   3   4
HETATM    4  C   UNL     1     -11.455  11.913  67.402  1.00  0.00    -0.393 C  
BRANCH   4   5
HETATM    5  C   UNL     1     -10.192  12.255  68.195  1.00  0.00    -0.212 C  
BRANCH   5   6
HETATM    6  C   UNL     1      -8.953  11.767  67.434  1.00  0.00    -0.173 C  
BRANCH   6   7
HETATM    7  C   UNL     1      -8.254  10.616  68.144  1.00  0.00    -0.116 C  
BRANCH   7   8
HETATM    8  C   UNL     1      -8.613   9.254  67.547  1.00  0.00    -0.116 C  
HETATM    9  O   UNL     1      -9.085   9.123  66.421  1.00  0.00    -0.151 OA 
BRANCH   8  10
HETATM   10  C   UNL     1      -8.310   8.072  68.446  1.00  0.00    -0.127 C  
BRANCH  10  11
HETATM   11  C   UNL     1      -9.100   7.957  69.758  1.00  0.00    -0.146 C  
BRANCH  11  12
HETATM   12  C   UNL     1      -9.664   6.523  69.939  1.00  0.00    -0.176 C  
HETATM   13  C   UNL     1     -10.311   6.004  68.645  1.00  0.00    -0.214 C  
HETATM   14  O   UNL     1     -11.621   6.510  68.446  1.00  0.00    -0.525 OA 
HETATM   15  C   UNL     1     -10.373   4.512  68.840  1.00  0.00     0.238 C  
HETATM   16  H   UNL     1     -12.021   6.189  67.646  1.00  0.00     0.000 HD 
HETATM   17  C   UNL     1      -9.045   4.170  69.485  1.00  0.00    -0.121 C  
HETATM   18  O   UNL     1      -9.219   2.988  70.242  1.00  0.00    -0.115 OA 
HETATM   19  C   UNL     1      -8.613   5.425  70.301  1.00  0.00    -0.126 C  
HETATM   20  H   UNL     1      -8.387   2.773  70.647  1.00  0.00     0.000 HD 
BRANCH  19  21
HETATM   21  C   UNL     1      -8.485   5.210  71.823  1.00  0.00    -0.125 C  
BRANCH  21  22
HETATM   22  C   UNL     1      -9.519   4.282  72.409  1.00  0.00    -0.175 C  
HETATM   23  C   UNL     1     -10.835   4.487  72.566  1.00  0.00    -0.145 C  
BRANCH  23  24
HETATM   24  C   UNL     1     -11.597   5.734  72.235  1.00  0.00    -0.300 C  
BRANCH  24  25
HETATM   25  C   UNL     1     -11.400   6.836  73.277  1.00  0.00     0.075 C  
BRANCH  25  26
HETATM   26  C   UNL     1     -11.523   8.247  72.698  1.00  0.00    -0.423 C  
HETATM   27  C   UNL     1     -12.564   8.306  71.601  1.00  0.00    -0.327 C  
HETATM   28  O   UNL     1     -13.232   7.369  71.207  1.00  0.00    -0.348 OA 
HETATM   29  O   UNL     1     -12.691   9.553  71.087  1.00  0.00    -0.317 OA 
ENDBRANCH  25  26
ENDBRANCH  24  25
ENDBRANCH  23  24
ENDBRANCH  21  22
ENDBRANCH  19  21
ENDBRANCH  11  12
ENDBRANCH  10  11
ENDBRANCH   8  10
ENDBRANCH   7   8
ENDBRANCH   6   7
ENDBRANCH   5   6
ENDBRANCH   4   5
ENDBRANCH   3   4
ENDBRANCH   2   3
TORSDOF 14
ENDMDL
MODEL      400
REMARK 921   NORMALIZED FREE ENERGY PREDICTED BY IDOCK:   -1.52 KCAL/MOL
REMARK 922        TOTAL FREE ENERGY PREDICTED BY IDOCK:   -5.72 KCAL/MOL
REMARK 923 INTER-LIGAND FREE ENERGY PREDICTED BY IDOCK:   -5.32 KCAL/MOL
REMARK 924 INTRA-LIGAND FREE ENERGY PREDICTED BY IDOCK:   -0.40 KCAL/MOL
REMARK 927      BINDING AFFINITY PREDICTED BY RF-SCORE:    0.00 PKD
ROOT
HETATM    1  C   UNL     1     -11.151  19.947  65.665  1.00  0.00    -0.006 C  
HETATM    2  C   UNL     1      -9.762  20.284  66.176  1.00  0.00    -0.427 C  
ENDROOT
BRANCH   2   3
HETATM    3  C   UNL     1      -9.539  19.779  67.603  1.00  0.00    -0.470 C  
BRANCH   3   4
HETATM    4  C   UNL     1      -9.403  18.257  67.608  1.00  0.00    -0.271 C  
BRANCH   4   5
HETATM    5  C   UNL     1      -8.048  17.780  68.133  1.00  0.00    -0.265 C  
BRANCH   5   6
HETATM    6  C   UNL     1      -8.138  16.305  68.541  1.00  0.00    -0.193 C  
BRANCH   6   7
HETATM    7  C   UNL     1      -6.862  15.807  69.204  1.00  0.00    -0.168 C  
BRANCH   7   8
HETATM    8  C   UNL     1      -5.923  15.108  68.218  1.00  0.00    -0.123 C  
HETATM    9  O   UNL     1      -5.203  15.722  67.435  1.00  0.00    -0.293 OA 
BRANCH   8  10
HETATM   10  C   UNL     1      -5.928  13.596  68.307  1.00  0.00    -0.106 C  
BRANCH  10  11
HETATM   11  C   UNL     1      -7.175  12.859  67.796  1.00  0.00    -0.134 C  
BRANCH  11  12
HETATM   12  C   UNL     1      -6.949  11.324  67.800  1.00  0.00    -0.075 C  
HETATM   13  C   UNL     1      -5.819  10.918  66.841  1.00  0.00    -0.072 C  
HETATM   14  O   UNL     1      -6.239  10.867  65.488  1.00  0.00    -0.317 OA 
HETATM   15  C   UNL     1      -5.430   9.536  67.299  1.00  0.00    -0.036 C  
HETATM   16  H   UNL     1      -5.541  10.616  64.895  1.00  0.00     0.000 HD 
HETATM   17  C   UNL     1      -5.456   9.628  68.811  1.00  0.00    -0.036 C  
HETATM   18  O   UNL     1      -5.711   8.334  69.323  1.00  0.00    -0.030 OA 
HETATM   19  C   UNL     1      -6.520  10.708  69.171  1.00  0.00    -0.056 C  
HETATM   20  H   UNL     1      -5.727   8.392  70.271  1.00  0.00     0.000 HD 
BRANCH  19  21
HETATM   21  C   UNL     1      -7.723  10.200  69.992  1.00  0.00    -0.150 C  
BRANCH  21  22
HETATM   22  C   UNL     1      -8.674   9.318  69.222  1.00  0.00    -0.141 C  
HETATM   23  C   UNL     1      -9.610   9.673  68.331  1.00  0.00    -0.154 C  
BRANCH  23  24
HETATM   24  C   UNL     1      -9.977  11.066  67.918  1.00  0.00    -0.192 C  
BRANCH  24  25
HETATM   25  C   UNL     1     -11.439  11.183  67.482  1.00  0.00    -0.296 C  
BRANCH  25  26
HETATM   26  C   UNL     1     -11.648  12.152  66.316  1.00  0.00    -0.424 C  
HETATM   27  C   UNL     1     -11.037  11.618  65.038  1.00  0.00    -0.249 C  
HETATM   28  O   UNL     1     -10.448  10.561  64.921  1.00  0.00    -0.301 OA 
HETATM   29  O   UNL     1     -11.225  12.462  63.995  1.00  0.00    -0.334 OA 
ENDBRANCH  25  26
ENDBRANCH  24  25
ENDBRANCH  23  24
ENDBRANCH  21  22
ENDBRANCH  19  21
ENDBRANCH  11  12
ENDBRANCH  10  11
ENDBRANCH   8  10
ENDBRANCH   7   8
ENDBRANCH   6   7
ENDBRANCH   5   6
ENDBRANCH   4   5
ENDBRANCH   3   4
ENDBRANCH   2   3
TORSDOF 14
ENDMDL
MODEL      401
REMARK 921   NORMALIZED FREE ENERGY PREDICTED BY IDOCK:   -1.50 KCAL/MOL
REMARK 922        TOTAL FREE ENERGY PREDICTED BY IDOCK:   -5.68 KCAL/MOL
REMARK 923 INTER-LIGAND FREE ENERGY PREDICTED BY IDOCK:   -3.55 KCAL/MOL
REMARK 924 INTRA-LIGAND FREE ENERGY PREDICTED BY IDOCK:   -2.13 KCAL/MOL
REMARK 927      BINDING AFFINITY PREDICTED BY RF-SCORE:    0.00 PKD
ROOT
HETATM    1  C   UNL     1     -11.054   9.167  71.469  1.00  0.00    -0.436 C  
HETATM    2  C   UNL     1      -9.775   8.442  71.090  1.00  0.00    -0.236 C  
ENDROOT
BRANCH   2   3
HETATM    3  C   UNL     1      -8.796   9.356  70.349  1.00  0.00    -0.290 C  
BRANCH   3   4
HETATM    4  C   UNL     1      -8.518   8.806  68.951  1.00  0.00    -0.131 C  
BRANCH   4   5
HETATM    5  C   UNL     1      -9.435   9.402  67.882  1.00  0.00    -0.150 C  
BRANCH   5   6
HETATM    6  C   UNL     1      -9.425   8.512  66.633  1.00  0.00    -0.268 C  
BRANCH   6   7
HETATM    7  C   UNL     1      -8.454   9.011  65.573  1.00  0.00    -0.158 C  
BRANCH   7   8
HETATM    8  C   UNL     1      -7.036   8.474  65.776  1.00  0.00    -0.071 C  
HETATM    9  O   UNL     1      -6.149   9.123  66.323  1.00  0.00    -0.058 OA 
BRANCH   8  10
HETATM   10  C   UNL     1      -6.820   7.060  65.274  1.00  0.00    -0.051 C  
BRANCH  10  11
HETATM   11  C   UNL     1      -7.036   5.912  66.272  1.00  0.00    -0.063 C  
BRANCH  11  12
HETATM   12  C   UNL     1      -7.410   4.601  65.531  1.00  0.00    -0.076 C  
HETATM   13  C   UNL     1      -8.431   4.857  64.411  1.00  0.00    -0.137 C  
HETATM   14  O   UNL     1      -9.758   4.979  64.896  1.00  0.00    -0.365 OA 
HETATM   15  C   UNL     1      -8.327   3.636  63.535  1.00  0.00    -0.090 C  
HETATM   16  H   UNL     1     -10.389   5.137  64.204  1.00  0.00     0.000 HD 
HETATM   17  C   UNL     1      -6.839   3.357  63.469  1.00  0.00    -0.043 C  
HETATM   18  O   UNL     1      -6.665   1.975  63.220  1.00  0.00    -0.021 OA 
HETATM   19  C   UNL     1      -6.231   3.874  64.807  1.00  0.00    -0.023 C  
HETATM   20  H   UNL     1      -5.732   1.799  63.179  1.00  0.00     0.000 HD 
BRANCH  19  21
HETATM   21  C   UNL     1      -5.570   2.797  65.691  1.00  0.00    -0.017 C  
BRANCH  21  22
HETATM   22  C   UNL     1      -6.493   1.677  66.102  1.00  0.00    -0.023 C  
HETATM   23  C   UNL     1      -7.189   1.539  67.240  1.00  0.00    -0.046 C  
BRANCH  23  24
HETATM   24  C   UNL     1      -7.173   2.462  68.421  1.00  0.00    -0.048 C  
BRANCH  24  25
HETATM   25  C   UNL     1      -8.563   2.662  69.028  1.00  0.00    -0.116 C  
BRANCH  25  26
HETATM   26  C   UNL     1      -9.520   3.430  68.113  1.00  0.00    -0.211 C  
HETATM   27  C   UNL     1      -9.516   4.910  68.427  1.00  0.00    -0.139 C  
HETATM   28  O   UNL     1      -8.851   5.450  69.291  1.00  0.00    -0.100 OA 
HETATM   29  O   UNL     1     -10.350   5.604  67.616  1.00  0.00    -0.182 OA 
ENDBRANCH  25  26
ENDBRANCH  24  25
ENDBRANCH  23  24
ENDBRANCH  21  22
ENDBRANCH  19  21
ENDBRANCH  11  12
ENDBRANCH  10  11
ENDBRANCH   8  10
ENDBRANCH   7   8
ENDBRANCH   6   7
ENDBRANCH   5   6
ENDBRANCH   4   5
ENDBRANCH   3   4
ENDBRANCH   2   3
TORSDOF 14
ENDMDL
MODEL      402
REMARK 921   NORMALIZED FREE ENERGY PREDICTED BY IDOCK:   -1.45 KCAL/MOL
REMARK 922        TOTAL FREE ENERGY PREDICTED BY IDOCK:   -5.60 KCAL/MOL
REMARK 923 INTER-LIGAND FREE ENERGY PREDICTED BY IDOCK:   -4.91 KCAL/MOL
REMARK 924 INTRA-LIGAND FREE ENERGY PREDICTED BY IDOCK:   -0.69 KCAL/MOL
REMARK 927      BINDING AFFINITY PREDICTED BY RF-SCORE:    0.00 PKD
ROOT
HETATM    1  C   UNL     1      -7.598   4.985  70.710  1.00  0.00    -0.074 C  
HETATM    2  C   UNL     1      -6.516   3.923  70.631  1.00  0.00    -0.031 C  
ENDROOT
BRANCH   2   3
HETATM    3  C   UNL     1      -6.837   2.855  69.584  1.00  0.00    -0.034 C  
BRANCH   3   4
HETATM    4  C   UNL     1      -6.113   3.165  68.274  1.00  0.00    -0.025 C  
BRANCH   4   5
HETATM    5  C   UNL     1      -6.517   4.512  67.673  1.00  0.00    -0.045 C  
BRANCH   5   6
HETATM    6  C   UNL     1      -6.732   4.363  66.162  1.00  0.00    -0.050 C  
BRANCH   6   7
HETATM    7  C   UNL     1      -8.179   4.052  65.810  1.00  0.00    -0.105 C  
BRANCH   7   8
HETATM    8  C   UNL     1      -9.173   4.890  66.618  1.00  0.00    -0.126 C  
HETATM    9  O   UNL     1     -10.272   4.467  66.967  1.00  0.00    -0.158 OA 
BRANCH   8  10
HETATM   10  C   UNL     1      -8.679   6.275  66.982  1.00  0.00    -0.108 C  
BRANCH  10  11
HETATM   11  C   UNL     1      -9.402   7.475  66.351  1.00  0.00    -0.211 C  
BRANCH  11  12
HETATM   12  C   UNL     1     -10.099   8.333  67.439  1.00  0.00    -0.298 C  
HETATM   13  C   UNL     1     -10.107   7.620  68.801  1.00  0.00    -0.194 C  
HETATM   14  O   UNL     1     -11.126   6.639  68.901  1.00  0.00    -0.404 OA 
HETATM   15  C   UNL     1     -10.374   8.725  69.790  1.00  0.00    -0.214 C  
HETATM   16  H   UNL     1     -11.131   6.199  69.742  1.00  0.00     0.000 HD 
HETATM   17  C   UNL     1      -9.534   9.881  69.286  1.00  0.00    -0.209 C  
HETATM   18  O   UNL     1     -10.138  11.083  69.726  1.00  0.00    -0.422 OA 
HETATM   19  C   UNL     1      -9.433   9.714  67.740  1.00  0.00    -0.146 C  
HETATM   20  H   UNL     1      -9.612  11.808  69.410  1.00  0.00     0.000 HD 
BRANCH  19  21
HETATM   21  C   UNL     1     -10.048  10.860  66.912  1.00  0.00    -0.253 C  
BRANCH  21  22
HETATM   22  C   UNL     1      -9.037  11.761  66.249  1.00  0.00    -0.209 C  
HETATM   23  C   UNL     1      -8.597  12.963  66.648  1.00  0.00     0.007 C  
BRANCH  23  24
HETATM   24  C   UNL     1      -9.056  13.736  67.847  1.00  0.00    -0.193 C  
BRANCH  24  25
HETATM   25  C   UNL     1      -9.584  15.126  67.483  1.00  0.00    -0.207 C  
BRANCH  25  26
HETATM   26  C   UNL     1     -10.726  15.092  66.464  1.00  0.00    -0.310 C  
HETATM   27  C   UNL     1     -11.943  14.386  67.020  1.00  0.00    -0.395 C  
HETATM   28  O   UNL     1     -12.033  13.895  68.130  1.00  0.00    -0.355 OA 
HETATM   29  O   UNL     1     -12.965  14.359  66.132  1.00  0.00    -0.140 OA 
ENDBRANCH  25  26
ENDBRANCH  24  25
ENDBRANCH  23  24
ENDBRANCH  21  22
ENDBRANCH  19  21
ENDBRANCH  11  12
ENDBRANCH  10  11
ENDBRANCH   8  10
ENDBRANCH   7   8
ENDBRANCH   6   7
ENDBRANCH   5   6
ENDBRANCH   4   5
ENDBRANCH   3   4
ENDBRANCH   2   3
TORSDOF 14
ENDMDL
MODEL      403
REMARK 921   NORMALIZED FREE ENERGY PREDICTED BY IDOCK:   -1.37 KCAL/MOL
REMARK 922        TOTAL FREE ENERGY PREDICTED BY IDOCK:   -5.45 KCAL/MOL
REMARK 923 INTER-LIGAND FREE ENERGY PREDICTED BY IDOCK:   -4.53 KCAL/MOL
REMARK 924 INTRA-LIGAND FREE ENERGY PREDICTED BY IDOCK:   -0.92 KCAL/MOL
REMARK 927      BINDING AFFINITY PREDICTED BY RF-SCORE:    0.00 PKD
ROOT
HETATM    1  C   UNL     1     -11.294  14.499  65.132  1.00  0.00    -0.366 C  
HETATM    2  C   UNL     1     -12.056  13.190  65.023  1.00  0.00    -0.458 C  
ENDROOT
BRANCH   2   3
HETATM    3  C   UNL     1     -11.286  12.025  65.647  1.00  0.00    -0.381 C  
BRANCH   3   4
HETATM    4  C   UNL     1     -11.730  11.815  67.095  1.00  0.00    -0.267 C  
BRANCH   4   5
HETATM    5  C   UNL     1     -10.698  12.303  68.113  1.00  0.00    -0.241 C  
BRANCH   5   6
HETATM    6  C   UNL     1      -9.328  12.440  67.438  1.00  0.00    -0.181 C  
BRANCH   6   7
HETATM    7  C   UNL     1      -8.370  11.327  67.840  1.00  0.00    -0.131 C  
BRANCH   7   8
HETATM    8  C   UNL     1      -8.063  10.372  66.684  1.00  0.00    -0.122 C  
HETATM    9  O   UNL     1      -8.307  10.644  65.512  1.00  0.00    -0.165 OA 
BRANCH   8  10
HETATM   10  C   UNL     1      -7.404   9.072  67.100  1.00  0.00    -0.087 C  
BRANCH  10  11
HETATM   11  C   UNL     1      -8.299   7.989  67.721  1.00  0.00    -0.129 C  
BRANCH  11  12
HETATM   12  C   UNL     1      -7.957   6.591  67.140  1.00  0.00    -0.112 C  
HETATM   13  C   UNL     1      -7.746   6.649  65.618  1.00  0.00    -0.095 C  
HETATM   14  O   UNL     1      -8.965   6.668  64.895  1.00  0.00    -0.332 OA 
HETATM   15  C   UNL     1      -6.995   5.381  65.306  1.00  0.00    -0.064 C  
HETATM   16  H   UNL     1      -8.835   6.704  63.955  1.00  0.00     0.000 HD 
HETATM   17  C   UNL     1      -5.995   5.256  66.437  1.00  0.00    -0.022 C  
HETATM   18  O   UNL     1      -5.683   3.885  66.594  1.00  0.00    -0.021 OA 
HETATM   19  C   UNL     1      -6.644   5.938  67.679  1.00  0.00    -0.056 C  
HETATM   20  H   UNL     1      -5.056   3.807  67.304  1.00  0.00     0.000 HD 
BRANCH  19  21
HETATM   21  C   UNL     1      -6.897   5.010  68.883  1.00  0.00    -0.051 C  
BRANCH  21  22
HETATM   22  C   UNL     1      -7.406   3.638  68.516  1.00  0.00    -0.054 C  
HETATM   23  C   UNL     1      -8.627   3.283  68.093  1.00  0.00    -0.118 C  
BRANCH  23  24
HETATM   24  C   UNL     1      -9.818   4.179  67.932  1.00  0.00    -0.098 C  
BRANCH  24  25
HETATM   25  C   UNL     1     -10.274   4.794  69.257  1.00  0.00    -0.144 C  
BRANCH  25  26
HETATM   26  C   UNL     1     -11.136   6.046  69.080  1.00  0.00    -0.377 C  
HETATM   27  C   UNL     1     -10.735   7.135  70.050  1.00  0.00    -0.248 C  
HETATM   28  O   UNL     1      -9.847   7.056  70.878  1.00  0.00    -0.185 OA 
HETATM   29  O   UNL     1     -11.483   8.254  69.896  1.00  0.00    -0.025 OA 
ENDBRANCH  25  26
ENDBRANCH  24  25
ENDBRANCH  23  24
ENDBRANCH  21  22
ENDBRANCH  19  21
ENDBRANCH  11  12
ENDBRANCH  10  11
ENDBRANCH   8  10
ENDBRANCH   7   8
ENDBRANCH   6   7
ENDBRANCH   5   6
ENDBRANCH   4   5
ENDBRANCH   3   4
ENDBRANCH   2   3
TORSDOF 14
ENDMDL
MODEL      404
REMARK 921   NORMALIZED FREE ENERGY PREDICTED BY IDOCK:   -1.36 KCAL/MOL
REMARK 922        TOTAL FREE ENERGY PREDICTED BY IDOCK:   -5.42 KCAL/MOL
REMARK 923 INTER-LIGAND FREE ENERGY PREDICTED BY IDOCK:   -4.48 KCAL/MOL
REMARK 924 INTRA-LIGAND FREE ENERGY PREDICTED BY IDOCK:   -0.94 KCAL/MOL
REMARK 927      BINDING AFFINITY PREDICTED BY RF-SCORE:    0.00 PKD
ROOT
HETATM    1  C   UNL     1      -7.699   6.532  64.598  1.00  0.00    -0.108 C  
HETATM    2  C   UNL     1      -8.579   5.295  64.618  1.00  0.00    -0.125 C  
ENDROOT
BRANCH   2   3
HETATM    3  C   UNL     1      -9.299   5.126  65.957  1.00  0.00    -0.165 C  
BRANCH   3   4
HETATM    4  C   UNL     1      -9.301   3.655  66.372  1.00  0.00    -0.194 C  
BRANCH   4   5
HETATM    5  C   UNL     1      -7.893   3.082  66.547  1.00  0.00    -0.077 C  
BRANCH   5   6
HETATM    6  C   UNL     1      -7.109   3.930  67.556  1.00  0.00    -0.056 C  
BRANCH   6   7
HETATM    7  C   UNL     1      -7.188   3.370  68.969  1.00  0.00    -0.049 C  
BRANCH   7   8
HETATM    8  C   UNL     1      -7.951   4.291  69.923  1.00  0.00    -0.056 C  
HETATM    9  O   UNL     1      -9.117   4.628  69.734  1.00  0.00    -0.095 OA 
BRANCH   8  10
HETATM   10  C   UNL     1      -7.163   4.730  71.141  1.00  0.00    -0.052 C  
BRANCH  10  11
HETATM   11  C   UNL     1      -7.931   5.435  72.269  1.00  0.00    -0.107 C  
BRANCH  11  12
HETATM   12  C   UNL     1      -8.987   6.413  71.689  1.00  0.00    -0.144 C  
HETATM   13  C   UNL     1     -10.275   6.416  72.529  1.00  0.00    -0.183 C  
HETATM   14  O   UNL     1     -11.119   5.313  72.244  1.00  0.00    -0.221 OA 
HETATM   15  C   UNL     1     -10.966   7.694  72.131  1.00  0.00    -0.304 C  
HETATM   16  H   UNL     1     -11.914   5.315  72.763  1.00  0.00     0.000 HD 
HETATM   17  C   UNL     1      -9.844   8.708  72.042  1.00  0.00    -0.325 C  
HETATM   18  O   UNL     1     -10.239   9.716  71.131  1.00  0.00    -0.272 OA 
HETATM   19  C   UNL     1      -8.562   7.916  71.643  1.00  0.00    -0.147 C  
HETATM   20  H   UNL     1      -9.535  10.352  71.074  1.00  0.00     0.000 HD 
BRANCH  19  21
HETATM   21  C   UNL     1      -7.937   8.312  70.291  1.00  0.00    -0.102 C  
BRANCH  21  22
HETATM   22  C   UNL     1      -7.238   9.648  70.296  1.00  0.00    -0.137 C  
HETATM   23  C   UNL     1      -7.096  10.523  69.290  1.00  0.00    -0.097 C  
BRANCH  23  24
HETATM   24  C   UNL     1      -7.564  10.352  67.876  1.00  0.00    -0.088 C  
BRANCH  24  25
HETATM   25  C   UNL     1      -8.461  11.502  67.413  1.00  0.00    -0.147 C  
BRANCH  25  26
HETATM   26  C   UNL     1      -9.929  11.098  67.252  1.00  0.00    -0.211 C  
HETATM   27  C   UNL     1     -10.704  12.133  66.467  1.00  0.00    -0.255 C  
HETATM   28  O   UNL     1     -10.249  13.165  66.010  1.00  0.00    -0.275 OA 
HETATM   29  O   UNL     1     -12.003  11.783  66.308  1.00  0.00    -0.490 OA 
ENDBRANCH  25  26
ENDBRANCH  24  25
ENDBRANCH  23  24
ENDBRANCH  21  22
ENDBRANCH  19  21
ENDBRANCH  11  12
ENDBRANCH  10  11
ENDBRANCH   8  10
ENDBRANCH   7   8
ENDBRANCH   6   7
ENDBRANCH   5   6
ENDBRANCH   4   5
ENDBRANCH   3   4
ENDBRANCH   2   3
TORSDOF 14
ENDMDL
MODEL      405
REMARK 921   NORMALIZED FREE ENERGY PREDICTED BY IDOCK:   -1.30 KCAL/MOL
REMARK 922        TOTAL FREE ENERGY PREDICTED BY IDOCK:   -5.32 KCAL/MOL
REMARK 923 INTER-LIGAND FREE ENERGY PREDICTED BY IDOCK:   -5.12 KCAL/MOL
REMARK 924 INTRA-LIGAND FREE ENERGY PREDICTED BY IDOCK:   -0.21 KCAL/MOL
REMARK 927      BINDING AFFINITY PREDICTED BY RF-SCORE:    0.00 PKD
ROOT
HETATM    1  C   UNL     1     -11.876  10.207  68.876  1.00  0.00     0.164 C  
HETATM    2  C   UNL     1     -12.343   9.428  70.092  1.00  0.00     0.380 C  
ENDROOT
BRANCH   2   3
HETATM    3  C   UNL     1     -11.781  10.005  71.393  1.00  0.00    -0.414 C  
BRANCH   3   4
HETATM    4  C   UNL     1     -12.910  10.587  72.242  1.00  0.00    -0.087 C  
BRANCH   4   5
HETATM    5  C   UNL     1     -13.411  11.937  71.726  1.00  0.00    -0.334 C  
BRANCH   5   6
HETATM    6  C   UNL     1     -12.266  12.686  71.034  1.00  0.00    -0.195 C  
BRANCH   6   7
HETATM    7  C   UNL     1     -12.768  13.696  70.012  1.00  0.00    -0.044 C  
BRANCH   7   8
HETATM    8  C   UNL     1     -12.007  13.618  68.687  1.00  0.00    -0.360 C  
HETATM    9  O   UNL     1     -12.571  13.538  67.598  1.00  0.00     0.050 OA 
BRANCH   8  10
HETATM   10  C   UNL     1     -10.499  13.679  68.822  1.00  0.00    -0.214 C  
BRANCH  10  11
HETATM   11  C   UNL     1      -9.705  14.289  67.656  1.00  0.00    -0.220 C  
BRANCH  11  12
HETATM   12  C   UNL     1     -10.562  15.335  66.894  1.00  0.00    -0.304 C  
HETATM   13  C   UNL     1     -10.066  16.767  67.155  1.00  0.00    -0.282 C  
HETATM   14  O   UNL     1     -10.513  17.284  68.398  1.00  0.00    -0.344 OA 
HETATM   15  C   UNL     1     -10.666  17.571  66.031  1.00  0.00    -0.116 C  
HETATM   16  H   UNL     1     -10.207  18.169  68.559  1.00  0.00     0.000 HD 
HETATM   17  C   UNL     1     -10.510  16.679  64.816  1.00  0.00     0.430 C  
HETATM   18  O   UNL     1     -11.524  17.021  63.891  1.00  0.00    -1.044 OA 
HETATM   19  C   UNL     1     -10.552  15.211  65.337  1.00  0.00    -0.410 C  
HETATM   20  H   UNL     1     -11.427  16.462  63.129  1.00  0.00     0.000 HD 
BRANCH  19  21
HETATM   21  C   UNL     1     -11.721  14.357  64.806  1.00  0.00    -0.420 C  
BRANCH  21  22
HETATM   22  C   UNL     1     -11.298  13.091  64.103  1.00  0.00    -0.442 C  
HETATM   23  C   UNL     1     -10.487  12.119  64.544  1.00  0.00    -0.339 C  
BRANCH  23  24
HETATM   24  C   UNL     1      -9.752  12.084  65.850  1.00  0.00    -0.256 C  
BRANCH  24  25
HETATM   25  C   UNL     1      -8.354  11.474  65.720  1.00  0.00     0.187 C  
BRANCH  25  26
HETATM   26  C   UNL     1      -7.782  10.982  67.051  1.00  0.00    -0.134 C  
HETATM   27  C   UNL     1      -8.432   9.687  67.488  1.00  0.00    -0.125 C  
HETATM   28  O   UNL     1      -9.301   9.090  66.882  1.00  0.00    -0.145 OA 
HETATM   29  O   UNL     1      -7.926   9.235  68.661  1.00  0.00    -0.098 OA 
ENDBRANCH  25  26
ENDBRANCH  24  25
ENDBRANCH  23  24
ENDBRANCH  21  22
ENDBRANCH  19  21
ENDBRANCH  11  12
ENDBRANCH  10  11
ENDBRANCH   8  10
ENDBRANCH   7   8
ENDBRANCH   6   7
ENDBRANCH   5   6
ENDBRANCH   4   5
ENDBRANCH   3   4
ENDBRANCH   2   3
TORSDOF 14
ENDMDL
MODEL      406
REMARK 921   NORMALIZED FREE ENERGY PREDICTED BY IDOCK:   -1.29 KCAL/MOL
REMARK 922        TOTAL FREE ENERGY PREDICTED BY IDOCK:   -5.31 KCAL/MOL
REMARK 923 INTER-LIGAND FREE ENERGY PREDICTED BY IDOCK:   -3.41 KCAL/MOL
REMARK 924 INTRA-LIGAND FREE ENERGY PREDICTED BY IDOCK:   -1.89 KCAL/MOL
REMARK 927      BINDING AFFINITY PREDICTED BY RF-SCORE:    0.00 PKD
ROOT
HETATM    1  C   UNL     1     -10.454  14.178  64.041  1.00  0.00     0.913 C  
HETATM    2  C   UNL     1     -11.495  14.264  65.143  1.00  0.00    -0.351 C  
ENDROOT
BRANCH   2   3
HETATM    3  C   UNL     1     -12.388  13.022  65.186  1.00  0.00    -0.536 C  
BRANCH   3   4
HETATM    4  C   UNL     1     -12.243  12.314  66.532  1.00  0.00     0.150 C  
BRANCH   4   5
HETATM    5  C   UNL     1     -10.815  11.838  66.805  1.00  0.00    -0.312 C  
BRANCH   5   6
HETATM    6  C   UNL     1     -10.311  11.003  65.622  1.00  0.00    -0.311 C  
BRANCH   6   7
HETATM    7  C   UNL     1     -10.325   9.510  65.918  1.00  0.00    -0.051 C  
BRANCH   7   8
HETATM    8  C   UNL     1      -8.923   8.896  65.904  1.00  0.00    -0.200 C  
HETATM    9  O   UNL     1      -8.310   8.658  64.867  1.00  0.00    -0.153 OA 
BRANCH   8  10
HETATM   10  C   UNL     1      -8.338   8.631  67.277  1.00  0.00    -0.108 C  
BRANCH  10  11
HETATM   11  C   UNL     1      -9.205   8.977  68.497  1.00  0.00    -0.136 C  
BRANCH  11  12
HETATM   12  C   UNL     1      -8.325   9.474  69.675  1.00  0.00    -0.155 C  
HETATM   13  C   UNL     1      -8.203   8.408  70.777  1.00  0.00    -0.124 C  
HETATM   14  O   UNL     1      -9.339   8.364  71.624  1.00  0.00    -0.172 OA 
HETATM   15  C   UNL     1      -6.999   8.842  71.571  1.00  0.00    -0.080 C  
HETATM   16  H   UNL     1      -9.263   7.705  72.305  1.00  0.00     0.000 HD 
HETATM   17  C   UNL     1      -6.006   9.293  70.520  1.00  0.00    -0.047 C  
HETATM   18  O   UNL     1      -5.143  10.243  71.113  1.00  0.00    -0.059 OA 
HETATM   19  C   UNL     1      -6.844   9.816  69.314  1.00  0.00    -0.055 C  
HETATM   20  H   UNL     1      -4.520  10.526  70.454  1.00  0.00     0.000 HD 
BRANCH  19  21
HETATM   21  C   UNL     1      -6.648  11.306  68.973  1.00  0.00    -0.079 C  
BRANCH  21  22
HETATM   22  C   UNL     1      -7.629  11.847  67.963  1.00  0.00    -0.122 C  
HETATM   23  C   UNL     1      -7.915  13.125  67.674  1.00  0.00    -0.174 C  
BRANCH  23  24
HETATM   24  C   UNL     1      -7.352  14.345  68.339  1.00  0.00    -0.117 C  
BRANCH  24  25
HETATM   25  C   UNL     1      -8.438  15.233  68.952  1.00  0.00    -0.202 C  
BRANCH  25  26
HETATM   26  C   UNL     1      -9.856  14.821  68.549  1.00  0.00    -0.218 C  
HETATM   27  C   UNL     1     -10.794  16.007  68.539  1.00  0.00    -0.304 C  
HETATM   28  O   UNL     1     -10.492  17.153  68.812  1.00  0.00    -0.325 OA 
HETATM   29  O   UNL     1     -12.051  15.658  68.173  1.00  0.00    -0.088 OA 
ENDBRANCH  25  26
ENDBRANCH  24  25
ENDBRANCH  23  24
ENDBRANCH  21  22
ENDBRANCH  19  21
ENDBRANCH  11  12
ENDBRANCH  10  11
ENDBRANCH   8  10
ENDBRANCH   7   8
ENDBRANCH   6   7
ENDBRANCH   5   6
ENDBRANCH   4   5
ENDBRANCH   3   4
ENDBRANCH   2   3
TORSDOF 14
ENDMDL
MODEL      407
REMARK 921   NORMALIZED FREE ENERGY PREDICTED BY IDOCK:   -0.69 KCAL/MOL
REMARK 922        TOTAL FREE ENERGY PREDICTED BY IDOCK:   -4.21 KCAL/MOL
REMARK 923 INTER-LIGAND FREE ENERGY PREDICTED BY IDOCK:   -4.79 KCAL/MOL
REMARK 924 INTRA-LIGAND FREE ENERGY PREDICTED BY IDOCK:    0.57 KCAL/MOL
REMARK 927      BINDING AFFINITY PREDICTED BY RF-SCORE:    0.00 PKD
ROOT
HETATM    1  C   UNL     1      -5.176   3.429  68.840  1.00  0.00    -0.012 C  
HETATM    2  C   UNL     1      -6.127   2.464  69.526  1.00  0.00    -0.024 C  
ENDROOT
BRANCH   2   3
HETATM    3  C   UNL     1      -7.505   3.088  69.760  1.00  0.00    -0.044 C  
BRANCH   3   4
HETATM    4  C   UNL     1      -7.561   3.736  71.143  1.00  0.00    -0.044 C  
BRANCH   4   5
HETATM    5  C   UNL     1      -7.463   5.262  71.091  1.00  0.00    -0.084 C  
BRANCH   5   6
HETATM    6  C   UNL     1      -8.338   5.877  72.189  1.00  0.00    -0.118 C  
BRANCH   6   7
HETATM    7  C   UNL     1      -9.765   5.349  72.157  1.00  0.00    -0.196 C  
BRANCH   7   8
HETATM    8  C   UNL     1     -10.789   6.444  71.852  1.00  0.00    -0.240 C  
HETATM    9  O   UNL     1     -11.910   6.466  72.354  1.00  0.00    -0.281 OA 
BRANCH   8  10
HETATM   10  C   UNL     1     -10.299   7.519  70.904  1.00  0.00    -0.203 C  
BRANCH  10  11
HETATM   11  C   UNL     1      -8.986   7.257  70.151  1.00  0.00    -0.148 C  
BRANCH  11  12
HETATM   12  C   UNL     1      -9.214   7.289  68.616  1.00  0.00    -0.136 C  
HETATM   13  C   UNL     1     -10.445   6.461  68.212  1.00  0.00    -0.223 C  
HETATM   14  O   UNL     1     -10.176   5.070  68.158  1.00  0.00    -0.144 OA 
HETATM   15  C   UNL     1     -10.783   6.962  66.832  1.00  0.00    -0.386 C  
HETATM   16  H   UNL     1     -10.937   4.558  67.908  1.00  0.00     0.000 HD 
HETATM   17  C   UNL     1     -10.590   8.462  66.927  1.00  0.00    -0.215 C  
HETATM   18  O   UNL     1     -10.284   8.945  65.633  1.00  0.00    -0.287 OA 
HETATM   19  C   UNL     1      -9.490   8.700  68.004  1.00  0.00    -0.154 C  
HETATM   20  H   UNL     1     -10.162   9.885  65.692  1.00  0.00     0.000 HD 
BRANCH  19  21
HETATM   21  C   UNL     1      -8.206   9.383  67.494  1.00  0.00    -0.117 C  
BRANCH  21  22
HETATM   22  C   UNL     1      -7.888  10.694  68.170  1.00  0.00    -0.110 C  
HETATM   23  C   UNL     1      -8.656  11.787  68.281  1.00  0.00    -0.162 C  
BRANCH  23  24
HETATM   24  C   UNL     1     -10.024  11.988  67.702  1.00  0.00    -0.196 C  
BRANCH  24  25
HETATM   25  C   UNL     1     -10.763  13.166  68.339  1.00  0.00    -0.270 C  
BRANCH  25  26
HETATM   26  C   UNL     1     -10.027  14.499  68.183  1.00  0.00    -0.220 C  
HETATM   27  C   UNL     1     -10.261  15.402  69.374  1.00  0.00    -0.262 C  
HETATM   28  O   UNL     1     -10.941  15.134  70.345  1.00  0.00    -0.264 OA 
HETATM   29  O   UNL     1      -9.605  16.582  69.253  1.00  0.00    -0.248 OA 
ENDBRANCH  25  26
ENDBRANCH  24  25
ENDBRANCH  23  24
ENDBRANCH  21  22
ENDBRANCH  19  21
ENDBRANCH  11  12
ENDBRANCH  10  11
ENDBRANCH   8  10
ENDBRANCH   7   8
ENDBRANCH   6   7
ENDBRANCH   5   6
ENDBRANCH   4   5
ENDBRANCH   3   4
ENDBRANCH   2   3
TORSDOF 14
ENDMDL
MODEL      408
REMARK 921   NORMALIZED FREE ENERGY PREDICTED BY IDOCK:   -0.65 KCAL/MOL
REMARK 922        TOTAL FREE ENERGY PREDICTED BY IDOCK:   -4.14 KCAL/MOL
REMARK 923 INTER-LIGAND FREE ENERGY PREDICTED BY IDOCK:   -3.13 KCAL/MOL
REMARK 924 INTRA-LIGAND FREE ENERGY PREDICTED BY IDOCK:   -1.01 KCAL/MOL
REMARK 927      BINDING AFFINITY PREDICTED BY RF-SCORE:    0.00 PKD
ROOT
HETATM    1  C   UNL     1     -13.169   5.990  72.239  1.00  0.00     0.592 C  
HETATM    2  C   UNL     1     -12.978   7.387  71.676  1.00  0.00    -0.409 C  
ENDROOT
BRANCH   2   3
HETATM    3  C   UNL     1     -11.529   7.641  71.255  1.00  0.00    -0.293 C  
BRANCH   3   4
HETATM    4  C   UNL     1     -10.573   7.204  72.365  1.00  0.00    -0.257 C  
BRANCH   4   5
HETATM    5  C   UNL     1      -9.111   7.174  71.917  1.00  0.00    -0.144 C  
BRANCH   5   6
HETATM    6  C   UNL     1      -8.747   8.502  71.242  1.00  0.00    -0.228 C  
BRANCH   6   7
HETATM    7  C   UNL     1      -7.264   8.598  70.915  1.00  0.00    -0.073 C  
BRANCH   7   8
HETATM    8  C   UNL     1      -6.646   7.237  70.585  1.00  0.00    -0.047 C  
HETATM    9  O   UNL     1      -6.354   6.412  71.446  1.00  0.00    -0.043 OA 
BRANCH   8  10
HETATM   10  C   UNL     1      -6.451   6.976  69.105  1.00  0.00    -0.040 C  
BRANCH  10  11
HETATM   11  C   UNL     1      -7.706   6.942  68.219  1.00  0.00    -0.113 C  
BRANCH  11  12
HETATM   12  C   UNL     1      -7.466   7.717  66.895  1.00  0.00    -0.094 C  
HETATM   13  C   UNL     1      -6.661   6.879  65.889  1.00  0.00    -0.051 C  
HETATM   14  O   UNL     1      -5.269   6.884  66.161  1.00  0.00    -0.020 OA 
HETATM   15  C   UNL     1      -6.917   7.552  64.566  1.00  0.00    -0.055 C  
HETATM   16  H   UNL     1      -4.771   6.366  65.539  1.00  0.00     0.000 HD 
HETATM   17  C   UNL     1      -8.392   7.895  64.607  1.00  0.00    -0.038 C  
HETATM   18  O   UNL     1      -8.605   9.009  63.761  1.00  0.00    -0.285 OA 
HETATM   19  C   UNL     1      -8.754   8.119  66.106  1.00  0.00    -0.179 C  
HETATM   20  H   UNL     1      -9.530   9.224  63.787  1.00  0.00     0.000 HD 
BRANCH  19  21
HETATM   21  C   UNL     1      -9.244   9.537  66.461  1.00  0.00    -0.201 C  
BRANCH  21  22
HETATM   22  C   UNL     1     -10.688   9.606  66.892  1.00  0.00    -0.185 C  
HETATM   23  C   UNL     1     -11.213  10.212  67.966  1.00  0.00    -0.247 C  
BRANCH  23  24
HETATM   24  C   UNL     1     -10.467  10.938  69.044  1.00  0.00    -0.244 C  
BRANCH  24  25
HETATM   25  C   UNL     1      -8.991  11.146  68.697  1.00  0.00    -0.162 C  
BRANCH  25  26
HETATM   26  C   UNL     1      -8.532  12.598  68.848  1.00  0.00     0.294 C  
HETATM   27  C   UNL     1      -8.882  13.419  67.626  1.00  0.00    -0.200 C  
HETATM   28  O   UNL     1      -9.453  13.006  66.635  1.00  0.00    -0.246 OA 
HETATM   29  O   UNL     1      -8.491  14.710  67.752  1.00  0.00    -0.157 OA 
ENDBRANCH  25  26
ENDBRANCH  24  25
ENDBRANCH  23  24
ENDBRANCH  21  22
ENDBRANCH  19  21
ENDBRANCH  11  12
ENDBRANCH  10  11
ENDBRANCH   8  10
ENDBRANCH   7   8
ENDBRANCH   6   7
ENDBRANCH   5   6
ENDBRANCH   4   5
ENDBRANCH   3   4
ENDBRANCH   2   3
TORSDOF 14
ENDMDL
MODEL      409
REMARK 921   NORMALIZED FREE ENERGY PREDICTED BY IDOCK:   -0.43 KCAL/MOL
REMARK 922        TOTAL FREE ENERGY PREDICTED BY IDOCK:   -3.75 KCAL/MOL
REMARK 923 INTER-LIGAND FREE ENERGY PREDICTED BY IDOCK:   -3.41 KCAL/MOL
REMARK 924 INTRA-LIGAND FREE ENERGY PREDICTED BY IDOCK:   -0.34 KCAL/MOL
REMARK 927      BINDING AFFINITY PREDICTED BY RF-SCORE:    0.00 PKD
ROOT
HETATM    1  C   UNL     1      -9.277   8.382  62.394  1.00  0.00     0.784 C  
HETATM    2  C   UNL     1      -8.010   9.217  62.465  1.00  0.00    -0.128 C  
ENDROOT
BRANCH   2   3
HETATM    3  C   UNL     1      -8.217  10.504  63.266  1.00  0.00    -0.111 C  
BRANCH   3   4
HETATM    4  C   UNL     1      -9.669  10.609  63.731  1.00  0.00    -0.382 C  
BRANCH   4   5
HETATM    5  C   UNL     1      -9.908   9.958  65.095  1.00  0.00    -0.348 C  
BRANCH   5   6
HETATM    6  C   UNL     1      -8.940  10.547  66.128  1.00  0.00    -0.178 C  
BRANCH   6   7
HETATM    7  C   UNL     1      -8.523   9.528  67.178  1.00  0.00    -0.131 C  
BRANCH   7   8
HETATM    8  C   UNL     1      -7.414  10.050  68.095  1.00  0.00    -0.083 C  
HETATM    9  O   UNL     1      -6.984  11.199  68.033  1.00  0.00    -0.066 OA 
BRANCH   8  10
HETATM   10  C   UNL     1      -6.909   9.043  69.109  1.00  0.00    -0.054 C  
BRANCH  10  11
HETATM   11  C   UNL     1      -7.858   8.647  70.250  1.00  0.00    -0.097 C  
BRANCH  11  12
HETATM   12  C   UNL     1      -7.908   7.105  70.414  1.00  0.00    -0.100 C  
HETATM   13  C   UNL     1      -7.714   6.387  69.069  1.00  0.00    -0.101 C  
HETATM   14  O   UNL     1      -8.897   6.357  68.287  1.00  0.00    -0.117 OA 
HETATM   15  C   UNL     1      -7.331   4.982  69.456  1.00  0.00    -0.057 C  
HETATM   16  H   UNL     1      -8.777   5.913  67.456  1.00  0.00     0.000 HD 
HETATM   17  C   UNL     1      -6.381   5.168  70.622  1.00  0.00    -0.023 C  
HETATM   18  O   UNL     1      -6.441   4.003  71.423  1.00  0.00    -0.015 OA 
HETATM   19  C   UNL     1      -6.805   6.488  71.334  1.00  0.00    -0.063 C  
HETATM   20  H   UNL     1      -5.846   4.119  72.154  1.00  0.00     0.000 HD 
BRANCH  19  21
HETATM   21  C   UNL     1      -7.276   6.327  72.793  1.00  0.00    -0.087 C  
BRANCH  21  22
HETATM   22  C   UNL     1      -8.227   5.179  73.018  1.00  0.00    -0.105 C  
HETATM   23  C   UNL     1      -9.492   5.044  72.596  1.00  0.00    -0.161 C  
BRANCH  23  24
HETATM   24  C   UNL     1     -10.295   6.049  71.826  1.00  0.00    -0.259 C  
BRANCH  24  25
HETATM   25  C   UNL     1     -10.975   7.076  72.734  1.00  0.00    -0.329 C  
BRANCH  25  26
HETATM   26  C   UNL     1     -12.381   7.461  72.267  1.00  0.00    -0.164 C  
HETATM   27  C   UNL     1     -12.403   8.850  71.666  1.00  0.00    -0.343 C  
HETATM   28  O   UNL     1     -11.444   9.590  71.555  1.00  0.00    -0.368 OA 
HETATM   29  O   UNL     1     -13.640   9.199  71.238  1.00  0.00    -0.324 OA 
ENDBRANCH  25  26
ENDBRANCH  24  25
ENDBRANCH  23  24
ENDBRANCH  21  22
ENDBRANCH  19  21
ENDBRANCH  11  12
ENDBRANCH  10  11
ENDBRANCH   8  10
ENDBRANCH   7   8
ENDBRANCH   6   7
ENDBRANCH   5   6
ENDBRANCH   4   5
ENDBRANCH   3   4
ENDBRANCH   2   3
TORSDOF 14
ENDMDL
MODEL      410
REMARK 921   NORMALIZED FREE ENERGY PREDICTED BY IDOCK:   -0.29 KCAL/MOL
REMARK 922        TOTAL FREE ENERGY PREDICTED BY IDOCK:   -3.49 KCAL/MOL
REMARK 923 INTER-LIGAND FREE ENERGY PREDICTED BY IDOCK:   -2.09 KCAL/MOL
REMARK 924 INTRA-LIGAND FREE ENERGY PREDICTED BY IDOCK:   -1.40 KCAL/MOL
REMARK 927      BINDING AFFINITY PREDICTED BY RF-SCORE:    0.00 PKD
ROOT
HETATM    1  C   UNL     1      -9.135   9.816  65.348  1.00  0.00    -0.251 C  
HETATM    2  C   UNL     1      -9.200   8.957  66.598  1.00  0.00    -0.215 C  
ENDROOT
BRANCH   2   3
HETATM    3  C   UNL     1     -10.144   7.765  66.425  1.00  0.00    -0.124 C  
BRANCH   3   4
HETATM    4  C   UNL     1      -9.542   6.753  65.451  1.00  0.00     0.853 C  
BRANCH   4   5
HETATM    5  C   UNL     1      -9.425   5.349  66.046  1.00  0.00    -0.161 C  
BRANCH   5   6
HETATM    6  C   UNL     1      -8.441   5.363  67.222  1.00  0.00    -0.106 C  
BRANCH   6   7
HETATM    7  C   UNL     1      -8.674   4.209  68.187  1.00  0.00    -0.117 C  
BRANCH   7   8
HETATM    8  C   UNL     1      -7.597   4.124  69.271  1.00  0.00    -0.054 C  
HETATM    9  O   UNL     1      -6.398   4.041  69.014  1.00  0.00    -0.030 OA 
BRANCH   8  10
HETATM   10  C   UNL     1      -8.125   4.180  70.690  1.00  0.00    -0.059 C  
BRANCH  10  11
HETATM   11  C   UNL     1      -8.970   5.401  71.084  1.00  0.00    -0.155 C  
BRANCH  11  12
HETATM   12  C   UNL     1      -8.315   6.167  72.265  1.00  0.00    -0.113 C  
HETATM   13  C   UNL     1      -8.633   5.503  73.614  1.00  0.00    -0.114 C  
HETATM   14  O   UNL     1      -9.925   5.834  74.097  1.00  0.00    -0.187 OA 
HETATM   15  C   UNL     1      -7.590   6.057  74.549  1.00  0.00    -0.093 C  
HETATM   16  H   UNL     1     -10.122   5.423  74.931  1.00  0.00     0.000 HD 
HETATM   17  C   UNL     1      -6.319   6.056  73.724  1.00  0.00    -0.069 C  
HETATM   18  O   UNL     1      -5.468   7.065  74.233  1.00  0.00    -0.050 OA 
HETATM   19  C   UNL     1      -6.754   6.240  72.239  1.00  0.00    -0.068 C  
HETATM   20  H   UNL     1      -4.671   7.065  73.716  1.00  0.00     0.000 HD 
BRANCH  19  21
HETATM   21  C   UNL     1      -6.234   7.519  71.553  1.00  0.00    -0.036 C  
BRANCH  21  22
HETATM   22  C   UNL     1      -7.126   8.723  71.725  1.00  0.00    -0.077 C  
HETATM   23  C   UNL     1      -7.638   9.528  70.783  1.00  0.00    -0.099 C  
BRANCH  23  24
HETATM   24  C   UNL     1      -7.398   9.449  69.305  1.00  0.00    -0.071 C  
BRANCH  24  25
HETATM   25  C   UNL     1      -7.786  10.738  68.578  1.00  0.00    -0.118 C  
BRANCH  25  26
HETATM   26  C   UNL     1      -6.611  11.404  67.858  1.00  0.00    -0.059 C  
HETATM   27  C   UNL     1      -6.537  12.883  68.171  1.00  0.00    -0.093 C  
HETATM   28  O   UNL     1      -7.299  13.493  68.896  1.00  0.00    -0.101 OA 
HETATM   29  O   UNL     1      -5.494  13.483  67.549  1.00  0.00    -0.319 OA 
ENDBRANCH  25  26
ENDBRANCH  24  25
ENDBRANCH  23  24
ENDBRANCH  21  22
ENDBRANCH  19  21
ENDBRANCH  11  12
ENDBRANCH  10  11
ENDBRANCH   8  10
ENDBRANCH   7   8
ENDBRANCH   6   7
ENDBRANCH   5   6
ENDBRANCH   4   5
ENDBRANCH   3   4
ENDBRANCH   2   3
TORSDOF 14
ENDMDL
MODEL      411
REMARK 921   NORMALIZED FREE ENERGY PREDICTED BY IDOCK:   -0.28 KCAL/MOL
REMARK 922        TOTAL FREE ENERGY PREDICTED BY IDOCK:   -3.47 KCAL/MOL
REMARK 923 INTER-LIGAND FREE ENERGY PREDICTED BY IDOCK:   -1.48 KCAL/MOL
REMARK 924 INTRA-LIGAND FREE ENERGY PREDICTED BY IDOCK:   -2.00 KCAL/MOL
REMARK 927      BINDING AFFINITY PREDICTED BY RF-SCORE:    0.00 PKD
ROOT
HETATM    1  C   UNL     1      -9.141   9.817  65.353  1.00  0.00    -0.251 C  
HETATM    2  C   UNL     1      -9.223   8.913  66.570  1.00  0.00    -0.231 C  
ENDROOT
BRANCH   2   3
HETATM    3  C   UNL     1     -10.165   7.729  66.341  1.00  0.00    -0.053 C  
BRANCH   3   4
HETATM    4  C   UNL     1      -9.563   6.768  65.316  1.00  0.00     1.062 C  
BRANCH   4   5
HETATM    5  C   UNL     1      -9.471   5.330  65.829  1.00  0.00    -0.132 C  
BRANCH   5   6
HETATM    6  C   UNL     1      -8.536   5.270  67.043  1.00  0.00    -0.106 C  
BRANCH   6   7
HETATM    7  C   UNL     1      -8.748   4.015  67.876  1.00  0.00    -0.118 C  
BRANCH   7   8
HETATM    8  C   UNL     1      -7.722   3.879  69.004  1.00  0.00    -0.053 C  
HETATM    9  O   UNL     1      -6.511   3.965  68.818  1.00  0.00    -0.035 OA 
BRANCH   8  10
HETATM   10  C   UNL     1      -8.323   3.661  70.379  1.00  0.00    -0.082 C  
BRANCH  10  11
HETATM   11  C   UNL     1      -9.321   4.710  70.892  1.00  0.00    -0.214 C  
BRANCH  11  12
HETATM   12  C   UNL     1      -8.843   5.313  72.240  1.00  0.00    -0.132 C  
HETATM   13  C   UNL     1      -9.135   4.367  73.416  1.00  0.00    -0.110 C  
HETATM   14  O   UNL     1     -10.484   4.430  73.849  1.00  0.00    -0.184 OA 
HETATM   15  C   UNL     1      -8.231   4.861  74.515  1.00  0.00    -0.098 C  
HETATM   16  H   UNL     1     -10.664   3.845  74.576  1.00  0.00     0.000 HD 
HETATM   17  C   UNL     1      -6.931   5.181  73.805  1.00  0.00    -0.081 C  
HETATM   18  O   UNL     1      -6.258   6.174  74.556  1.00  0.00    -0.067 OA 
HETATM   19  C   UNL     1      -7.309   5.589  72.350  1.00  0.00    -0.095 C  
HETATM   20  H   UNL     1      -5.443   6.376  74.111  1.00  0.00     0.000 HD 
BRANCH  19  21
HETATM   21  C   UNL     1      -6.940   7.032  71.953  1.00  0.00    -0.065 C  
BRANCH  21  22
HETATM   22  C   UNL     1      -7.987   8.061  72.299  1.00  0.00    -0.161 C  
HETATM   23  C   UNL     1      -8.557   8.977  71.504  1.00  0.00    -0.111 C  
BRANCH  23  24
HETATM   24  C   UNL     1      -8.245   9.234  70.061  1.00  0.00    -0.160 C  
BRANCH  24  25
HETATM   25  C   UNL     1      -8.771  10.588  69.579  1.00  0.00    -0.040 C  
BRANCH  25  26
HETATM   26  C   UNL     1     -10.153  10.935  70.139  1.00  0.00     0.682 C  
HETATM   27  C   UNL     1     -11.096  11.385  69.045  1.00  0.00    -0.243 C  
HETATM   28  O   UNL     1     -10.821  11.472  67.863  1.00  0.00    -0.189 OA 
HETATM   29  O   UNL     1     -12.326  11.684  69.526  1.00  0.00    -0.211 OA 
ENDBRANCH  25  26
ENDBRANCH  24  25
ENDBRANCH  23  24
ENDBRANCH  21  22
ENDBRANCH  19  21
ENDBRANCH  11  12
ENDBRANCH  10  11
ENDBRANCH   8  10
ENDBRANCH   7   8
ENDBRANCH   6   7
ENDBRANCH   5   6
ENDBRANCH   4   5
ENDBRANCH   3   4
ENDBRANCH   2   3
TORSDOF 14
ENDMDL
MODEL      412
REMARK 921   NORMALIZED FREE ENERGY PREDICTED BY IDOCK:   -0.06 KCAL/MOL
REMARK 922        TOTAL FREE ENERGY PREDICTED BY IDOCK:   -3.06 KCAL/MOL
REMARK 923 INTER-LIGAND FREE ENERGY PREDICTED BY IDOCK:   -2.54 KCAL/MOL
REMARK 924 INTRA-LIGAND FREE ENERGY PREDICTED BY IDOCK:   -0.52 KCAL/MOL
REMARK 927      BINDING AFFINITY PREDICTED BY RF-SCORE:    0.00 PKD
ROOT
HETATM    1  C   UNL     1      -9.184   8.386  62.333  1.00  0.00     0.784 C  
HETATM    2  C   UNL     1      -7.940   9.251  62.424  1.00  0.00    -0.129 C  
ENDROOT
BRANCH   2   3
HETATM    3  C   UNL     1      -8.174  10.503  63.274  1.00  0.00    -0.111 C  
BRANCH   3   4
HETATM    4  C   UNL     1      -9.612  10.526  63.792  1.00  0.00    -0.363 C  
BRANCH   4   5
HETATM    5  C   UNL     1      -9.761   9.875  65.168  1.00  0.00    -0.376 C  
BRANCH   5   6
HETATM    6  C   UNL     1      -8.514  10.158  66.015  1.00  0.00    -0.136 C  
BRANCH   6   7
HETATM    7  C   UNL     1      -8.200   9.025  66.981  1.00  0.00    -0.109 C  
BRANCH   7   8
HETATM    8  C   UNL     1      -6.967   8.221  66.561  1.00  0.00    -0.068 C  
HETATM    9  O   UNL     1      -6.294   8.501  65.573  1.00  0.00    -0.054 OA 
BRANCH   8  10
HETATM   10  C   UNL     1      -6.623   7.068  67.482  1.00  0.00    -0.055 C  
BRANCH  10  11
HETATM   11  C   UNL     1      -6.007   7.408  68.847  1.00  0.00    -0.026 C  
BRANCH  11  12
HETATM   12  C   UNL     1      -6.630   6.533  69.967  1.00  0.00    -0.048 C  
HETATM   13  C   UNL     1      -6.265   5.050  69.792  1.00  0.00    -0.026 C  
HETATM   14  O   UNL     1      -7.065   4.399  68.819  1.00  0.00    -0.051 OA 
HETATM   15  C   UNL     1      -6.532   4.447  71.147  1.00  0.00    -0.026 C  
HETATM   16  H   UNL     1      -6.840   3.483  68.711  1.00  0.00     0.000 HD 
HETATM   17  C   UNL     1      -6.009   5.483  72.121  1.00  0.00    -0.030 C  
HETATM   18  O   UNL     1      -6.719   5.336  73.336  1.00  0.00    -0.069 OA 
HETATM   19  C   UNL     1      -6.166   6.867  71.422  1.00  0.00    -0.037 C  
HETATM   20  H   UNL     1      -6.391   5.986  73.947  1.00  0.00     0.000 HD 
BRANCH  19  21
HETATM   21  C   UNL     1      -7.109   7.860  72.129  1.00  0.00    -0.080 C  
BRANCH  21  22
HETATM   22  C   UNL     1      -8.404   7.253  72.608  1.00  0.00    -0.125 C  
HETATM   23  C   UNL     1      -9.460   6.852  71.886  1.00  0.00    -0.146 C  
BRANCH  23  24
HETATM   24  C   UNL     1      -9.627   6.962  70.400  1.00  0.00    -0.171 C  
BRANCH  24  25
HETATM   25  C   UNL     1     -10.335   5.746  69.798  1.00  0.00    -0.332 C  
BRANCH  25  26
HETATM   26  C   UNL     1      -9.797   5.351  68.421  1.00  0.00    -0.197 C  
HETATM   27  C   UNL     1     -10.573   6.025  67.310  1.00  0.00    -0.294 C  
HETATM   28  O   UNL     1     -11.509   6.787  67.460  1.00  0.00    -0.130 OA 
HETATM   29  O   UNL     1     -10.099   5.693  66.086  1.00  0.00    -0.134 OA 
ENDBRANCH  25  26
ENDBRANCH  24  25
ENDBRANCH  23  24
ENDBRANCH  21  22
ENDBRANCH  19  21
ENDBRANCH  11  12
ENDBRANCH  10  11
ENDBRANCH   8  10
ENDBRANCH   7   8
ENDBRANCH   6   7
ENDBRANCH   5   6
ENDBRANCH   4   5
ENDBRANCH   3   4
ENDBRANCH   2   3
TORSDOF 14
ENDMDL
MODEL      413
REMARK 921   NORMALIZED FREE ENERGY PREDICTED BY IDOCK:   12.89 KCAL/MOL
REMARK 922        TOTAL FREE ENERGY PREDICTED BY IDOCK:   20.49 KCAL/MOL
REMARK 923 INTER-LIGAND FREE ENERGY PREDICTED BY IDOCK:   12.38 KCAL/MOL
REMARK 924 INTRA-LIGAND FREE ENERGY PREDICTED BY IDOCK:    8.11 KCAL/MOL
REMARK 927      BINDING AFFINITY PREDICTED BY RF-SCORE:    0.00 PKD
ROOT
HETATM    1  C   UNL     1      -5.547  16.947  66.182  1.00  0.00     0.425 C  
HETATM    2  C   UNL     1      -6.705  15.995  65.942  1.00  0.00     2.876 C  
ENDROOT
BRANCH   2   3
HETATM    3  C   UNL     1      -7.883  16.280  66.877  1.00  0.00    -0.278 C  
BRANCH   3   4
HETATM    4  C   UNL     1      -8.950  15.196  66.725  1.00  0.00    -0.293 C  
BRANCH   4   5
HETATM    5  C   UNL     1      -9.309  14.912  65.266  1.00  0.00     0.494 C  
BRANCH   5   6
HETATM    6  C   UNL     1      -9.096  13.424  64.959  1.00  0.00     1.403 C  
BRANCH   6   7
HETATM    7  C   UNL     1     -10.057  12.530  65.729  1.00  0.00    -0.278 C  
BRANCH   7   8
HETATM    8  C   UNL     1     -11.092  11.862  64.822  1.00  0.00    -0.311 C  
HETATM    9  O   UNL     1     -11.417  12.322  63.730  1.00  0.00    -0.386 OA 
BRANCH   8  10
HETATM   10  C   UNL     1     -11.663  10.567  65.364  1.00  0.00     2.209 C  
BRANCH  10  11
HETATM   11  C   UNL     1     -12.362  10.616  66.730  1.00  0.00     3.999 C  
BRANCH  11  12
HETATM   12  C   UNL     1     -11.397  11.143  67.825  1.00  0.00    -0.364 C  
HETATM   13  C   UNL     1      -9.961  10.641  67.601  1.00  0.00    -0.169 C  
HETATM   14  O   UNL     1      -9.769   9.310  68.051  1.00  0.00    -0.144 OA 
HETATM   15  C   UNL     1      -9.115  11.577  68.423  1.00  0.00    -0.185 C  
HETATM   16  H   UNL     1      -8.882   8.999  67.913  1.00  0.00     0.000 HD 
HETATM   17  C   UNL     1      -9.732  12.939  68.183  1.00  0.00    -0.227 C  
HETATM   18  O   UNL     1      -9.449  13.751  69.307  1.00  0.00    -0.335 OA 
HETATM   19  C   UNL     1     -11.245  12.696  67.902  1.00  0.00    -0.310 C  
HETATM   20  H   UNL     1      -9.836  14.605  69.157  1.00  0.00     0.000 HD 
BRANCH  19  21
HETATM   21  C   UNL     1     -12.215  13.335  68.916  1.00  0.00    -0.133 C  
BRANCH  21  22
HETATM   22  C   UNL     1     -12.697  12.395  69.993  1.00  0.00     0.279 C  
HETATM   23  C   UNL     1     -12.537  12.490  71.321  1.00  0.00    -0.332 C  
BRANCH  23  24
HETATM   24  C   UNL     1     -11.781  13.551  72.062  1.00  0.00     1.773 C  
BRANCH  24  25
HETATM   25  C   UNL     1     -12.016  14.950  71.487  1.00  0.00    -0.408 C  
BRANCH  25  26
HETATM   26  C   UNL     1     -11.245  15.210  70.191  1.00  0.00    -0.299 C  
HETATM   27  C   UNL     1     -11.666  16.514  69.550  1.00  0.00     0.243 C  
HETATM   28  O   UNL     1     -12.508  17.278  69.982  1.00  0.00     3.483 OA 
HETATM   29  O   UNL     1     -10.982  16.762  68.407  1.00  0.00    -0.355 OA 
ENDBRANCH  25  26
ENDBRANCH  24  25
ENDBRANCH  23  24
ENDBRANCH  21  22
ENDBRANCH  19  21
ENDBRANCH  11  12
ENDBRANCH  10  11
ENDBRANCH   8  10
ENDBRANCH   7   8
ENDBRANCH   6   7
ENDBRANCH   5   6
ENDBRANCH   4   5
ENDBRANCH   3   4
ENDBRANCH   2   3
TORSDOF 14
ENDMDL
MODEL      414
REMARK 921   NORMALIZED FREE ENERGY PREDICTED BY IDOCK:   28.34 KCAL/MOL
REMARK 922        TOTAL FREE ENERGY PREDICTED BY IDOCK:   48.58 KCAL/MOL
REMARK 923 INTER-LIGAND FREE ENERGY PREDICTED BY IDOCK:   25.14 KCAL/MOL
REMARK 924 INTRA-LIGAND FREE ENERGY PREDICTED BY IDOCK:   23.43 KCAL/MOL
REMARK 927      BINDING AFFINITY PREDICTED BY RF-SCORE:    0.00 PKD
ROOT
HETATM    1  C   UNL     1     -13.287  10.169  69.774  1.00  0.00     1.168 C  
HETATM    2  C   UNL     1     -13.085   9.246  70.962  1.00  0.00    -0.164 C  
ENDROOT
BRANCH   2   3
HETATM    3  C   UNL     1     -11.912   9.689  71.839  1.00  0.00    -0.330 C  
BRANCH   3   4
HETATM    4  C   UNL     1     -12.218   9.407  73.310  1.00  0.00     2.664 C  
BRANCH   4   5
HETATM    5  C   UNL     1     -12.515  10.675  74.112  1.00  0.00    15.070 C  
BRANCH   5   6
HETATM    6  C   UNL     1     -12.264  11.911  73.241  1.00  0.00     7.499 C  
BRANCH   6   7
HETATM    7  C   UNL     1     -13.451  12.242  72.348  1.00  0.00    -0.209 C  
BRANCH   7   8
HETATM    8  C   UNL     1     -13.158  11.997  70.866  1.00  0.00     0.163 C  
HETATM    9  O   UNL     1     -14.026  11.678  70.058  1.00  0.00     3.034 OA 
BRANCH   8  10
HETATM   10  C   UNL     1     -11.711  12.210  70.467  1.00  0.00    -0.017 C  
BRANCH  10  11
HETATM   11  C   UNL     1     -11.414  12.458  68.980  1.00  0.00    -0.352 C  
BRANCH  11  12
HETATM   12  C   UNL     1     -11.946  13.846  68.535  1.00  0.00    -0.394 C  
HETATM   13  C   UNL     1     -11.578  14.942  69.548  1.00  0.00    -0.303 C  
HETATM   14  O   UNL     1     -12.437  14.958  70.676  1.00  0.00    -0.309 OA 
HETATM   15  C   UNL     1     -11.741  16.224  68.774  1.00  0.00    -0.138 C  
HETATM   16  H   UNL     1     -12.210  15.636  71.302  1.00  0.00     0.000 HD 
HETATM   17  C   UNL     1     -11.163  15.906  67.410  1.00  0.00    -0.134 C  
HETATM   18  O   UNL     1     -11.782  16.757  66.464  1.00  0.00     1.029 OA 
HETATM   19  C   UNL     1     -11.384  14.381  67.179  1.00  0.00    -0.356 C  
HETATM   20  H   UNL     1     -11.420  16.558  65.609  1.00  0.00     0.000 HD 
BRANCH  19  21
HETATM   21  C   UNL     1     -12.287  14.020  65.982  1.00  0.00    -0.504 C  
BRANCH  21  22
HETATM   22  C   UNL     1     -12.002  14.808  64.728  1.00  0.00    -0.408 C  
HETATM   23  C   UNL     1     -11.150  15.828  64.555  1.00  0.00    -0.293 C  
BRANCH  23  24
HETATM   24  C   UNL     1     -10.297  16.476  65.603  1.00  0.00    -0.342 C  
BRANCH  24  25
HETATM   25  C   UNL     1      -9.019  15.685  65.891  1.00  0.00    -0.189 C  
BRANCH  25  26
HETATM   26  C   UNL     1      -8.091  16.376  66.893  1.00  0.00    -0.262 C  
HETATM   27  C   UNL     1      -8.623  17.735  67.292  1.00  0.00    -0.233 C  
HETATM   28  O   UNL     1      -9.652  18.242  66.886  1.00  0.00    -0.276 OA 
HETATM   29  O   UNL     1      -7.816  18.354  68.187  1.00  0.00    -0.271 OA 
ENDBRANCH  25  26
ENDBRANCH  24  25
ENDBRANCH  23  24
ENDBRANCH  21  22
ENDBRANCH  19  21
ENDBRANCH  11  12
ENDBRANCH  10  11
ENDBRANCH   8  10
ENDBRANCH   7   8
ENDBRANCH   6   7
ENDBRANCH   5   6
ENDBRANCH   4   5
ENDBRANCH   3   4
ENDBRANCH   2   3
TORSDOF 14
ENDMDL
