MODEL        1
REMARK 921   NORMALIZED FREE ENERGY PREDICTED BY IDOCK:   -7.85 KCAL/MOL
REMARK 922        TOTAL FREE ENERGY PREDICTED BY IDOCK:  -10.36 KCAL/MOL
REMARK 923 INTER-LIGAND FREE ENERGY PREDICTED BY IDOCK:  -10.14 KCAL/MOL
REMARK 924 INTRA-LIGAND FREE ENERGY PREDICTED BY IDOCK:   -0.22 KCAL/MOL
REMARK 927      BINDING AFFINITY PREDICTED BY RF-SCORE:    0.00 PKD
ROOT
HETATM    1  C   UNL     1     -10.179  18.250  67.249  1.00  0.00    -0.387 C  
HETATM    2  C   UNL     1     -10.780  17.108  68.060  1.00  0.00    -0.372 C  
ENDROOT
BRANCH   2   3
HETATM    3  C   UNL     1     -10.124  15.740  67.764  1.00  0.00    -0.238 C  
HETATM    4  C   UNL     1      -9.838  15.557  66.272  1.00  0.00    -0.294 C  
HETATM    5  N   UNL     1     -11.096  15.082  65.743  1.00  0.00    -0.346 N  
HETATM    6  C   UNL     1     -11.011  14.495  68.078  1.00  0.00    -0.269 C  
HETATM    7  C   UNL     1     -11.781  14.279  66.745  1.00  0.00    -0.405 C  
BRANCH   5   8
HETATM    8  C   UNL     1     -11.578  15.551  64.547  1.00  0.00    -0.283 C  
HETATM    9  O   UNL     1     -11.342  16.678  64.125  1.00  0.00    -1.141 OA 
BRANCH   8  10
HETATM   10  N   UNL     1     -12.332  14.666  63.826  1.00  0.00    -1.092 N  
HETATM   11  H   UNL     1     -13.327  14.842  63.683  1.00  0.00     0.000 HD 
BRANCH  10  12
HETATM   12  C   UNL     1     -11.712  13.466  63.258  1.00  0.00    -0.017 C  
HETATM   13  F   UNL     1     -13.039  12.297  64.883  1.00  0.00    -0.475 F  
HETATM   14  C   UNL     1     -12.187  12.129  63.845  1.00  0.00    -0.489 C  
HETATM   15  F   UNL     1     -12.793  11.351  62.925  1.00  0.00    -0.512 F  
HETATM   16  F   UNL     1     -11.123  11.432  64.325  1.00  0.00    -0.392 F  
ENDBRANCH  10  12
ENDBRANCH   8  10
ENDBRANCH   5   8
BRANCH   6  17
HETATM   17  C   UNL     1     -11.918  14.614  69.273  1.00  0.00    -0.302 A  
HETATM   18  N   UNL     1     -13.065  15.446  71.080  1.00  0.00    -0.471 NA 
HETATM   19  C   UNL     1     -12.508  15.730  69.860  1.00  0.00    -0.085 A  
HETATM   20  C   UNL     1     -12.863  14.157  71.231  1.00  0.00    -0.359 A  
HETATM   21  C   UNL     1     -13.163  13.354  72.400  1.00  0.00    -0.464 A  
HETATM   22  N   UNL     1     -12.960  12.059  72.450  1.00  0.00    -0.062 NA 
HETATM   23  C   UNL     1     -12.475  11.541  71.289  1.00  0.00    -0.293 A  
HETATM   24  C   UNL     1     -12.157  12.184  70.107  1.00  0.00    -0.290 A  
HETATM   25  C   UNL     1     -11.786  11.232  69.145  1.00  0.00    -0.423 A  
HETATM   26  N   UNL     1     -12.299  13.583  70.109  1.00  0.00    -0.304 NA 
HETATM   27  C   UNL     1     -11.797  10.014  69.801  1.00  0.00    -0.021 A  
HETATM   28  N   UNL     1     -12.196  10.215  71.105  1.00  0.00    -0.357 NA 
HETATM   29  H   UNL     1     -12.271   9.490  71.819  1.00  0.00     0.000 HD 
ENDBRANCH   6  17
ENDBRANCH   2   3
TORSDOF 5
ENDMDL
MODEL        2
REMARK 921   NORMALIZED FREE ENERGY PREDICTED BY IDOCK:   -7.68 KCAL/MOL
REMARK 922        TOTAL FREE ENERGY PREDICTED BY IDOCK:  -10.14 KCAL/MOL
REMARK 923 INTER-LIGAND FREE ENERGY PREDICTED BY IDOCK:  -10.05 KCAL/MOL
REMARK 924 INTRA-LIGAND FREE ENERGY PREDICTED BY IDOCK:   -0.09 KCAL/MOL
REMARK 927      BINDING AFFINITY PREDICTED BY RF-SCORE:    0.00 PKD
ROOT
HETATM    1  C   UNL     1     -10.824  12.160  64.258  1.00  0.00    -0.388 C  
HETATM    2  C   UNL     1     -10.570  12.751  65.640  1.00  0.00    -0.297 C  
ENDROOT
BRANCH   2   3
HETATM    3  C   UNL     1     -11.728  13.640  66.144  1.00  0.00    -0.391 C  
HETATM    4  C   UNL     1     -11.504  15.115  65.802  1.00  0.00    -0.172 C  
HETATM    5  N   UNL     1     -10.659  15.585  66.877  1.00  0.00    -0.304 N  
HETATM    6  C   UNL     1     -11.903  13.691  67.694  1.00  0.00    -0.404 C  
HETATM    7  C   UNL     1     -10.978  14.871  68.104  1.00  0.00    -0.272 C  
BRANCH   5   8
HETATM    8  C   UNL     1      -9.603  16.425  66.625  1.00  0.00    -0.256 C  
HETATM    9  O   UNL     1      -8.810  16.247  65.707  1.00  0.00    -0.411 OA 
BRANCH   8  10
HETATM   10  N   UNL     1      -9.495  17.504  67.458  1.00  0.00    -0.252 N  
HETATM   11  H   UNL     1      -8.756  17.534  68.161  1.00  0.00     0.000 HD 
BRANCH  10  12
HETATM   12  C   UNL     1     -10.439  18.619  67.341  1.00  0.00    -0.423 C  
HETATM   13  F   UNL     1      -8.786  19.558  65.873  1.00  0.00    -0.341 F  
HETATM   14  C   UNL     1     -10.028  19.743  66.379  1.00  0.00    -0.470 C  
HETATM   15  F   UNL     1     -10.887  19.876  65.348  1.00  0.00    -0.600 F  
HETATM   16  F   UNL     1     -10.005  20.930  67.040  1.00  0.00    -0.602 F  
ENDBRANCH  10  12
ENDBRANCH   8  10
ENDBRANCH   5   8
BRANCH   6  17
HETATM   17  C   UNL     1     -11.601  12.417  68.435  1.00  0.00    -0.324 A  
HETATM   18  N   UNL     1     -11.098  10.228  68.918  1.00  0.00    -0.238 NA 
HETATM   19  C   UNL     1     -10.953  11.256  68.022  1.00  0.00    -0.247 A  
HETATM   20  C   UNL     1     -11.791  10.758  69.900  1.00  0.00    -0.335 A  
HETATM   21  C   UNL     1     -12.315  10.077  71.068  1.00  0.00    -0.360 A  
HETATM   22  N   UNL     1     -12.970  10.695  72.022  1.00  0.00    -0.437 NA 
HETATM   23  C   UNL     1     -13.077  12.037  71.825  1.00  0.00    -0.355 A  
HETATM   24  C   UNL     1     -12.619  12.809  70.773  1.00  0.00    -0.225 A  
HETATM   25  C   UNL     1     -12.869  14.162  71.045  1.00  0.00    -0.421 A  
HETATM   26  N   UNL     1     -12.000  12.110  69.721  1.00  0.00    -0.317 NA 
HETATM   27  C   UNL     1     -13.570  14.180  72.238  1.00  0.00    -0.500 A  
HETATM   28  N   UNL     1     -13.708  12.886  72.692  1.00  0.00    -0.711 NA 
HETATM   29  H   UNL     1     -14.202  12.607  73.540  1.00  0.00     0.000 HD 
ENDBRANCH   6  17
ENDBRANCH   2   3
TORSDOF 5
ENDMDL
MODEL        3
REMARK 921   NORMALIZED FREE ENERGY PREDICTED BY IDOCK:   -7.64 KCAL/MOL
REMARK 922        TOTAL FREE ENERGY PREDICTED BY IDOCK:  -10.10 KCAL/MOL
REMARK 923 INTER-LIGAND FREE ENERGY PREDICTED BY IDOCK:  -10.01 KCAL/MOL
REMARK 924 INTRA-LIGAND FREE ENERGY PREDICTED BY IDOCK:   -0.09 KCAL/MOL
REMARK 927      BINDING AFFINITY PREDICTED BY RF-SCORE:    0.00 PKD
ROOT
HETATM    1  C   UNL     1     -10.784  12.117  64.512  1.00  0.00    -0.353 C  
HETATM    2  C   UNL     1     -10.449  12.914  65.768  1.00  0.00    -0.293 C  
ENDROOT
BRANCH   2   3
HETATM    3  C   UNL     1     -11.523  13.966  66.124  1.00  0.00    -0.351 C  
HETATM    4  C   UNL     1     -11.135  15.364  65.637  1.00  0.00    -0.271 C  
HETATM    5  N   UNL     1     -10.278  15.862  66.689  1.00  0.00    -0.280 N  
HETATM    6  C   UNL     1     -11.738  14.206  67.651  1.00  0.00    -0.421 C  
HETATM    7  C   UNL     1     -10.707  15.325  67.971  1.00  0.00    -0.268 C  
BRANCH   5   8
HETATM    8  C   UNL     1      -9.132  16.558  66.393  1.00  0.00    -0.297 C  
HETATM    9  O   UNL     1      -8.021  16.040  66.373  1.00  0.00    -0.265 OA 
BRANCH   8  10
HETATM   10  N   UNL     1      -9.305  17.881  66.094  1.00  0.00    -0.194 N  
HETATM   11  H   UNL     1      -9.687  18.153  65.188  1.00  0.00     0.000 HD 
BRANCH  10  12
HETATM   12  C   UNL     1      -8.942  18.908  67.074  1.00  0.00    -0.294 C  
HETATM   13  F   UNL     1     -11.274  19.477  66.991  1.00  0.00    -0.558 F  
HETATM   14  C   UNL     1     -10.103  19.759  67.609  1.00  0.00    -0.417 C  
HETATM   15  F   UNL     1     -10.281  19.607  68.937  1.00  0.00    -0.484 F  
HETATM   16  F   UNL     1      -9.852  21.075  67.384  1.00  0.00    -0.614 F  
ENDBRANCH  10  12
ENDBRANCH   8  10
ENDBRANCH   5   8
BRANCH   6  17
HETATM   17  C   UNL     1     -11.594  12.997  68.537  1.00  0.00    -0.328 A  
HETATM   18  N   UNL     1     -11.313  10.840  69.272  1.00  0.00    -0.263 NA 
HETATM   19  C   UNL     1     -11.025  11.752  68.290  1.00  0.00    -0.229 A  
HETATM   20  C   UNL     1     -12.018  11.524  70.144  1.00  0.00    -0.369 A  
HETATM   21  C   UNL     1     -12.671  11.015  71.335  1.00  0.00    -0.429 A  
HETATM   22  N   UNL     1     -13.328  11.782  72.173  1.00  0.00    -0.406 NA 
HETATM   23  C   UNL     1     -13.306  13.099  71.834  1.00  0.00    -0.455 A  
HETATM   24  C   UNL     1     -12.719  13.716  70.745  1.00  0.00    -0.268 A  
HETATM   25  C   UNL     1     -12.868  15.106  70.861  1.00  0.00    -0.479 A  
HETATM   26  N   UNL     1     -12.098  12.862  69.816  1.00  0.00    -0.280 NA 
HETATM   27  C   UNL     1     -13.638  15.307  71.993  1.00  0.00    -0.469 A  
HETATM   28  N   UNL     1     -13.915  14.083  72.564  1.00  0.00    -0.670 NA 
HETATM   29  H   UNL     1     -14.484  13.935  73.398  1.00  0.00     0.000 HD 
ENDBRANCH   6  17
ENDBRANCH   2   3
TORSDOF 5
ENDMDL
MODEL        4
REMARK 921   NORMALIZED FREE ENERGY PREDICTED BY IDOCK:   -7.60 KCAL/MOL
REMARK 922        TOTAL FREE ENERGY PREDICTED BY IDOCK:  -10.05 KCAL/MOL
REMARK 923 INTER-LIGAND FREE ENERGY PREDICTED BY IDOCK:   -9.07 KCAL/MOL
REMARK 924 INTRA-LIGAND FREE ENERGY PREDICTED BY IDOCK:   -0.97 KCAL/MOL
REMARK 927      BINDING AFFINITY PREDICTED BY RF-SCORE:    0.00 PKD
ROOT
HETATM    1  C   UNL     1     -12.329  15.596  70.964  1.00  0.00    -0.481 C  
HETATM    2  C   UNL     1     -11.084  15.759  70.099  1.00  0.00    -0.360 C  
ENDROOT
BRANCH   2   3
HETATM    3  C   UNL     1     -11.389  15.733  68.584  1.00  0.00    -0.369 C  
HETATM    4  C   UNL     1     -12.256  14.533  68.198  1.00  0.00    -0.085 C  
HETATM    5  N   UNL     1     -11.297  13.463  68.036  1.00  0.00    -0.270 N  
HETATM    6  C   UNL     1     -10.147  15.545  67.658  1.00  0.00    -0.243 C  
HETATM    7  C   UNL     1     -10.038  13.999  67.542  1.00  0.00    -0.237 C  
BRANCH   5   8
HETATM    8  C   UNL     1     -11.563  12.203  68.510  1.00  0.00    -0.315 C  
HETATM    9  O   UNL     1     -12.054  11.317  67.817  1.00  0.00    -0.631 OA 
BRANCH   8  10
HETATM   10  N   UNL     1     -11.224  11.978  69.815  1.00  0.00    -0.490 N  
HETATM   11  H   UNL     1     -10.736  12.699  70.347  1.00  0.00     0.000 HD 
BRANCH  10  12
HETATM   12  C   UNL     1     -11.561  10.701  70.452  1.00  0.00    -0.351 C  
HETATM   13  F   UNL     1     -13.395  11.927  71.401  1.00  0.00    -0.415 F  
HETATM   14  C   UNL     1     -12.841  10.697  71.299  1.00  0.00    -0.434 C  
HETATM   15  F   UNL     1     -13.775   9.854  70.813  1.00  0.00    -0.408 F  
HETATM   16  F   UNL     1     -12.555  10.293  72.565  1.00  0.00    -0.291 F  
ENDBRANCH  10  12
ENDBRANCH   8  10
ENDBRANCH   5   8
BRANCH   6  17
HETATM   17  C   UNL     1      -8.871  16.194  68.124  1.00  0.00    -0.184 A  
HETATM   18  N   UNL     1      -6.941  16.653  69.282  1.00  0.00    -0.231 NA 
HETATM   19  C   UNL     1      -7.796  15.676  68.842  1.00  0.00    -0.186 A  
HETATM   20  C   UNL     1      -7.454  17.764  68.804  1.00  0.00    -0.263 A  
HETATM   21  C   UNL     1      -7.000  19.118  69.057  1.00  0.00    -0.335 A  
HETATM   22  N   UNL     1      -7.554  20.172  68.507  1.00  0.00    -0.161 NA 
HETATM   23  C   UNL     1      -8.568  19.869  67.652  1.00  0.00    -0.330 A  
HETATM   24  C   UNL     1      -9.091  18.634  67.314  1.00  0.00    -0.277 A  
HETATM   25  C   UNL     1     -10.062  18.798  66.316  1.00  0.00    -0.447 A  
HETATM   26  N   UNL     1      -8.539  17.528  67.985  1.00  0.00    -0.243 NA 
HETATM   27  C   UNL     1     -10.180  20.164  66.128  1.00  0.00    -0.402 A  
HETATM   28  N   UNL     1      -9.284  20.804  66.958  1.00  0.00    -0.637 NA 
HETATM   29  H   UNL     1      -9.174  21.815  67.040  1.00  0.00     0.000 HD 
ENDBRANCH   6  17
ENDBRANCH   2   3
TORSDOF 5
ENDMDL
MODEL        5
REMARK 921   NORMALIZED FREE ENERGY PREDICTED BY IDOCK:   -7.48 KCAL/MOL
REMARK 922        TOTAL FREE ENERGY PREDICTED BY IDOCK:   -9.89 KCAL/MOL
REMARK 923 INTER-LIGAND FREE ENERGY PREDICTED BY IDOCK:   -9.03 KCAL/MOL
REMARK 924 INTRA-LIGAND FREE ENERGY PREDICTED BY IDOCK:   -0.86 KCAL/MOL
REMARK 927      BINDING AFFINITY PREDICTED BY RF-SCORE:    0.00 PKD
ROOT
HETATM    1  C   UNL     1      -8.107  10.195  66.109  1.00  0.00    -0.123 C  
HETATM    2  C   UNL     1      -9.229  11.224  66.178  1.00  0.00    -0.222 C  
ENDROOT
BRANCH   2   3
HETATM    3  C   UNL     1      -9.315  11.940  67.545  1.00  0.00    -0.177 C  
HETATM    4  C   UNL     1      -9.104  10.971  68.710  1.00  0.00    -0.157 C  
HETATM    5  N   UNL     1     -10.416  10.399  68.913  1.00  0.00    -0.198 N  
HETATM    6  C   UNL     1     -10.706  12.558  67.886  1.00  0.00    -0.239 C  
HETATM    7  C   UNL     1     -11.439  11.381  68.591  1.00  0.00    -0.296 C  
BRANCH   5   8
HETATM    8  C   UNL     1     -10.567   9.058  69.164  1.00  0.00    -0.203 C  
HETATM    9  O   UNL     1      -9.832   8.200  68.687  1.00  0.00    -0.173 OA 
BRANCH   8  10
HETATM   10  N   UNL     1     -11.588   8.727  70.012  1.00  0.00    -0.448 N  
HETATM   11  H   UNL     1     -12.310   8.073  69.709  1.00  0.00     0.000 HD 
BRANCH  10  12
HETATM   12  C   UNL     1     -11.646   9.311  71.354  1.00  0.00    -0.367 C  
HETATM   13  F   UNL     1     -13.971   9.643  70.855  1.00  0.00    -0.371 F  
HETATM   14  C   UNL     1     -13.035   9.766  71.824  1.00  0.00    -0.438 C  
HETATM   15  F   UNL     1     -13.459   9.084  72.908  1.00  0.00    -0.489 F  
HETATM   16  F   UNL     1     -12.999  11.081  72.165  1.00  0.00    -0.553 F  
ENDBRANCH  10  12
ENDBRANCH   8  10
ENDBRANCH   5   8
BRANCH   6  17
HETATM   17  C   UNL     1     -11.480  13.127  66.727  1.00  0.00    -0.343 A  
HETATM   18  N   UNL     1     -12.697  13.322  64.789  1.00  0.00    -0.689 NA 
HETATM   19  C   UNL     1     -12.403  12.533  65.871  1.00  0.00    -0.080 A  
HETATM   20  C   UNL     1     -11.997  14.416  64.994  1.00  0.00    -0.412 A  
HETATM   21  C   UNL     1     -11.859  15.546  64.097  1.00  0.00    -0.084 A  
HETATM   22  N   UNL     1     -11.164  16.618  64.399  1.00  0.00    -1.060 NA 
HETATM   23  C   UNL     1     -10.620  16.577  65.646  1.00  0.00    -0.304 A  
HETATM   24  C   UNL     1     -10.682  15.577  66.598  1.00  0.00    -0.306 A  
HETATM   25  C   UNL     1     -10.056  16.015  67.775  1.00  0.00    -0.243 A  
HETATM   26  N   UNL     1     -11.356  14.404  66.215  1.00  0.00    -0.343 NA 
HETATM   27  C   UNL     1      -9.535  17.263  67.479  1.00  0.00    -0.245 A  
HETATM   28  N   UNL     1      -9.865  17.585  66.180  1.00  0.00    -0.464 NA 
HETATM   29  H   UNL     1      -9.589  18.439  65.695  1.00  0.00     0.000 HD 
ENDBRANCH   6  17
ENDBRANCH   2   3
TORSDOF 5
ENDMDL
MODEL        6
REMARK 921   NORMALIZED FREE ENERGY PREDICTED BY IDOCK:   -7.48 KCAL/MOL
REMARK 922        TOTAL FREE ENERGY PREDICTED BY IDOCK:   -9.88 KCAL/MOL
REMARK 923 INTER-LIGAND FREE ENERGY PREDICTED BY IDOCK:   -8.82 KCAL/MOL
REMARK 924 INTRA-LIGAND FREE ENERGY PREDICTED BY IDOCK:   -1.07 KCAL/MOL
REMARK 927      BINDING AFFINITY PREDICTED BY RF-SCORE:    0.00 PKD
ROOT
HETATM    1  C   UNL     1      -8.091  12.500  67.993  1.00  0.00    -0.164 C  
HETATM    2  C   UNL     1      -9.059  13.550  67.460  1.00  0.00    -0.214 C  
ENDROOT
BRANCH   2   3
HETATM    3  C   UNL     1      -9.951  13.028  66.311  1.00  0.00    -0.283 C  
HETATM    4  C   UNL     1     -10.039  14.030  65.158  1.00  0.00    -0.314 C  
HETATM    5  N   UNL     1     -11.085  14.934  65.577  1.00  0.00    -0.340 N  
HETATM    6  C   UNL     1     -11.454  12.823  66.676  1.00  0.00    -0.404 C  
HETATM    7  C   UNL     1     -12.074  14.215  66.365  1.00  0.00    -0.451 C  
BRANCH   5   8
HETATM    8  C   UNL     1     -10.961  16.288  65.390  1.00  0.00    -0.197 C  
HETATM    9  O   UNL     1     -11.266  16.851  64.344  1.00  0.00    -1.159 OA 
BRANCH   8  10
HETATM   10  N   UNL     1     -10.490  16.992  66.464  1.00  0.00    -0.286 N  
HETATM   11  H   UNL     1     -10.798  16.751  67.406  1.00  0.00     0.000 HD 
BRANCH  10  12
HETATM   12  C   UNL     1      -9.544  18.093  66.262  1.00  0.00    -0.239 C  
HETATM   13  F   UNL     1     -11.401  19.490  66.865  1.00  0.00    -0.484 F  
HETATM   14  C   UNL     1     -10.083  19.499  66.561  1.00  0.00    -0.439 C  
HETATM   15  F   UNL     1      -9.421  20.098  67.573  1.00  0.00    -0.416 F  
HETATM   16  F   UNL     1      -9.942  20.289  65.465  1.00  0.00    -0.498 F  
ENDBRANCH  10  12
ENDBRANCH   8  10
ENDBRANCH   5   8
BRANCH   6  17
HETATM   17  C   UNL     1     -11.736  12.350  68.077  1.00  0.00    -0.356 A  
HETATM   18  N   UNL     1     -12.144  12.311  70.337  1.00  0.00    -0.349 NA 
HETATM   19  C   UNL     1     -12.280  13.018  69.170  1.00  0.00    -0.061 A  
HETATM   20  C   UNL     1     -11.561  11.194  69.965  1.00  0.00    -0.338 A  
HETATM   21  C   UNL     1     -11.089  10.125  70.824  1.00  0.00    -0.298 A  
HETATM   22  N   UNL     1     -10.547   9.023  70.362  1.00  0.00    -0.207 NA 
HETATM   23  C   UNL     1     -10.506   8.967  69.003  1.00  0.00    -0.218 A  
HETATM   24  C   UNL     1     -10.926   9.901  68.073  1.00  0.00    -0.213 A  
HETATM   25  C   UNL     1     -10.779   9.371  66.783  1.00  0.00    -0.129 A  
HETATM   26  N   UNL     1     -11.420  11.110  68.595  1.00  0.00    -0.271 NA 
HETATM   27  C   UNL     1     -10.175   8.137  66.952  1.00  0.00    -0.316 A  
HETATM   28  N   UNL     1      -9.995   7.911  68.300  1.00  0.00    -0.174 NA 
HETATM   29  H   UNL     1      -9.552   7.088  68.707  1.00  0.00     0.000 HD 
ENDBRANCH   6  17
ENDBRANCH   2   3
TORSDOF 5
ENDMDL
MODEL        7
REMARK 921   NORMALIZED FREE ENERGY PREDICTED BY IDOCK:   -7.48 KCAL/MOL
REMARK 922        TOTAL FREE ENERGY PREDICTED BY IDOCK:   -9.88 KCAL/MOL
REMARK 923 INTER-LIGAND FREE ENERGY PREDICTED BY IDOCK:   -9.01 KCAL/MOL
REMARK 924 INTRA-LIGAND FREE ENERGY PREDICTED BY IDOCK:   -0.87 KCAL/MOL
REMARK 927      BINDING AFFINITY PREDICTED BY RF-SCORE:    0.00 PKD
ROOT
HETATM    1  C   UNL     1     -12.268  11.971  70.436  1.00  0.00    -0.379 C  
HETATM    2  C   UNL     1     -11.575  12.472  69.174  1.00  0.00    -0.375 C  
ENDROOT
BRANCH   2   3
HETATM    3  C   UNL     1     -11.257  11.344  68.166  1.00  0.00    -0.343 C  
HETATM    4  C   UNL     1     -11.063   9.995  68.863  1.00  0.00    -0.176 C  
HETATM    5  N   UNL     1      -9.680  10.029  69.282  1.00  0.00    -0.203 N  
HETATM    6  C   UNL     1      -9.912  11.503  67.391  1.00  0.00    -0.209 C  
HETATM    7  C   UNL     1      -8.893  10.793  68.326  1.00  0.00    -0.139 C  
BRANCH   5   8
HETATM    8  C   UNL     1      -9.308   9.564  70.519  1.00  0.00    -0.237 C  
HETATM    9  O   UNL     1      -8.159   9.631  70.942  1.00  0.00    -0.293 OA 
BRANCH   8  10
HETATM   10  N   UNL     1     -10.314   9.033  71.278  1.00  0.00    -0.284 N  
HETATM   11  H   UNL     1     -10.906   9.645  71.840  1.00  0.00     0.000 HD 
BRANCH  10  12
HETATM   12  C   UNL     1     -10.544   7.586  71.283  1.00  0.00    -0.215 C  
HETATM   13  F   UNL     1     -12.864   8.190  71.144  1.00  0.00    -0.300 F  
HETATM   14  C   UNL     1     -12.007   7.142  71.143  1.00  0.00    -0.342 C  
HETATM   15  F   UNL     1     -12.221   6.425  70.020  1.00  0.00    -0.431 F  
HETATM   16  F   UNL     1     -12.354   6.356  72.195  1.00  0.00    -0.359 F  
ENDBRANCH  10  12
ENDBRANCH   8  10
ENDBRANCH   5   8
BRANCH   6  17
HETATM   17  C   UNL     1      -9.513  12.912  67.043  1.00  0.00    -0.235 A  
HETATM   18  N   UNL     1      -8.710  15.060  67.178  1.00  0.00    -0.205 NA 
HETATM   19  C   UNL     1      -8.605  13.776  67.649  1.00  0.00    -0.187 A  
HETATM   20  C   UNL     1      -9.643  14.985  66.256  1.00  0.00    -0.307 A  
HETATM   21  C   UNL     1     -10.223  16.083  65.508  1.00  0.00    -0.360 A  
HETATM   22  N   UNL     1     -11.130  15.912  64.575  1.00  0.00    -0.528 NA 
HETATM   23  C   UNL     1     -11.444  14.606  64.357  1.00  0.00    -0.263 A  
HETATM   24  C   UNL     1     -10.964  13.471  64.984  1.00  0.00    -0.335 A  
HETATM   25  C   UNL     1     -11.497  12.334  64.361  1.00  0.00    -0.417 A  
HETATM   26  N   UNL     1     -10.061  13.688  66.040  1.00  0.00    -0.305 NA 
HETATM   27  C   UNL     1     -12.381  12.809  63.408  1.00  0.00    -0.437 A  
HETATM   28  N   UNL     1     -12.356  14.187  63.427  1.00  0.00    -1.144 NA 
HETATM   29  H   UNL     1     -12.927  14.797  62.842  1.00  0.00     0.000 HD 
ENDBRANCH   6  17
ENDBRANCH   2   3
TORSDOF 5
ENDMDL
MODEL        8
REMARK 921   NORMALIZED FREE ENERGY PREDICTED BY IDOCK:   -7.47 KCAL/MOL
REMARK 922        TOTAL FREE ENERGY PREDICTED BY IDOCK:   -9.87 KCAL/MOL
REMARK 923 INTER-LIGAND FREE ENERGY PREDICTED BY IDOCK:   -8.91 KCAL/MOL
REMARK 924 INTRA-LIGAND FREE ENERGY PREDICTED BY IDOCK:   -0.97 KCAL/MOL
REMARK 927      BINDING AFFINITY PREDICTED BY RF-SCORE:    0.00 PKD
ROOT
HETATM    1  C   UNL     1      -7.931  12.845  67.358  1.00  0.00    -0.178 C  
HETATM    2  C   UNL     1      -9.070  13.464  68.161  1.00  0.00    -0.207 C  
ENDROOT
BRANCH   2   3
HETATM    3  C   UNL     1     -10.300  13.822  67.297  1.00  0.00    -0.253 C  
HETATM    4  C   UNL     1     -10.738  15.274  67.502  1.00  0.00    -0.285 C  
HETATM    5  N   UNL     1     -11.569  15.211  68.683  1.00  0.00    -0.325 N  
HETATM    6  C   UNL     1     -11.606  13.040  67.640  1.00  0.00    -0.403 C  
HETATM    7  C   UNL     1     -12.262  13.933  68.731  1.00  0.00    -0.197 C  
BRANCH   5   8
HETATM    8  C   UNL     1     -11.483  16.174  69.656  1.00  0.00    -0.290 C  
HETATM    9  O   UNL     1     -10.741  17.147  69.571  1.00  0.00    -0.269 OA 
BRANCH   8  10
HETATM   10  N   UNL     1     -12.303  15.998  70.737  1.00  0.00    -0.500 N  
HETATM   11  H   UNL     1     -13.315  16.019  70.617  1.00  0.00     0.000 HD 
BRANCH  10  12
HETATM   12  C   UNL     1     -11.727  15.779  72.067  1.00  0.00    -0.479 C  
HETATM   13  F   UNL     1     -13.989  16.037  72.831  1.00  0.00    -0.643 F  
HETATM   14  C   UNL     1     -12.729  15.747  73.229  1.00  0.00    -0.525 C  
HETATM   15  F   UNL     1     -12.750  14.552  73.855  1.00  0.00    -0.565 F  
HETATM   16  F   UNL     1     -12.390  16.680  74.157  1.00  0.00    -0.549 F  
ENDBRANCH  10  12
ENDBRANCH   8  10
ENDBRANCH   5   8
BRANCH   6  17
HETATM   17  C   UNL     1     -11.425  11.610  68.076  1.00  0.00    -0.315 A  
HETATM   18  N   UNL     1     -11.159   9.729  69.367  1.00  0.00    -0.207 NA 
HETATM   19  C   UNL     1     -11.694  10.989  69.293  1.00  0.00    -0.326 A  
HETATM   20  C   UNL     1     -10.600   9.551  68.191  1.00  0.00    -0.217 A  
HETATM   21  C   UNL     1      -9.798   8.421  67.766  1.00  0.00    -0.174 A  
HETATM   22  N   UNL     1      -9.306   8.309  66.555  1.00  0.00    -0.191 NA 
HETATM   23  C   UNL     1      -9.651   9.336  65.732  1.00  0.00    -0.271 A  
HETATM   24  C   UNL     1     -10.411  10.459  66.001  1.00  0.00    -0.140 A  
HETATM   25  C   UNL     1     -10.590  11.194  64.821  1.00  0.00    -0.371 A  
HETATM   26  N   UNL     1     -10.851  10.600  67.330  1.00  0.00    -0.286 NA 
HETATM   27  C   UNL     1      -9.843  10.541  63.856  1.00  0.00    -0.310 A  
HETATM   28  N   UNL     1      -9.262   9.427  64.424  1.00  0.00    -0.431 NA 
HETATM   29  H   UNL     1      -8.641   8.775  63.944  1.00  0.00     0.000 HD 
ENDBRANCH   6  17
ENDBRANCH   2   3
TORSDOF 5
ENDMDL
MODEL        9
REMARK 921   NORMALIZED FREE ENERGY PREDICTED BY IDOCK:   -7.46 KCAL/MOL
REMARK 922        TOTAL FREE ENERGY PREDICTED BY IDOCK:   -9.86 KCAL/MOL
REMARK 923 INTER-LIGAND FREE ENERGY PREDICTED BY IDOCK:   -9.28 KCAL/MOL
REMARK 924 INTRA-LIGAND FREE ENERGY PREDICTED BY IDOCK:   -0.57 KCAL/MOL
REMARK 927      BINDING AFFINITY PREDICTED BY RF-SCORE:    0.00 PKD
ROOT
HETATM    1  C   UNL     1     -11.608  12.823  68.966  1.00  0.00    -0.366 C  
HETATM    2  C   UNL     1     -11.191  13.057  67.518  1.00  0.00    -0.320 C  
ENDROOT
BRANCH   2   3
HETATM    3  C   UNL     1     -11.899  14.267  66.869  1.00  0.00    -0.458 C  
HETATM    4  C   UNL     1     -12.792  13.845  65.701  1.00  0.00    -0.424 C  
HETATM    5  N   UNL     1     -11.875  13.768  64.586  1.00  0.00    -0.383 N  
HETATM    6  C   UNL     1     -10.954  15.308  66.193  1.00  0.00    -0.307 C  
HETATM    7  C   UNL     1     -10.822  14.760  64.744  1.00  0.00    -0.376 C  
BRANCH   5   8
HETATM    8  C   UNL     1     -11.952  12.738  63.682  1.00  0.00    -0.539 C  
HETATM    9  O   UNL     1     -13.007  12.193  63.376  1.00  0.00    -0.776 OA 
BRANCH   8  10
HETATM   10  N   UNL     1     -10.767  12.362  63.112  1.00  0.00    -0.628 N  
HETATM   11  H   UNL     1     -10.221  13.039  62.578  1.00  0.00     0.000 HD 
BRANCH  10  12
HETATM   12  C   UNL     1     -10.281  10.989  63.267  1.00  0.00    -0.303 C  
HETATM   13  F   UNL     1      -9.343  11.802  65.323  1.00  0.00    -0.223 F  
HETATM   14  C   UNL     1      -9.526  10.692  64.570  1.00  0.00    -0.264 C  
HETATM   15  F   UNL     1     -10.153   9.769  65.329  1.00  0.00    -0.376 F  
HETATM   16  F   UNL     1      -8.289  10.207  64.287  1.00  0.00    -0.144 F  
ENDBRANCH  10  12
ENDBRANCH   8  10
ENDBRANCH   5   8
BRANCH   6  17
HETATM   17  C   UNL     1      -9.625  15.529  66.864  1.00  0.00    -0.228 A  
HETATM   18  N   UNL     1      -7.716  15.216  68.103  1.00  0.00    -0.111 NA 
HETATM   19  C   UNL     1      -8.679  14.620  67.330  1.00  0.00    -0.208 A  
HETATM   20  C   UNL     1      -8.034  16.490  68.081  1.00  0.00    -0.163 A  
HETATM   21  C   UNL     1      -7.403  17.562  68.824  1.00  0.00    -0.260 A  
HETATM   22  N   UNL     1      -7.766  18.819  68.715  1.00  0.00    -0.331 NA 
HETATM   23  C   UNL     1      -8.764  19.018  67.812  1.00  0.00    -0.298 A  
HETATM   24  C   UNL     1      -9.441  18.097  67.035  1.00  0.00    -0.274 A  
HETATM   25  C   UNL     1     -10.321  18.770  66.175  1.00  0.00    -0.494 A  
HETATM   26  N   UNL     1      -9.095  16.749  67.237  1.00  0.00    -0.218 NA 
HETATM   27  C   UNL     1     -10.228  20.108  66.517  1.00  0.00    -0.433 A  
HETATM   28  N   UNL     1      -9.296  20.245  67.524  1.00  0.00    -0.379 NA 
HETATM   29  H   UNL     1      -9.044  21.121  67.981  1.00  0.00     0.000 HD 
ENDBRANCH   6  17
ENDBRANCH   2   3
TORSDOF 5
ENDMDL
MODEL       10
REMARK 921   NORMALIZED FREE ENERGY PREDICTED BY IDOCK:   -7.45 KCAL/MOL
REMARK 922        TOTAL FREE ENERGY PREDICTED BY IDOCK:   -9.85 KCAL/MOL
REMARK 923 INTER-LIGAND FREE ENERGY PREDICTED BY IDOCK:   -9.62 KCAL/MOL
REMARK 924 INTRA-LIGAND FREE ENERGY PREDICTED BY IDOCK:   -0.23 KCAL/MOL
REMARK 927      BINDING AFFINITY PREDICTED BY RF-SCORE:    0.00 PKD
ROOT
HETATM    1  C   UNL     1     -12.105  12.220  63.225  1.00  0.00    -0.518 C  
HETATM    2  C   UNL     1     -11.392  12.317  64.570  1.00  0.00    -0.385 C  
ENDROOT
BRANCH   2   3
HETATM    3  C   UNL     1     -12.268  12.940  65.680  1.00  0.00    -0.519 C  
HETATM    4  C   UNL     1     -12.479  14.441  65.463  1.00  0.00    -0.347 C  
HETATM    5  N   UNL     1     -11.296  15.034  66.044  1.00  0.00    -0.313 N  
HETATM    6  C   UNL     1     -11.651  12.905  67.113  1.00  0.00    -0.421 C  
HETATM    7  C   UNL     1     -10.843  14.232  67.170  1.00  0.00    -0.296 C  
BRANCH   5   8
HETATM    8  C   UNL     1     -10.653  16.075  65.422  1.00  0.00    -0.408 C  
HETATM    9  O   UNL     1     -10.997  16.518  64.331  1.00  0.00    -0.872 OA 
BRANCH   8  10
HETATM   10  N   UNL     1      -9.603  16.618  66.110  1.00  0.00    -0.296 N  
HETATM   11  H   UNL     1      -8.847  16.018  66.442  1.00  0.00     0.000 HD 
BRANCH  10  12
HETATM   12  C   UNL     1      -9.563  18.059  66.371  1.00  0.00    -0.295 C  
HETATM   13  F   UNL     1     -11.056  17.536  68.178  1.00  0.00    -0.353 F  
HETATM   14  C   UNL     1     -10.354  18.537  67.597  1.00  0.00    -0.410 C  
HETATM   15  F   UNL     1      -9.561  19.095  68.534  1.00  0.00    -0.348 F  
HETATM   16  F   UNL     1     -11.260  19.479  67.223  1.00  0.00    -0.580 F  
ENDBRANCH  10  12
ENDBRANCH   8  10
ENDBRANCH   5   8
BRANCH   6  17
HETATM   17  C   UNL     1     -10.823  11.693  67.446  1.00  0.00    -0.250 A  
HETATM   18  N   UNL     1      -9.508   9.819  67.263  1.00  0.00    -0.151 NA 
HETATM   19  C   UNL     1      -9.851  11.024  66.707  1.00  0.00    -0.197 A  
HETATM   20  C   UNL     1     -10.227   9.759  68.362  1.00  0.00    -0.185 A  
HETATM   21  C   UNL     1     -10.328   8.643  69.281  1.00  0.00    -0.221 A  
HETATM   22  N   UNL     1     -11.047   8.684  70.378  1.00  0.00    -0.240 NA 
HETATM   23  C   UNL     1     -11.655   9.883  70.584  1.00  0.00    -0.335 A  
HETATM   24  C   UNL     1     -11.635  11.023  69.802  1.00  0.00    -0.325 A  
HETATM   25  C   UNL     1     -12.325  12.052  70.460  1.00  0.00    -0.369 A  
HETATM   26  N   UNL     1     -10.931  10.924  68.588  1.00  0.00    -0.208 NA 
HETATM   27  C   UNL     1     -12.841  11.480  71.610  1.00  0.00    -0.370 A  
HETATM   28  N   UNL     1     -12.446  10.160  71.665  1.00  0.00    -0.408 NA 
HETATM   29  H   UNL     1     -12.703   9.497  72.396  1.00  0.00     0.000 HD 
ENDBRANCH   6  17
ENDBRANCH   2   3
TORSDOF 5
ENDMDL
MODEL       11
REMARK 921   NORMALIZED FREE ENERGY PREDICTED BY IDOCK:   -7.40 KCAL/MOL
REMARK 922        TOTAL FREE ENERGY PREDICTED BY IDOCK:   -9.79 KCAL/MOL
REMARK 923 INTER-LIGAND FREE ENERGY PREDICTED BY IDOCK:   -9.59 KCAL/MOL
REMARK 924 INTRA-LIGAND FREE ENERGY PREDICTED BY IDOCK:   -0.19 KCAL/MOL
REMARK 927      BINDING AFFINITY PREDICTED BY RF-SCORE:    0.00 PKD
ROOT
HETATM    1  C   UNL     1      -9.370  12.128  66.307  1.00  0.00    -0.221 C  
HETATM    2  C   UNL     1      -9.848  12.220  67.751  1.00  0.00    -0.201 C  
ENDROOT
BRANCH   2   3
HETATM    3  C   UNL     1     -11.377  12.055  67.898  1.00  0.00    -0.369 C  
HETATM    4  C   UNL     1     -12.079  13.400  68.099  1.00  0.00    -0.232 C  
HETATM    5  N   UNL     1     -11.955  13.636  69.520  1.00  0.00    -0.330 N  
HETATM    6  C   UNL     1     -11.843  11.257  69.156  1.00  0.00    -0.423 C  
HETATM    7  C   UNL     1     -11.980  12.369  70.235  1.00  0.00    -0.289 C  
BRANCH   5   8
HETATM    8  C   UNL     1     -11.649  14.884  70.002  1.00  0.00    -0.289 C  
HETATM    9  O   UNL     1     -11.761  15.906  69.333  1.00  0.00    -0.358 OA 
BRANCH   8  10
HETATM   10  N   UNL     1     -11.225  14.928  71.301  1.00  0.00    -0.559 N  
HETATM   11  H   UNL     1     -10.489  14.298  71.619  1.00  0.00     0.000 HD 
BRANCH  10  12
HETATM   12  C   UNL     1     -11.828  15.881  72.238  1.00  0.00    -0.516 C  
HETATM   13  F   UNL     1     -13.311  14.066  72.762  1.00  0.00    -0.512 F  
HETATM   14  C   UNL     1     -12.976  15.334  73.098  1.00  0.00    -0.514 C  
HETATM   15  F   UNL     1     -12.686  15.357  74.416  1.00  0.00    -0.610 F  
HETATM   16  F   UNL     1     -14.090  16.091  72.917  1.00  0.00    -0.661 F  
ENDBRANCH  10  12
ENDBRANCH   8  10
ENDBRANCH   5   8
BRANCH   6  17
HETATM   17  C   UNL     1     -10.953  10.122  69.586  1.00  0.00    -0.264 A  
HETATM   18  N   UNL     1      -9.257   8.575  69.664  1.00  0.00    -0.156 NA 
HETATM   19  C   UNL     1      -9.629   9.833  69.267  1.00  0.00    -0.197 A  
HETATM   20  C   UNL     1     -10.326   8.102  70.265  1.00  0.00    -0.209 A  
HETATM   21  C   UNL     1     -10.516   6.763  70.786  1.00  0.00    -0.214 A  
HETATM   22  N   UNL     1     -11.610   6.386  71.406  1.00  0.00    -0.311 NA 
HETATM   23  C   UNL     1     -12.528   7.381  71.541  1.00  0.00    -0.361 A  
HETATM   24  C   UNL     1     -12.472   8.692  71.104  1.00  0.00    -0.182 A  
HETATM   25  C   UNL     1     -13.605   9.382  71.557  1.00  0.00    -0.408 A  
HETATM   26  N   UNL     1     -11.328   9.046  70.366  1.00  0.00    -0.242 NA 
HETATM   27  C   UNL     1     -14.390   8.436  72.193  1.00  0.00    -0.427 A  
HETATM   28  N   UNL     1     -13.737   7.223  72.160  1.00  0.00    -0.539 NA 
HETATM   29  H   UNL     1     -14.098   6.347  72.537  1.00  0.00     0.000 HD 
ENDBRANCH   6  17
ENDBRANCH   2   3
TORSDOF 5
ENDMDL
MODEL       12
REMARK 921   NORMALIZED FREE ENERGY PREDICTED BY IDOCK:   -7.40 KCAL/MOL
REMARK 922        TOTAL FREE ENERGY PREDICTED BY IDOCK:   -9.79 KCAL/MOL
REMARK 923 INTER-LIGAND FREE ENERGY PREDICTED BY IDOCK:   -8.74 KCAL/MOL
REMARK 924 INTRA-LIGAND FREE ENERGY PREDICTED BY IDOCK:   -1.04 KCAL/MOL
REMARK 927      BINDING AFFINITY PREDICTED BY RF-SCORE:    0.00 PKD
ROOT
HETATM    1  C   UNL     1     -12.227  14.316  68.832  1.00  0.00    -0.240 C  
HETATM    2  C   UNL     1     -11.339  13.114  69.132  1.00  0.00    -0.335 C  
ENDROOT
BRANCH   2   3
HETATM    3  C   UNL     1     -11.243  12.119  67.954  1.00  0.00    -0.329 C  
HETATM    4  C   UNL     1     -11.343  10.666  68.426  1.00  0.00    -0.283 C  
HETATM    5  N   UNL     1      -9.990  10.347  68.823  1.00  0.00    -0.179 N  
HETATM    6  C   UNL     1      -9.880  12.118  67.194  1.00  0.00    -0.205 C  
HETATM    7  C   UNL     1      -9.046  11.073  67.988  1.00  0.00    -0.152 C  
BRANCH   5   8
HETATM    8  C   UNL     1      -9.744   9.626  69.964  1.00  0.00    -0.241 C  
HETATM    9  O   UNL     1      -8.844   8.798  70.052  1.00  0.00    -0.134 OA 
BRANCH   8  10
HETATM   10  N   UNL     1     -10.560   9.903  71.026  1.00  0.00    -0.326 N  
HETATM   11  H   UNL     1     -10.411  10.749  71.577  1.00  0.00     0.000 HD 
BRANCH  10  12
HETATM   12  C   UNL     1     -11.649   8.987  71.374  1.00  0.00    -0.326 C  
HETATM   13  F   UNL     1     -12.917  10.997  71.718  1.00  0.00    -0.485 F  
HETATM   14  C   UNL     1     -12.996   9.646  71.703  1.00  0.00    -0.407 C  
HETATM   15  F   UNL     1     -13.967   9.291  70.836  1.00  0.00    -0.346 F  
HETATM   16  F   UNL     1     -13.405   9.267  72.942  1.00  0.00    -0.467 F  
ENDBRANCH  10  12
ENDBRANCH   8  10
ENDBRANCH   5   8
BRANCH   6  17
HETATM   17  C   UNL     1      -9.193  13.451  67.067  1.00  0.00    -0.242 A  
HETATM   18  N   UNL     1      -7.906  15.303  67.500  1.00  0.00    -0.159 NA 
HETATM   19  C   UNL     1      -8.066  13.958  67.709  1.00  0.00    -0.172 A  
HETATM   20  C   UNL     1      -8.898  15.621  66.699  1.00  0.00    -0.292 A  
HETATM   21  C   UNL     1      -9.263  16.948  66.242  1.00  0.00    -0.267 A  
HETATM   22  N   UNL     1     -10.253  17.170  65.410  1.00  0.00    -0.612 NA 
HETATM   23  C   UNL     1     -10.877  16.035  64.993  1.00  0.00    -0.404 A  
HETATM   24  C   UNL     1     -10.626  14.719  65.337  1.00  0.00    -0.378 A  
HETATM   25  C   UNL     1     -11.454  13.876  64.582  1.00  0.00    -0.386 A  
HETATM   26  N   UNL     1      -9.620  14.516  66.298  1.00  0.00    -0.300 NA 
HETATM   27  C   UNL     1     -12.273  14.715  63.847  1.00  0.00    -0.036 A  
HETATM   28  N   UNL     1     -11.928  16.022  64.118  1.00  0.00    -1.038 NA 
HETATM   29  H   UNL     1     -12.385  16.846  63.729  1.00  0.00     0.000 HD 
ENDBRANCH   6  17
ENDBRANCH   2   3
TORSDOF 5
ENDMDL
MODEL       13
REMARK 921   NORMALIZED FREE ENERGY PREDICTED BY IDOCK:   -7.37 KCAL/MOL
REMARK 922        TOTAL FREE ENERGY PREDICTED BY IDOCK:   -9.74 KCAL/MOL
REMARK 923 INTER-LIGAND FREE ENERGY PREDICTED BY IDOCK:   -9.67 KCAL/MOL
REMARK 924 INTRA-LIGAND FREE ENERGY PREDICTED BY IDOCK:   -0.08 KCAL/MOL
REMARK 927      BINDING AFFINITY PREDICTED BY RF-SCORE:    0.00 PKD
ROOT
HETATM    1  C   UNL     1     -11.356  15.983  70.494  1.00  0.00    -0.420 C  
HETATM    2  C   UNL     1     -10.534  15.973  69.210  1.00  0.00    -0.257 C  
ENDROOT
BRANCH   2   3
HETATM    3  C   UNL     1      -9.249  15.121  69.315  1.00  0.00    -0.205 C  
HETATM    4  C   UNL     1      -7.987  15.972  69.165  1.00  0.00    -0.238 C  
HETATM    5  N   UNL     1      -7.818  16.073  67.733  1.00  0.00    -0.136 N  
HETATM    6  C   UNL     1      -9.059  14.060  68.187  1.00  0.00    -0.192 C  
HETATM    7  C   UNL     1      -8.296  14.859  67.092  1.00  0.00    -0.221 C  
BRANCH   5   8
HETATM    8  C   UNL     1      -7.451  17.261  67.150  1.00  0.00    -0.179 C  
HETATM    9  O   UNL     1      -6.645  17.334  66.229  1.00  0.00    -0.231 OA 
BRANCH   8  10
HETATM   10  N   UNL     1      -8.065  18.377  67.648  1.00  0.00    -0.247 N  
HETATM   11  H   UNL     1      -8.356  18.406  68.625  1.00  0.00     0.000 HD 
BRANCH  10  12
HETATM   12  C   UNL     1      -8.304  19.533  66.778  1.00  0.00    -0.300 C  
HETATM   13  F   UNL     1     -10.579  19.321  67.517  1.00  0.00    -0.442 F  
HETATM   14  C   UNL     1      -9.738  20.081  66.778  1.00  0.00    -0.435 C  
HETATM   15  F   UNL     1      -9.804  21.348  67.236  1.00  0.00    -0.555 F  
HETATM   16  F   UNL     1     -10.230  20.085  65.511  1.00  0.00    -0.499 F  
ENDBRANCH  10  12
ENDBRANCH   8  10
ENDBRANCH   5   8
BRANCH   6  17
HETATM   17  C   UNL     1     -10.315  13.407  67.675  1.00  0.00    -0.238 A  
HETATM   18  N   UNL     1     -11.942  11.857  67.198  1.00  0.00    -0.603 NA 
HETATM   19  C   UNL     1     -10.964  12.243  68.078  1.00  0.00    -0.225 A  
HETATM   20  C   UNL     1     -11.931  12.796  66.279  1.00  0.00    -0.395 A  
HETATM   21  C   UNL     1     -12.702  12.827  65.051  1.00  0.00    -0.380 A  
HETATM   22  N   UNL     1     -12.654  13.827  64.203  1.00  0.00    -0.685 NA 
HETATM   23  C   UNL     1     -11.842  14.842  64.605  1.00  0.00    -0.436 A  
HETATM   24  C   UNL     1     -11.066  14.946  65.745  1.00  0.00    -0.342 A  
HETATM   25  C   UNL     1     -10.472  16.215  65.789  1.00  0.00    -0.384 A  
HETATM   26  N   UNL     1     -11.065  13.824  66.592  1.00  0.00    -0.307 NA 
HETATM   27  C   UNL     1     -10.831  16.838  64.607  1.00  0.00     0.200 A  
HETATM   28  N   UNL     1     -11.645  15.989  63.887  1.00  0.00    -1.314 NA 
HETATM   29  H   UNL     1     -12.037  16.186  62.966  1.00  0.00     0.000 HD 
ENDBRANCH   6  17
ENDBRANCH   2   3
TORSDOF 5
ENDMDL
MODEL       14
REMARK 921   NORMALIZED FREE ENERGY PREDICTED BY IDOCK:   -7.35 KCAL/MOL
REMARK 922        TOTAL FREE ENERGY PREDICTED BY IDOCK:   -9.72 KCAL/MOL
REMARK 923 INTER-LIGAND FREE ENERGY PREDICTED BY IDOCK:   -9.98 KCAL/MOL
REMARK 924 INTRA-LIGAND FREE ENERGY PREDICTED BY IDOCK:    0.25 KCAL/MOL
REMARK 927      BINDING AFFINITY PREDICTED BY RF-SCORE:    0.00 PKD
ROOT
HETATM    1  C   UNL     1      -9.946  15.660  65.564  1.00  0.00    -0.364 C  
HETATM    2  C   UNL     1     -10.505  15.371  66.953  1.00  0.00    -0.295 C  
ENDROOT
BRANCH   2   3
HETATM    3  C   UNL     1      -9.546  14.537  67.832  1.00  0.00    -0.217 C  
HETATM    4  C   UNL     1      -8.819  13.462  67.021  1.00  0.00    -0.211 C  
HETATM    5  N   UNL     1      -9.763  12.368  66.989  1.00  0.00    -0.207 N  
HETATM    6  C   UNL     1     -10.235  13.689  68.947  1.00  0.00    -0.088 C  
HETATM    7  C   UNL     1     -10.540  12.350  68.218  1.00  0.00    -0.222 C  
BRANCH   5   8
HETATM    8  C   UNL     1      -9.964  11.647  65.838  1.00  0.00    -0.231 C  
HETATM    9  O   UNL     1     -10.380  10.494  65.835  1.00  0.00    -0.249 OA 
BRANCH   8  10
HETATM   10  N   UNL     1      -9.693  12.308  64.672  1.00  0.00    -0.470 N  
HETATM   11  H   UNL     1      -8.857  12.889  64.598  1.00  0.00     0.000 HD 
BRANCH  10  12
HETATM   12  C   UNL     1     -10.600  12.181  63.528  1.00  0.00    -0.458 C  
HETATM   13  F   UNL     1     -12.223  13.153  65.008  1.00  0.00    -0.374 F  
HETATM   14  C   UNL     1     -12.018  12.731  63.739  1.00  0.00    -0.510 C  
HETATM   15  F   UNL     1     -12.301  13.753  62.905  1.00  0.00    -0.449 F  
HETATM   16  F   UNL     1     -12.932  11.754  63.502  1.00  0.00    -0.645 F  
ENDBRANCH  10  12
ENDBRANCH   8  10
ENDBRANCH   5   8
BRANCH   6  17
HETATM   17  C   UNL     1     -11.450  14.303  69.590  1.00  0.00    -0.282 A  
HETATM   18  N   UNL     1     -12.935  15.819  70.467  1.00  0.00    -0.407 NA 
HETATM   19  C   UNL     1     -11.940  15.605  69.548  1.00  0.00    -0.345 A  
HETATM   20  C   UNL     1     -13.092  14.650  71.044  1.00  0.00    -0.367 A  
HETATM   21  C   UNL     1     -13.951  14.337  72.169  1.00  0.00    -0.523 A  
HETATM   22  N   UNL     1     -14.074  13.127  72.662  1.00  0.00    -0.609 NA 
HETATM   23  C   UNL     1     -13.345  12.193  71.992  1.00  0.00    -0.365 A  
HETATM   24  C   UNL     1     -12.501  12.350  70.908  1.00  0.00    -0.274 A  
HETATM   25  C   UNL     1     -12.043  11.093  70.489  1.00  0.00    -0.474 A  
HETATM   26  N   UNL     1     -12.318  13.670  70.457  1.00  0.00    -0.355 NA 
HETATM   27  C   UNL     1     -12.553  10.186  71.401  1.00  0.00    -0.422 A  
HETATM   28  N   UNL     1     -13.324  10.865  72.319  1.00  0.00    -0.563 NA 
HETATM   29  H   UNL     1     -13.803  10.445  73.116  1.00  0.00     0.000 HD 
ENDBRANCH   6  17
ENDBRANCH   2   3
TORSDOF 5
ENDMDL
MODEL       15
REMARK 921   NORMALIZED FREE ENERGY PREDICTED BY IDOCK:   -7.34 KCAL/MOL
REMARK 922        TOTAL FREE ENERGY PREDICTED BY IDOCK:   -9.71 KCAL/MOL
REMARK 923 INTER-LIGAND FREE ENERGY PREDICTED BY IDOCK:   -8.40 KCAL/MOL
REMARK 924 INTRA-LIGAND FREE ENERGY PREDICTED BY IDOCK:   -1.31 KCAL/MOL
REMARK 927      BINDING AFFINITY PREDICTED BY RF-SCORE:    0.00 PKD
ROOT
HETATM    1  C   UNL     1      -7.424  16.075  69.328  1.00  0.00    -0.228 C  
HETATM    2  C   UNL     1      -8.760  15.342  69.372  1.00  0.00    -0.252 C  
ENDROOT
BRANCH   2   3
HETATM    3  C   UNL     1      -9.070  14.562  68.075  1.00  0.00    -0.185 C  
HETATM    4  C   UNL     1      -8.414  15.207  66.852  1.00  0.00    -0.244 C  
HETATM    5  N   UNL     1      -9.352  16.238  66.471  1.00  0.00    -0.250 N  
HETATM    6  C   UNL     1     -10.573  14.535  67.657  1.00  0.00    -0.251 C  
HETATM    7  C   UNL     1     -10.708  15.811  66.780  1.00  0.00    -0.293 C  
BRANCH   5   8
HETATM    8  C   UNL     1      -8.913  17.480  66.085  1.00  0.00    -0.124 C  
HETATM    9  O   UNL     1      -7.793  17.682  65.628  1.00  0.00    -0.533 OA 
BRANCH   8  10
HETATM   10  N   UNL     1      -9.820  18.495  66.218  1.00  0.00    -0.351 N  
HETATM   11  H   UNL     1     -10.708  18.455  65.717  1.00  0.00     0.000 HD 
BRANCH  10  12
HETATM   12  C   UNL     1      -9.518  19.641  67.080  1.00  0.00    -0.340 C  
HETATM   13  F   UNL     1     -10.394  18.254  68.834  1.00  0.00    -0.368 F  
HETATM   14  C   UNL     1      -9.802  19.443  68.576  1.00  0.00    -0.427 C  
HETATM   15  F   UNL     1      -8.683  19.527  69.326  1.00  0.00    -0.375 F  
HETATM   16  F   UNL     1     -10.654  20.405  69.015  1.00  0.00    -0.493 F  
ENDBRANCH  10  12
ENDBRANCH   8  10
ENDBRANCH   5   8
BRANCH   6  17
HETATM   17  C   UNL     1     -11.571  14.482  68.783  1.00  0.00    -0.312 A  
HETATM   18  N   UNL     1     -12.891  15.063  70.571  1.00  0.00    -0.352 NA 
HETATM   19  C   UNL     1     -12.261  15.501  69.435  1.00  0.00    -0.205 A  
HETATM   20  C   UNL     1     -12.632  13.775  70.602  1.00  0.00    -0.315 A  
HETATM   21  C   UNL     1     -12.975  12.839  71.654  1.00  0.00    -0.303 A  
HETATM   22  N   UNL     1     -12.707  11.556  71.585  1.00  0.00    -0.332 NA 
HETATM   23  C   UNL     1     -12.111  11.189  70.418  1.00  0.00    -0.385 A  
HETATM   24  C   UNL     1     -11.742  11.968  69.338  1.00  0.00    -0.340 A  
HETATM   25  C   UNL     1     -11.251  11.144  68.315  1.00  0.00    -0.343 A  
HETATM   26  N   UNL     1     -11.958  13.351  69.475  1.00  0.00    -0.323 NA 
HETATM   27  C   UNL     1     -11.245   9.863  68.837  1.00  0.00    -0.079 A  
HETATM   28  N   UNL     1     -11.750   9.904  70.120  1.00  0.00    -0.398 NA 
HETATM   29  H   UNL     1     -11.839   9.103  70.745  1.00  0.00     0.000 HD 
ENDBRANCH   6  17
ENDBRANCH   2   3
TORSDOF 5
ENDMDL
MODEL       16
REMARK 921   NORMALIZED FREE ENERGY PREDICTED BY IDOCK:   -7.33 KCAL/MOL
REMARK 922        TOTAL FREE ENERGY PREDICTED BY IDOCK:   -9.69 KCAL/MOL
REMARK 923 INTER-LIGAND FREE ENERGY PREDICTED BY IDOCK:   -8.88 KCAL/MOL
REMARK 924 INTRA-LIGAND FREE ENERGY PREDICTED BY IDOCK:   -0.81 KCAL/MOL
REMARK 927      BINDING AFFINITY PREDICTED BY RF-SCORE:    0.00 PKD
ROOT
HETATM    1  C   UNL     1     -12.165  12.543  64.696  1.00  0.00    -0.524 C  
HETATM    2  C   UNL     1     -11.336  12.284  65.949  1.00  0.00    -0.406 C  
ENDROOT
BRANCH   2   3
HETATM    3  C   UNL     1     -11.850  13.053  67.187  1.00  0.00    -0.431 C  
HETATM    4  C   UNL     1     -12.126  14.525  66.869  1.00  0.00    -0.281 C  
HETATM    5  N   UNL     1     -10.829  15.148  67.004  1.00  0.00    -0.309 N  
HETATM    6  C   UNL     1     -10.837  13.164  68.369  1.00  0.00    -0.283 C  
HETATM    7  C   UNL     1     -10.058  14.466  68.031  1.00  0.00    -0.232 C  
BRANCH   5   8
HETATM    8  C   UNL     1     -10.407  16.094  66.103  1.00  0.00    -0.339 C  
HETATM    9  O   UNL     1     -10.535  15.968  64.890  1.00  0.00    -0.574 OA 
BRANCH   8  10
HETATM   10  N   UNL     1      -9.845  17.217  66.646  1.00  0.00    -0.276 N  
HETATM   11  H   UNL     1      -8.858  17.219  66.904  1.00  0.00     0.000 HD 
BRANCH  10  12
HETATM   12  C   UNL     1     -10.660  18.417  66.855  1.00  0.00    -0.347 C  
HETATM   13  F   UNL     1      -8.929  19.524  65.612  1.00  0.00    -0.235 F  
HETATM   14  C   UNL     1     -10.136  19.701  66.198  1.00  0.00    -0.480 C  
HETATM   15  F   UNL     1     -10.987  20.187  65.270  1.00  0.00    -0.529 F  
HETATM   16  F   UNL     1      -9.972  20.668  67.139  1.00  0.00    -0.573 F  
ENDBRANCH  10  12
ENDBRANCH   8  10
ENDBRANCH   5   8
BRANCH   6  17
HETATM   17  C   UNL     1      -9.938  11.975  68.583  1.00  0.00    -0.142 A  
HETATM   18  N   UNL     1      -8.301  10.388  68.310  1.00  0.00    -0.116 NA 
HETATM   19  C   UNL     1      -8.677  11.685  68.070  1.00  0.00    -0.157 A  
HETATM   20  C   UNL     1      -9.299   9.890  69.004  1.00  0.00    -0.174 A  
HETATM   21  C   UNL     1      -9.466   8.516  69.434  1.00  0.00    -0.161 A  
HETATM   22  N   UNL     1     -10.483   8.111  70.158  1.00  0.00    -0.221 NA 
HETATM   23  C   UNL     1     -11.341   9.112  70.494  1.00  0.00    -0.257 A  
HETATM   24  C   UNL     1     -11.296  10.455  70.164  1.00  0.00    -0.323 A  
HETATM   25  C   UNL     1     -12.338  11.129  70.817  1.00  0.00    -0.504 A  
HETATM   26  N   UNL     1     -10.247  10.844  69.314  1.00  0.00    -0.201 NA 
HETATM   27  C   UNL     1     -13.066  10.150  71.471  1.00  0.00    -0.429 A  
HETATM   28  N   UNL     1     -12.465   8.929  71.252  1.00  0.00    -0.382 NA 
HETATM   29  H   UNL     1     -12.804   8.032  71.599  1.00  0.00     0.000 HD 
ENDBRANCH   6  17
ENDBRANCH   2   3
TORSDOF 5
ENDMDL
MODEL       17
REMARK 921   NORMALIZED FREE ENERGY PREDICTED BY IDOCK:   -7.21 KCAL/MOL
REMARK 922        TOTAL FREE ENERGY PREDICTED BY IDOCK:   -9.54 KCAL/MOL
REMARK 923 INTER-LIGAND FREE ENERGY PREDICTED BY IDOCK:   -8.10 KCAL/MOL
REMARK 924 INTRA-LIGAND FREE ENERGY PREDICTED BY IDOCK:   -1.44 KCAL/MOL
REMARK 927      BINDING AFFINITY PREDICTED BY RF-SCORE:    0.00 PKD
ROOT
HETATM    1  C   UNL     1     -10.958  15.347  69.958  1.00  0.00    -0.313 C  
HETATM    2  C   UNL     1     -10.071  16.076  68.955  1.00  0.00    -0.239 C  
ENDROOT
BRANCH   2   3
HETATM    3  C   UNL     1      -8.791  15.291  68.592  1.00  0.00    -0.188 C  
HETATM    4  C   UNL     1      -7.557  15.854  69.300  1.00  0.00    -0.221 C  
HETATM    5  N   UNL     1      -7.147  16.945  68.444  1.00  0.00    -0.179 N  
HETATM    6  C   UNL     1      -8.366  15.368  67.092  1.00  0.00    -0.247 C  
HETATM    7  C   UNL     1      -7.458  16.631  67.059  1.00  0.00    -0.204 C  
BRANCH   5   8
HETATM    8  C   UNL     1      -6.734  18.140  68.978  1.00  0.00    -0.254 C  
HETATM    9  O   UNL     1      -5.954  18.218  69.922  1.00  0.00    -0.238 OA 
BRANCH   8  10
HETATM   10  N   UNL     1      -7.231  19.261  68.373  1.00  0.00    -0.289 N  
HETATM   11  H   UNL     1      -6.646  19.796  67.731  1.00  0.00     0.000 HD 
BRANCH  10  12
HETATM   12  C   UNL     1      -8.604  19.695  68.646  1.00  0.00    -0.262 C  
HETATM   13  F   UNL     1      -8.862  19.589  66.261  1.00  0.00    -0.321 F  
HETATM   14  C   UNL     1      -9.522  19.811  67.421  1.00  0.00    -0.343 C  
HETATM   15  F   UNL     1     -10.567  18.959  67.480  1.00  0.00    -0.404 F  
HETATM   16  F   UNL     1     -10.032  21.068  67.344  1.00  0.00    -0.603 F  
ENDBRANCH  10  12
ENDBRANCH   8  10
ENDBRANCH   5   8
BRANCH   6  17
HETATM   17  C   UNL     1      -9.487  15.420  66.089  1.00  0.00    -0.336 A  
HETATM   18  N   UNL     1     -11.148  16.177  64.695  1.00  0.00    -0.623 NA 
HETATM   19  C   UNL     1      -9.949  16.465  65.294  1.00  0.00     0.158 A  
HETATM   20  C   UNL     1     -11.407  14.947  65.078  1.00  0.00    -0.398 A  
HETATM   21  C   UNL     1     -12.611  14.183  64.814  1.00  0.00    -0.302 A  
HETATM   22  N   UNL     1     -12.771  12.941  65.207  1.00  0.00    -0.688 NA 
HETATM   23  C   UNL     1     -11.686  12.433  65.851  1.00  0.00    -0.419 A  
HETATM   24  C   UNL     1     -10.482  13.040  66.157  1.00  0.00    -0.279 A  
HETATM   25  C   UNL     1      -9.621  12.099  66.740  1.00  0.00    -0.216 A  
HETATM   26  N   UNL     1     -10.371  14.397  65.805  1.00  0.00    -0.309 NA 
HETATM   27  C   UNL     1     -10.363  10.938  66.864  1.00  0.00    -0.238 A  
HETATM   28  N   UNL     1     -11.620  11.157  66.341  1.00  0.00    -0.143 NA 
HETATM   29  H   UNL     1     -12.379  10.476  66.322  1.00  0.00     0.000 HD 
ENDBRANCH   6  17
ENDBRANCH   2   3
TORSDOF 5
ENDMDL
MODEL       18
REMARK 921   NORMALIZED FREE ENERGY PREDICTED BY IDOCK:   -7.16 KCAL/MOL
REMARK 922        TOTAL FREE ENERGY PREDICTED BY IDOCK:   -9.47 KCAL/MOL
REMARK 923 INTER-LIGAND FREE ENERGY PREDICTED BY IDOCK:   -8.47 KCAL/MOL
REMARK 924 INTRA-LIGAND FREE ENERGY PREDICTED BY IDOCK:   -0.99 KCAL/MOL
REMARK 927      BINDING AFFINITY PREDICTED BY RF-SCORE:    0.00 PKD
ROOT
HETATM    1  C   UNL     1     -10.833   7.025  66.862  1.00  0.00    -0.350 C  
HETATM    2  C   UNL     1     -10.035   8.130  67.545  1.00  0.00    -0.251 C  
ENDROOT
BRANCH   2   3
HETATM    3  C   UNL     1     -10.854   9.421  67.771  1.00  0.00    -0.223 C  
HETATM    4  C   UNL     1     -11.030  10.217  66.476  1.00  0.00     0.096 C  
HETATM    5  N   UNL     1      -9.811  10.990  66.388  1.00  0.00    -0.205 N  
HETATM    6  C   UNL     1     -10.189  10.474  68.710  1.00  0.00    -0.205 C  
HETATM    7  C   UNL     1      -9.342  11.326  67.723  1.00  0.00    -0.163 C  
BRANCH   5   8
HETATM    8  C   UNL     1      -9.161  11.144  65.189  1.00  0.00    -0.189 C  
HETATM    9  O   UNL     1      -8.291  10.375  64.795  1.00  0.00    -0.166 OA 
BRANCH   8  10
HETATM   10  N   UNL     1      -9.563  12.210  64.432  1.00  0.00    -0.478 N  
HETATM   11  H   UNL     1      -9.172  13.136  64.608  1.00  0.00     0.000 HD 
BRANCH  10  12
HETATM   12  C   UNL     1     -10.553  12.024  63.369  1.00  0.00    -0.428 C  
HETATM   13  F   UNL     1     -12.091  12.957  64.959  1.00  0.00    -0.371 F  
HETATM   14  C   UNL     1     -11.972  12.519  63.685  1.00  0.00    -0.537 C  
HETATM   15  F   UNL     1     -12.365  13.512  62.860  1.00  0.00    -0.554 F  
HETATM   16  F   UNL     1     -12.859  11.500  63.539  1.00  0.00    -0.558 F  
ENDBRANCH  10  12
ENDBRANCH   8  10
ENDBRANCH   5   8
BRANCH   6  17
HETATM   17  C   UNL     1      -9.384   9.924  69.857  1.00  0.00    -0.216 A  
HETATM   18  N   UNL     1      -7.681   9.020  71.105  1.00  0.00    -0.217 NA 
HETATM   19  C   UNL     1      -8.008   9.799  70.025  1.00  0.00    -0.184 A  
HETATM   20  C   UNL     1      -8.842   8.699  71.629  1.00  0.00    -0.223 A  
HETATM   21  C   UNL     1      -9.082   7.797  72.738  1.00  0.00    -0.186 A  
HETATM   22  N   UNL     1     -10.279   7.561  73.222  1.00  0.00    -0.319 NA 
HETATM   23  C   UNL     1     -11.262   8.271  72.606  1.00  0.00    -0.340 A  
HETATM   24  C   UNL     1     -11.173   9.165  71.555  1.00  0.00    -0.360 A  
HETATM   25  C   UNL     1     -12.433   9.733  71.318  1.00  0.00    -0.461 A  
HETATM   26  N   UNL     1      -9.893   9.332  70.997  1.00  0.00    -0.290 NA 
HETATM   27  C   UNL     1     -13.301   9.093  72.186  1.00  0.00    -0.463 A  
HETATM   28  N   UNL     1     -12.584   8.195  72.948  1.00  0.00    -0.632 NA 
HETATM   29  H   UNL     1     -12.978   7.572  73.653  1.00  0.00     0.000 HD 
ENDBRANCH   6  17
ENDBRANCH   2   3
TORSDOF 5
ENDMDL
MODEL       19
REMARK 921   NORMALIZED FREE ENERGY PREDICTED BY IDOCK:   -7.14 KCAL/MOL
REMARK 922        TOTAL FREE ENERGY PREDICTED BY IDOCK:   -9.45 KCAL/MOL
REMARK 923 INTER-LIGAND FREE ENERGY PREDICTED BY IDOCK:   -8.43 KCAL/MOL
REMARK 924 INTRA-LIGAND FREE ENERGY PREDICTED BY IDOCK:   -1.02 KCAL/MOL
REMARK 927      BINDING AFFINITY PREDICTED BY RF-SCORE:    0.00 PKD
ROOT
HETATM    1  C   UNL     1      -8.045  10.403  65.238  1.00  0.00    -0.152 C  
HETATM    2  C   UNL     1      -9.278  11.247  65.542  1.00  0.00    -0.220 C  
ENDROOT
BRANCH   2   3
HETATM    3  C   UNL     1      -9.317  11.764  66.998  1.00  0.00    -0.187 C  
HETATM    4  C   UNL     1      -9.075  10.640  68.008  1.00  0.00    -0.147 C  
HETATM    5  N   UNL     1     -10.382  10.045  68.170  1.00  0.00    -0.182 N  
HETATM    6  C   UNL     1     -10.695  12.327  67.466  1.00  0.00    -0.255 C  
HETATM    7  C   UNL     1     -11.411  11.063  68.022  1.00  0.00    -0.306 C  
BRANCH   5   8
HETATM    8  C   UNL     1     -10.531   8.682  68.236  1.00  0.00    -0.184 C  
HETATM    9  O   UNL     1     -10.095   7.919  67.381  1.00  0.00    -0.183 OA 
BRANCH   8  10
HETATM   10  N   UNL     1     -11.186   8.212  69.340  1.00  0.00    -0.426 N  
HETATM   11  H   UNL     1     -12.205   8.168  69.349  1.00  0.00     0.000 HD 
BRANCH  10  12
HETATM   12  C   UNL     1     -10.424   7.770  70.512  1.00  0.00    -0.217 C  
HETATM   13  F   UNL     1     -10.878   9.975  71.347  1.00  0.00    -0.374 F  
HETATM   14  C   UNL     1     -10.323   8.782  71.662  1.00  0.00    -0.321 C  
HETATM   15  F   UNL     1     -10.904   8.333  72.793  1.00  0.00    -0.381 F  
HETATM   16  F   UNL     1      -9.017   9.025  71.949  1.00  0.00    -0.291 F  
ENDBRANCH  10  12
ENDBRANCH   8  10
ENDBRANCH   5   8
BRANCH   6  17
HETATM   17  C   UNL     1     -11.502  13.053  66.423  1.00  0.00    -0.341 A  
HETATM   18  N   UNL     1     -12.813  13.513  64.595  1.00  0.00    -0.680 NA 
HETATM   19  C   UNL     1     -12.500  12.598  65.566  1.00  0.00    -0.276 A  
HETATM   20  C   UNL     1     -12.049  14.545  64.872  1.00  0.00    -0.416 A  
HETATM   21  C   UNL     1     -11.903  15.760  64.094  1.00  0.00    -0.030 A  
HETATM   22  N   UNL     1     -11.139  16.760  64.466  1.00  0.00    -1.039 NA 
HETATM   23  C   UNL     1     -10.530  16.560  65.666  1.00  0.00    -0.324 A  
HETATM   24  C   UNL     1     -10.589  15.465  66.508  1.00  0.00    -0.306 A  
HETATM   25  C   UNL     1      -9.878  15.744  67.684  1.00  0.00    -0.232 A  
HETATM   26  N   UNL     1     -11.342  14.372  66.044  1.00  0.00    -0.330 NA 
HETATM   27  C   UNL     1      -9.311  16.992  67.492  1.00  0.00    -0.233 A  
HETATM   28  N   UNL     1      -9.696  17.469  66.257  1.00  0.00    -0.396 NA 
HETATM   29  H   UNL     1      -9.405  18.357  65.850  1.00  0.00     0.000 HD 
ENDBRANCH   6  17
ENDBRANCH   2   3
TORSDOF 5
ENDMDL
MODEL       20
REMARK 921   NORMALIZED FREE ENERGY PREDICTED BY IDOCK:   -7.06 KCAL/MOL
REMARK 922        TOTAL FREE ENERGY PREDICTED BY IDOCK:   -9.34 KCAL/MOL
REMARK 923 INTER-LIGAND FREE ENERGY PREDICTED BY IDOCK:   -8.61 KCAL/MOL
REMARK 924 INTRA-LIGAND FREE ENERGY PREDICTED BY IDOCK:   -0.73 KCAL/MOL
REMARK 927      BINDING AFFINITY PREDICTED BY RF-SCORE:    0.00 PKD
ROOT
HETATM    1  C   UNL     1     -12.911  13.985  65.116  1.00  0.00    -0.368 C  
HETATM    2  C   UNL     1     -12.057  12.923  65.800  1.00  0.00    -0.513 C  
ENDROOT
BRANCH   2   3
HETATM    3  C   UNL     1     -11.701  13.277  67.262  1.00  0.00    -0.424 C  
HETATM    4  C   UNL     1     -11.690  14.790  67.495  1.00  0.00    -0.348 C  
HETATM    5  N   UNL     1     -10.369  15.187  67.063  1.00  0.00    -0.266 N  
HETATM    6  C   UNL     1     -10.264  12.871  67.714  1.00  0.00    -0.224 C  
HETATM    7  C   UNL     1      -9.419  14.119  67.331  1.00  0.00    -0.220 C  
BRANCH   5   8
HETATM    8  C   UNL     1     -10.184  16.332  66.328  1.00  0.00    -0.327 C  
HETATM    9  O   UNL     1     -10.508  16.430  65.149  1.00  0.00    -0.622 OA 
BRANCH   8  10
HETATM   10  N   UNL     1      -9.630  17.384  67.003  1.00  0.00    -0.265 N  
HETATM   11  H   UNL     1      -9.493  17.328  68.012  1.00  0.00     0.000 HD 
BRANCH  10  12
HETATM   12  C   UNL     1      -9.232  18.594  66.277  1.00  0.00    -0.234 C  
HETATM   13  F   UNL     1     -11.353  19.449  67.011  1.00  0.00    -0.485 F  
HETATM   14  C   UNL     1     -10.213  19.772  66.356  1.00  0.00    -0.503 C  
HETATM   15  F   UNL     1      -9.672  20.850  66.959  1.00  0.00    -0.576 F  
HETATM   16  F   UNL     1     -10.580  20.153  65.104  1.00  0.00    -0.479 F  
ENDBRANCH  10  12
ENDBRANCH   8  10
ENDBRANCH   5   8
BRANCH   6  17
HETATM   17  C   UNL     1      -9.725  11.591  67.132  1.00  0.00    -0.183 A  
HETATM   18  N   UNL     1      -8.928  10.016  65.663  1.00  0.00    -0.163 NA 
HETATM   19  C   UNL     1      -9.022  11.352  65.954  1.00  0.00    -0.177 A  
HETATM   20  C   UNL     1      -9.528   9.427  66.672  1.00  0.00    -0.177 A  
HETATM   21  C   UNL     1      -9.805   8.012  66.820  1.00  0.00    -0.257 A  
HETATM   22  N   UNL     1     -10.381   7.503  67.884  1.00  0.00    -0.200 NA 
HETATM   23  C   UNL     1     -10.658   8.427  68.844  1.00  0.00    -0.140 A  
HETATM   24  C   UNL     1     -10.439   9.792  68.838  1.00  0.00    -0.214 A  
HETATM   25  C   UNL     1     -10.791  10.325  70.086  1.00  0.00    -0.362 A  
HETATM   26  N   UNL     1      -9.904  10.324  67.651  1.00  0.00    -0.167 NA 
HETATM   27  C   UNL     1     -11.314   9.269  70.811  1.00  0.00    -0.287 A  
HETATM   28  N   UNL     1     -11.247   8.127  70.041  1.00  0.00    -0.433 NA 
HETATM   29  H   UNL     1     -11.584   7.205  70.321  1.00  0.00     0.000 HD 
ENDBRANCH   6  17
ENDBRANCH   2   3
TORSDOF 5
ENDMDL
MODEL       21
REMARK 921   NORMALIZED FREE ENERGY PREDICTED BY IDOCK:   -7.06 KCAL/MOL
REMARK 922        TOTAL FREE ENERGY PREDICTED BY IDOCK:   -9.34 KCAL/MOL
REMARK 923 INTER-LIGAND FREE ENERGY PREDICTED BY IDOCK:   -9.19 KCAL/MOL
REMARK 924 INTRA-LIGAND FREE ENERGY PREDICTED BY IDOCK:   -0.15 KCAL/MOL
REMARK 927      BINDING AFFINITY PREDICTED BY RF-SCORE:    0.00 PKD
ROOT
HETATM    1  C   UNL     1     -10.123  16.494  65.659  1.00  0.00    -0.278 C  
HETATM    2  C   UNL     1     -10.644  15.901  66.964  1.00  0.00    -0.306 C  
ENDROOT
BRANCH   2   3
HETATM    3  C   UNL     1     -10.086  14.490  67.256  1.00  0.00    -0.247 C  
HETATM    4  C   UNL     1      -9.917  13.668  65.976  1.00  0.00    -0.302 C  
HETATM    5  N   UNL     1     -11.235  13.117  65.754  1.00  0.00    -0.284 N  
HETATM    6  C   UNL     1     -11.015  13.571  68.109  1.00  0.00    -0.275 C  
HETATM    7  C   UNL     1     -11.890  12.872  67.030  1.00  0.00    -0.374 C  
BRANCH   5   8
HETATM    8  C   UNL     1     -11.774  13.070  64.493  1.00  0.00    -0.369 C  
HETATM    9  O   UNL     1     -12.377  14.011  63.987  1.00  0.00    -0.646 OA 
BRANCH   8  10
HETATM   10  N   UNL     1     -11.578  11.902  63.809  1.00  0.00    -0.446 N  
HETATM   11  H   UNL     1     -12.367  11.284  63.618  1.00  0.00     0.000 HD 
BRANCH  10  12
HETATM   12  C   UNL     1     -10.235  11.538  63.349  1.00  0.00    -0.420 C  
HETATM   13  F   UNL     1     -10.296   9.965  65.163  1.00  0.00    -0.380 F  
HETATM   14  C   UNL     1      -9.560  10.387  64.108  1.00  0.00    -0.322 C  
HETATM   15  F   UNL     1      -9.315   9.323  63.315  1.00  0.00    -0.199 F  
HETATM   16  F   UNL     1      -8.366  10.800  64.607  1.00  0.00    -0.170 F  
ENDBRANCH  10  12
ENDBRANCH   8  10
ENDBRANCH   5   8
BRANCH   6  17
HETATM   17  C   UNL     1     -11.827  14.258  69.174  1.00  0.00    -0.330 A  
HETATM   18  N   UNL     1     -12.684  15.848  70.593  1.00  0.00    -0.376 NA 
HETATM   19  C   UNL     1     -12.121  15.605  69.367  1.00  0.00    -0.266 A  
HETATM   20  C   UNL     1     -12.782  14.657  71.140  1.00  0.00    -0.339 A  
HETATM   21  C   UNL     1     -13.218  14.346  72.487  1.00  0.00    -0.469 A  
HETATM   22  N   UNL     1     -13.318  13.118  72.940  1.00  0.00    -0.388 NA 
HETATM   23  C   UNL     1     -13.008  12.171  72.014  1.00  0.00    -0.272 A  
HETATM   24  C   UNL     1     -12.592  12.327  70.705  1.00  0.00    -0.156 A  
HETATM   25  C   UNL     1     -12.487  11.067  70.097  1.00  0.00    -0.344 A  
HETATM   26  N   UNL     1     -12.407  13.652  70.272  1.00  0.00    -0.336 NA 
HETATM   27  C   UNL     1     -12.756  10.147  71.095  1.00  0.00    -0.396 A  
HETATM   28  N   UNL     1     -13.051  10.826  72.258  1.00  0.00    -0.504 NA 
HETATM   29  H   UNL     1     -13.266  10.393  73.156  1.00  0.00     0.000 HD 
ENDBRANCH   6  17
ENDBRANCH   2   3
TORSDOF 5
ENDMDL
MODEL       22
REMARK 921   NORMALIZED FREE ENERGY PREDICTED BY IDOCK:   -7.05 KCAL/MOL
REMARK 922        TOTAL FREE ENERGY PREDICTED BY IDOCK:   -9.33 KCAL/MOL
REMARK 923 INTER-LIGAND FREE ENERGY PREDICTED BY IDOCK:   -9.07 KCAL/MOL
REMARK 924 INTRA-LIGAND FREE ENERGY PREDICTED BY IDOCK:   -0.26 KCAL/MOL
REMARK 927      BINDING AFFINITY PREDICTED BY RF-SCORE:    0.00 PKD
ROOT
HETATM    1  C   UNL     1     -10.763   8.998  67.360  1.00  0.00    -0.231 C  
HETATM    2  C   UNL     1     -11.364  10.396  67.465  1.00  0.00    -0.112 C  
ENDROOT
BRANCH   2   3
HETATM    3  C   UNL     1     -10.519  11.358  68.330  1.00  0.00    -0.221 C  
HETATM    4  C   UNL     1     -10.670  11.062  69.824  1.00  0.00    -0.078 C  
HETATM    5  N   UNL     1     -11.876  11.773  70.187  1.00  0.00    -0.338 N  
HETATM    6  C   UNL     1     -10.936  12.860  68.255  1.00  0.00    -0.282 C  
HETATM    7  C   UNL     1     -12.003  12.976  69.380  1.00  0.00    -0.281 C  
BRANCH   5   8
HETATM    8  C   UNL     1     -12.801  11.204  71.026  1.00  0.00    -0.329 C  
HETATM    9  O   UNL     1     -13.184  11.737  72.062  1.00  0.00    -0.506 OA 
BRANCH   8  10
HETATM   10  N   UNL     1     -13.300   9.995  70.624  1.00  0.00    -0.585 N  
HETATM   11  H   UNL     1     -13.510   9.833  69.639  1.00  0.00     0.000 HD 
BRANCH  10  12
HETATM   12  C   UNL     1     -13.533   8.933  71.606  1.00  0.00    -0.378 C  
HETATM   13  F   UNL     1     -11.572   7.935  70.644  1.00  0.00    -0.280 F  
HETATM   14  C   UNL     1     -12.491   7.806  71.629  1.00  0.00    -0.326 C  
HETATM   15  F   UNL     1     -11.838   7.735  72.807  1.00  0.00    -0.353 F  
HETATM   16  F   UNL     1     -13.103   6.608  71.435  1.00  0.00    -0.347 F  
ENDBRANCH  10  12
ENDBRANCH   8  10
ENDBRANCH   5   8
BRANCH   6  17
HETATM   17  C   UNL     1     -11.432  13.343  66.918  1.00  0.00    -0.342 A  
HETATM   18  N   UNL     1     -12.086  13.411  64.717  1.00  0.00    -0.386 NA 
HETATM   19  C   UNL     1     -11.996  12.647  65.852  1.00  0.00    -0.438 A  
HETATM   20  C   UNL     1     -11.623  14.584  65.086  1.00  0.00    -0.371 A  
HETATM   21  C   UNL     1     -11.397  15.741  64.241  1.00  0.00    -0.179 A  
HETATM   22  N   UNL     1     -10.962  16.889  64.703  1.00  0.00    -0.963 NA 
HETATM   23  C   UNL     1     -10.780  16.898  66.051  1.00  0.00    -0.125 A  
HETATM   24  C   UNL     1     -10.965  15.880  66.969  1.00  0.00    -0.189 A  
HETATM   25  C   UNL     1     -10.751  16.375  68.263  1.00  0.00    -0.337 A  
HETATM   26  N   UNL     1     -11.344  14.634  66.437  1.00  0.00    -0.345 NA 
HETATM   27  C   UNL     1     -10.341  17.686  68.099  1.00  0.00    -0.386 A  
HETATM   28  N   UNL     1     -10.342  17.987  66.753  1.00  0.00    -0.365 NA 
HETATM   29  H   UNL     1     -10.062  18.880  66.347  1.00  0.00     0.000 HD 
ENDBRANCH   6  17
ENDBRANCH   2   3
TORSDOF 5
ENDMDL
MODEL       23
REMARK 921   NORMALIZED FREE ENERGY PREDICTED BY IDOCK:   -7.04 KCAL/MOL
REMARK 922        TOTAL FREE ENERGY PREDICTED BY IDOCK:   -9.32 KCAL/MOL
REMARK 923 INTER-LIGAND FREE ENERGY PREDICTED BY IDOCK:   -9.19 KCAL/MOL
REMARK 924 INTRA-LIGAND FREE ENERGY PREDICTED BY IDOCK:   -0.13 KCAL/MOL
REMARK 927      BINDING AFFINITY PREDICTED BY RF-SCORE:    0.00 PKD
ROOT
HETATM    1  C   UNL     1     -10.129   9.071  66.715  1.00  0.00    -0.344 C  
HETATM    2  C   UNL     1     -10.884  10.382  66.899  1.00  0.00    -0.229 C  
ENDROOT
BRANCH   2   3
HETATM    3  C   UNL     1     -10.135  11.396  67.793  1.00  0.00    -0.198 C  
HETATM    4  C   UNL     1     -10.090  10.943  69.254  1.00  0.00    -0.140 C  
HETATM    5  N   UNL     1     -11.358  11.391  69.784  1.00  0.00    -0.273 N  
HETATM    6  C   UNL     1     -10.805  12.801  67.911  1.00  0.00    -0.242 C  
HETATM    7  C   UNL     1     -11.763  12.621  69.123  1.00  0.00    -0.321 C  
BRANCH   5   8
HETATM    8  C   UNL     1     -12.089  10.592  70.628  1.00  0.00    -0.365 C  
HETATM    9  O   UNL     1     -12.819  11.038  71.507  1.00  0.00    -0.421 OA 
BRANCH   8  10
HETATM   10  N   UNL     1     -11.974   9.246  70.414  1.00  0.00    -0.469 N  
HETATM   11  H   UNL     1     -12.026   8.874  69.466  1.00  0.00     0.000 HD 
BRANCH  10  12
HETATM   12  C   UNL     1     -11.776   8.338  71.547  1.00  0.00    -0.292 C  
HETATM   13  F   UNL     1     -12.278   6.615  69.951  1.00  0.00    -0.375 F  
HETATM   14  C   UNL     1     -11.897   6.841  71.230  1.00  0.00    -0.348 C  
HETATM   15  F   UNL     1     -10.744   6.175  71.449  1.00  0.00    -0.256 F  
HETATM   16  F   UNL     1     -12.844   6.276  72.023  1.00  0.00    -0.380 F  
ENDBRANCH  10  12
ENDBRANCH   8  10
ENDBRANCH   5   8
BRANCH   6  17
HETATM   17  C   UNL     1     -11.501  13.308  66.677  1.00  0.00    -0.347 A  
HETATM   18  N   UNL     1     -12.546  13.406  64.634  1.00  0.00    -0.637 NA 
HETATM   19  C   UNL     1     -12.308  12.650  65.753  1.00  0.00    -0.253 A  
HETATM   20  C   UNL     1     -11.930  14.540  64.879  1.00  0.00    -0.422 A  
HETATM   21  C   UNL     1     -11.774  15.664  63.977  1.00  0.00     0.070 A  
HETATM   22  N   UNL     1     -11.171  16.778  64.320  1.00  0.00    -1.110 NA 
HETATM   23  C   UNL     1     -10.740  16.787  65.611  1.00  0.00    -0.192 A  
HETATM   24  C   UNL     1     -10.832  15.798  66.573  1.00  0.00    -0.230 A  
HETATM   25  C   UNL     1     -10.341  16.287  67.792  1.00  0.00    -0.287 A  
HETATM   26  N   UNL     1     -11.402  14.582  66.154  1.00  0.00    -0.344 NA 
HETATM   27  C   UNL     1      -9.866  17.558  67.520  1.00  0.00    -0.293 A  
HETATM   28  N   UNL     1     -10.094  17.843  66.191  1.00  0.00    -0.490 NA 
HETATM   29  H   UNL     1      -9.824  18.705  65.717  1.00  0.00     0.000 HD 
ENDBRANCH   6  17
ENDBRANCH   2   3
TORSDOF 5
ENDMDL
MODEL       24
REMARK 921   NORMALIZED FREE ENERGY PREDICTED BY IDOCK:   -6.97 KCAL/MOL
REMARK 922        TOTAL FREE ENERGY PREDICTED BY IDOCK:   -9.23 KCAL/MOL
REMARK 923 INTER-LIGAND FREE ENERGY PREDICTED BY IDOCK:   -9.04 KCAL/MOL
REMARK 924 INTRA-LIGAND FREE ENERGY PREDICTED BY IDOCK:   -0.19 KCAL/MOL
REMARK 927      BINDING AFFINITY PREDICTED BY RF-SCORE:    0.00 PKD
ROOT
HETATM    1  C   UNL     1     -11.243  12.202  63.550  1.00  0.00    -0.536 C  
HETATM    2  C   UNL     1     -11.111  12.253  65.068  1.00  0.00    -0.359 C  
ENDROOT
BRANCH   2   3
HETATM    3  C   UNL     1     -12.214  13.095  65.748  1.00  0.00    -0.514 C  
HETATM    4  C   UNL     1     -12.140  14.567  65.339  1.00  0.00    -0.317 C  
HETATM    5  N   UNL     1     -11.150  15.117  66.237  1.00  0.00    -0.333 N  
HETATM    6  C   UNL     1     -12.119  13.186  67.303  1.00  0.00    -0.329 C  
HETATM    7  C   UNL     1     -11.207  14.427  67.517  1.00  0.00    -0.315 C  
BRANCH   5   8
HETATM    8  C   UNL     1     -10.205  16.004  65.785  1.00  0.00    -0.377 C  
HETATM    9  O   UNL     1     -10.489  17.051  65.213  1.00  0.00    -0.649 OA 
BRANCH   8  10
HETATM   10  N   UNL     1      -8.905  15.660  66.032  1.00  0.00    -0.386 N  
HETATM   11  H   UNL     1      -8.627  14.678  66.026  1.00  0.00     0.000 HD 
BRANCH  10  12
HETATM   12  C   UNL     1      -7.910  16.700  66.307  1.00  0.00    -0.274 C  
HETATM   13  F   UNL     1      -8.395  16.226  68.611  1.00  0.00    -0.176 F  
HETATM   14  C   UNL     1      -7.601  16.952  67.789  1.00  0.00    -0.169 C  
HETATM   15  F   UNL     1      -6.316  16.681  68.099  1.00  0.00    -0.123 F  
HETATM   16  F   UNL     1      -7.821  18.258  68.091  1.00  0.00    -0.252 F  
ENDBRANCH  10  12
ENDBRANCH   8  10
ENDBRANCH   5   8
BRANCH   6  17
HETATM   17  C   UNL     1     -11.617  11.955  68.008  1.00  0.00    -0.332 A  
HETATM   18  N   UNL     1     -10.857   9.830  68.435  1.00  0.00    -0.224 NA 
HETATM   19  C   UNL     1     -10.910  10.856  67.528  1.00  0.00    -0.272 A  
HETATM   20  C   UNL     1     -11.487  10.302  69.487  1.00  0.00    -0.210 A  
HETATM   21  C   UNL     1     -11.814   9.588  70.705  1.00  0.00    -0.277 A  
HETATM   22  N   UNL     1     -12.418  10.152  71.725  1.00  0.00    -0.393 NA 
HETATM   23  C   UNL     1     -12.674  11.476  71.539  1.00  0.00    -0.334 A  
HETATM   24  C   UNL     1     -12.409  12.275  70.443  1.00  0.00    -0.228 A  
HETATM   25  C   UNL     1     -12.757  13.601  70.739  1.00  0.00    -0.338 A  
HETATM   26  N   UNL     1     -11.844  11.627  69.330  1.00  0.00    -0.326 NA 
HETATM   27  C   UNL     1     -13.323  13.566  72.001  1.00  0.00    -0.475 A  
HETATM   28  N   UNL     1     -13.286  12.270  72.469  1.00  0.00    -0.525 NA 
HETATM   29  H   UNL     1     -13.657  11.955  73.365  1.00  0.00     0.000 HD 
ENDBRANCH   6  17
ENDBRANCH   2   3
TORSDOF 5
ENDMDL
MODEL       25
REMARK 921   NORMALIZED FREE ENERGY PREDICTED BY IDOCK:   -6.97 KCAL/MOL
REMARK 922        TOTAL FREE ENERGY PREDICTED BY IDOCK:   -9.22 KCAL/MOL
REMARK 923 INTER-LIGAND FREE ENERGY PREDICTED BY IDOCK:   -8.62 KCAL/MOL
REMARK 924 INTRA-LIGAND FREE ENERGY PREDICTED BY IDOCK:   -0.60 KCAL/MOL
REMARK 927      BINDING AFFINITY PREDICTED BY RF-SCORE:    0.00 PKD
ROOT
HETATM    1  C   UNL     1      -9.344  10.054  64.914  1.00  0.00    -0.324 C  
HETATM    2  C   UNL     1     -10.133  10.335  66.188  1.00  0.00    -0.307 C  
ENDROOT
BRANCH   2   3
HETATM    3  C   UNL     1      -9.414  11.311  67.146  1.00  0.00    -0.183 C  
HETATM    4  C   UNL     1      -9.053  10.643  68.474  1.00  0.00    -0.159 C  
HETATM    5  N   UNL     1     -10.268  10.757  69.249  1.00  0.00    -0.215 N  
HETATM    6  C   UNL     1     -10.268  12.529  67.618  1.00  0.00    -0.220 C  
HETATM    7  C   UNL     1     -10.968  11.981  68.894  1.00  0.00    -0.232 C  
BRANCH   5   8
HETATM    8  C   UNL     1     -10.711   9.710  70.019  1.00  0.00    -0.259 C  
HETATM    9  O   UNL     1     -10.665   9.714  71.244  1.00  0.00    -0.335 OA 
BRANCH   8  10
HETATM   10  N   UNL     1     -11.238   8.652  69.331  1.00  0.00    -0.428 N  
HETATM   11  H   UNL     1     -12.153   8.737  68.888  1.00  0.00     0.000 HD 
BRANCH  10  12
HETATM   12  C   UNL     1     -10.489   7.397  69.229  1.00  0.00    -0.220 C  
HETATM   13  F   UNL     1     -11.185   7.441  66.931  1.00  0.00    -0.411 F  
HETATM   14  C   UNL     1     -10.430   6.768  67.830  1.00  0.00    -0.222 C  
HETATM   15  F   UNL     1      -9.170   6.696  67.351  1.00  0.00    -0.122 F  
HETATM   16  F   UNL     1     -10.916   5.499  67.873  1.00  0.00    -0.262 F  
ENDBRANCH  10  12
ENDBRANCH   8  10
ENDBRANCH   5   8
BRANCH   6  17
HETATM   17  C   UNL     1     -11.233  13.092  66.609  1.00  0.00    -0.307 A  
HETATM   18  N   UNL     1     -12.760  13.278  64.905  1.00  0.00    -0.690 NA 
HETATM   19  C   UNL     1     -12.278  12.488  65.916  1.00  0.00    -0.238 A  
HETATM   20  C   UNL     1     -12.052  14.380  64.996  1.00  0.00    -0.415 A  
HETATM   21  C   UNL     1     -12.081  15.517  64.097  1.00  0.00    -0.045 A  
HETATM   22  N   UNL     1     -11.360  16.597  64.285  1.00  0.00    -1.093 NA 
HETATM   23  C   UNL     1     -10.614  16.559  65.422  1.00  0.00    -0.276 A  
HETATM   24  C   UNL     1     -10.501  15.554  66.365  1.00  0.00    -0.306 A  
HETATM   25  C   UNL     1      -9.693  15.996  67.422  1.00  0.00    -0.232 A  
HETATM   26  N   UNL     1     -11.214  14.372  66.093  1.00  0.00    -0.330 NA 
HETATM   27  C   UNL     1      -9.245  17.252  67.052  1.00  0.00    -0.243 A  
HETATM   28  N   UNL     1      -9.793  17.575  65.829  1.00  0.00    -0.551 NA 
HETATM   29  H   UNL     1      -9.615  18.435  65.310  1.00  0.00     0.000 HD 
ENDBRANCH   6  17
ENDBRANCH   2   3
TORSDOF 5
ENDMDL
MODEL       26
REMARK 921   NORMALIZED FREE ENERGY PREDICTED BY IDOCK:   -6.94 KCAL/MOL
REMARK 922        TOTAL FREE ENERGY PREDICTED BY IDOCK:   -9.19 KCAL/MOL
REMARK 923 INTER-LIGAND FREE ENERGY PREDICTED BY IDOCK:   -8.04 KCAL/MOL
REMARK 924 INTRA-LIGAND FREE ENERGY PREDICTED BY IDOCK:   -1.15 KCAL/MOL
REMARK 927      BINDING AFFINITY PREDICTED BY RF-SCORE:    0.00 PKD
ROOT
HETATM    1  C   UNL     1      -7.926  13.888  68.709  1.00  0.00    -0.059 C  
HETATM    2  C   UNL     1      -8.380  15.306  68.382  1.00  0.00    -0.149 C  
ENDROOT
BRANCH   2   3
HETATM    3  C   UNL     1      -9.088  15.418  67.013  1.00  0.00    -0.247 C  
HETATM    4  C   UNL     1      -8.429  16.468  66.116  1.00  0.00    -0.285 C  
HETATM    5  N   UNL     1      -9.035  17.707  66.546  1.00  0.00    -0.264 N  
HETATM    6  C   UNL     1     -10.564  15.920  67.067  1.00  0.00    -0.306 C  
HETATM    7  C   UNL     1     -10.403  17.464  66.976  1.00  0.00    -0.318 C  
BRANCH   5   8
HETATM    8  C   UNL     1      -8.282  18.846  66.690  1.00  0.00    -0.286 C  
HETATM    9  O   UNL     1      -7.538  19.272  65.813  1.00  0.00    -0.406 OA 
BRANCH   8  10
HETATM   10  N   UNL     1      -8.428  19.504  67.880  1.00  0.00    -0.309 N  
HETATM   11  H   UNL     1      -9.125  20.243  67.972  1.00  0.00     0.000 HD 
BRANCH  10  12
HETATM   12  C   UNL     1      -7.584  19.147  69.024  1.00  0.00    -0.302 C  
HETATM   13  F   UNL     1      -6.124  20.856  68.180  1.00  0.00    -0.296 F  
HETATM   14  C   UNL     1      -6.308  19.983  69.197  1.00  0.00    -0.325 C  
HETATM   15  F   UNL     1      -6.302  20.677  70.354  1.00  0.00    -0.344 F  
HETATM   16  F   UNL     1      -5.221  19.167  69.211  1.00  0.00    -0.183 F  
ENDBRANCH  10  12
ENDBRANCH   8  10
ENDBRANCH   5   8
BRANCH   6  17
HETATM   17  C   UNL     1     -11.370  15.479  68.259  1.00  0.00    -0.357 A  
HETATM   18  N   UNL     1     -12.363  15.407  70.329  1.00  0.00    -0.379 NA 
HETATM   19  C   UNL     1     -11.907  16.209  69.315  1.00  0.00    -0.172 A  
HETATM   20  C   UNL     1     -12.152  14.187  69.888  1.00  0.00    -0.347 A  
HETATM   21  C   UNL     1     -12.357  12.948  70.612  1.00  0.00    -0.302 A  
HETATM   22  N   UNL     1     -12.152  11.766  70.079  1.00  0.00    -0.323 NA 
HETATM   23  C   UNL     1     -11.766  11.819  68.775  1.00  0.00    -0.329 A  
HETATM   24  C   UNL     1     -11.544  12.921  67.969  1.00  0.00    -0.342 A  
HETATM   25  C   UNL     1     -11.256  12.493  66.665  1.00  0.00    -0.357 A  
HETATM   26  N   UNL     1     -11.683  14.175  68.590  1.00  0.00    -0.329 NA 
HETATM   27  C   UNL     1     -11.215  11.111  66.726  1.00  0.00    -0.143 A  
HETATM   28  N   UNL     1     -11.505  10.714  68.013  1.00  0.00    -0.583 NA 
HETATM   29  H   UNL     1     -11.523   9.749  68.344  1.00  0.00     0.000 HD 
ENDBRANCH   6  17
ENDBRANCH   2   3
TORSDOF 5
ENDMDL
MODEL       27
REMARK 921   NORMALIZED FREE ENERGY PREDICTED BY IDOCK:   -6.83 KCAL/MOL
REMARK 922        TOTAL FREE ENERGY PREDICTED BY IDOCK:   -9.04 KCAL/MOL
REMARK 923 INTER-LIGAND FREE ENERGY PREDICTED BY IDOCK:   -7.83 KCAL/MOL
REMARK 924 INTRA-LIGAND FREE ENERGY PREDICTED BY IDOCK:   -1.22 KCAL/MOL
REMARK 927      BINDING AFFINITY PREDICTED BY RF-SCORE:    0.00 PKD
ROOT
HETATM    1  C   UNL     1      -7.670   9.467  70.065  1.00  0.00    -0.146 C  
HETATM    2  C   UNL     1      -8.508  10.528  69.360  1.00  0.00    -0.106 C  
ENDROOT
BRANCH   2   3
HETATM    3  C   UNL     1      -9.280   9.981  68.138  1.00  0.00    -0.130 C  
HETATM    4  C   UNL     1      -8.985  10.788  66.871  1.00  0.00    -0.139 C  
HETATM    5  N   UNL     1      -9.897  11.905  66.963  1.00  0.00    -0.191 N  
HETATM    6  C   UNL     1     -10.834  10.085  68.232  1.00  0.00    -0.286 C  
HETATM    7  C   UNL     1     -11.120  11.491  67.633  1.00  0.00    -0.266 C  
BRANCH   5   8
HETATM    8  C   UNL     1      -9.490  13.174  66.633  1.00  0.00    -0.260 C  
HETATM    9  O   UNL     1      -8.971  13.941  67.436  1.00  0.00    -0.189 OA 
BRANCH   8  10
HETATM   10  N   UNL     1      -9.677  13.533  65.326  1.00  0.00    -0.541 N  
HETATM   11  H   UNL     1      -8.944  13.357  64.639  1.00  0.00     0.000 HD 
BRANCH  10  12
HETATM   12  C   UNL     1     -10.931  14.170  64.913  1.00  0.00    -0.397 C  
HETATM   13  F   UNL     1     -11.577  11.946  64.277  1.00  0.00    -0.382 F  
HETATM   14  C   UNL     1     -12.014  13.223  64.377  1.00  0.00    -0.406 C  
HETATM   15  F   UNL     1     -13.125  13.229  65.141  1.00  0.00    -0.480 F  
HETATM   16  F   UNL     1     -12.383  13.605  63.126  1.00  0.00    -0.579 F  
ENDBRANCH  10  12
ENDBRANCH   8  10
ENDBRANCH   5   8
BRANCH   6  17
HETATM   17  C   UNL     1     -11.428   9.894  69.602  1.00  0.00    -0.108 A  
HETATM   18  N   UNL     1     -12.216  10.285  71.723  1.00  0.00    -0.292 NA 
HETATM   19  C   UNL     1     -12.028  10.803  70.468  1.00  0.00    -0.361 A  
HETATM   20  C   UNL     1     -11.779   9.050  71.626  1.00  0.00    -0.361 A  
HETATM   21  C   UNL     1     -11.650   8.081  72.696  1.00  0.00    -0.387 A  
HETATM   22  N   UNL     1     -11.234   6.852  72.502  1.00  0.00    -0.262 NA 
HETATM   23  C   UNL     1     -10.971   6.568  71.197  1.00  0.00    -0.266 A  
HETATM   24  C   UNL     1     -11.060   7.386  70.086  1.00  0.00    -0.246 A  
HETATM   25  C   UNL     1     -10.788   6.636  68.933  1.00  0.00    -0.326 A  
HETATM   26  N   UNL     1     -11.422   8.723  70.334  1.00  0.00    -0.201 NA 
HETATM   27  C   UNL     1     -10.441   5.374  69.381  1.00  0.00    -0.261 A  
HETATM   28  N   UNL     1     -10.535   5.349  70.756  1.00  0.00    -0.255 NA 
HETATM   29  H   UNL     1     -10.316   4.549  71.349  1.00  0.00     0.000 HD 
ENDBRANCH   6  17
ENDBRANCH   2   3
TORSDOF 5
ENDMDL
MODEL       28
REMARK 921   NORMALIZED FREE ENERGY PREDICTED BY IDOCK:   -6.83 KCAL/MOL
REMARK 922        TOTAL FREE ENERGY PREDICTED BY IDOCK:   -9.04 KCAL/MOL
REMARK 923 INTER-LIGAND FREE ENERGY PREDICTED BY IDOCK:   -7.79 KCAL/MOL
REMARK 924 INTRA-LIGAND FREE ENERGY PREDICTED BY IDOCK:   -1.25 KCAL/MOL
REMARK 927      BINDING AFFINITY PREDICTED BY RF-SCORE:    0.00 PKD
ROOT
HETATM    1  C   UNL     1     -10.883   6.940  67.605  1.00  0.00    -0.333 C  
HETATM    2  C   UNL     1     -10.736   8.451  67.463  1.00  0.00    -0.207 C  
ENDROOT
BRANCH   2   3
HETATM    3  C   UNL     1      -9.264   8.917  67.402  1.00  0.00    -0.157 C  
HETATM    4  C   UNL     1      -8.410   8.249  68.483  1.00  0.00    -0.129 C  
HETATM    5  N   UNL     1      -8.637   9.074  69.648  1.00  0.00    -0.131 N  
HETATM    6  C   UNL     1      -9.032  10.431  67.698  1.00  0.00    -0.139 C  
HETATM    7  C   UNL     1      -8.851  10.454  69.242  1.00  0.00    -0.154 C  
BRANCH   5   8
HETATM    8  C   UNL     1      -8.817   8.509  70.886  1.00  0.00    -0.171 C  
HETATM    9  O   UNL     1      -8.273   8.932  71.900  1.00  0.00    -0.345 OA 
BRANCH   8  10
HETATM   10  N   UNL     1      -9.670   7.441  70.929  1.00  0.00    -0.170 N  
HETATM   11  H   UNL     1      -9.610   6.711  70.219  1.00  0.00     0.000 HD 
BRANCH  10  12
HETATM   12  C   UNL     1     -10.671   7.344  71.995  1.00  0.00    -0.219 C  
HETATM   13  F   UNL     1     -12.001   8.725  70.550  1.00  0.00    -0.242 F  
HETATM   14  C   UNL     1     -12.011   8.038  71.716  1.00  0.00    -0.301 C  
HETATM   15  F   UNL     1     -13.042   7.168  71.683  1.00  0.00    -0.367 F  
HETATM   16  F   UNL     1     -12.277   8.940  72.696  1.00  0.00    -0.422 F  
ENDBRANCH  10  12
ENDBRANCH   8  10
ENDBRANCH   5   8
BRANCH   6  17
HETATM   17  C   UNL     1     -10.104  11.371  67.214  1.00  0.00    -0.192 A  
HETATM   18  N   UNL     1     -11.973  12.703  67.122  1.00  0.00    -0.481 NA 
HETATM   19  C   UNL     1     -10.985  12.186  67.919  1.00  0.00    -0.229 A  
HETATM   20  C   UNL     1     -11.683  12.250  65.923  1.00  0.00    -0.389 A  
HETATM   21  C   UNL     1     -12.467  12.409  64.714  1.00  0.00    -0.401 A  
HETATM   22  N   UNL     1     -12.082  11.951  63.546  1.00  0.00    -0.511 NA 
HETATM   23  C   UNL     1     -10.864  11.346  63.576  1.00  0.00    -0.353 A  
HETATM   24  C   UNL     1     -10.014  11.136  64.646  1.00  0.00    -0.292 A  
HETATM   25  C   UNL     1      -8.821  10.560  64.187  1.00  0.00    -0.205 A  
HETATM   26  N   UNL     1     -10.490  11.557  65.901  1.00  0.00    -0.248 NA 
HETATM   27  C   UNL     1      -9.008  10.341  62.834  1.00  0.00    -0.249 A  
HETATM   28  N   UNL     1     -10.257  10.802  62.477  1.00  0.00    -0.755 NA 
HETATM   29  H   UNL     1     -10.664  10.746  61.544  1.00  0.00     0.000 HD 
ENDBRANCH   6  17
ENDBRANCH   2   3
TORSDOF 5
ENDMDL
MODEL       29
REMARK 921   NORMALIZED FREE ENERGY PREDICTED BY IDOCK:   -6.77 KCAL/MOL
REMARK 922        TOTAL FREE ENERGY PREDICTED BY IDOCK:   -8.96 KCAL/MOL
REMARK 923 INTER-LIGAND FREE ENERGY PREDICTED BY IDOCK:   -7.79 KCAL/MOL
REMARK 924 INTRA-LIGAND FREE ENERGY PREDICTED BY IDOCK:   -1.17 KCAL/MOL
REMARK 927      BINDING AFFINITY PREDICTED BY RF-SCORE:    0.00 PKD
ROOT
HETATM    1  C   UNL     1      -8.351  13.453  68.232  1.00  0.00    -0.160 C  
HETATM    2  C   UNL     1      -8.887  13.009  66.875  1.00  0.00    -0.184 C  
ENDROOT
BRANCH   2   3
HETATM    3  C   UNL     1     -10.348  12.508  66.932  1.00  0.00    -0.242 C  
HETATM    4  C   UNL     1     -10.487  11.094  66.363  1.00  0.00    -0.260 C  
HETATM    5  N   UNL     1     -10.605  11.315  64.939  1.00  0.00    -0.307 N  
HETATM    6  C   UNL     1     -11.361  13.310  66.057  1.00  0.00    -0.329 C  
HETATM    7  C   UNL     1     -11.288  12.575  64.689  1.00  0.00    -0.318 C  
BRANCH   5   8
HETATM    8  C   UNL     1      -9.949  10.506  64.045  1.00  0.00    -0.297 C  
HETATM    9  O   UNL     1      -9.847  10.770  62.852  1.00  0.00    -0.316 OA 
BRANCH   8  10
HETATM   10  N   UNL     1      -9.384   9.378  64.574  1.00  0.00    -0.439 N  
HETATM   11  H   UNL     1      -9.890   8.834  65.272  1.00  0.00     0.000 HD 
BRANCH  10  12
HETATM   12  C   UNL     1      -8.052   8.950  64.137  1.00  0.00    -0.160 C  
HETATM   13  F   UNL     1      -7.279  10.263  65.994  1.00  0.00    -0.101 F  
HETATM   14  C   UNL     1      -6.881   9.425  65.009  1.00  0.00    -0.089 C  
HETATM   15  F   UNL     1      -6.213   8.398  65.574  1.00  0.00    -0.044 F  
HETATM   16  F   UNL     1      -5.990  10.114  64.249  1.00  0.00    -0.102 F  
ENDBRANCH  10  12
ENDBRANCH   8  10
ENDBRANCH   5   8
BRANCH   6  17
HETATM   17  C   UNL     1     -11.113  14.790  65.947  1.00  0.00    -0.340 A  
HETATM   18  N   UNL     1     -10.430  16.848  65.190  1.00  0.00    -0.674 NA 
HETATM   19  C   UNL     1     -10.836  15.586  64.840  1.00  0.00    -0.427 A  
HETATM   20  C   UNL     1     -10.497  16.851  66.502  1.00  0.00    -0.253 A  
HETATM   21  C   UNL     1     -10.077  17.911  67.397  1.00  0.00    -0.340 A  
HETATM   22  N   UNL     1     -10.213  17.842  68.701  1.00  0.00    -0.388 NA 
HETATM   23  C   UNL     1     -10.819  16.699  69.123  1.00  0.00    -0.315 A  
HETATM   24  C   UNL     1     -11.275  15.623  68.384  1.00  0.00    -0.352 A  
HETATM   25  C   UNL     1     -11.921  14.715  69.235  1.00  0.00    -0.337 A  
HETATM   26  N   UNL     1     -11.035  15.681  67.000  1.00  0.00    -0.301 NA 
HETATM   27  C   UNL     1     -11.763  15.222  70.513  1.00  0.00    -0.318 A  
HETATM   28  N   UNL     1     -11.075  16.414  70.436  1.00  0.00    -0.402 NA 
HETATM   29  H   UNL     1     -10.802  16.991  71.231  1.00  0.00     0.000 HD 
ENDBRANCH   6  17
ENDBRANCH   2   3
TORSDOF 5
ENDMDL
MODEL       30
REMARK 921   NORMALIZED FREE ENERGY PREDICTED BY IDOCK:   -6.74 KCAL/MOL
REMARK 922        TOTAL FREE ENERGY PREDICTED BY IDOCK:   -8.93 KCAL/MOL
REMARK 923 INTER-LIGAND FREE ENERGY PREDICTED BY IDOCK:   -8.03 KCAL/MOL
REMARK 924 INTRA-LIGAND FREE ENERGY PREDICTED BY IDOCK:   -0.90 KCAL/MOL
REMARK 927      BINDING AFFINITY PREDICTED BY RF-SCORE:    0.00 PKD
ROOT
HETATM    1  C   UNL     1     -12.412  15.559  70.998  1.00  0.00    -0.492 C  
HETATM    2  C   UNL     1     -11.177  15.828  70.145  1.00  0.00    -0.357 C  
ENDROOT
BRANCH   2   3
HETATM    3  C   UNL     1     -11.366  15.440  68.661  1.00  0.00    -0.337 C  
HETATM    4  C   UNL     1     -12.133  14.124  68.510  1.00  0.00    -0.277 C  
HETATM    5  N   UNL     1     -11.106  13.117  68.656  1.00  0.00    -0.257 N  
HETATM    6  C   UNL     1     -10.050  15.138  67.879  1.00  0.00    -0.222 C  
HETATM    7  C   UNL     1      -9.846  13.616  68.128  1.00  0.00    -0.236 C  
BRANCH   5   8
HETATM    8  C   UNL     1     -11.335  11.980  69.390  1.00  0.00    -0.251 C  
HETATM    9  O   UNL     1     -12.426  11.709  69.881  1.00  0.00    -0.174 OA 
BRANCH   8  10
HETATM   10  N   UNL     1     -10.266  11.138  69.525  1.00  0.00    -0.438 N  
HETATM   11  H   UNL     1      -9.343  11.431  69.204  1.00  0.00     0.000 HD 
BRANCH  10  12
HETATM   12  C   UNL     1     -10.445   9.816  70.131  1.00  0.00    -0.286 C  
HETATM   13  F   UNL     1      -8.084   9.947  70.549  1.00  0.00    -0.196 F  
HETATM   14  C   UNL     1      -9.189   9.196  70.760  1.00  0.00    -0.262 C  
HETATM   15  F   UNL     1      -9.322   9.005  72.089  1.00  0.00    -0.343 F  
HETATM   16  F   UNL     1      -8.946   7.981  70.202  1.00  0.00    -0.143 F  
ENDBRANCH  10  12
ENDBRANCH   8  10
ENDBRANCH   5   8
BRANCH   6  17
HETATM   17  C   UNL     1      -8.851  15.965  68.259  1.00  0.00    -0.179 A  
HETATM   18  N   UNL     1      -6.981  16.748  69.339  1.00  0.00    -0.219 NA 
HETATM   19  C   UNL     1      -7.727  15.644  69.015  1.00  0.00    -0.199 A  
HETATM   20  C   UNL     1      -7.610  17.740  68.752  1.00  0.00    -0.260 A  
HETATM   21  C   UNL     1      -7.304  19.154  68.855  1.00  0.00    -0.344 A  
HETATM   22  N   UNL     1      -7.968  20.079  68.202  1.00  0.00    -0.255 NA 
HETATM   23  C   UNL     1      -8.943  19.579  67.396  1.00  0.00    -0.307 A  
HETATM   24  C   UNL     1      -9.331  18.267  67.196  1.00  0.00    -0.264 A  
HETATM   25  C   UNL     1     -10.314  18.218  66.198  1.00  0.00    -0.414 A  
HETATM   26  N   UNL     1      -8.664  17.304  67.975  1.00  0.00    -0.225 NA 
HETATM   27  C   UNL     1     -10.577  19.536  65.868  1.00  0.00    -0.476 A  
HETATM   28  N   UNL     1      -9.755  20.354  66.614  1.00  0.00    -0.614 NA 
HETATM   29  H   UNL     1      -9.754  21.373  66.587  1.00  0.00     0.000 HD 
ENDBRANCH   6  17
ENDBRANCH   2   3
TORSDOF 5
ENDMDL
MODEL       31
REMARK 921   NORMALIZED FREE ENERGY PREDICTED BY IDOCK:   -6.73 KCAL/MOL
REMARK 922        TOTAL FREE ENERGY PREDICTED BY IDOCK:   -8.92 KCAL/MOL
REMARK 923 INTER-LIGAND FREE ENERGY PREDICTED BY IDOCK:   -7.95 KCAL/MOL
REMARK 924 INTRA-LIGAND FREE ENERGY PREDICTED BY IDOCK:   -0.97 KCAL/MOL
REMARK 927      BINDING AFFINITY PREDICTED BY RF-SCORE:    0.00 PKD
ROOT
HETATM    1  C   UNL     1      -7.935   9.861  69.835  1.00  0.00    -0.193 C  
HETATM    2  C   UNL     1      -9.446   9.870  69.630  1.00  0.00    -0.252 C  
ENDROOT
BRANCH   2   3
HETATM    3  C   UNL     1     -10.232  10.212  70.915  1.00  0.00     0.392 C  
HETATM    4  C   UNL     1     -10.487   8.972  71.774  1.00  0.00    -0.348 C  
HETATM    5  N   UNL     1     -11.674   8.393  71.186  1.00  0.00    -0.279 N  
HETATM    6  C   UNL     1     -11.680  10.749  70.686  1.00  0.00    -0.442 C  
HETATM    7  C   UNL     1     -12.527   9.446  70.658  1.00  0.00     0.017 C  
BRANCH   5   8
HETATM    8  C   UNL     1     -11.782   7.036  71.012  1.00  0.00    -0.333 C  
HETATM    9  O   UNL     1     -11.697   6.233  71.935  1.00  0.00    -0.310 OA 
BRANCH   8  10
HETATM   10  N   UNL     1     -12.018   6.622  69.730  1.00  0.00    -0.618 N  
HETATM   11  H   UNL     1     -12.935   6.766  69.307  1.00  0.00     0.000 HD 
BRANCH  10  12
HETATM   12  C   UNL     1     -10.953   5.970  68.962  1.00  0.00    -0.339 C  
HETATM   13  F   UNL     1     -11.146   7.881  67.520  1.00  0.00    -0.244 F  
HETATM   14  C   UNL     1     -10.439   6.749  67.742  1.00  0.00    -0.222 C  
HETATM   15  F   UNL     1      -9.137   7.081  67.858  1.00  0.00    -0.128 F  
HETATM   16  F   UNL     1     -10.562   5.988  66.623  1.00  0.00    -0.262 F  
ENDBRANCH  10  12
ENDBRANCH   8  10
ENDBRANCH   5   8
BRANCH   6  17
HETATM   17  C   UNL     1     -11.880  11.612  69.469  1.00  0.00    -0.348 A  
HETATM   18  N   UNL     1     -11.862  12.395  67.310  1.00  0.00    -0.519 NA 
HETATM   19  C   UNL     1     -11.896  11.287  68.116  1.00  0.00    -0.205 A  
HETATM   20  C   UNL     1     -11.869  13.402  68.154  1.00  0.00    -0.361 A  
HETATM   21  C   UNL     1     -11.738  14.811  67.837  1.00  0.00    -0.341 A  
HETATM   22  N   UNL     1     -11.791  15.756  68.746  1.00  0.00    -0.374 NA 
HETATM   23  C   UNL     1     -12.017  15.288  70.003  1.00  0.00    -0.343 A  
HETATM   24  C   UNL     1     -12.170  13.985  70.440  1.00  0.00    -0.363 A  
HETATM   25  C   UNL     1     -12.485  13.987  71.807  1.00  0.00    -0.328 A  
HETATM   26  N   UNL     1     -12.019  12.986  69.462  1.00  0.00    -0.308 NA 
HETATM   27  C   UNL     1     -12.425  15.311  72.203  1.00  0.00    -0.357 A  
HETATM   28  N   UNL     1     -12.121  16.090  71.106  1.00  0.00    -0.543 NA 
HETATM   29  H   UNL     1     -11.993  17.101  71.117  1.00  0.00     0.000 HD 
ENDBRANCH   6  17
ENDBRANCH   2   3
TORSDOF 5
ENDMDL
MODEL       32
REMARK 921   NORMALIZED FREE ENERGY PREDICTED BY IDOCK:   -6.66 KCAL/MOL
REMARK 922        TOTAL FREE ENERGY PREDICTED BY IDOCK:   -8.82 KCAL/MOL
REMARK 923 INTER-LIGAND FREE ENERGY PREDICTED BY IDOCK:   -8.78 KCAL/MOL
REMARK 924 INTRA-LIGAND FREE ENERGY PREDICTED BY IDOCK:   -0.04 KCAL/MOL
REMARK 927      BINDING AFFINITY PREDICTED BY RF-SCORE:    0.00 PKD
ROOT
HETATM    1  C   UNL     1      -9.508  14.110  66.412  1.00  0.00    -0.289 C  
HETATM    2  C   UNL     1      -9.747  12.952  67.374  1.00  0.00    -0.201 C  
ENDROOT
BRANCH   2   3
HETATM    3  C   UNL     1     -11.239  12.579  67.520  1.00  0.00    -0.342 C  
HETATM    4  C   UNL     1     -12.129  13.821  67.616  1.00  0.00    -0.298 C  
HETATM    5  N   UNL     1     -12.066  14.171  69.017  1.00  0.00    -0.339 N  
HETATM    6  C   UNL     1     -11.610  11.814  68.828  1.00  0.00    -0.367 C  
HETATM    7  C   UNL     1     -11.924  12.968  69.822  1.00  0.00    -0.308 C  
BRANCH   5   8
HETATM    8  C   UNL     1     -11.951  15.482  69.409  1.00  0.00    -0.336 C  
HETATM    9  O   UNL     1     -12.292  15.882  70.517  1.00  0.00    -0.381 OA 
BRANCH   8  10
HETATM   10  N   UNL     1     -11.402  16.329  68.486  1.00  0.00    -0.367 N  
HETATM   11  H   UNL     1     -11.825  16.419  67.562  1.00  0.00     0.000 HD 
BRANCH  10  12
HETATM   12  C   UNL     1     -10.207  17.107  68.824  1.00  0.00    -0.332 C  
HETATM   13  F   UNL     1     -11.164  18.764  67.372  1.00  0.00    -0.448 F  
HETATM   14  C   UNL     1     -10.137  18.516  68.218  1.00  0.00    -0.390 C  
HETATM   15  F   UNL     1     -10.127  19.481  69.161  1.00  0.00    -0.472 F  
HETATM   16  F   UNL     1      -8.996  18.651  67.493  1.00  0.00    -0.269 F  
ENDBRANCH  10  12
ENDBRANCH   8  10
ENDBRANCH   5   8
BRANCH   6  17
HETATM   17  C   UNL     1     -10.575  10.852  69.347  1.00  0.00    -0.197 A  
HETATM   18  N   UNL     1      -8.711   9.521  69.520  1.00  0.00    -0.160 NA 
HETATM   19  C   UNL     1      -9.245  10.664  68.983  1.00  0.00    -0.167 A  
HETATM   20  C   UNL     1      -9.687   9.026  70.248  1.00  0.00    -0.196 A  
HETATM   21  C   UNL     1      -9.696   7.761  70.956  1.00  0.00    -0.163 A  
HETATM   22  N   UNL     1     -10.706   7.360  71.691  1.00  0.00    -0.214 NA 
HETATM   23  C   UNL     1     -11.724   8.261  71.751  1.00  0.00    -0.302 A  
HETATM   24  C   UNL     1     -11.841   9.496  71.140  1.00  0.00    -0.358 A  
HETATM   25  C   UNL     1     -13.022  10.118  71.570  1.00  0.00    -0.547 A  
HETATM   26  N   UNL     1     -10.784   9.862  70.287  1.00  0.00    -0.290 NA 
HETATM   27  C   UNL     1     -13.660   9.193  72.378  1.00  0.00    -0.483 A  
HETATM   28  N   UNL     1     -12.874   8.063  72.465  1.00  0.00    -0.566 NA 
HETATM   29  H   UNL     1     -13.114   7.216  72.979  1.00  0.00     0.000 HD 
ENDBRANCH   6  17
ENDBRANCH   2   3
TORSDOF 5
ENDMDL
MODEL       33
REMARK 921   NORMALIZED FREE ENERGY PREDICTED BY IDOCK:   -6.65 KCAL/MOL
REMARK 922        TOTAL FREE ENERGY PREDICTED BY IDOCK:   -8.82 KCAL/MOL
REMARK 923 INTER-LIGAND FREE ENERGY PREDICTED BY IDOCK:   -9.58 KCAL/MOL
REMARK 924 INTRA-LIGAND FREE ENERGY PREDICTED BY IDOCK:    0.77 KCAL/MOL
REMARK 927      BINDING AFFINITY PREDICTED BY RF-SCORE:    0.00 PKD
ROOT
HETATM    1  C   UNL     1      -9.041   9.232  70.358  1.00  0.00    -0.288 C  
HETATM    2  C   UNL     1      -9.324  10.382  69.398  1.00  0.00    -0.186 C  
ENDROOT
BRANCH   2   3
HETATM    3  C   UNL     1     -10.405  10.045  68.346  1.00  0.00    -0.218 C  
HETATM    4  C   UNL     1      -9.983  10.474  66.939  1.00  0.00    -0.200 C  
HETATM    5  N   UNL     1     -10.350  11.871  66.888  1.00  0.00    -0.208 N  
HETATM    6  C   UNL     1     -11.760  10.799  68.520  1.00  0.00    -0.259 C  
HETATM    7  C   UNL     1     -11.536  12.100  67.698  1.00  0.00    -0.343 C  
BRANCH   5   8
HETATM    8  C   UNL     1      -9.518  12.797  66.310  1.00  0.00    -0.196 C  
HETATM    9  O   UNL     1      -8.584  13.322  66.907  1.00  0.00    -0.191 OA 
BRANCH   8  10
HETATM   10  N   UNL     1      -9.778  13.088  64.999  1.00  0.00    -0.517 N  
HETATM   11  H   UNL     1      -9.059  12.937  64.291  1.00  0.00     0.000 HD 
BRANCH  10  12
HETATM   12  C   UNL     1     -11.088  13.618  64.611  1.00  0.00    -0.381 C  
HETATM   13  F   UNL     1     -11.441  11.427  63.695  1.00  0.00    -0.477 F  
HETATM   14  C   UNL     1     -12.033  12.622  63.925  1.00  0.00    -0.479 C  
HETATM   15  F   UNL     1     -13.157  12.406  64.638  1.00  0.00    -0.543 F  
HETATM   16  F   UNL     1     -12.412  13.106  62.713  1.00  0.00    -0.437 F  
ENDBRANCH  10  12
ENDBRANCH   8  10
ENDBRANCH   5   8
BRANCH   6  17
HETATM   17  C   UNL     1     -12.194  11.061  69.937  1.00  0.00    -0.336 A  
HETATM   18  N   UNL     1     -13.099  10.815  72.034  1.00  0.00    -0.464 NA 
HETATM   19  C   UNL     1     -12.511  10.182  70.969  1.00  0.00    -0.375 A  
HETATM   20  C   UNL     1     -13.106  12.082  71.687  1.00  0.00    -0.318 A  
HETATM   21  C   UNL     1     -13.710  13.184  72.409  1.00  0.00    -0.540 A  
HETATM   22  N   UNL     1     -13.639  14.430  72.004  1.00  0.00    -0.384 NA 
HETATM   23  C   UNL     1     -12.913  14.588  70.864  1.00  0.00    -0.361 A  
HETATM   24  C   UNL     1     -12.279  13.635  70.087  1.00  0.00    -0.342 A  
HETATM   25  C   UNL     1     -11.567  14.271  69.060  1.00  0.00    -0.342 A  
HETATM   26  N   UNL     1     -12.448  12.300  70.493  1.00  0.00    -0.242 NA 
HETATM   27  C   UNL     1     -11.862  15.618  69.178  1.00  0.00    -0.362 A  
HETATM   28  N   UNL     1     -12.694  15.797  70.262  1.00  0.00    -0.592 NA 
HETATM   29  H   UNL     1     -13.085  16.689  70.567  1.00  0.00     0.000 HD 
ENDBRANCH   6  17
ENDBRANCH   2   3
TORSDOF 5
ENDMDL
MODEL       34
REMARK 921   NORMALIZED FREE ENERGY PREDICTED BY IDOCK:   -6.64 KCAL/MOL
REMARK 922        TOTAL FREE ENERGY PREDICTED BY IDOCK:   -8.80 KCAL/MOL
REMARK 923 INTER-LIGAND FREE ENERGY PREDICTED BY IDOCK:   -7.39 KCAL/MOL
REMARK 924 INTRA-LIGAND FREE ENERGY PREDICTED BY IDOCK:   -1.40 KCAL/MOL
REMARK 927      BINDING AFFINITY PREDICTED BY RF-SCORE:    0.00 PKD
ROOT
HETATM    1  C   UNL     1     -12.294  11.193  69.469  1.00  0.00    -0.262 C  
HETATM    2  C   UNL     1     -11.512  11.791  68.305  1.00  0.00    -0.370 C  
ENDROOT
BRANCH   2   3
HETATM    3  C   UNL     1     -10.035  12.085  68.651  1.00  0.00    -0.151 C  
HETATM    4  C   UNL     1      -9.636  13.515  68.280  1.00  0.00    -0.218 C  
HETATM    5  N   UNL     1      -9.301  13.418  66.877  1.00  0.00    -0.245 N  
HETATM    6  C   UNL     1      -8.986  11.242  67.861  1.00  0.00    -0.146 C  
HETATM    7  C   UNL     1      -8.736  12.108  66.593  1.00  0.00    -0.153 C  
BRANCH   5   8
HETATM    8  C   UNL     1      -9.696  14.389  65.991  1.00  0.00    -0.294 C  
HETATM    9  O   UNL     1      -9.746  15.580  66.282  1.00  0.00    -0.259 OA 
BRANCH   8  10
HETATM   10  N   UNL     1     -10.012  13.951  64.735  1.00  0.00    -0.602 N  
HETATM   11  H   UNL     1      -9.274  13.645  64.100  1.00  0.00     0.000 HD 
BRANCH  10  12
HETATM   12  C   UNL     1     -11.411  13.919  64.300  1.00  0.00    -0.318 C  
HETATM   13  F   UNL     1     -11.161  11.536  64.458  1.00  0.00    -0.364 F  
HETATM   14  C   UNL     1     -12.050  12.526  64.213  1.00  0.00    -0.428 C  
HETATM   15  F   UNL     1     -13.086  12.382  65.066  1.00  0.00    -0.488 F  
HETATM   16  F   UNL     1     -12.530  12.315  62.959  1.00  0.00    -0.562 F  
ENDBRANCH  10  12
ENDBRANCH   8  10
ENDBRANCH   5   8
BRANCH   6  17
HETATM   17  C   UNL     1      -9.381   9.825  67.541  1.00  0.00    -0.133 A  
HETATM   18  N   UNL     1     -10.199   7.967  66.466  1.00  0.00    -0.232 NA 
HETATM   19  C   UNL     1      -9.620   9.201  66.320  1.00  0.00    -0.255 A  
HETATM   20  C   UNL     1     -10.279   7.806  67.768  1.00  0.00    -0.212 A  
HETATM   21  C   UNL     1     -10.911   6.711  68.477  1.00  0.00    -0.258 A  
HETATM   22  N   UNL     1     -10.913   6.613  69.785  1.00  0.00    -0.285 NA 
HETATM   23  C   UNL     1     -10.236   7.617  70.406  1.00  0.00    -0.203 A  
HETATM   24  C   UNL     1      -9.585   8.706  69.857  1.00  0.00    -0.172 A  
HETATM   25  C   UNL     1      -8.941   9.425  70.874  1.00  0.00    -0.198 A  
HETATM   26  N   UNL     1      -9.675   8.836  68.459  1.00  0.00    -0.159 NA 
HETATM   27  C   UNL     1      -9.296   8.799  72.057  1.00  0.00    -0.252 A  
HETATM   28  N   UNL     1     -10.098   7.716  71.763  1.00  0.00    -0.172 NA 
HETATM   29  H   UNL     1     -10.520   7.090  72.448  1.00  0.00     0.000 HD 
ENDBRANCH   6  17
ENDBRANCH   2   3
TORSDOF 5
ENDMDL
MODEL       35
REMARK 921   NORMALIZED FREE ENERGY PREDICTED BY IDOCK:   -6.60 KCAL/MOL
REMARK 922        TOTAL FREE ENERGY PREDICTED BY IDOCK:   -8.75 KCAL/MOL
REMARK 923 INTER-LIGAND FREE ENERGY PREDICTED BY IDOCK:   -8.51 KCAL/MOL
REMARK 924 INTRA-LIGAND FREE ENERGY PREDICTED BY IDOCK:   -0.24 KCAL/MOL
REMARK 927      BINDING AFFINITY PREDICTED BY RF-SCORE:    0.00 PKD
ROOT
HETATM    1  C   UNL     1      -9.081  14.389  67.730  1.00  0.00    -0.192 C  
HETATM    2  C   UNL     1      -9.909  13.144  68.026  1.00  0.00    -0.231 C  
ENDROOT
BRANCH   2   3
HETATM    3  C   UNL     1      -9.050  11.877  68.234  1.00  0.00    -0.183 C  
HETATM    4  C   UNL     1      -8.325  11.463  66.951  1.00  0.00    -0.159 C  
HETATM    5  N   UNL     1      -9.317  10.689  66.240  1.00  0.00    -0.166 N  
HETATM    6  C   UNL     1      -9.846  10.582  68.587  1.00  0.00    -0.183 C  
HETATM    7  C   UNL     1     -10.170   9.988  67.187  1.00  0.00    -0.228 C  
BRANCH   5   8
HETATM    8  C   UNL     1      -9.481  10.831  64.884  1.00  0.00    -0.242 C  
HETATM    9  O   UNL     1      -9.419   9.891  64.100  1.00  0.00    -0.280 OA 
BRANCH   8  10
HETATM   10  N   UNL     1      -9.745  12.101  64.451  1.00  0.00    -0.484 N  
HETATM   11  H   UNL     1      -9.281  12.897  64.891  1.00  0.00     0.000 HD 
BRANCH  10  12
HETATM   12  C   UNL     1     -10.692  12.321  63.355  1.00  0.00    -0.391 C  
HETATM   13  F   UNL     1     -12.296  12.629  65.116  1.00  0.00    -0.449 F  
HETATM   14  C   UNL     1     -12.125  12.681  63.775  1.00  0.00    -0.522 C  
HETATM   15  F   UNL     1     -12.491  13.908  63.351  1.00  0.00    -0.511 F  
HETATM   16  F   UNL     1     -13.000  11.791  63.237  1.00  0.00    -0.701 F  
ENDBRANCH  10  12
ENDBRANCH   8  10
ENDBRANCH   5   8
BRANCH   6  17
HETATM   17  C   UNL     1     -11.068  10.771  69.446  1.00  0.00    -0.268 A  
HETATM   18  N   UNL     1     -12.706  11.716  70.750  1.00  0.00    -0.250 NA 
HETATM   19  C   UNL     1     -11.815  11.912  69.727  1.00  0.00    -0.340 A  
HETATM   20  C   UNL     1     -12.546  10.453  71.074  1.00  0.00    -0.393 A  
HETATM   21  C   UNL     1     -13.171   9.745  72.173  1.00  0.00    -0.436 A  
HETATM   22  N   UNL     1     -12.980   8.467  72.403  1.00  0.00    -0.336 NA 
HETATM   23  C   UNL     1     -12.168   7.868  71.489  1.00  0.00    -0.311 A  
HETATM   24  C   UNL     1     -11.520   8.416  70.398  1.00  0.00    -0.125 A  
HETATM   25  C   UNL     1     -10.873   7.399  69.682  1.00  0.00    -0.222 A  
HETATM   26  N   UNL     1     -11.670   9.804  70.227  1.00  0.00    -0.228 NA 
HETATM   27  C   UNL     1     -11.066   6.243  70.417  1.00  0.00    -0.352 A  
HETATM   28  N   UNL     1     -11.835   6.542  71.521  1.00  0.00    -0.327 NA 
HETATM   29  H   UNL     1     -12.112   5.879  72.246  1.00  0.00     0.000 HD 
ENDBRANCH   6  17
ENDBRANCH   2   3
TORSDOF 5
ENDMDL
MODEL       36
REMARK 921   NORMALIZED FREE ENERGY PREDICTED BY IDOCK:   -6.59 KCAL/MOL
REMARK 922        TOTAL FREE ENERGY PREDICTED BY IDOCK:   -8.74 KCAL/MOL
REMARK 923 INTER-LIGAND FREE ENERGY PREDICTED BY IDOCK:   -7.85 KCAL/MOL
REMARK 924 INTRA-LIGAND FREE ENERGY PREDICTED BY IDOCK:   -0.88 KCAL/MOL
REMARK 927      BINDING AFFINITY PREDICTED BY RF-SCORE:    0.00 PKD
ROOT
HETATM    1  C   UNL     1     -12.408  12.517  70.594  1.00  0.00    -0.369 C  
HETATM    2  C   UNL     1     -11.187  12.509  69.680  1.00  0.00    -0.090 C  
ENDROOT
BRANCH   2   3
HETATM    3  C   UNL     1     -11.310  11.509  68.509  1.00  0.00    -0.337 C  
HETATM    4  C   UNL     1     -11.272  10.058  68.993  1.00  0.00    -0.133 C  
HETATM    5  N   UNL     1      -9.858   9.777  69.102  1.00  0.00    -0.178 N  
HETATM    6  C   UNL     1     -10.134  11.538  67.483  1.00  0.00    -0.203 C  
HETATM    7  C   UNL     1      -9.126  10.521  68.089  1.00  0.00    -0.141 C  
BRANCH   5   8
HETATM    8  C   UNL     1      -9.362   9.069  70.169  1.00  0.00    -0.192 C  
HETATM    9  O   UNL     1      -8.703   9.585  71.066  1.00  0.00    -0.260 OA 
BRANCH   8  10
HETATM   10  N   UNL     1      -9.670   7.737  70.189  1.00  0.00    -0.182 N  
HETATM   11  H   UNL     1     -10.086   7.322  71.023  1.00  0.00     0.000 HD 
BRANCH  10  12
HETATM   12  C   UNL     1      -9.402   6.904  69.013  1.00  0.00    -0.135 C  
HETATM   13  F   UNL     1     -11.751   6.412  69.119  1.00  0.00    -0.420 F  
HETATM   14  C   UNL     1     -10.625   6.213  68.394  1.00  0.00    -0.265 C  
HETATM   15  F   UNL     1     -10.861   6.623  67.130  1.00  0.00    -0.299 F  
HETATM   16  F   UNL     1     -10.424   4.870  68.350  1.00  0.00    -0.188 F  
ENDBRANCH  10  12
ENDBRANCH   8  10
ENDBRANCH   5   8
BRANCH   6  17
HETATM   17  C   UNL     1      -9.523  12.888  67.215  1.00  0.00    -0.216 A  
HETATM   18  N   UNL     1      -8.376  14.862  67.460  1.00  0.00    -0.167 NA 
HETATM   19  C   UNL     1      -8.465  13.546  67.834  1.00  0.00    -0.179 A  
HETATM   20  C   UNL     1      -9.343  15.009  66.583  1.00  0.00    -0.266 A  
HETATM   21  C   UNL     1      -9.764  16.240  65.944  1.00  0.00    -0.321 A  
HETATM   22  N   UNL     1     -10.722  16.290  65.049  1.00  0.00    -0.656 NA 
HETATM   23  C   UNL     1     -11.253  15.072  64.755  1.00  0.00    -0.386 A  
HETATM   24  C   UNL     1     -10.941  13.830  65.276  1.00  0.00    -0.322 A  
HETATM   25  C   UNL     1     -11.676  12.844  64.601  1.00  0.00    -0.407 A  
HETATM   26  N   UNL     1      -9.975  13.816  66.298  1.00  0.00    -0.297 NA 
HETATM   27  C   UNL     1     -12.506  13.527  63.729  1.00  0.00    -0.227 A  
HETATM   28  N   UNL     1     -12.256  14.878  63.845  1.00  0.00    -1.016 NA 
HETATM   29  H   UNL     1     -12.741  15.615  63.333  1.00  0.00     0.000 HD 
ENDBRANCH   6  17
ENDBRANCH   2   3
TORSDOF 5
ENDMDL
MODEL       37
REMARK 921   NORMALIZED FREE ENERGY PREDICTED BY IDOCK:   -6.57 KCAL/MOL
REMARK 922        TOTAL FREE ENERGY PREDICTED BY IDOCK:   -8.71 KCAL/MOL
REMARK 923 INTER-LIGAND FREE ENERGY PREDICTED BY IDOCK:   -8.50 KCAL/MOL
REMARK 924 INTRA-LIGAND FREE ENERGY PREDICTED BY IDOCK:   -0.21 KCAL/MOL
REMARK 927      BINDING AFFINITY PREDICTED BY RF-SCORE:    0.00 PKD
ROOT
HETATM    1  C   UNL     1      -9.769   9.808  65.331  1.00  0.00    -0.383 C  
HETATM    2  C   UNL     1      -9.854  11.069  66.184  1.00  0.00    -0.268 C  
ENDROOT
BRANCH   2   3
HETATM    3  C   UNL     1     -11.261  11.309  66.777  1.00  0.00    -0.265 C  
HETATM    4  C   UNL     1     -11.898  12.588  66.230  1.00  0.00    -0.390 C  
HETATM    5  N   UNL     1     -11.351  13.625  67.076  1.00  0.00    -0.312 N  
HETATM    6  C   UNL     1     -11.301  11.561  68.316  1.00  0.00    -0.352 C  
HETATM    7  C   UNL     1     -11.127  13.103  68.415  1.00  0.00    -0.268 C  
BRANCH   5   8
HETATM    8  C   UNL     1     -10.941  14.823  66.545  1.00  0.00    -0.325 C  
HETATM    9  O   UNL     1     -11.372  15.268  65.486  1.00  0.00    -0.311 OA 
BRANCH   8  10
HETATM   10  N   UNL     1     -10.025  15.516  67.287  1.00  0.00    -0.235 N  
HETATM   11  H   UNL     1      -9.567  15.067  68.080  1.00  0.00     0.000 HD 
BRANCH  10  12
HETATM   12  C   UNL     1      -9.702  16.903  66.944  1.00  0.00    -0.259 C  
HETATM   13  F   UNL     1     -10.941  17.437  68.931  1.00  0.00    -0.259 F  
HETATM   14  C   UNL     1     -10.189  17.967  67.939  1.00  0.00    -0.371 C  
HETATM   15  F   UNL     1      -9.169  18.648  68.502  1.00  0.00    -0.320 F  
HETATM   16  F   UNL     1     -10.973  18.873  67.298  1.00  0.00    -0.487 F  
ENDBRANCH  10  12
ENDBRANCH   8  10
ENDBRANCH   5   8
BRANCH   6  17
HETATM   17  C   UNL     1     -10.295  10.798  69.137  1.00  0.00    -0.217 A  
HETATM   18  N   UNL     1      -8.411   9.659  69.791  1.00  0.00    -0.172 NA 
HETATM   19  C   UNL     1      -8.924  10.628  68.968  1.00  0.00    -0.157 A  
HETATM   20  C   UNL     1      -9.445   9.262  70.498  1.00  0.00    -0.264 A  
HETATM   21  C   UNL     1      -9.486   8.174  71.455  1.00  0.00    -0.166 A  
HETATM   22  N   UNL     1     -10.559   7.868  72.145  1.00  0.00    -0.235 NA 
HETATM   23  C   UNL     1     -11.614   8.692  71.901  1.00  0.00    -0.350 A  
HETATM   24  C   UNL     1     -11.708   9.763  71.031  1.00  0.00    -0.370 A  
HETATM   25  C   UNL     1     -12.958  10.380  71.188  1.00  0.00    -0.506 A  
HETATM   26  N   UNL     1     -10.574  10.013  70.239  1.00  0.00    -0.291 NA 
HETATM   27  C   UNL     1     -13.648   9.602  72.101  1.00  0.00    -0.389 A  
HETATM   28  N   UNL     1     -12.832   8.570  72.512  1.00  0.00    -0.579 NA 
HETATM   29  H   UNL     1     -13.095   7.834  73.166  1.00  0.00     0.000 HD 
ENDBRANCH   6  17
ENDBRANCH   2   3
TORSDOF 5
ENDMDL
MODEL       38
REMARK 921   NORMALIZED FREE ENERGY PREDICTED BY IDOCK:   -6.54 KCAL/MOL
REMARK 922        TOTAL FREE ENERGY PREDICTED BY IDOCK:   -8.67 KCAL/MOL
REMARK 923 INTER-LIGAND FREE ENERGY PREDICTED BY IDOCK:   -8.27 KCAL/MOL
REMARK 924 INTRA-LIGAND FREE ENERGY PREDICTED BY IDOCK:   -0.40 KCAL/MOL
REMARK 927      BINDING AFFINITY PREDICTED BY RF-SCORE:    0.00 PKD
ROOT
HETATM    1  C   UNL     1     -10.502   8.729  67.577  1.00  0.00    -0.340 C  
HETATM    2  C   UNL     1     -11.274  10.029  67.776  1.00  0.00    -0.137 C  
ENDROOT
BRANCH   2   3
HETATM    3  C   UNL     1     -10.481  11.092  68.570  1.00  0.00    -0.210 C  
HETATM    4  C   UNL     1     -10.685  10.944  70.079  1.00  0.00     0.014 C  
HETATM    5  N   UNL     1     -11.917  11.661  70.324  1.00  0.00    -0.357 N  
HETATM    6  C   UNL     1     -10.922  12.569  68.327  1.00  0.00    -0.270 C  
HETATM    7  C   UNL     1     -12.034  12.774  69.395  1.00  0.00    -0.263 C  
BRANCH   5   8
HETATM    8  C   UNL     1     -12.863  11.159  71.182  1.00  0.00    -0.374 C  
HETATM    9  O   UNL     1     -13.357  11.815  72.092  1.00  0.00    -0.497 OA 
BRANCH   8  10
HETATM   10  N   UNL     1     -13.250   9.868  70.946  1.00  0.00    -0.570 N  
HETATM   11  H   UNL     1     -13.519   9.581  70.005  1.00  0.00     0.000 HD 
BRANCH  10  12
HETATM   12  C   UNL     1     -13.277   8.898  72.043  1.00  0.00    -0.409 C  
HETATM   13  F   UNL     1     -11.358   7.958  70.948  1.00  0.00    -0.260 F  
HETATM   14  C   UNL     1     -12.145   7.861  72.044  1.00  0.00    -0.320 C  
HETATM   15  F   UNL     1     -11.359   7.960  73.136  1.00  0.00    -0.450 F  
HETATM   16  F   UNL     1     -12.668   6.607  72.037  1.00  0.00    -0.369 F  
ENDBRANCH  10  12
ENDBRANCH   8  10
ENDBRANCH   5   8
BRANCH   6  17
HETATM   17  C   UNL     1     -11.374  12.904  66.931  1.00  0.00    -0.312 A  
HETATM   18  N   UNL     1     -12.669  13.498  65.130  1.00  0.00    -0.682 NA 
HETATM   19  C   UNL     1     -12.473  13.630  66.480  1.00  0.00    -0.285 A  
HETATM   20  C   UNL     1     -11.675  12.734  64.737  1.00  0.00    -0.352 A  
HETATM   21  C   UNL     1     -11.459  12.193  63.409  1.00  0.00    -0.416 A  
HETATM   22  N   UNL     1     -10.415  11.463  63.096  1.00  0.00    -0.310 NA 
HETATM   23  C   UNL     1      -9.541  11.295  64.126  1.00  0.00    -0.225 A  
HETATM   24  C   UNL     1      -9.618  11.759  65.426  1.00  0.00    -0.190 A  
HETATM   25  C   UNL     1      -8.440  11.426  66.109  1.00  0.00    -0.105 A  
HETATM   26  N   UNL     1     -10.790  12.462  65.760  1.00  0.00    -0.268 NA 
HETATM   27  C   UNL     1      -7.693  10.671  65.222  1.00  0.00    -0.021 A  
HETATM   28  N   UNL     1      -8.379  10.581  64.029  1.00  0.00    -0.296 NA 
HETATM   29  H   UNL     1      -8.069  10.063  63.207  1.00  0.00     0.000 HD 
ENDBRANCH   6  17
ENDBRANCH   2   3
TORSDOF 5
ENDMDL
MODEL       39
REMARK 921   NORMALIZED FREE ENERGY PREDICTED BY IDOCK:   -6.53 KCAL/MOL
REMARK 922        TOTAL FREE ENERGY PREDICTED BY IDOCK:   -8.65 KCAL/MOL
REMARK 923 INTER-LIGAND FREE ENERGY PREDICTED BY IDOCK:   -7.64 KCAL/MOL
REMARK 924 INTRA-LIGAND FREE ENERGY PREDICTED BY IDOCK:   -1.01 KCAL/MOL
REMARK 927      BINDING AFFINITY PREDICTED BY RF-SCORE:    0.00 PKD
ROOT
HETATM    1  C   UNL     1     -12.288  15.123  70.317  1.00  0.00    -0.398 C  
HETATM    2  C   UNL     1     -11.043  15.470  69.508  1.00  0.00    -0.286 C  
ENDROOT
BRANCH   2   3
HETATM    3  C   UNL     1     -11.276  15.421  67.982  1.00  0.00    -0.326 C  
HETATM    4  C   UNL     1     -12.068  14.179  67.566  1.00  0.00    -0.328 C  
HETATM    5  N   UNL     1     -11.054  13.154  67.457  1.00  0.00    -0.262 N  
HETATM    6  C   UNL     1      -9.985  15.286  67.115  1.00  0.00    -0.233 C  
HETATM    7  C   UNL     1      -9.800  13.745  67.016  1.00  0.00    -0.251 C  
BRANCH   5   8
HETATM    8  C   UNL     1     -11.283  11.886  67.928  1.00  0.00    -0.263 C  
HETATM    9  O   UNL     1     -12.329  11.554  68.477  1.00  0.00    -0.459 OA 
BRANCH   8  10
HETATM   10  N   UNL     1     -10.271  10.989  67.727  1.00  0.00    -0.179 N  
HETATM   11  H   UNL     1      -9.391  11.091  68.233  1.00  0.00     0.000 HD 
BRANCH  10  12
HETATM   12  C   UNL     1     -10.449   9.880  66.785  1.00  0.00    -0.191 C  
HETATM   13  F   UNL     1      -8.642  10.915  65.589  1.00  0.00    -0.169 F  
HETATM   14  C   UNL     1      -9.461   9.837  65.611  1.00  0.00    -0.246 C  
HETATM   15  F   UNL     1      -8.695   8.727  65.625  1.00  0.00    -0.146 F  
HETATM   16  F   UNL     1     -10.141   9.842  64.435  1.00  0.00    -0.355 F  
ENDBRANCH  10  12
ENDBRANCH   8  10
ENDBRANCH   5   8
BRANCH   6  17
HETATM   17  C   UNL     1      -8.764  15.996  67.633  1.00  0.00    -0.173 A  
HETATM   18  N   UNL     1      -6.872  16.515  68.827  1.00  0.00    -0.164 NA 
HETATM   19  C   UNL     1      -7.648  15.511  68.310  1.00  0.00    -0.115 A  
HETATM   20  C   UNL     1      -7.474  17.616  68.438  1.00  0.00    -0.253 A  
HETATM   21  C   UNL     1      -7.130  18.977  68.798  1.00  0.00    -0.318 A  
HETATM   22  N   UNL     1      -7.769  20.024  68.333  1.00  0.00    -0.234 NA 
HETATM   23  C   UNL     1      -8.759  19.709  67.454  1.00  0.00    -0.310 A  
HETATM   24  C   UNL     1      -9.182  18.466  67.018  1.00  0.00    -0.274 A  
HETATM   25  C   UNL     1     -10.168  18.630  66.034  1.00  0.00    -0.386 A  
HETATM   26  N   UNL     1      -8.541  17.359  67.601  1.00  0.00    -0.215 NA 
HETATM   27  C   UNL     1     -10.396  19.993  65.955  1.00  0.00    -0.448 A  
HETATM   28  N   UNL     1      -9.551  20.636  66.835  1.00  0.00    -0.654 NA 
HETATM   29  H   UNL     1      -9.521  21.642  66.997  1.00  0.00     0.000 HD 
ENDBRANCH   6  17
ENDBRANCH   2   3
TORSDOF 5
ENDMDL
MODEL       40
REMARK 921   NORMALIZED FREE ENERGY PREDICTED BY IDOCK:   -6.45 KCAL/MOL
REMARK 922        TOTAL FREE ENERGY PREDICTED BY IDOCK:   -8.56 KCAL/MOL
REMARK 923 INTER-LIGAND FREE ENERGY PREDICTED BY IDOCK:   -7.95 KCAL/MOL
REMARK 924 INTRA-LIGAND FREE ENERGY PREDICTED BY IDOCK:   -0.61 KCAL/MOL
REMARK 927      BINDING AFFINITY PREDICTED BY RF-SCORE:    0.00 PKD
ROOT
HETATM    1  C   UNL     1     -10.015  15.200  65.427  1.00  0.00    -0.365 C  
HETATM    2  C   UNL     1     -10.129  14.449  66.749  1.00  0.00    -0.266 C  
ENDROOT
BRANCH   2   3
HETATM    3  C   UNL     1     -11.590  14.145  67.152  1.00  0.00    -0.400 C  
HETATM    4  C   UNL     1     -12.157  15.217  68.086  1.00  0.00     0.022 C  
HETATM    5  N   UNL     1     -11.696  14.802  69.392  1.00  0.00    -0.305 N  
HETATM    6  C   UNL     1     -11.793  12.845  67.991  1.00  0.00    -0.390 C  
HETATM    7  C   UNL     1     -11.620  13.351  69.452  1.00  0.00    -0.307 C  
BRANCH   5   8
HETATM    8  C   UNL     1     -11.225  15.721  70.296  1.00  0.00    -0.366 C  
HETATM    9  O   UNL     1     -11.062  15.469  71.485  1.00  0.00    -0.359 OA 
BRANCH   8  10
HETATM   10  N   UNL     1     -10.918  16.951  69.782  1.00  0.00    -0.371 N  
HETATM   11  H   UNL     1     -11.592  17.715  69.850  1.00  0.00     0.000 HD 
BRANCH  10  12
HETATM   12  C   UNL     1      -9.623  17.174  69.134  1.00  0.00    -0.116 C  
HETATM   13  F   UNL     1     -10.696  19.097  68.178  1.00  0.00    -0.426 F  
HETATM   14  C   UNL     1      -9.516  18.442  68.276  1.00  0.00    -0.324 C  
HETATM   15  F   UNL     1      -8.594  19.306  68.748  1.00  0.00    -0.367 F  
HETATM   16  F   UNL     1      -9.148  18.113  67.010  1.00  0.00    -0.244 F  
ENDBRANCH  10  12
ENDBRANCH   8  10
ENDBRANCH   5   8
BRANCH   6  17
HETATM   17  C   UNL     1     -10.886  11.692  67.653  1.00  0.00    -0.225 A  
HETATM   18  N   UNL     1      -9.221  10.113  67.746  1.00  0.00    -0.137 NA 
HETATM   19  C   UNL     1     -10.084  10.897  68.467  1.00  0.00    -0.183 A  
HETATM   20  C   UNL     1      -9.514  10.385  66.495  1.00  0.00    -0.167 A  
HETATM   21  C   UNL     1      -8.829   9.904  65.311  1.00  0.00    -0.181 A  
HETATM   22  N   UNL     1      -9.214  10.200  64.092  1.00  0.00    -0.249 NA 
HETATM   23  C   UNL     1     -10.336  10.968  64.049  1.00  0.00    -0.371 A  
HETATM   24  C   UNL     1     -11.088  11.482  65.090  1.00  0.00    -0.194 A  
HETATM   25  C   UNL     1     -12.218  12.132  64.571  1.00  0.00    -0.404 A  
HETATM   26  N   UNL     1     -10.603  11.225  66.385  1.00  0.00    -0.258 NA 
HETATM   27  C   UNL     1     -12.080  12.081  63.195  1.00  0.00    -0.240 A  
HETATM   28  N   UNL     1     -10.926  11.391  62.890  1.00  0.00    -0.756 NA 
HETATM   29  H   UNL     1     -10.569  11.223  61.949  1.00  0.00     0.000 HD 
ENDBRANCH   6  17
ENDBRANCH   2   3
TORSDOF 5
ENDMDL
MODEL       41
REMARK 921   NORMALIZED FREE ENERGY PREDICTED BY IDOCK:   -6.41 KCAL/MOL
REMARK 922        TOTAL FREE ENERGY PREDICTED BY IDOCK:   -8.50 KCAL/MOL
REMARK 923 INTER-LIGAND FREE ENERGY PREDICTED BY IDOCK:   -7.52 KCAL/MOL
REMARK 924 INTRA-LIGAND FREE ENERGY PREDICTED BY IDOCK:   -0.98 KCAL/MOL
REMARK 927      BINDING AFFINITY PREDICTED BY RF-SCORE:    0.00 PKD
ROOT
HETATM    1  C   UNL     1      -8.102  13.806  68.475  1.00  0.00    -0.128 C  
HETATM    2  C   UNL     1      -8.561  12.836  67.392  1.00  0.00    -0.194 C  
ENDROOT
BRANCH   2   3
HETATM    3  C   UNL     1      -9.979  12.274  67.640  1.00  0.00    -0.199 C  
HETATM    4  C   UNL     1     -10.028  10.754  67.465  1.00  0.00    -0.174 C  
HETATM    5  N   UNL     1     -10.196  10.585  66.039  1.00  0.00    -0.254 N  
HETATM    6  C   UNL     1     -11.070  12.750  66.631  1.00  0.00    -0.313 C  
HETATM    7  C   UNL     1     -10.976  11.688  65.499  1.00  0.00    -0.270 C  
BRANCH   5   8
HETATM    8  C   UNL     1      -9.504   9.614  65.359  1.00  0.00    -0.278 C  
HETATM    9  O   UNL     1      -9.400   9.597  64.138  1.00  0.00    -0.236 OA 
BRANCH   8  10
HETATM   10  N   UNL     1      -8.906   8.661  66.137  1.00  0.00    -0.160 N  
HETATM   11  H   UNL     1      -8.129   8.915  66.747  1.00  0.00     0.000 HD 
BRANCH  10  12
HETATM   12  C   UNL     1      -9.381   7.275  66.094  1.00  0.00    -0.046 C  
HETATM   13  F   UNL     1     -10.436   7.819  68.182  1.00  0.00    -0.219 F  
HETATM   14  C   UNL     1     -10.302   6.850  67.246  1.00  0.00    -0.251 C  
HETATM   15  F   UNL     1     -11.534   6.505  66.818  1.00  0.00    -0.446 F  
HETATM   16  F   UNL     1      -9.779   5.768  67.880  1.00  0.00    -0.111 F  
ENDBRANCH  10  12
ENDBRANCH   8  10
ENDBRANCH   5   8
BRANCH   6  17
HETATM   17  C   UNL     1     -10.935  14.163  66.129  1.00  0.00    -0.309 A  
HETATM   18  N   UNL     1     -10.377  15.994  64.860  1.00  0.00    -0.516 NA 
HETATM   19  C   UNL     1     -10.663  14.653  64.855  1.00  0.00    -0.427 A  
HETATM   20  C   UNL     1     -10.513  16.344  66.119  1.00  0.00    -0.314 A  
HETATM   21  C   UNL     1     -10.226  17.639  66.704  1.00  0.00    -0.341 A  
HETATM   22  N   UNL     1     -10.425  17.911  67.972  1.00  0.00    -0.384 NA 
HETATM   23  C   UNL     1     -10.960  16.874  68.672  1.00  0.00    -0.262 A  
HETATM   24  C   UNL     1     -11.289  15.602  68.241  1.00  0.00    -0.356 A  
HETATM   25  C   UNL     1     -11.906  14.902  69.288  1.00  0.00    -0.350 A  
HETATM   26  N   UNL     1     -10.982  15.307  66.901  1.00  0.00    -0.322 NA 
HETATM   27  C   UNL     1     -11.855  15.745  70.384  1.00  0.00    -0.368 A  
HETATM   28  N   UNL     1     -11.262  16.930  70.005  1.00  0.00    -0.297 NA 
HETATM   29  H   UNL     1     -11.077  17.722  70.620  1.00  0.00     0.000 HD 
ENDBRANCH   6  17
ENDBRANCH   2   3
TORSDOF 5
ENDMDL
MODEL       42
REMARK 921   NORMALIZED FREE ENERGY PREDICTED BY IDOCK:   -6.41 KCAL/MOL
REMARK 922        TOTAL FREE ENERGY PREDICTED BY IDOCK:   -8.50 KCAL/MOL
REMARK 923 INTER-LIGAND FREE ENERGY PREDICTED BY IDOCK:   -7.44 KCAL/MOL
REMARK 924 INTRA-LIGAND FREE ENERGY PREDICTED BY IDOCK:   -1.07 KCAL/MOL
REMARK 927      BINDING AFFINITY PREDICTED BY RF-SCORE:    0.00 PKD
ROOT
HETATM    1  C   UNL     1      -7.512  12.652  67.806  1.00  0.00    -0.131 C  
HETATM    2  C   UNL     1      -8.701  11.884  68.373  1.00  0.00    -0.157 C  
ENDROOT
BRANCH   2   3
HETATM    3  C   UNL     1      -9.809  11.620  67.329  1.00  0.00    -0.203 C  
HETATM    4  C   UNL     1     -10.181  12.890  66.561  1.00  0.00    -0.259 C  
HETATM    5  N   UNL     1     -11.136  13.541  67.429  1.00  0.00    -0.275 N  
HETATM    6  C   UNL     1     -11.187  11.183  67.917  1.00  0.00    -0.365 C  
HETATM    7  C   UNL     1     -11.902  12.542  68.158  1.00  0.00    -0.317 C  
BRANCH   5   8
HETATM    8  C   UNL     1     -11.097  14.899  67.624  1.00  0.00    -0.311 C  
HETATM    9  O   UNL     1     -10.279  15.631  67.077  1.00  0.00    -0.262 OA 
BRANCH   8  10
HETATM   10  N   UNL     1     -12.056  15.404  68.459  1.00  0.00    -0.556 N  
HETATM   11  H   UNL     1     -13.020  15.486  68.137  1.00  0.00     0.000 HD 
BRANCH  10  12
HETATM   12  C   UNL     1     -11.698  15.827  69.815  1.00  0.00    -0.348 C  
HETATM   13  F   UNL     1     -13.385  14.260  70.497  1.00  0.00    -0.363 F  
HETATM   14  C   UNL     1     -12.434  15.107  70.954  1.00  0.00    -0.365 C  
HETATM   15  F   UNL     1     -11.595  14.409  71.747  1.00  0.00    -0.332 F  
HETATM   16  F   UNL     1     -13.069  16.016  71.740  1.00  0.00    -0.510 F  
ENDBRANCH  10  12
ENDBRANCH   8  10
ENDBRANCH   5   8
BRANCH   6  17
HETATM   17  C   UNL     1     -11.136  10.315  69.146  1.00  0.00    -0.235 A  
HETATM   18  N   UNL     1     -11.056   9.613  71.331  1.00  0.00    -0.365 NA 
HETATM   19  C   UNL     1     -11.481  10.588  70.467  1.00  0.00    -0.345 A  
HETATM   20  C   UNL     1     -10.490   8.720  70.551  1.00  0.00    -0.209 A  
HETATM   21  C   UNL     1      -9.778   7.526  70.960  1.00  0.00    -0.167 A  
HETATM   22  N   UNL     1      -9.272   6.667  70.106  1.00  0.00    -0.155 NA 
HETATM   23  C   UNL     1      -9.514   6.989  68.806  1.00  0.00    -0.136 A  
HETATM   24  C   UNL     1     -10.182   8.080  68.281  1.00  0.00    -0.205 A  
HETATM   25  C   UNL     1     -10.273   7.943  66.889  1.00  0.00    -0.380 A  
HETATM   26  N   UNL     1     -10.635   9.030  69.214  1.00  0.00    -0.227 NA 
HETATM   27  C   UNL     1      -9.565   6.796  66.578  1.00  0.00    -0.140 A  
HETATM   28  N   UNL     1      -9.092   6.236  67.745  1.00  0.00    -0.115 NA 
HETATM   29  H   UNL     1      -8.518   5.395  67.807  1.00  0.00     0.000 HD 
ENDBRANCH   6  17
ENDBRANCH   2   3
TORSDOF 5
ENDMDL
MODEL       43
REMARK 921   NORMALIZED FREE ENERGY PREDICTED BY IDOCK:   -6.35 KCAL/MOL
REMARK 922        TOTAL FREE ENERGY PREDICTED BY IDOCK:   -8.43 KCAL/MOL
REMARK 923 INTER-LIGAND FREE ENERGY PREDICTED BY IDOCK:   -7.41 KCAL/MOL
REMARK 924 INTRA-LIGAND FREE ENERGY PREDICTED BY IDOCK:   -1.02 KCAL/MOL
REMARK 927      BINDING AFFINITY PREDICTED BY RF-SCORE:    0.00 PKD
ROOT
HETATM    1  C   UNL     1     -11.874  11.781  69.739  1.00  0.00    -0.420 C  
HETATM    2  C   UNL     1     -11.329  10.376  69.510  1.00  0.00    -0.325 C  
ENDROOT
BRANCH   2   3
HETATM    3  C   UNL     1      -9.785  10.315  69.506  1.00  0.00    -0.235 C  
HETATM    4  C   UNL     1      -9.183  11.190  68.404  1.00  0.00    -0.175 C  
HETATM    5  N   UNL     1      -9.233  10.341  67.235  1.00  0.00    -0.141 N  
HETATM    6  C   UNL     1      -9.175   8.917  69.177  1.00  0.00    -0.144 C  
HETATM    7  C   UNL     1      -9.058   8.951  67.627  1.00  0.00    -0.134 C  
BRANCH   5   8
HETATM    8  C   UNL     1      -9.606  10.846  66.015  1.00  0.00    -0.209 C  
HETATM    9  O   UNL     1      -9.931  10.137  65.068  1.00  0.00    -0.322 OA 
BRANCH   8  10
HETATM   10  N   UNL     1      -9.620  12.210  65.918  1.00  0.00    -0.292 N  
HETATM   11  H   UNL     1      -9.025  12.770  66.529  1.00  0.00     0.000 HD 
BRANCH  10  12
HETATM   12  C   UNL     1     -10.488  12.868  64.938  1.00  0.00    -0.331 C  
HETATM   13  F   UNL     1     -12.233  12.400  66.519  1.00  0.00    -0.431 F  
HETATM   14  C   UNL     1     -11.961  13.013  65.344  1.00  0.00    -0.414 C  
HETATM   15  F   UNL     1     -12.342  14.303  65.444  1.00  0.00    -0.383 F  
HETATM   16  F   UNL     1     -12.757  12.430  64.409  1.00  0.00    -0.518 F  
ENDBRANCH  10  12
ENDBRANCH   8  10
ENDBRANCH   5   8
BRANCH   6  17
HETATM   17  C   UNL     1      -9.940   7.725  69.687  1.00  0.00    -0.190 A  
HETATM   18  N   UNL     1     -11.496   6.051  69.907  1.00  0.00    -0.309 NA 
HETATM   19  C   UNL     1     -10.815   6.860  69.036  1.00  0.00    -0.212 A  
HETATM   20  C   UNL     1     -11.018   6.379  71.086  1.00  0.00    -0.275 A  
HETATM   21  C   UNL     1     -11.467   5.898  72.378  1.00  0.00    -0.306 A  
HETATM   22  N   UNL     1     -10.905   6.254  73.509  1.00  0.00    -0.232 NA 
HETATM   23  C   UNL     1      -9.841   7.086  73.347  1.00  0.00    -0.237 A  
HETATM   24  C   UNL     1      -9.304   7.609  72.184  1.00  0.00    -0.145 A  
HETATM   25  C   UNL     1      -8.147   8.339  72.493  1.00  0.00    -0.209 A  
HETATM   26  N   UNL     1      -9.980   7.284  70.995  1.00  0.00    -0.188 NA 
HETATM   27  C   UNL     1      -8.053   8.324  73.874  1.00  0.00    -0.204 A  
HETATM   28  N   UNL     1      -9.095   7.579  74.382  1.00  0.00    -0.431 NA 
HETATM   29  H   UNL     1      -9.281   7.421  75.373  1.00  0.00     0.000 HD 
ENDBRANCH   6  17
ENDBRANCH   2   3
TORSDOF 5
ENDMDL
MODEL       44
REMARK 921   NORMALIZED FREE ENERGY PREDICTED BY IDOCK:   -6.34 KCAL/MOL
REMARK 922        TOTAL FREE ENERGY PREDICTED BY IDOCK:   -8.42 KCAL/MOL
REMARK 923 INTER-LIGAND FREE ENERGY PREDICTED BY IDOCK:   -7.67 KCAL/MOL
REMARK 924 INTRA-LIGAND FREE ENERGY PREDICTED BY IDOCK:   -0.75 KCAL/MOL
REMARK 927      BINDING AFFINITY PREDICTED BY RF-SCORE:    0.00 PKD
ROOT
HETATM    1  C   UNL     1     -12.644  13.212  65.148  1.00  0.00    -0.525 C  
HETATM    2  C   UNL     1     -11.950  13.176  66.505  1.00  0.00    -0.459 C  
ENDROOT
BRANCH   2   3
HETATM    3  C   UNL     1     -10.410  13.109  66.399  1.00  0.00    -0.289 C  
HETATM    4  C   UNL     1      -9.891  11.677  66.548  1.00  0.00    -0.204 C  
HETATM    5  N   UNL     1      -9.813  11.493  67.979  1.00  0.00    -0.182 N  
HETATM    6  C   UNL     1      -9.631  13.852  67.529  1.00  0.00    -0.229 C  
HETATM    7  C   UNL     1      -9.485  12.756  68.622  1.00  0.00     0.004 C  
BRANCH   5   8
HETATM    8  C   UNL     1     -10.217  10.317  68.560  1.00  0.00    -0.172 C  
HETATM    9  O   UNL     1     -10.562   9.334  67.913  1.00  0.00    -0.244 OA 
BRANCH   8  10
HETATM   10  N   UNL     1     -10.191  10.293  69.927  1.00  0.00    -0.371 N  
HETATM   11  H   UNL     1      -9.386  10.671  70.428  1.00  0.00     0.000 HD 
BRANCH  10  12
HETATM   12  C   UNL     1     -11.317   9.725  70.673  1.00  0.00    -0.330 C  
HETATM   13  F   UNL     1     -12.311  11.889  70.360  1.00  0.00    -0.369 F  
HETATM   14  C   UNL     1     -12.533  10.646  70.847  1.00  0.00    -0.397 C  
HETATM   15  F   UNL     1     -13.639  10.153  70.251  1.00  0.00    -0.265 F  
HETATM   16  F   UNL     1     -12.818  10.791  72.167  1.00  0.00    -0.516 F  
ENDBRANCH  10  12
ENDBRANCH   8  10
ENDBRANCH   5   8
BRANCH   6  17
HETATM   17  C   UNL     1     -10.262  15.119  68.043  1.00  0.00    -0.230 A  
HETATM   18  N   UNL     1     -11.767  16.627  68.900  1.00  0.00     0.060 NA 
HETATM   19  C   UNL     1     -11.367  15.316  68.866  1.00  0.00    -0.305 A  
HETATM   20  C   UNL     1     -10.892  17.247  68.141  1.00  0.00    -0.294 A  
HETATM   21  C   UNL     1     -10.908  18.642  67.748  1.00  0.00    -0.260 A  
HETATM   22  N   UNL     1      -9.969  19.188  67.011  1.00  0.00    -0.327 NA 
HETATM   23  C   UNL     1      -8.966  18.328  66.686  1.00  0.00    -0.288 A  
HETATM   24  C   UNL     1      -8.822  16.989  67.000  1.00  0.00    -0.224 A  
HETATM   25  C   UNL     1      -7.579  16.533  66.537  1.00  0.00    -0.304 A  
HETATM   26  N   UNL     1      -9.885  16.406  67.713  1.00  0.00    -0.236 NA 
HETATM   27  C   UNL     1      -7.020  17.600  65.855  1.00  0.00    -0.224 A  
HETATM   28  N   UNL     1      -7.878  18.676  65.934  1.00  0.00    -0.491 NA 
HETATM   29  H   UNL     1      -7.725  19.587  65.501  1.00  0.00     0.000 HD 
ENDBRANCH   6  17
ENDBRANCH   2   3
TORSDOF 5
ENDMDL
MODEL       45
REMARK 921   NORMALIZED FREE ENERGY PREDICTED BY IDOCK:   -6.31 KCAL/MOL
REMARK 922        TOTAL FREE ENERGY PREDICTED BY IDOCK:   -8.38 KCAL/MOL
REMARK 923 INTER-LIGAND FREE ENERGY PREDICTED BY IDOCK:   -8.21 KCAL/MOL
REMARK 924 INTRA-LIGAND FREE ENERGY PREDICTED BY IDOCK:   -0.16 KCAL/MOL
REMARK 927      BINDING AFFINITY PREDICTED BY RF-SCORE:    0.00 PKD
ROOT
HETATM    1  C   UNL     1      -7.534  11.868  68.405  1.00  0.00    -0.102 C  
HETATM    2  C   UNL     1      -8.907  12.380  67.983  1.00  0.00    -0.187 C  
ENDROOT
BRANCH   2   3
HETATM    3  C   UNL     1      -9.660  11.403  67.052  1.00  0.00    -0.192 C  
HETATM    4  C   UNL     1      -9.800  11.961  65.634  1.00  0.00    -0.241 C  
HETATM    5  N   UNL     1     -10.970  12.805  65.718  1.00  0.00    -0.272 N  
HETATM    6  C   UNL     1     -11.147  11.129  67.439  1.00  0.00    -0.370 C  
HETATM    7  C   UNL     1     -11.910  12.252  66.681  1.00  0.00    -0.289 C  
BRANCH   5   8
HETATM    8  C   UNL     1     -10.999  14.032  65.103  1.00  0.00    -0.353 C  
HETATM    9  O   UNL     1     -12.006  14.496  64.580  1.00  0.00    -0.425 OA 
BRANCH   8  10
HETATM   10  N   UNL     1      -9.824  14.732  65.125  1.00  0.00    -0.460 N  
HETATM   11  H   UNL     1      -8.972  14.311  64.753  1.00  0.00     0.000 HD 
BRANCH  10  12
HETATM   12  C   UNL     1      -9.787  16.086  65.683  1.00  0.00    -0.274 C  
HETATM   13  F   UNL     1      -7.801  15.321  66.795  1.00  0.00    -0.234 F  
HETATM   14  C   UNL     1      -8.584  16.404  66.583  1.00  0.00    -0.260 C  
HETATM   15  F   UNL     1      -7.812  17.389  66.079  1.00  0.00    -0.302 F  
HETATM   16  F   UNL     1      -9.016  16.816  67.803  1.00  0.00    -0.206 F  
ENDBRANCH  10  12
ENDBRANCH   8  10
ENDBRANCH   5   8
BRANCH   6  17
HETATM   17  C   UNL     1     -11.452  11.097  68.913  1.00  0.00    -0.295 A  
HETATM   18  N   UNL     1     -12.048  10.383  71.013  1.00  0.00    -0.357 NA 
HETATM   19  C   UNL     1     -11.486  10.035  69.812  1.00  0.00    -0.184 A  
HETATM   20  C   UNL     1     -12.320  11.661  70.878  1.00  0.00    -0.336 A  
HETATM   21  C   UNL     1     -13.023  12.510  71.819  1.00  0.00    -0.313 A  
HETATM   22  N   UNL     1     -13.222  13.792  71.617  1.00  0.00    -0.363 NA 
HETATM   23  C   UNL     1     -12.674  14.249  70.459  1.00  0.00    -0.328 A  
HETATM   24  C   UNL     1     -11.976  13.558  69.485  1.00  0.00    -0.334 A  
HETATM   25  C   UNL     1     -11.513  14.460  68.516  1.00  0.00    -0.326 A  
HETATM   26  N   UNL     1     -11.855  12.171  69.682  1.00  0.00    -0.322 NA 
HETATM   27  C   UNL     1     -12.027  15.693  68.877  1.00  0.00    -0.279 A  
HETATM   28  N   UNL     1     -12.745  15.550  70.044  1.00  0.00    -0.607 NA 
HETATM   29  H   UNL     1     -13.250  16.297  70.522  1.00  0.00     0.000 HD 
ENDBRANCH   6  17
ENDBRANCH   2   3
TORSDOF 5
ENDMDL
MODEL       46
REMARK 921   NORMALIZED FREE ENERGY PREDICTED BY IDOCK:   -6.30 KCAL/MOL
REMARK 922        TOTAL FREE ENERGY PREDICTED BY IDOCK:   -8.36 KCAL/MOL
REMARK 923 INTER-LIGAND FREE ENERGY PREDICTED BY IDOCK:   -6.97 KCAL/MOL
REMARK 924 INTRA-LIGAND FREE ENERGY PREDICTED BY IDOCK:   -1.39 KCAL/MOL
REMARK 927      BINDING AFFINITY PREDICTED BY RF-SCORE:    0.00 PKD
ROOT
HETATM    1  C   UNL     1     -11.365  11.442  68.421  1.00  0.00    -0.346 C  
HETATM    2  C   UNL     1     -10.933  10.561  67.254  1.00  0.00    -0.325 C  
ENDROOT
BRANCH   2   3
HETATM    3  C   UNL     1      -9.399  10.422  67.132  1.00  0.00    -0.177 C  
HETATM    4  C   UNL     1      -8.846  11.225  65.952  1.00  0.00    -0.169 C  
HETATM    5  N   UNL     1      -9.029  10.338  64.825  1.00  0.00    -0.186 N  
HETATM    6  C   UNL     1      -8.884   8.984  66.812  1.00  0.00    -0.144 C  
HETATM    7  C   UNL     1      -8.890   8.956  65.257  1.00  0.00    -0.184 C  
BRANCH   5   8
HETATM    8  C   UNL     1      -9.475  10.817  63.619  1.00  0.00    -0.291 C  
HETATM    9  O   UNL     1      -9.469  10.149  62.590  1.00  0.00    -0.295 OA 
BRANCH   8  10
HETATM   10  N   UNL     1      -9.957  12.097  63.633  1.00  0.00    -0.552 N  
HETATM   11  H   UNL     1      -9.320  12.880  63.775  1.00  0.00     0.000 HD 
BRANCH  10  12
HETATM   12  C   UNL     1     -11.389  12.343  63.442  1.00  0.00    -0.433 C  
HETATM   13  F   UNL     1     -11.254  13.398  65.596  1.00  0.00    -0.294 F  
HETATM   14  C   UNL     1     -12.081  13.143  64.555  1.00  0.00    -0.404 C  
HETATM   15  F   UNL     1     -12.575  14.318  64.112  1.00  0.00    -0.432 F  
HETATM   16  F   UNL     1     -13.125  12.431  65.055  1.00  0.00    -0.488 F  
ENDBRANCH  10  12
ENDBRANCH   8  10
ENDBRANCH   5   8
BRANCH   6  17
HETATM   17  C   UNL     1      -9.662   7.851  67.427  1.00  0.00    -0.161 A  
HETATM   18  N   UNL     1     -11.176   6.156  67.754  1.00  0.00    -0.197 NA 
HETATM   19  C   UNL     1     -10.427   6.848  66.838  1.00  0.00    -0.279 A  
HETATM   20  C   UNL     1     -10.846   6.693  68.907  1.00  0.00    -0.277 A  
HETATM   21  C   UNL     1     -11.423   6.403  70.205  1.00  0.00    -0.417 A  
HETATM   22  N   UNL     1     -11.005   6.965  71.314  1.00  0.00    -0.238 NA 
HETATM   23  C   UNL     1      -9.958   7.814  71.132  1.00  0.00    -0.176 A  
HETATM   24  C   UNL     1      -9.310   8.170  69.963  1.00  0.00    -0.159 A  
HETATM   25  C   UNL     1      -8.221   8.999  70.268  1.00  0.00    -0.150 A  
HETATM   26  N   UNL     1      -9.835   7.624  68.778  1.00  0.00    -0.160 NA 
HETATM   27  C   UNL     1      -8.284   9.211  71.635  1.00  0.00     0.226 A  
HETATM   28  N   UNL     1      -9.352   8.504  72.145  1.00  0.00    -0.263 NA 
HETATM   29  H   UNL     1      -9.643   8.498  73.122  1.00  0.00     0.000 HD 
ENDBRANCH   6  17
ENDBRANCH   2   3
TORSDOF 5
ENDMDL
MODEL       47
REMARK 921   NORMALIZED FREE ENERGY PREDICTED BY IDOCK:   -6.28 KCAL/MOL
REMARK 922        TOTAL FREE ENERGY PREDICTED BY IDOCK:   -8.34 KCAL/MOL
REMARK 923 INTER-LIGAND FREE ENERGY PREDICTED BY IDOCK:   -7.86 KCAL/MOL
REMARK 924 INTRA-LIGAND FREE ENERGY PREDICTED BY IDOCK:   -0.48 KCAL/MOL
REMARK 927      BINDING AFFINITY PREDICTED BY RF-SCORE:    0.00 PKD
ROOT
HETATM    1  C   UNL     1     -10.278   7.971  66.845  1.00  0.00    -0.385 C  
HETATM    2  C   UNL     1     -10.372   9.446  66.473  1.00  0.00    -0.268 C  
ENDROOT
BRANCH   2   3
HETATM    3  C   UNL     1      -9.019  10.186  66.573  1.00  0.00    -0.161 C  
HETATM    4  C   UNL     1      -8.135   9.610  67.682  1.00  0.00    -0.113 C  
HETATM    5  N   UNL     1      -8.606  10.283  68.871  1.00  0.00    -0.141 N  
HETATM    6  C   UNL     1      -9.110  11.689  66.982  1.00  0.00    -0.179 C  
HETATM    7  C   UNL     1      -9.054  11.625  68.534  1.00  0.00    -0.157 C  
BRANCH   5   8
HETATM    8  C   UNL     1      -8.764   9.599  70.050  1.00  0.00    -0.231 C  
HETATM    9  O   UNL     1      -7.934   8.805  70.481  1.00  0.00    -0.089 OA 
BRANCH   8  10
HETATM   10  N   UNL     1      -9.911   9.873  70.743  1.00  0.00    -0.306 N  
HETATM   11  H   UNL     1      -9.861  10.348  71.644  1.00  0.00     0.000 HD 
BRANCH  10  12
HETATM   12  C   UNL     1     -11.212   9.486  70.191  1.00  0.00    -0.234 C  
HETATM   13  F   UNL     1     -11.813  11.770  70.625  1.00  0.00    -0.415 F  
HETATM   14  C   UNL     1     -12.252  10.610  70.083  1.00  0.00    -0.320 C  
HETATM   15  F   UNL     1     -12.614  10.853  68.806  1.00  0.00    -0.218 F  
HETATM   16  F   UNL     1     -13.377  10.265  70.762  1.00  0.00    -0.434 F  
ENDBRANCH  10  12
ENDBRANCH   8  10
ENDBRANCH   5   8
BRANCH   6  17
HETATM   17  C   UNL     1     -10.305  12.444  66.464  1.00  0.00    -0.228 A  
HETATM   18  N   UNL     1     -12.300  12.961  65.449  1.00  0.00    -0.482 NA 
HETATM   19  C   UNL     1     -11.576  12.001  66.108  1.00  0.00    -0.304 A  
HETATM   20  C   UNL     1     -11.503  14.005  65.433  1.00  0.00    -0.315 A  
HETATM   21  C   UNL     1     -11.732  15.271  64.765  1.00  0.00    -0.276 A  
HETATM   22  N   UNL     1     -10.893  16.277  64.832  1.00  0.00    -0.671 NA 
HETATM   23  C   UNL     1      -9.809  16.029  65.617  1.00  0.00    -0.274 A  
HETATM   24  C   UNL     1      -9.475  14.882  66.313  1.00  0.00    -0.309 A  
HETATM   25  C   UNL     1      -8.316  15.117  67.068  1.00  0.00    -0.263 A  
HETATM   26  N   UNL     1     -10.345  13.789  66.152  1.00  0.00    -0.294 NA 
HETATM   27  C   UNL     1      -7.908  16.397  66.737  1.00  0.00    -0.266 A  
HETATM   28  N   UNL     1      -8.808  16.933  65.842  1.00  0.00    -0.529 NA 
HETATM   29  H   UNL     1      -8.739  17.857  65.415  1.00  0.00     0.000 HD 
ENDBRANCH   6  17
ENDBRANCH   2   3
TORSDOF 5
ENDMDL
MODEL       48
REMARK 921   NORMALIZED FREE ENERGY PREDICTED BY IDOCK:   -6.27 KCAL/MOL
REMARK 922        TOTAL FREE ENERGY PREDICTED BY IDOCK:   -8.32 KCAL/MOL
REMARK 923 INTER-LIGAND FREE ENERGY PREDICTED BY IDOCK:   -7.84 KCAL/MOL
REMARK 924 INTRA-LIGAND FREE ENERGY PREDICTED BY IDOCK:   -0.48 KCAL/MOL
REMARK 927      BINDING AFFINITY PREDICTED BY RF-SCORE:    0.00 PKD
ROOT
HETATM    1  C   UNL     1     -10.860  16.028  69.985  1.00  0.00    -0.353 C  
HETATM    2  C   UNL     1     -10.887  14.933  68.924  1.00  0.00    -0.253 C  
ENDROOT
BRANCH   2   3
HETATM    3  C   UNL     1      -9.556  14.803  68.150  1.00  0.00    -0.209 C  
HETATM    4  C   UNL     1      -9.232  16.072  67.358  1.00  0.00    -0.208 C  
HETATM    5  N   UNL     1      -9.978  15.903  66.131  1.00  0.00    -0.291 N  
HETATM    6  C   UNL     1      -9.540  13.713  67.034  1.00  0.00    -0.251 C  
HETATM    7  C   UNL     1     -10.051  14.491  65.788  1.00  0.00    -0.342 C  
BRANCH   5   8
HETATM    8  C   UNL     1     -10.656  16.956  65.569  1.00  0.00    -0.202 C  
HETATM    9  O   UNL     1     -11.143  16.915  64.445  1.00  0.00    -1.128 OA 
BRANCH   8  10
HETATM   10  N   UNL     1     -10.780  18.066  66.358  1.00  0.00    -0.222 N  
HETATM   11  H   UNL     1     -11.428  18.063  67.146  1.00  0.00     0.000 HD 
BRANCH  10  12
HETATM   12  C   UNL     1      -9.983  19.263  66.071  1.00  0.00    -0.337 C  
HETATM   13  F   UNL     1      -9.805  19.430  68.460  1.00  0.00    -0.380 F  
HETATM   14  C   UNL     1      -9.393  19.978  67.294  1.00  0.00    -0.374 C  
HETATM   15  F   UNL     1      -8.043  19.981  67.285  1.00  0.00    -0.303 F  
HETATM   16  F   UNL     1      -9.798  21.275  67.310  1.00  0.00    -0.600 F  
ENDBRANCH  10  12
ENDBRANCH   8  10
ENDBRANCH   5   8
BRANCH   6  17
HETATM   17  C   UNL     1     -10.331  12.464  67.317  1.00  0.00    -0.215 A  
HETATM   18  N   UNL     1     -12.008  11.029  67.953  1.00  0.00    -0.580 NA 
HETATM   19  C   UNL     1     -11.703  12.268  67.451  1.00  0.00    -0.335 A  
HETATM   20  C   UNL     1     -10.839  10.444  68.088  1.00  0.00    -0.264 A  
HETATM   21  C   UNL     1     -10.572   9.148  68.679  1.00  0.00    -0.174 A  
HETATM   22  N   UNL     1      -9.371   8.623  68.741  1.00  0.00    -0.142 NA 
HETATM   23  C   UNL     1      -8.411   9.397  68.165  1.00  0.00    -0.120 A  
HETATM   24  C   UNL     1      -8.528  10.636  67.562  1.00  0.00    -0.121 A  
HETATM   25  C   UNL     1      -7.289  11.007  67.019  1.00  0.00    -0.123 A  
HETATM   26  N   UNL     1      -9.809  11.215  67.589  1.00  0.00    -0.172 NA 
HETATM   27  C   UNL     1      -6.404  10.010  67.390  1.00  0.00    -0.067 A  
HETATM   28  N   UNL     1      -7.090   9.049  68.102  1.00  0.00    -0.077 NA 
HETATM   29  H   UNL     1      -6.678   8.213  68.515  1.00  0.00     0.000 HD 
ENDBRANCH   6  17
ENDBRANCH   2   3
TORSDOF 5
ENDMDL
MODEL       49
REMARK 921   NORMALIZED FREE ENERGY PREDICTED BY IDOCK:   -6.27 KCAL/MOL
REMARK 922        TOTAL FREE ENERGY PREDICTED BY IDOCK:   -8.32 KCAL/MOL
REMARK 923 INTER-LIGAND FREE ENERGY PREDICTED BY IDOCK:   -7.50 KCAL/MOL
REMARK 924 INTRA-LIGAND FREE ENERGY PREDICTED BY IDOCK:   -0.82 KCAL/MOL
REMARK 927      BINDING AFFINITY PREDICTED BY RF-SCORE:    0.00 PKD
ROOT
HETATM    1  C   UNL     1      -7.613  13.290  67.450  1.00  0.00    -0.137 C  
HETATM    2  C   UNL     1      -8.620  12.186  67.149  1.00  0.00    -0.185 C  
ENDROOT
BRANCH   2   3
HETATM    3  C   UNL     1      -9.673  12.002  68.265  1.00  0.00    -0.205 C  
HETATM    4  C   UNL     1      -9.540  10.643  68.956  1.00  0.00    -0.195 C  
HETATM    5  N   UNL     1     -10.281   9.753  68.091  1.00  0.00    -0.176 N  
HETATM    6  C   UNL     1     -11.156  11.975  67.782  1.00  0.00    -0.303 C  
HETATM    7  C   UNL     1     -11.389  10.468  67.479  1.00  0.00    -0.101 C  
BRANCH   5   8
HETATM    8  C   UNL     1      -9.803   8.500  67.796  1.00  0.00    -0.175 C  
HETATM    9  O   UNL     1      -8.905   7.959  68.432  1.00  0.00    -0.131 OA 
BRANCH   8  10
HETATM   10  N   UNL     1     -10.410   7.868  66.746  1.00  0.00    -0.417 N  
HETATM   11  H   UNL     1     -10.389   8.289  65.817  1.00  0.00     0.000 HD 
BRANCH  10  12
HETATM   12  C   UNL     1     -11.091   6.588  66.955  1.00  0.00    -0.339 C  
HETATM   13  F   UNL     1      -9.258   5.676  65.700  1.00  0.00    -0.161 F  
HETATM   14  C   UNL     1     -10.372   5.352  66.397  1.00  0.00    -0.247 C  
HETATM   15  F   UNL     1     -10.022   4.480  67.365  1.00  0.00    -0.199 F  
HETATM   16  F   UNL     1     -11.190   4.691  65.537  1.00  0.00    -0.343 F  
ENDBRANCH  10  12
ENDBRANCH   8  10
ENDBRANCH   5   8
BRANCH   6  17
HETATM   17  C   UNL     1     -11.490  12.871  66.619  1.00  0.00    -0.343 A  
HETATM   18  N   UNL     1     -11.963  13.633  64.505  1.00  0.00    -0.399 NA 
HETATM   19  C   UNL     1     -12.048  12.579  65.378  1.00  0.00    -0.435 A  
HETATM   20  C   UNL     1     -11.398  14.586  65.211  1.00  0.00    -0.353 A  
HETATM   21  C   UNL     1     -10.977  15.892  64.742  1.00  0.00    -0.375 A  
HETATM   22  N   UNL     1     -10.450  16.799  65.529  1.00  0.00    -0.587 NA 
HETATM   23  C   UNL     1     -10.372  16.409  66.830  1.00  0.00    -0.300 A  
HETATM   24  C   UNL     1     -10.742  15.210  67.411  1.00  0.00    -0.286 A  
HETATM   25  C   UNL     1     -10.571  15.293  68.800  1.00  0.00    -0.240 A  
HETATM   26  N   UNL     1     -11.219  14.222  66.531  1.00  0.00    -0.323 NA 
HETATM   27  C   UNL     1     -10.002  16.533  69.034  1.00  0.00    -0.275 A  
HETATM   28  N   UNL     1      -9.867  17.193  67.831  1.00  0.00    -0.274 NA 
HETATM   29  H   UNL     1      -9.456  18.118  67.708  1.00  0.00     0.000 HD 
ENDBRANCH   6  17
ENDBRANCH   2   3
TORSDOF 5
ENDMDL
MODEL       50
REMARK 921   NORMALIZED FREE ENERGY PREDICTED BY IDOCK:   -6.26 KCAL/MOL
REMARK 922        TOTAL FREE ENERGY PREDICTED BY IDOCK:   -8.30 KCAL/MOL
REMARK 923 INTER-LIGAND FREE ENERGY PREDICTED BY IDOCK:   -8.30 KCAL/MOL
REMARK 924 INTRA-LIGAND FREE ENERGY PREDICTED BY IDOCK:   -0.00 KCAL/MOL
REMARK 927      BINDING AFFINITY PREDICTED BY RF-SCORE:    0.00 PKD
ROOT
HETATM    1  C   UNL     1      -9.954   7.736  69.148  1.00  0.00    -0.182 C  
HETATM    2  C   UNL     1     -10.503   9.141  68.928  1.00  0.00    -0.239 C  
ENDROOT
BRANCH   2   3
HETATM    3  C   UNL     1     -10.277  10.078  70.136  1.00  0.00    -0.297 C  
HETATM    4  C   UNL     1     -10.683   9.416  71.454  1.00  0.00    -0.337 C  
HETATM    5  N   UNL     1     -12.108   9.649  71.523  1.00  0.00    -0.376 N  
HETATM    6  C   UNL     1     -11.147  11.374  70.144  1.00  0.00     0.064 C  
HETATM    7  C   UNL     1     -12.433  10.918  70.891  1.00  0.00    -0.408 C  
BRANCH   5   8
HETATM    8  C   UNL     1     -12.962   8.662  71.949  1.00  0.00    -0.372 C  
HETATM    9  O   UNL     1     -14.149   8.626  71.643  1.00  0.00    -0.403 OA 
BRANCH   8  10
HETATM   10  N   UNL     1     -12.399   7.689  72.728  1.00  0.00    -0.532 N  
HETATM   11  H   UNL     1     -12.172   7.886  73.703  1.00  0.00     0.000 HD 
BRANCH  10  12
HETATM   12  C   UNL     1     -12.124   6.365  72.165  1.00  0.00    -0.268 C  
HETATM   13  F   UNL     1     -10.741   6.084  74.108  1.00  0.00    -0.265 F  
HETATM   14  C   UNL     1     -11.223   5.455  73.011  1.00  0.00    -0.311 C  
HETATM   15  F   UNL     1     -11.858   4.335  73.414  1.00  0.00    -0.355 F  
HETATM   16  F   UNL     1     -10.144   5.066  72.282  1.00  0.00    -0.200 F  
ENDBRANCH  10  12
ENDBRANCH   8  10
ENDBRANCH   5   8
BRANCH   6  17
HETATM   17  C   UNL     1     -11.430  11.989  68.800  1.00  0.00    -0.300 A  
HETATM   18  N   UNL     1     -11.617  12.315  66.534  1.00  0.00    -0.440 NA 
HETATM   19  C   UNL     1     -11.635  11.400  67.555  1.00  0.00    -0.219 A  
HETATM   20  C   UNL     1     -11.447  13.467  67.142  1.00  0.00    -0.338 A  
HETATM   21  C   UNL     1     -11.252  14.763  66.522  1.00  0.00    -0.342 A  
HETATM   22  N   UNL     1     -11.125  15.873  67.210  1.00  0.00    -0.234 NA 
HETATM   23  C   UNL     1     -11.230  15.692  68.555  1.00  0.00    -0.342 A  
HETATM   24  C   UNL     1     -11.424  14.526  69.271  1.00  0.00    -0.288 A  
HETATM   25  C   UNL     1     -11.570  14.834  70.632  1.00  0.00    -0.324 A  
HETATM   26  N   UNL     1     -11.467  13.340  68.516  1.00  0.00    -0.288 NA 
HETATM   27  C   UNL     1     -11.365  16.199  70.730  1.00  0.00    -0.368 A  
HETATM   28  N   UNL     1     -11.139  16.706  69.468  1.00  0.00    -0.335 NA 
HETATM   29  H   UNL     1     -10.937  17.682  69.252  1.00  0.00     0.000 HD 
ENDBRANCH   6  17
ENDBRANCH   2   3
TORSDOF 5
ENDMDL
MODEL       51
REMARK 921   NORMALIZED FREE ENERGY PREDICTED BY IDOCK:   -6.23 KCAL/MOL
REMARK 922        TOTAL FREE ENERGY PREDICTED BY IDOCK:   -8.27 KCAL/MOL
REMARK 923 INTER-LIGAND FREE ENERGY PREDICTED BY IDOCK:   -7.38 KCAL/MOL
REMARK 924 INTRA-LIGAND FREE ENERGY PREDICTED BY IDOCK:   -0.89 KCAL/MOL
REMARK 927      BINDING AFFINITY PREDICTED BY RF-SCORE:    0.00 PKD
ROOT
HETATM    1  C   UNL     1     -12.380  10.766  69.606  1.00  0.00    -0.262 C  
HETATM    2  C   UNL     1     -11.510  11.448  68.556  1.00  0.00    -0.361 C  
ENDROOT
BRANCH   2   3
HETATM    3  C   UNL     1     -11.041  10.490  67.438  1.00  0.00    -0.322 C  
HETATM    4  C   UNL     1     -10.875   9.057  67.949  1.00  0.00    -0.053 C  
HETATM    5  N   UNL     1      -9.549   9.056  68.524  1.00  0.00    -0.151 N  
HETATM    6  C   UNL     1      -9.626  10.790  66.854  1.00  0.00    -0.198 C  
HETATM    7  C   UNL     1      -8.690   9.969  67.786  1.00  0.00    -0.125 C  
BRANCH   5   8
HETATM    8  C   UNL     1      -9.299   8.420  69.714  1.00  0.00    -0.158 C  
HETATM    9  O   UNL     1      -8.320   8.664  70.411  1.00  0.00    -0.112 OA 
BRANCH   8  10
HETATM   10  N   UNL     1     -10.232   7.496  70.098  1.00  0.00    -0.203 N  
HETATM   11  H   UNL     1     -10.720   6.942  69.394  1.00  0.00     0.000 HD 
BRANCH  10  12
HETATM   12  C   UNL     1     -10.531   7.302  71.519  1.00  0.00    -0.202 C  
HETATM   13  F   UNL     1      -8.806   5.635  71.413  1.00  0.00    -0.130 F  
HETATM   14  C   UNL     1      -9.655   6.276  72.251  1.00  0.00    -0.151 C  
HETATM   15  F   UNL     1      -8.927   6.834  73.240  1.00  0.00    -0.127 F  
HETATM   16  F   UNL     1     -10.438   5.320  72.816  1.00  0.00    -0.210 F  
ENDBRANCH  10  12
ENDBRANCH   8  10
ENDBRANCH   5   8
BRANCH   6  17
HETATM   17  C   UNL     1      -9.243  12.243  66.763  1.00  0.00    -0.210 A  
HETATM   18  N   UNL     1      -8.418  14.328  67.261  1.00  0.00    -0.202 NA 
HETATM   19  C   UNL     1      -8.288  12.978  67.461  1.00  0.00    -0.184 A  
HETATM   20  C   UNL     1      -9.415  14.430  66.412  1.00  0.00    -0.285 A  
HETATM   21  C   UNL     1     -10.040  15.649  65.938  1.00  0.00    -0.353 A  
HETATM   22  N   UNL     1     -11.013  15.658  65.058  1.00  0.00    -0.429 NA 
HETATM   23  C   UNL     1     -11.350  14.419  64.609  1.00  0.00    -0.371 A  
HETATM   24  C   UNL     1     -10.834  13.186  64.964  1.00  0.00    -0.315 A  
HETATM   25  C   UNL     1     -11.418  12.190  64.168  1.00  0.00    -0.460 A  
HETATM   26  N   UNL     1      -9.856  13.197  65.974  1.00  0.00    -0.279 NA 
HETATM   27  C   UNL     1     -12.364  12.838  63.393  1.00  0.00    -0.437 A  
HETATM   28  N   UNL     1     -12.329  14.185  63.683  1.00  0.00    -1.092 NA 
HETATM   29  H   UNL     1     -12.936  14.894  63.271  1.00  0.00     0.000 HD 
ENDBRANCH   6  17
ENDBRANCH   2   3
TORSDOF 5
ENDMDL
MODEL       52
REMARK 921   NORMALIZED FREE ENERGY PREDICTED BY IDOCK:   -6.21 KCAL/MOL
REMARK 922        TOTAL FREE ENERGY PREDICTED BY IDOCK:   -8.25 KCAL/MOL
REMARK 923 INTER-LIGAND FREE ENERGY PREDICTED BY IDOCK:   -7.26 KCAL/MOL
REMARK 924 INTRA-LIGAND FREE ENERGY PREDICTED BY IDOCK:   -0.99 KCAL/MOL
REMARK 927      BINDING AFFINITY PREDICTED BY RF-SCORE:    0.00 PKD
ROOT
HETATM    1  C   UNL     1      -7.276   8.947  68.331  1.00  0.00    -0.078 C  
HETATM    2  C   UNL     1      -8.278  10.094  68.395  1.00  0.00    -0.112 C  
ENDROOT
BRANCH   2   3
HETATM    3  C   UNL     1      -9.437   9.947  67.384  1.00  0.00    -0.173 C  
HETATM    4  C   UNL     1      -9.424  11.061  66.335  1.00  0.00    -0.193 C  
HETATM    5  N   UNL     1     -10.116  12.148  66.991  1.00  0.00    -0.203 N  
HETATM    6  C   UNL     1     -10.869  10.089  67.988  1.00  0.00    -0.311 C  
HETATM    7  C   UNL     1     -11.133  11.618  67.886  1.00  0.00    -0.247 C  
BRANCH   5   8
HETATM    8  C   UNL     1      -9.663  13.439  66.879  1.00  0.00    -0.253 C  
HETATM    9  O   UNL     1      -8.509  13.768  67.132  1.00  0.00    -0.202 OA 
BRANCH   8  10
HETATM   10  N   UNL     1     -10.582  14.352  66.440  1.00  0.00    -0.292 N  
HETATM   11  H   UNL     1     -11.139  14.879  67.113  1.00  0.00     0.000 HD 
BRANCH  10  12
HETATM   12  C   UNL     1     -10.766  14.574  65.004  1.00  0.00    -0.427 C  
HETATM   13  F   UNL     1     -13.071  14.078  65.461  1.00  0.00    -0.550 F  
HETATM   14  C   UNL     1     -12.210  14.470  64.493  1.00  0.00    -0.465 C  
HETATM   15  F   UNL     1     -12.658  15.634  63.978  1.00  0.00    -0.393 F  
HETATM   16  F   UNL     1     -12.285  13.539  63.507  1.00  0.00    -0.523 F  
ENDBRANCH  10  12
ENDBRANCH   8  10
ENDBRANCH   5   8
BRANCH   6  17
HETATM   17  C   UNL     1     -11.056   9.548  69.380  1.00  0.00    -0.110 A  
HETATM   18  N   UNL     1     -11.191   9.382  71.667  1.00  0.00    -0.382 NA 
HETATM   19  C   UNL     1     -11.347  10.198  70.577  1.00  0.00    -0.338 A  
HETATM   20  C   UNL     1     -10.849   8.223  71.151  1.00  0.00    -0.233 A  
HETATM   21  C   UNL     1     -10.461   7.025  71.869  1.00  0.00    -0.200 A  
HETATM   22  N   UNL     1     -10.168   5.895  71.270  1.00  0.00    -0.203 NA 
HETATM   23  C   UNL     1     -10.299   5.949  69.917  1.00  0.00    -0.242 A  
HETATM   24  C   UNL     1     -10.667   7.012  69.112  1.00  0.00    -0.218 A  
HETATM   25  C   UNL     1     -10.765   6.577  67.783  1.00  0.00    -0.368 A  
HETATM   26  N   UNL     1     -10.889   8.234  69.771  1.00  0.00    -0.222 NA 
HETATM   27  C   UNL     1     -10.356   5.255  67.790  1.00  0.00    -0.133 A  
HETATM   28  N   UNL     1     -10.056   4.890  69.086  1.00  0.00    -0.188 NA 
HETATM   29  H   UNL     1      -9.710   3.976  69.377  1.00  0.00     0.000 HD 
ENDBRANCH   6  17
ENDBRANCH   2   3
TORSDOF 5
ENDMDL
MODEL       53
REMARK 921   NORMALIZED FREE ENERGY PREDICTED BY IDOCK:   -6.20 KCAL/MOL
REMARK 922        TOTAL FREE ENERGY PREDICTED BY IDOCK:   -8.23 KCAL/MOL
REMARK 923 INTER-LIGAND FREE ENERGY PREDICTED BY IDOCK:   -7.07 KCAL/MOL
REMARK 924 INTRA-LIGAND FREE ENERGY PREDICTED BY IDOCK:   -1.16 KCAL/MOL
REMARK 927      BINDING AFFINITY PREDICTED BY RF-SCORE:    0.00 PKD
ROOT
HETATM    1  C   UNL     1      -7.782   8.126  72.312  1.00  0.00    -0.155 C  
HETATM    2  C   UNL     1      -8.902   8.814  71.541  1.00  0.00    -0.295 C  
ENDROOT
BRANCH   2   3
HETATM    3  C   UNL     1     -10.255   8.798  72.289  1.00  0.00    -0.310 C  
HETATM    4  C   UNL     1     -10.459   7.496  73.067  1.00  0.00    -0.342 C  
HETATM    5  N   UNL     1     -10.983   6.588  72.072  1.00  0.00    -0.237 N  
HETATM    6  C   UNL     1     -11.520   8.830  71.376  1.00  0.00    -0.366 C  
HETATM    7  C   UNL     1     -11.786   7.322  71.107  1.00  0.00    -0.312 C  
BRANCH   5   8
HETATM    8  C   UNL     1     -10.553   5.285  72.013  1.00  0.00    -0.216 C  
HETATM    9  O   UNL     1     -10.991   4.402  72.743  1.00  0.00    -0.172 OA 
BRANCH   8  10
HETATM   10  N   UNL     1      -9.609   5.017  71.061  1.00  0.00    -0.161 N  
HETATM   11  H   UNL     1      -8.619   5.134  71.277  1.00  0.00     0.000 HD 
BRANCH  10  12
HETATM   12  C   UNL     1     -10.018   4.563  69.729  1.00  0.00    -0.198 C  
HETATM   13  F   UNL     1      -9.097   6.654  68.990  1.00  0.00    -0.132 F  
HETATM   14  C   UNL     1      -9.654   5.496  68.565  1.00  0.00    -0.127 C  
HETATM   15  F   UNL     1      -8.805   4.917  67.690  1.00  0.00    -0.104 F  
HETATM   16  F   UNL     1     -10.775   5.833  67.876  1.00  0.00    -0.242 F  
ENDBRANCH  10  12
ENDBRANCH   8  10
ENDBRANCH   5   8
BRANCH   6  17
HETATM   17  C   UNL     1     -11.406   9.645  70.116  1.00  0.00    -0.227 A  
HETATM   18  N   UNL     1     -10.736  10.420  68.060  1.00  0.00    -0.228 NA 
HETATM   19  C   UNL     1     -10.879   9.322  68.869  1.00  0.00    -0.099 A  
HETATM   20  C   UNL     1     -11.212  11.410  68.781  1.00  0.00    -0.247 A  
HETATM   21  C   UNL     1     -11.207  12.819  68.443  1.00  0.00    -0.278 A  
HETATM   22  N   UNL     1     -11.738  13.741  69.211  1.00  0.00    -0.304 NA 
HETATM   23  C   UNL     1     -12.323  13.240  70.333  1.00  0.00    -0.295 A  
HETATM   24  C   UNL     1     -12.410  11.931  70.768  1.00  0.00    -0.320 A  
HETATM   25  C   UNL     1     -13.193  11.877  71.930  1.00  0.00    -0.467 A  
HETATM   26  N   UNL     1     -11.754  10.974  69.973  1.00  0.00    -0.324 NA 
HETATM   27  C   UNL     1     -13.497  13.191  72.238  1.00  0.00    -0.568 A  
HETATM   28  N   UNL     1     -12.948  14.011  71.274  1.00  0.00    -0.339 NA 
HETATM   29  H   UNL     1     -13.000  15.030  71.266  1.00  0.00     0.000 HD 
ENDBRANCH   6  17
ENDBRANCH   2   3
TORSDOF 5
ENDMDL
MODEL       54
REMARK 921   NORMALIZED FREE ENERGY PREDICTED BY IDOCK:   -6.20 KCAL/MOL
REMARK 922        TOTAL FREE ENERGY PREDICTED BY IDOCK:   -8.23 KCAL/MOL
REMARK 923 INTER-LIGAND FREE ENERGY PREDICTED BY IDOCK:   -7.96 KCAL/MOL
REMARK 924 INTRA-LIGAND FREE ENERGY PREDICTED BY IDOCK:   -0.27 KCAL/MOL
REMARK 927      BINDING AFFINITY PREDICTED BY RF-SCORE:    0.00 PKD
ROOT
HETATM    1  C   UNL     1      -8.226   6.713  65.797  1.00  0.00    -0.135 C  
HETATM    2  C   UNL     1      -8.749   8.145  65.795  1.00  0.00    -0.183 C  
ENDROOT
BRANCH   2   3
HETATM    3  C   UNL     1      -8.564   8.862  67.151  1.00  0.00    -0.112 C  
HETATM    4  C   UNL     1      -8.784   7.914  68.331  1.00  0.00    -0.131 C  
HETATM    5  N   UNL     1     -10.218   7.923  68.508  1.00  0.00    -0.202 N  
HETATM    6  C   UNL     1      -9.595   9.995  67.450  1.00  0.00    -0.182 C  
HETATM    7  C   UNL     1     -10.752   9.228  68.150  1.00  0.00    -0.151 C  
BRANCH   5   8
HETATM    8  C   UNL     1     -10.902   6.762  68.770  1.00  0.00    -0.231 C  
HETATM    9  O   UNL     1     -10.754   5.735  68.116  1.00  0.00    -0.240 OA 
BRANCH   8  10
HETATM   10  N   UNL     1     -11.756   6.807  69.837  1.00  0.00    -0.627 N  
HETATM   11  H   UNL     1     -12.747   6.607  69.706  1.00  0.00     0.000 HD 
BRANCH  10  12
HETATM   12  C   UNL     1     -11.248   7.143  71.170  1.00  0.00    -0.262 C  
HETATM   13  F   UNL     1     -12.315   9.259  70.787  1.00  0.00    -0.303 F  
HETATM   14  C   UNL     1     -11.640   8.528  71.704  1.00  0.00    -0.299 C  
HETATM   15  F   UNL     1     -12.393   8.453  72.821  1.00  0.00    -0.435 F  
HETATM   16  F   UNL     1     -10.523   9.234  72.018  1.00  0.00    -0.413 F  
ENDBRANCH  10  12
ENDBRANCH   8  10
ENDBRANCH   5   8
BRANCH   6  17
HETATM   17  C   UNL     1     -10.052  10.803  66.266  1.00  0.00    -0.232 A  
HETATM   18  N   UNL     1     -10.233  11.687  64.154  1.00  0.00    -0.298 NA 
HETATM   19  C   UNL     1      -9.881  10.593  64.900  1.00  0.00    -0.302 A  
HETATM   20  C   UNL     1     -10.660  12.555  65.043  1.00  0.00    -0.300 A  
HETATM   21  C   UNL     1     -11.059  13.928  64.804  1.00  0.00    -0.383 A  
HETATM   22  N   UNL     1     -11.510  14.717  65.751  1.00  0.00    -0.344 NA 
HETATM   23  C   UNL     1     -11.598  14.110  66.966  1.00  0.00    -0.382 A  
HETATM   24  C   UNL     1     -11.265  12.817  67.328  1.00  0.00    -0.295 A  
HETATM   25  C   UNL     1     -11.620  12.603  68.667  1.00  0.00    -0.356 A  
HETATM   26  N   UNL     1     -10.701  12.021  66.315  1.00  0.00    -0.257 NA 
HETATM   27  C   UNL     1     -12.086  13.821  69.130  1.00  0.00    -0.333 A  
HETATM   28  N   UNL     1     -12.050  14.733  68.097  1.00  0.00    -0.573 NA 
HETATM   29  H   UNL     1     -12.316  15.715  68.165  1.00  0.00     0.000 HD 
ENDBRANCH   6  17
ENDBRANCH   2   3
TORSDOF 5
ENDMDL
MODEL       55
REMARK 921   NORMALIZED FREE ENERGY PREDICTED BY IDOCK:   -6.19 KCAL/MOL
REMARK 922        TOTAL FREE ENERGY PREDICTED BY IDOCK:   -8.22 KCAL/MOL
REMARK 923 INTER-LIGAND FREE ENERGY PREDICTED BY IDOCK:   -7.80 KCAL/MOL
REMARK 924 INTRA-LIGAND FREE ENERGY PREDICTED BY IDOCK:   -0.43 KCAL/MOL
REMARK 927      BINDING AFFINITY PREDICTED BY RF-SCORE:    0.00 PKD
ROOT
HETATM    1  C   UNL     1     -12.951   9.528  71.524  1.00  0.00    -0.471 C  
HETATM    2  C   UNL     1     -12.535  10.403  70.346  1.00  0.00    -0.348 C  
ENDROOT
BRANCH   2   3
HETATM    3  C   UNL     1     -11.767   9.626  69.253  1.00  0.00     0.317 C  
HETATM    4  C   UNL     1     -10.807   8.597  69.854  1.00  0.00    -0.208 C  
HETATM    5  N   UNL     1      -9.625   9.373  70.152  1.00  0.00    -0.221 N  
HETATM    6  C   UNL     1     -10.808  10.488  68.375  1.00  0.00    -0.284 C  
HETATM    7  C   UNL     1      -9.476  10.441  69.176  1.00  0.00    -0.208 C  
BRANCH   5   8
HETATM    8  C   UNL     1      -8.936   9.182  71.324  1.00  0.00    -0.136 C  
HETATM    9  O   UNL     1      -7.724   9.342  71.421  1.00  0.00    -0.334 OA 
BRANCH   8  10
HETATM   10  N   UNL     1      -9.694   8.820  72.403  1.00  0.00    -0.241 N  
HETATM   11  H   UNL     1     -10.565   9.311  72.602  1.00  0.00     0.000 HD 
BRANCH  10  12
HETATM   12  C   UNL     1      -9.254   7.727  73.274  1.00  0.00    -0.258 C  
HETATM   13  F   UNL     1     -11.154   6.562  72.377  1.00  0.00    -0.242 F  
HETATM   14  C   UNL     1     -10.076   6.433  73.186  1.00  0.00    -0.189 C  
HETATM   15  F   UNL     1      -9.344   5.388  72.747  1.00  0.00    -0.138 F  
HETATM   16  F   UNL     1     -10.551   6.103  74.416  1.00  0.00    -0.279 F  
ENDBRANCH  10  12
ENDBRANCH   8  10
ENDBRANCH   5   8
BRANCH   6  17
HETATM   17  C   UNL     1     -11.267  11.889  68.072  1.00  0.00    -0.257 A  
HETATM   18  N   UNL     1     -12.247  13.959  68.244  1.00  0.00    -0.266 NA 
HETATM   19  C   UNL     1     -11.666  12.918  68.921  1.00  0.00    -0.327 A  
HETATM   20  C   UNL     1     -12.169  13.601  66.982  1.00  0.00    -0.329 A  
HETATM   21  C   UNL     1     -12.729  14.295  65.839  1.00  0.00    -0.283 A  
HETATM   22  N   UNL     1     -12.572  13.881  64.604  1.00  0.00    -0.658 NA 
HETATM   23  C   UNL     1     -11.805  12.763  64.500  1.00  0.00    -0.379 A  
HETATM   24  C   UNL     1     -11.205  12.014  65.496  1.00  0.00    -0.321 A  
HETATM   25  C   UNL     1     -10.427  11.003  64.914  1.00  0.00    -0.371 A  
HETATM   26  N   UNL     1     -11.464  12.426  66.815  1.00  0.00    -0.341 NA 
HETATM   27  C   UNL     1     -10.645  11.101  63.551  1.00  0.00    -0.324 A  
HETATM   28  N   UNL     1     -11.498  12.158  63.312  1.00  0.00    -0.702 NA 
HETATM   29  H   UNL     1     -11.844  12.442  62.396  1.00  0.00     0.000 HD 
ENDBRANCH   6  17
ENDBRANCH   2   3
TORSDOF 5
ENDMDL
MODEL       56
REMARK 921   NORMALIZED FREE ENERGY PREDICTED BY IDOCK:   -6.19 KCAL/MOL
REMARK 922        TOTAL FREE ENERGY PREDICTED BY IDOCK:   -8.22 KCAL/MOL
REMARK 923 INTER-LIGAND FREE ENERGY PREDICTED BY IDOCK:   -8.07 KCAL/MOL
REMARK 924 INTRA-LIGAND FREE ENERGY PREDICTED BY IDOCK:   -0.14 KCAL/MOL
REMARK 927      BINDING AFFINITY PREDICTED BY RF-SCORE:    0.00 PKD
ROOT
HETATM    1  C   UNL     1      -8.019   9.953  65.332  1.00  0.00    -0.134 C  
HETATM    2  C   UNL     1      -8.579   9.658  66.719  1.00  0.00    -0.140 C  
ENDROOT
BRANCH   2   3
HETATM    3  C   UNL     1     -10.093   9.943  66.837  1.00  0.00    -0.285 C  
HETATM    4  C   UNL     1     -10.476  11.273  66.185  1.00  0.00    -0.254 C  
HETATM    5  N   UNL     1     -10.199  12.246  67.218  1.00  0.00    -0.210 N  
HETATM    6  C   UNL     1     -10.623  10.133  68.293  1.00  0.00    -0.262 C  
HETATM    7  C   UNL     1     -10.440  11.659  68.527  1.00  0.00    -0.217 C  
BRANCH   5   8
HETATM    8  C   UNL     1      -9.600  13.443  66.914  1.00  0.00    -0.257 C  
HETATM    9  O   UNL     1      -8.387  13.619  66.973  1.00  0.00    -0.172 OA 
BRANCH   8  10
HETATM   10  N   UNL     1     -10.443  14.441  66.511  1.00  0.00    -0.285 N  
HETATM   11  H   UNL     1     -10.875  15.054  67.202  1.00  0.00     0.000 HD 
BRANCH  10  12
HETATM   12  C   UNL     1     -10.727  14.631  65.085  1.00  0.00    -0.414 C  
HETATM   13  F   UNL     1     -12.939  13.900  65.669  1.00  0.00    -0.527 F  
HETATM   14  C   UNL     1     -12.178  14.372  64.655  1.00  0.00    -0.464 C  
HETATM   15  F   UNL     1     -12.772  15.478  64.162  1.00  0.00    -0.368 F  
HETATM   16  F   UNL     1     -12.208  13.429  63.677  1.00  0.00    -0.487 F  
ENDBRANCH  10  12
ENDBRANCH   8  10
ENDBRANCH   5   8
BRANCH   6  17
HETATM   17  C   UNL     1      -9.966   9.289  69.352  1.00  0.00    -0.181 A  
HETATM   18  N   UNL     1      -8.615   7.765  70.414  1.00  0.00    -0.136 NA 
HETATM   19  C   UNL     1      -8.739   8.630  69.358  1.00  0.00    -0.139 A  
HETATM   20  C   UNL     1      -9.735   7.918  71.084  1.00  0.00    -0.158 A  
HETATM   21  C   UNL     1     -10.172   7.163  72.241  1.00  0.00    -0.190 A  
HETATM   22  N   UNL     1     -11.297   7.408  72.872  1.00  0.00    -0.305 NA 
HETATM   23  C   UNL     1     -11.990   8.459  72.356  1.00  0.00    -0.384 A  
HETATM   24  C   UNL     1     -11.686   9.265  71.274  1.00  0.00    -0.346 A  
HETATM   25  C   UNL     1     -12.640  10.287  71.173  1.00  0.00    -0.501 A  
HETATM   26  N   UNL     1     -10.522   8.924  70.562  1.00  0.00    -0.203 NA 
HETATM   27  C   UNL     1     -13.576  10.025  72.158  1.00  0.00    -0.251 A  
HETATM   28  N   UNL     1     -13.183   8.903  72.857  1.00  0.00    -0.803 NA 
HETATM   29  H   UNL     1     -13.700   8.473  73.623  1.00  0.00     0.000 HD 
ENDBRANCH   6  17
ENDBRANCH   2   3
TORSDOF 5
ENDMDL
MODEL       57
REMARK 921   NORMALIZED FREE ENERGY PREDICTED BY IDOCK:   -6.18 KCAL/MOL
REMARK 922        TOTAL FREE ENERGY PREDICTED BY IDOCK:   -8.21 KCAL/MOL
REMARK 923 INTER-LIGAND FREE ENERGY PREDICTED BY IDOCK:   -7.54 KCAL/MOL
REMARK 924 INTRA-LIGAND FREE ENERGY PREDICTED BY IDOCK:   -0.67 KCAL/MOL
REMARK 927      BINDING AFFINITY PREDICTED BY RF-SCORE:    0.00 PKD
ROOT
HETATM    1  C   UNL     1     -12.957  13.737  65.151  1.00  0.00    -0.279 C  
HETATM    2  C   UNL     1     -12.102  12.626  65.750  1.00  0.00    -0.484 C  
ENDROOT
BRANCH   2   3
HETATM    3  C   UNL     1     -11.496  12.997  67.123  1.00  0.00    -0.379 C  
HETATM    4  C   UNL     1     -11.239  14.501  67.244  1.00  0.00    -0.332 C  
HETATM    5  N   UNL     1      -9.949  14.674  66.614  1.00  0.00    -0.265 N  
HETATM    6  C   UNL     1     -10.082  12.404  67.409  1.00  0.00    -0.205 C  
HETATM    7  C   UNL     1      -9.132  13.491  66.830  1.00  0.00    -0.239 C  
BRANCH   5   8
HETATM    8  C   UNL     1      -9.711  15.738  65.781  1.00  0.00    -0.337 C  
HETATM    9  O   UNL     1     -10.482  16.078  64.891  1.00  0.00    -0.574 OA 
BRANCH   8  10
HETATM   10  N   UNL     1      -8.553  16.427  66.019  1.00  0.00    -0.296 N  
HETATM   11  H   UNL     1      -7.653  16.008  65.783  1.00  0.00     0.000 HD 
BRANCH  10  12
HETATM   12  C   UNL     1      -8.604  17.765  66.613  1.00  0.00    -0.258 C  
HETATM   13  F   UNL     1      -6.540  18.111  65.434  1.00  0.00    -0.294 F  
HETATM   14  C   UNL     1      -7.471  18.718  66.206  1.00  0.00    -0.262 C  
HETATM   15  F   UNL     1      -7.925  19.803  65.544  1.00  0.00    -0.308 F  
HETATM   16  F   UNL     1      -6.824  19.166  67.314  1.00  0.00    -0.195 F  
ENDBRANCH  10  12
ENDBRANCH   8  10
ENDBRANCH   5   8
BRANCH   6  17
HETATM   17  C   UNL     1      -9.817  11.030  66.854  1.00  0.00    -0.191 A  
HETATM   18  N   UNL     1      -9.479   9.278  65.409  1.00  0.00    -0.245 NA 
HETATM   19  C   UNL     1      -9.348  10.628  65.607  1.00  0.00    -0.201 A  
HETATM   20  C   UNL     1      -9.983   8.838  66.539  1.00  0.00    -0.290 A  
HETATM   21  C   UNL     1     -10.418   7.487  66.837  1.00  0.00    -0.315 A  
HETATM   22  N   UNL     1     -10.880   7.127  68.011  1.00  0.00    -0.166 NA 
HETATM   23  C   UNL     1     -10.875   8.132  68.928  1.00  0.00     0.035 A  
HETATM   24  C   UNL     1     -10.481   9.450  68.783  1.00  0.00    -0.212 A  
HETATM   25  C   UNL     1     -10.556  10.097  70.024  1.00  0.00    -0.338 A  
HETATM   26  N   UNL     1     -10.076   9.832  67.491  1.00  0.00    -0.184 NA 
HETATM   27  C   UNL     1     -11.092   9.168  70.899  1.00  0.00    -0.291 A  
HETATM   28  N   UNL     1     -11.301   7.987  70.219  1.00  0.00    -0.431 NA 
HETATM   29  H   UNL     1     -11.708   7.141  70.617  1.00  0.00     0.000 HD 
ENDBRANCH   6  17
ENDBRANCH   2   3
TORSDOF 5
ENDMDL
MODEL       58
REMARK 921   NORMALIZED FREE ENERGY PREDICTED BY IDOCK:   -6.17 KCAL/MOL
REMARK 922        TOTAL FREE ENERGY PREDICTED BY IDOCK:   -8.19 KCAL/MOL
REMARK 923 INTER-LIGAND FREE ENERGY PREDICTED BY IDOCK:   -7.84 KCAL/MOL
REMARK 924 INTRA-LIGAND FREE ENERGY PREDICTED BY IDOCK:   -0.36 KCAL/MOL
REMARK 927      BINDING AFFINITY PREDICTED BY RF-SCORE:    0.00 PKD
ROOT
HETATM    1  C   UNL     1      -8.530   7.268  69.147  1.00  0.00    -0.133 C  
HETATM    2  C   UNL     1      -9.836   8.035  69.320  1.00  0.00    -0.178 C  
ENDROOT
BRANCH   2   3
HETATM    3  C   UNL     1      -9.659   9.379  70.063  1.00  0.00    -0.256 C  
HETATM    4  C   UNL     1     -10.233   9.326  71.481  1.00  0.00    -0.268 C  
HETATM    5  N   UNL     1     -11.638   9.604  71.285  1.00  0.00    -0.365 N  
HETATM    6  C   UNL     1     -10.431  10.587  69.447  1.00  0.00    -0.264 C  
HETATM    7  C   UNL     1     -11.810  10.511  70.161  1.00  0.00    -0.320 C  
BRANCH   5   8
HETATM    8  C   UNL     1     -12.596   8.902  71.973  1.00  0.00    -0.394 C  
HETATM    9  O   UNL     1     -13.786   9.197  71.952  1.00  0.00    -0.402 OA 
BRANCH   8  10
HETATM   10  N   UNL     1     -12.144   7.819  72.676  1.00  0.00    -0.588 N  
HETATM   11  H   UNL     1     -11.772   7.943  73.618  1.00  0.00     0.000 HD 
BRANCH  10  12
HETATM   12  C   UNL     1     -12.194   6.483  72.078  1.00  0.00    -0.295 C  
HETATM   13  F   UNL     1      -9.915   6.322  72.821  1.00  0.00    -0.168 F  
HETATM   14  C   UNL     1     -10.923   5.635  72.235  1.00  0.00    -0.258 C  
HETATM   15  F   UNL     1     -11.140   4.513  72.953  1.00  0.00    -0.268 F  
HETATM   16  F   UNL     1     -10.472   5.249  71.013  1.00  0.00    -0.272 F  
ENDBRANCH  10  12
ENDBRANCH   8  10
ENDBRANCH   5   8
BRANCH   6  17
HETATM   17  C   UNL     1     -10.542  10.605  67.946  1.00  0.00    -0.228 A  
HETATM   18  N   UNL     1     -10.303  10.075  65.724  1.00  0.00    -0.186 NA 
HETATM   19  C   UNL     1     -10.347   9.595  67.008  1.00  0.00    -0.248 A  
HETATM   20  C   UNL     1     -10.514  11.365  65.859  1.00  0.00    -0.258 A  
HETATM   21  C   UNL     1     -10.468  12.373  64.818  1.00  0.00    -0.304 A  
HETATM   22  N   UNL     1     -10.727  13.640  65.038  1.00  0.00    -0.344 NA 
HETATM   23  C   UNL     1     -11.078  13.906  66.326  1.00  0.00    -0.304 A  
HETATM   24  C   UNL     1     -11.171  13.048  67.405  1.00  0.00    -0.288 A  
HETATM   25  C   UNL     1     -11.667  13.748  68.515  1.00  0.00    -0.391 A  
HETATM   26  N   UNL     1     -10.801  11.713  67.163  1.00  0.00    -0.247 NA 
HETATM   27  C   UNL     1     -11.779  15.065  68.107  1.00  0.00    -0.312 A  
HETATM   28  N   UNL     1     -11.401  15.154  66.784  1.00  0.00    -0.296 NA 
HETATM   29  H   UNL     1     -11.367  16.013  66.236  1.00  0.00     0.000 HD 
ENDBRANCH   6  17
ENDBRANCH   2   3
TORSDOF 5
ENDMDL
MODEL       59
REMARK 921   NORMALIZED FREE ENERGY PREDICTED BY IDOCK:   -6.16 KCAL/MOL
REMARK 922        TOTAL FREE ENERGY PREDICTED BY IDOCK:   -8.19 KCAL/MOL
REMARK 923 INTER-LIGAND FREE ENERGY PREDICTED BY IDOCK:   -7.20 KCAL/MOL
REMARK 924 INTRA-LIGAND FREE ENERGY PREDICTED BY IDOCK:   -0.99 KCAL/MOL
REMARK 927      BINDING AFFINITY PREDICTED BY RF-SCORE:    0.00 PKD
ROOT
HETATM    1  C   UNL     1     -11.835  15.922  69.747  1.00  0.00    -0.303 C  
HETATM    2  C   UNL     1     -11.271  15.531  68.385  1.00  0.00    -0.341 C  
ENDROOT
BRANCH   2   3
HETATM    3  C   UNL     1      -9.735  15.670  68.301  1.00  0.00    -0.201 C  
HETATM    4  C   UNL     1      -9.263  17.058  68.739  1.00  0.00    -0.252 C  
HETATM    5  N   UNL     1      -9.414  17.857  67.544  1.00  0.00    -0.256 N  
HETATM    6  C   UNL     1      -9.135  15.564  66.864  1.00  0.00    -0.264 C  
HETATM    7  C   UNL     1      -9.176  17.037  66.367  1.00  0.00    -0.271 C  
BRANCH   5   8
HETATM    8  C   UNL     1      -9.918  19.133  67.611  1.00  0.00    -0.357 C  
HETATM    9  O   UNL     1     -11.025  19.438  67.182  1.00  0.00    -0.483 OA 
BRANCH   8  10
HETATM   10  N   UNL     1      -9.110  20.056  68.215  1.00  0.00    -0.230 N  
HETATM   11  H   UNL     1      -9.422  20.530  69.063  1.00  0.00     0.000 HD 
BRANCH  10  12
HETATM   12  C   UNL     1      -7.796  20.366  67.645  1.00  0.00    -0.263 C  
HETATM   13  F   UNL     1      -6.979  19.827  69.838  1.00  0.00    -0.368 F  
HETATM   14  C   UNL     1      -6.598  20.164  68.583  1.00  0.00    -0.299 C  
HETATM   15  F   UNL     1      -5.747  19.219  68.133  1.00  0.00    -0.191 F  
HETATM   16  F   UNL     1      -5.894  21.322  68.689  1.00  0.00    -0.361 F  
ENDBRANCH  10  12
ENDBRANCH   8  10
ENDBRANCH   5   8
BRANCH   6  17
HETATM   17  C   UNL     1      -9.823  14.606  65.929  1.00  0.00    -0.330 A  
HETATM   18  N   UNL     1     -11.323  13.671  64.462  1.00  0.00    -0.364 NA 
HETATM   19  C   UNL     1     -10.753  14.831  64.917  1.00  0.00    -0.417 A  
HETATM   20  C   UNL     1     -10.722  12.728  65.153  1.00  0.00    -0.294 A  
HETATM   21  C   UNL     1     -11.021  11.310  65.142  1.00  0.00    -0.146 A  
HETATM   22  N   UNL     1     -10.343  10.431  65.842  1.00  0.00    -0.225 NA 
HETATM   23  C   UNL     1      -9.314  10.976  66.547  1.00  0.00    -0.180 A  
HETATM   24  C   UNL     1      -8.916  12.297  66.638  1.00  0.00    -0.189 A  
HETATM   25  C   UNL     1      -7.742  12.377  67.401  1.00  0.00    -0.170 A  
HETATM   26  N   UNL     1      -9.713  13.229  65.951  1.00  0.00    -0.223 NA 
HETATM   27  C   UNL     1      -7.496  11.090  67.846  1.00  0.00    -0.093 A  
HETATM   28  N   UNL     1      -8.466  10.252  67.339  1.00  0.00    -0.125 NA 
HETATM   29  H   UNL     1      -8.540   9.252  67.525  1.00  0.00     0.000 HD 
ENDBRANCH   6  17
ENDBRANCH   2   3
TORSDOF 5
ENDMDL
MODEL       60
REMARK 921   NORMALIZED FREE ENERGY PREDICTED BY IDOCK:   -6.12 KCAL/MOL
REMARK 922        TOTAL FREE ENERGY PREDICTED BY IDOCK:   -8.13 KCAL/MOL
REMARK 923 INTER-LIGAND FREE ENERGY PREDICTED BY IDOCK:   -7.22 KCAL/MOL
REMARK 924 INTRA-LIGAND FREE ENERGY PREDICTED BY IDOCK:   -0.91 KCAL/MOL
REMARK 927      BINDING AFFINITY PREDICTED BY RF-SCORE:    0.00 PKD
ROOT
HETATM    1  C   UNL     1     -11.664  12.161  63.574  1.00  0.00    -0.579 C  
HETATM    2  C   UNL     1     -10.615  11.489  64.453  1.00  0.00    -0.392 C  
ENDROOT
BRANCH   2   3
HETATM    3  C   UNL     1     -10.997  11.469  65.950  1.00  0.00    -0.301 C  
HETATM    4  C   UNL     1     -11.758  12.732  66.361  1.00  0.00    -0.403 C  
HETATM    5  N   UNL     1     -10.706  13.687  66.628  1.00  0.00    -0.279 N  
HETATM    6  C   UNL     1      -9.795  11.480  66.945  1.00  0.00    -0.220 C  
HETATM    7  C   UNL     1      -9.537  12.999  67.153  1.00  0.00    -0.230 C  
BRANCH   5   8
HETATM    8  C   UNL     1     -10.818  14.990  66.214  1.00  0.00    -0.333 C  
HETATM    9  O   UNL     1     -11.484  15.329  65.241  1.00  0.00    -0.309 OA 
BRANCH   8  10
HETATM   10  N   UNL     1     -10.150  15.911  66.973  1.00  0.00    -0.262 N  
HETATM   11  H   UNL     1      -9.131  15.899  67.010  1.00  0.00     0.000 HD 
BRANCH  10  12
HETATM   12  C   UNL     1     -10.899  16.915  67.735  1.00  0.00    -0.281 C  
HETATM   13  F   UNL     1      -9.205  18.428  66.954  1.00  0.00    -0.259 F  
HETATM   14  C   UNL     1     -10.363  18.351  67.649  1.00  0.00    -0.405 C  
HETATM   15  F   UNL     1     -11.250  19.197  67.084  1.00  0.00    -0.509 F  
HETATM   16  F   UNL     1     -10.100  18.821  68.897  1.00  0.00    -0.387 F  
ENDBRANCH  10  12
ENDBRANCH   8  10
ENDBRANCH   5   8
BRANCH   6  17
HETATM   17  C   UNL     1      -8.568  10.726  66.506  1.00  0.00    -0.150 A  
HETATM   18  N   UNL     1      -6.538  10.198  65.570  1.00  0.00    -0.111 NA 
HETATM   19  C   UNL     1      -7.303  11.180  66.144  1.00  0.00    -0.007 A  
HETATM   20  C   UNL     1      -7.304   9.131  65.616  1.00  0.00    -0.086 A  
HETATM   21  C   UNL     1      -7.024   7.828  65.046  1.00  0.00    -0.059 A  
HETATM   22  N   UNL     1      -7.835   6.804  65.171  1.00  0.00    -0.112 NA 
HETATM   23  C   UNL     1      -8.942   7.076  65.914  1.00  0.00    -0.062 A  
HETATM   24  C   UNL     1      -9.324   8.259  66.519  1.00  0.00    -0.206 A  
HETATM   25  C   UNL     1     -10.491   8.045  67.266  1.00  0.00    -0.384 A  
HETATM   26  N   UNL     1      -8.483   9.364  66.295  1.00  0.00    -0.124 NA 
HETATM   27  C   UNL     1     -10.855   6.732  67.022  1.00  0.00    -0.383 A  
HETATM   28  N   UNL     1      -9.921   6.160  66.186  1.00  0.00    -0.392 NA 
HETATM   29  H   UNL     1      -9.954   5.206  65.827  1.00  0.00     0.000 HD 
ENDBRANCH   6  17
ENDBRANCH   2   3
TORSDOF 5
ENDMDL
MODEL       61
REMARK 921   NORMALIZED FREE ENERGY PREDICTED BY IDOCK:   -6.12 KCAL/MOL
REMARK 922        TOTAL FREE ENERGY PREDICTED BY IDOCK:   -8.13 KCAL/MOL
REMARK 923 INTER-LIGAND FREE ENERGY PREDICTED BY IDOCK:   -7.90 KCAL/MOL
REMARK 924 INTRA-LIGAND FREE ENERGY PREDICTED BY IDOCK:   -0.23 KCAL/MOL
REMARK 927      BINDING AFFINITY PREDICTED BY RF-SCORE:    0.00 PKD
ROOT
HETATM    1  C   UNL     1      -7.870  13.461  67.188  1.00  0.00    -0.035 C  
HETATM    2  C   UNL     1      -8.896  12.336  67.110  1.00  0.00    -0.194 C  
ENDROOT
BRANCH   2   3
HETATM    3  C   UNL     1      -9.912  12.357  68.274  1.00  0.00    -0.224 C  
HETATM    4  C   UNL     1      -9.838  11.082  69.117  1.00  0.00    -0.096 C  
HETATM    5  N   UNL     1     -10.670  10.149  68.391  1.00  0.00    -0.216 N  
HETATM    6  C   UNL     1     -11.413  12.375  67.848  1.00  0.00    -0.385 C  
HETATM    7  C   UNL     1     -11.755  10.862  67.734  1.00  0.00     0.001 C  
BRANCH   5   8
HETATM    8  C   UNL     1     -10.286   8.841  68.231  1.00  0.00    -0.201 C  
HETATM    9  O   UNL     1     -10.533   8.189  67.222  1.00  0.00    -0.274 OA 
BRANCH   8  10
HETATM   10  N   UNL     1      -9.578   8.302  69.269  1.00  0.00    -0.163 N  
HETATM   11  H   UNL     1      -8.558   8.291  69.240  1.00  0.00     0.000 HD 
BRANCH  10  12
HETATM   12  C   UNL     1     -10.284   7.739  70.424  1.00  0.00    -0.197 C  
HETATM   13  F   UNL     1     -11.323   6.312  68.797  1.00  0.00    -0.384 F  
HETATM   14  C   UNL     1     -11.225   6.564  70.123  1.00  0.00    -0.377 C  
HETATM   15  F   UNL     1     -10.841   5.428  70.740  1.00  0.00    -0.321 F  
HETATM   16  F   UNL     1     -12.479   6.854  70.558  1.00  0.00    -0.401 F  
ENDBRANCH  10  12
ENDBRANCH   8  10
ENDBRANCH   5   8
BRANCH   6  17
HETATM   17  C   UNL     1     -11.736  13.150  66.598  1.00  0.00    -0.375 A  
HETATM   18  N   UNL     1     -12.186  13.697  64.413  1.00  0.00    -0.527 NA 
HETATM   19  C   UNL     1     -12.278  12.734  65.385  1.00  0.00    -0.478 A  
HETATM   20  C   UNL     1     -11.632  14.717  65.028  1.00  0.00    -0.378 A  
HETATM   21  C   UNL     1     -11.210  15.972  64.436  1.00  0.00    -0.205 A  
HETATM   22  N   UNL     1     -10.696  16.955  65.136  1.00  0.00    -0.666 NA 
HETATM   23  C   UNL     1     -10.631  16.696  66.470  1.00  0.00    -0.203 A  
HETATM   24  C   UNL     1     -11.004  15.559  67.162  1.00  0.00    -0.295 A  
HETATM   25  C   UNL     1     -10.850  15.780  68.538  1.00  0.00    -0.290 A  
HETATM   26  N   UNL     1     -11.468  14.487  66.379  1.00  0.00    -0.354 NA 
HETATM   27  C   UNL     1     -10.288  17.039  68.654  1.00  0.00    -0.351 A  
HETATM   28  N   UNL     1     -10.141  17.577  67.394  1.00  0.00    -0.313 NA 
HETATM   29  H   UNL     1      -9.731  18.488  67.184  1.00  0.00     0.000 HD 
ENDBRANCH   6  17
ENDBRANCH   2   3
TORSDOF 5
ENDMDL
MODEL       62
REMARK 921   NORMALIZED FREE ENERGY PREDICTED BY IDOCK:   -6.12 KCAL/MOL
REMARK 922        TOTAL FREE ENERGY PREDICTED BY IDOCK:   -8.12 KCAL/MOL
REMARK 923 INTER-LIGAND FREE ENERGY PREDICTED BY IDOCK:   -7.43 KCAL/MOL
REMARK 924 INTRA-LIGAND FREE ENERGY PREDICTED BY IDOCK:   -0.69 KCAL/MOL
REMARK 927      BINDING AFFINITY PREDICTED BY RF-SCORE:    0.00 PKD
ROOT
HETATM    1  C   UNL     1      -7.612  10.934  67.853  1.00  0.00    -0.095 C  
HETATM    2  C   UNL     1      -8.841  11.166  68.726  1.00  0.00    -0.128 C  
ENDROOT
BRANCH   2   3
HETATM    3  C   UNL     1     -10.166  10.797  68.023  1.00  0.00    -0.203 C  
HETATM    4  C   UNL     1     -10.934  12.039  67.566  1.00  0.00    -0.253 C  
HETATM    5  N   UNL     1     -11.659  12.440  68.750  1.00  0.00    -0.303 N  
HETATM    6  C   UNL     1     -11.219  10.079  68.923  1.00  0.00    -0.179 C  
HETATM    7  C   UNL     1     -12.014  11.268  69.534  1.00  0.00    -0.351 C  
BRANCH   5   8
HETATM    8  C   UNL     1     -11.758  13.764  69.099  1.00  0.00    -0.334 C  
HETATM    9  O   UNL     1     -12.011  14.652  68.291  1.00  0.00    -0.310 OA 
BRANCH   8  10
HETATM   10  N   UNL     1     -11.579  14.041  70.426  1.00  0.00    -0.490 N  
HETATM   11  H   UNL     1     -10.637  14.159  70.799  1.00  0.00     0.000 HD 
BRANCH  10  12
HETATM   12  C   UNL     1     -12.739  14.168  71.312  1.00  0.00    -0.361 C  
HETATM   13  F   UNL     1     -11.330  15.663  72.556  1.00  0.00    -0.493 F  
HETATM   14  C   UNL     1     -12.580  15.150  72.482  1.00  0.00    -0.354 C  
HETATM   15  F   UNL     1     -13.452  16.177  72.412  1.00  0.00    -0.507 F  
HETATM   16  F   UNL     1     -12.807  14.508  73.657  1.00  0.00    -0.586 F  
ENDBRANCH  10  12
ENDBRANCH   8  10
ENDBRANCH   5   8
BRANCH   6  17
HETATM   17  C   UNL     1     -10.670   9.138  69.962  1.00  0.00    -0.232 A  
HETATM   18  N   UNL     1      -9.660   8.304  71.848  1.00  0.00    -0.197 NA 
HETATM   19  C   UNL     1     -10.375   9.341  71.307  1.00  0.00    -0.327 A  
HETATM   20  C   UNL     1      -9.550   7.444  70.861  1.00  0.00    -0.166 A  
HETATM   21  C   UNL     1      -8.792   6.208  70.857  1.00  0.00    -0.136 A  
HETATM   22  N   UNL     1      -8.767   5.388  69.833  1.00  0.00    -0.119 NA 
HETATM   23  C   UNL     1      -9.546   5.793  68.794  1.00  0.00    -0.127 A  
HETATM   24  C   UNL     1     -10.320   6.932  68.670  1.00  0.00    -0.186 A  
HETATM   25  C   UNL     1     -11.031   6.882  67.462  1.00  0.00    -0.340 A  
HETATM   26  N   UNL     1     -10.259   7.837  69.744  1.00  0.00    -0.206 NA 
HETATM   27  C   UNL     1     -10.597   5.736  66.819  1.00  0.00    -0.306 A  
HETATM   28  N   UNL     1      -9.682   5.094  67.626  1.00  0.00    -0.141 NA 
HETATM   29  H   UNL     1      -9.186   4.235  67.390  1.00  0.00     0.000 HD 
ENDBRANCH   6  17
ENDBRANCH   2   3
TORSDOF 5
ENDMDL
MODEL       63
REMARK 921   NORMALIZED FREE ENERGY PREDICTED BY IDOCK:   -6.10 KCAL/MOL
REMARK 922        TOTAL FREE ENERGY PREDICTED BY IDOCK:   -8.11 KCAL/MOL
REMARK 923 INTER-LIGAND FREE ENERGY PREDICTED BY IDOCK:   -7.42 KCAL/MOL
REMARK 924 INTRA-LIGAND FREE ENERGY PREDICTED BY IDOCK:   -0.69 KCAL/MOL
REMARK 927      BINDING AFFINITY PREDICTED BY RF-SCORE:    0.00 PKD
ROOT
HETATM    1  C   UNL     1     -10.812  12.514  63.611  1.00  0.00    -0.486 C  
HETATM    2  C   UNL     1     -10.261  12.738  65.014  1.00  0.00    -0.292 C  
ENDROOT
BRANCH   2   3
HETATM    3  C   UNL     1     -11.088  12.032  66.112  1.00  0.00    -0.367 C  
HETATM    4  C   UNL     1     -11.991  13.012  66.865  1.00  0.00    -0.352 C  
HETATM    5  N   UNL     1     -11.115  13.575  67.867  1.00  0.00    -0.256 N  
HETATM    6  C   UNL     1     -10.255  11.405  67.273  1.00  0.00    -0.229 C  
HETATM    7  C   UNL     1     -10.138  12.581  68.284  1.00  0.00    -0.228 C  
BRANCH   5   8
HETATM    8  C   UNL     1     -11.146  14.916  68.156  1.00  0.00    -0.283 C  
HETATM    9  O   UNL     1     -10.236  15.685  67.866  1.00  0.00    -0.234 OA 
BRANCH   8  10
HETATM   10  N   UNL     1     -12.281  15.361  68.777  1.00  0.00    -0.593 N  
HETATM   11  H   UNL     1     -12.860  16.074  68.332  1.00  0.00     0.000 HD 
BRANCH  10  12
HETATM   12  C   UNL     1     -12.667  14.813  70.080  1.00  0.00    -0.219 C  
HETATM   13  F   UNL     1     -11.661  16.810  70.955  1.00  0.00    -0.320 F  
HETATM   14  C   UNL     1     -12.352  15.697  71.295  1.00  0.00    -0.426 C  
HETATM   15  F   UNL     1     -13.465  16.078  71.955  1.00  0.00    -0.509 F  
HETATM   16  F   UNL     1     -11.577  15.012  72.175  1.00  0.00    -0.416 F  
ENDBRANCH  10  12
ENDBRANCH   8  10
ENDBRANCH   5   8
BRANCH   6  17
HETATM   17  C   UNL     1      -8.922  10.820  66.890  1.00  0.00    -0.139 A  
HETATM   18  N   UNL     1      -6.775  10.585  66.109  1.00  0.00    -0.119 NA 
HETATM   19  C   UNL     1      -7.685  11.428  66.691  1.00  0.00    -0.129 A  
HETATM   20  C   UNL     1      -7.425   9.449  65.988  1.00  0.00    -0.096 A  
HETATM   21  C   UNL     1      -6.961   8.240  65.336  1.00  0.00    -0.063 A  
HETATM   22  N   UNL     1      -7.667   7.135  65.293  1.00  0.00    -0.106 NA 
HETATM   23  C   UNL     1      -8.856   7.225  65.949  1.00  0.00    -0.109 A  
HETATM   24  C   UNL     1      -9.411   8.302  66.615  1.00  0.00    -0.209 A  
HETATM   25  C   UNL     1     -10.609   7.904  67.226  1.00  0.00    -0.365 A  
HETATM   26  N   UNL     1      -8.676   9.499  66.569  1.00  0.00    -0.133 NA 
HETATM   27  C   UNL     1     -10.810   6.591  66.835  1.00  0.00    -0.357 A  
HETATM   28  N   UNL     1      -9.752   6.196  66.045  1.00  0.00    -0.381 NA 
HETATM   29  H   UNL     1      -9.654   5.283  65.602  1.00  0.00     0.000 HD 
ENDBRANCH   6  17
ENDBRANCH   2   3
TORSDOF 5
ENDMDL
MODEL       64
REMARK 921   NORMALIZED FREE ENERGY PREDICTED BY IDOCK:   -6.06 KCAL/MOL
REMARK 922        TOTAL FREE ENERGY PREDICTED BY IDOCK:   -8.05 KCAL/MOL
REMARK 923 INTER-LIGAND FREE ENERGY PREDICTED BY IDOCK:   -8.73 KCAL/MOL
REMARK 924 INTRA-LIGAND FREE ENERGY PREDICTED BY IDOCK:    0.68 KCAL/MOL
REMARK 927      BINDING AFFINITY PREDICTED BY RF-SCORE:    0.00 PKD
ROOT
HETATM    1  C   UNL     1     -11.973  15.614  69.214  1.00  0.00    -0.338 C  
HETATM    2  C   UNL     1     -11.084  14.716  68.361  1.00  0.00    -0.270 C  
ENDROOT
BRANCH   2   3
HETATM    3  C   UNL     1      -9.592  15.117  68.407  1.00  0.00    -0.212 C  
HETATM    4  C   UNL     1      -9.401  16.623  68.213  1.00  0.00    -0.224 C  
HETATM    5  N   UNL     1      -9.414  16.782  66.776  1.00  0.00    -0.236 N  
HETATM    6  C   UNL     1      -8.710  14.530  67.261  1.00  0.00    -0.225 C  
HETATM    7  C   UNL     1      -8.842  15.604  66.144  1.00  0.00    -0.276 C  
BRANCH   5   8
HETATM    8  C   UNL     1     -10.082  17.828  66.190  1.00  0.00    -0.304 C  
HETATM    9  O   UNL     1     -10.930  17.676  65.317  1.00  0.00    -0.524 OA 
BRANCH   8  10
HETATM   10  N   UNL     1      -9.760  19.072  66.659  1.00  0.00    -0.324 N  
HETATM   11  H   UNL     1     -10.403  19.566  67.277  1.00  0.00     0.000 HD 
BRANCH  10  12
HETATM   12  C   UNL     1      -8.491  19.695  66.273  1.00  0.00    -0.360 C  
HETATM   13  F   UNL     1      -8.062  19.733  68.636  1.00  0.00    -0.360 F  
HETATM   14  C   UNL     1      -7.522  20.002  67.424  1.00  0.00    -0.279 C  
HETATM   15  F   UNL     1      -6.365  19.316  67.317  1.00  0.00    -0.186 F  
HETATM   16  F   UNL     1      -7.208  21.324  67.423  1.00  0.00    -0.425 F  
ENDBRANCH  10  12
ENDBRANCH   8  10
ENDBRANCH   5   8
BRANCH   6  17
HETATM   17  C   UNL     1      -9.068  13.144  66.795  1.00  0.00    -0.209 A  
HETATM   18  N   UNL     1      -8.981  10.895  66.336  1.00  0.00    -0.169 NA 
HETATM   19  C   UNL     1      -8.569  11.901  67.172  1.00  0.00    -0.172 A  
HETATM   20  C   UNL     1      -9.765  11.501  65.473  1.00  0.00    -0.230 A  
HETATM   21  C   UNL     1     -10.391  10.920  64.302  1.00  0.00    -0.368 A  
HETATM   22  N   UNL     1     -11.192  11.594  63.511  1.00  0.00    -0.409 NA 
HETATM   23  C   UNL     1     -11.404  12.875  63.917  1.00  0.00    -0.436 A  
HETATM   24  C   UNL     1     -10.885  13.547  65.008  1.00  0.00    -0.340 A  
HETATM   25  C   UNL     1     -11.462  14.822  65.087  1.00  0.00    -0.371 A  
HETATM   26  N   UNL     1      -9.960  12.830  65.789  1.00  0.00    -0.266 NA 
HETATM   27  C   UNL     1     -12.267  14.938  63.967  1.00  0.00    -0.123 A  
HETATM   28  N   UNL     1     -12.209  13.760  63.254  1.00  0.00    -1.096 NA 
HETATM   29  H   UNL     1     -12.690  13.578  62.374  1.00  0.00     0.000 HD 
ENDBRANCH   6  17
ENDBRANCH   2   3
TORSDOF 5
ENDMDL
MODEL       65
REMARK 921   NORMALIZED FREE ENERGY PREDICTED BY IDOCK:   -6.04 KCAL/MOL
REMARK 922        TOTAL FREE ENERGY PREDICTED BY IDOCK:   -8.03 KCAL/MOL
REMARK 923 INTER-LIGAND FREE ENERGY PREDICTED BY IDOCK:   -7.37 KCAL/MOL
REMARK 924 INTRA-LIGAND FREE ENERGY PREDICTED BY IDOCK:   -0.66 KCAL/MOL
REMARK 927      BINDING AFFINITY PREDICTED BY RF-SCORE:    0.00 PKD
ROOT
HETATM    1  C   UNL     1      -8.483  10.222  65.584  1.00  0.00    -0.165 C  
HETATM    2  C   UNL     1      -8.911   9.994  67.029  1.00  0.00    -0.152 C  
ENDROOT
BRANCH   2   3
HETATM    3  C   UNL     1     -10.416  10.255  67.266  1.00  0.00    -0.307 C  
HETATM    4  C   UNL     1     -10.938  11.404  66.402  1.00  0.00    -0.260 C  
HETATM    5  N   UNL     1     -10.600  12.582  67.168  1.00  0.00    -0.227 N  
HETATM    6  C   UNL     1     -10.790  10.736  68.703  1.00  0.00    -0.260 C  
HETATM    7  C   UNL     1     -10.662  12.282  68.590  1.00  0.00    -0.233 C  
BRANCH   5   8
HETATM    8  C   UNL     1     -10.102  13.703  66.551  1.00  0.00    -0.286 C  
HETATM    9  O   UNL     1     -10.816  14.589  66.094  1.00  0.00    -0.305 OA 
BRANCH   8  10
HETATM   10  N   UNL     1      -8.738  13.790  66.495  1.00  0.00    -0.446 N  
HETATM   11  H   UNL     1      -8.210  13.148  65.902  1.00  0.00     0.000 HD 
BRANCH  10  12
HETATM   12  C   UNL     1      -8.034  14.804  67.284  1.00  0.00    -0.205 C  
HETATM   13  F   UNL     1      -7.516  12.969  68.745  1.00  0.00    -0.111 F  
HETATM   14  C   UNL     1      -7.297  14.287  68.528  1.00  0.00    -0.117 C  
HETATM   15  F   UNL     1      -5.964  14.485  68.454  1.00  0.00    -0.079 F  
HETATM   16  F   UNL     1      -7.740  14.941  69.633  1.00  0.00    -0.179 F  
ENDBRANCH  10  12
ENDBRANCH   8  10
ENDBRANCH   5   8
BRANCH   6  17
HETATM   17  C   UNL     1      -9.975  10.156  69.828  1.00  0.00    -0.220 A  
HETATM   18  N   UNL     1      -8.256   9.230  71.039  1.00  0.00    -0.304 NA 
HETATM   19  C   UNL     1      -8.596  10.042  69.987  1.00  0.00    -0.090 A  
HETATM   20  C   UNL     1      -9.412   8.879  71.556  1.00  0.00    -0.277 A  
HETATM   21  C   UNL     1      -9.638   7.936  72.633  1.00  0.00    -0.227 A  
HETATM   22  N   UNL     1     -10.830   7.670  73.113  1.00  0.00    -0.399 NA 
HETATM   23  C   UNL     1     -11.824   8.389  72.524  1.00  0.00    -0.358 A  
HETATM   24  C   UNL     1     -11.748   9.319  71.504  1.00  0.00    -0.380 A  
HETATM   25  C   UNL     1     -13.016   9.880  71.291  1.00  0.00    -0.488 A  
HETATM   26  N   UNL     1     -10.472   9.520  70.948  1.00  0.00    -0.307 NA 
HETATM   27  C   UNL     1     -13.873   9.201  72.139  1.00  0.00    -0.446 A  
HETATM   28  N   UNL     1     -13.144   8.286  72.868  1.00  0.00    -0.542 NA 
HETATM   29  H   UNL     1     -13.528   7.635  73.553  1.00  0.00     0.000 HD 
ENDBRANCH   6  17
ENDBRANCH   2   3
TORSDOF 5
ENDMDL
MODEL       66
REMARK 921   NORMALIZED FREE ENERGY PREDICTED BY IDOCK:   -5.97 KCAL/MOL
REMARK 922        TOTAL FREE ENERGY PREDICTED BY IDOCK:   -7.94 KCAL/MOL
REMARK 923 INTER-LIGAND FREE ENERGY PREDICTED BY IDOCK:   -6.93 KCAL/MOL
REMARK 924 INTRA-LIGAND FREE ENERGY PREDICTED BY IDOCK:   -1.01 KCAL/MOL
REMARK 927      BINDING AFFINITY PREDICTED BY RF-SCORE:    0.00 PKD
ROOT
HETATM    1  C   UNL     1      -8.120  13.594  68.149  1.00  0.00    -0.156 C  
HETATM    2  C   UNL     1      -9.437  12.879  67.866  1.00  0.00    -0.208 C  
ENDROOT
BRANCH   2   3
HETATM    3  C   UNL     1      -9.259  11.573  67.061  1.00  0.00    -0.180 C  
HETATM    4  C   UNL     1      -9.163  11.839  65.557  1.00  0.00    -0.057 C  
HETATM    5  N   UNL     1     -10.546  11.922  65.142  1.00  0.00    -0.276 N  
HETATM    6  C   UNL     1     -10.457  10.576  67.137  1.00  0.00    -0.302 C  
HETATM    7  C   UNL     1     -11.361  11.037  65.959  1.00  0.00     0.269 C  
BRANCH   5   8
HETATM    8  C   UNL     1     -10.954  12.879  64.247  1.00  0.00    -0.388 C  
HETATM    9  O   UNL     1     -11.752  12.654  63.343  1.00  0.00    -0.497 OA 
BRANCH   8  10
HETATM   10  N   UNL     1     -10.431  14.128  64.437  1.00  0.00    -0.544 N  
HETATM   11  H   UNL     1      -9.535  14.375  64.016  1.00  0.00     0.000 HD 
BRANCH  10  12
HETATM   12  C   UNL     1     -11.156  15.112  65.245  1.00  0.00    -0.383 C  
HETATM   13  F   UNL     1      -8.963  15.865  65.872  1.00  0.00    -0.341 F  
HETATM   14  C   UNL     1     -10.284  16.126  66.001  1.00  0.00    -0.356 C  
HETATM   15  F   UNL     1     -10.504  17.394  65.596  1.00  0.00    -0.353 F  
HETATM   16  F   UNL     1     -10.563  16.073  67.330  1.00  0.00    -0.293 F  
ENDBRANCH  10  12
ENDBRANCH   8  10
ENDBRANCH   5   8
BRANCH   6  17
HETATM   17  C   UNL     1     -11.185  10.516  68.453  1.00  0.00    -0.279 A  
HETATM   18  N   UNL     1     -12.334  11.108  70.351  1.00  0.00    -0.339 NA 
HETATM   19  C   UNL     1     -12.085  11.403  69.036  1.00  0.00    -0.249 A  
HETATM   20  C   UNL     1     -11.630  10.021  70.572  1.00  0.00    -0.323 A  
HETATM   21  C   UNL     1     -11.449   9.338  71.838  1.00  0.00    -0.311 A  
HETATM   22  N   UNL     1     -10.753   8.232  71.961  1.00  0.00    -0.273 NA 
HETATM   23  C   UNL     1     -10.252   7.773  70.782  1.00  0.00    -0.197 A  
HETATM   24  C   UNL     1     -10.356   8.315  69.514  1.00  0.00    -0.219 A  
HETATM   25  C   UNL     1      -9.766   7.444  68.587  1.00  0.00    -0.152 A  
HETATM   26  N   UNL     1     -11.030   9.546  69.424  1.00  0.00    -0.208 NA 
HETATM   27  C   UNL     1      -9.221   6.414  69.334  1.00  0.00    -0.143 A  
HETATM   28  N   UNL     1      -9.504   6.634  70.665  1.00  0.00    -0.169 NA 
HETATM   29  H   UNL     1      -9.203   6.042  71.439  1.00  0.00     0.000 HD 
ENDBRANCH   6  17
ENDBRANCH   2   3
TORSDOF 5
ENDMDL
MODEL       67
REMARK 921   NORMALIZED FREE ENERGY PREDICTED BY IDOCK:   -5.93 KCAL/MOL
REMARK 922        TOTAL FREE ENERGY PREDICTED BY IDOCK:   -7.89 KCAL/MOL
REMARK 923 INTER-LIGAND FREE ENERGY PREDICTED BY IDOCK:   -7.04 KCAL/MOL
REMARK 924 INTRA-LIGAND FREE ENERGY PREDICTED BY IDOCK:   -0.85 KCAL/MOL
REMARK 927      BINDING AFFINITY PREDICTED BY RF-SCORE:    0.00 PKD
ROOT
HETATM    1  C   UNL     1     -12.886   6.789  71.623  1.00  0.00    -0.328 C  
HETATM    2  C   UNL     1     -11.807   7.066  70.582  1.00  0.00    -0.377 C  
ENDROOT
BRANCH   2   3
HETATM    3  C   UNL     1     -10.662   7.957  71.115  1.00  0.00    -0.251 C  
HETATM    4  C   UNL     1     -11.160   8.964  72.153  1.00  0.00    -0.285 C  
HETATM    5  N   UNL     1     -11.655  10.059  71.350  1.00  0.00    -0.351 N  
HETATM    6  C   UNL     1      -9.995   8.888  70.055  1.00  0.00    -0.204 C  
HETATM    7  C   UNL     1     -10.868  10.173  70.131  1.00  0.00    -0.311 C  
BRANCH   5   8
HETATM    8  C   UNL     1     -12.827  10.696  71.674  1.00  0.00    -0.465 C  
HETATM    9  O   UNL     1     -13.779  10.122  72.192  1.00  0.00    -0.297 OA 
BRANCH   8  10
HETATM   10  N   UNL     1     -12.867  12.035  71.402  1.00  0.00    -0.350 N  
HETATM   11  H   UNL     1     -12.330  12.413  70.621  1.00  0.00     0.000 HD 
BRANCH  10  12
HETATM   12  C   UNL     1     -13.680  12.928  72.232  1.00  0.00    -0.458 C  
HETATM   13  F   UNL     1     -11.909  14.506  71.857  1.00  0.00    -0.383 F  
HETATM   14  C   UNL     1     -13.130  14.350  72.418  1.00  0.00    -0.415 C  
HETATM   15  F   UNL     1     -13.952  15.289  71.904  1.00  0.00    -0.436 F  
HETATM   16  F   UNL     1     -12.988  14.620  73.741  1.00  0.00    -0.571 F  
ENDBRANCH  10  12
ENDBRANCH   8  10
ENDBRANCH   5   8
BRANCH   6  17
HETATM   17  C   UNL     1      -9.883   8.331  68.662  1.00  0.00    -0.176 A  
HETATM   18  N   UNL     1     -10.330   7.791  66.475  1.00  0.00    -0.177 NA 
HETATM   19  C   UNL     1     -10.513   8.706  67.479  1.00  0.00    -0.266 A  
HETATM   20  C   UNL     1      -9.556   6.877  67.015  1.00  0.00    -0.158 A  
HETATM   21  C   UNL     1      -9.135   5.624  66.420  1.00  0.00    -0.147 A  
HETATM   22  N   UNL     1      -8.328   4.782  67.021  1.00  0.00    -0.106 NA 
HETATM   23  C   UNL     1      -7.899   5.216  68.237  1.00  0.00    -0.087 A  
HETATM   24  C   UNL     1      -8.210   6.383  68.912  1.00  0.00    -0.118 A  
HETATM   25  C   UNL     1      -7.454   6.453  70.091  1.00  0.00    -0.094 A  
HETATM   26  N   UNL     1      -9.146   7.225  68.286  1.00  0.00    -0.135 NA 
HETATM   27  C   UNL     1      -6.753   5.262  70.158  1.00  0.00    -0.044 A  
HETATM   28  N   UNL     1      -7.045   4.511  69.040  1.00  0.00    -0.051 NA 
HETATM   29  H   UNL     1      -6.683   3.578  68.843  1.00  0.00     0.000 HD 
ENDBRANCH   6  17
ENDBRANCH   2   3
TORSDOF 5
ENDMDL
MODEL       68
REMARK 921   NORMALIZED FREE ENERGY PREDICTED BY IDOCK:   -5.87 KCAL/MOL
REMARK 922        TOTAL FREE ENERGY PREDICTED BY IDOCK:   -7.80 KCAL/MOL
REMARK 923 INTER-LIGAND FREE ENERGY PREDICTED BY IDOCK:   -6.61 KCAL/MOL
REMARK 924 INTRA-LIGAND FREE ENERGY PREDICTED BY IDOCK:   -1.19 KCAL/MOL
REMARK 927      BINDING AFFINITY PREDICTED BY RF-SCORE:    0.00 PKD
ROOT
HETATM    1  C   UNL     1     -10.978  17.419  67.596  1.00  0.00    -0.125 C  
HETATM    2  C   UNL     1      -9.473  17.529  67.815  1.00  0.00    -0.269 C  
ENDROOT
BRANCH   2   3
HETATM    3  C   UNL     1      -8.644  16.950  66.647  1.00  0.00    -0.281 C  
HETATM    4  C   UNL     1      -9.415  15.872  65.881  1.00  0.00    -0.337 C  
HETATM    5  N   UNL     1      -9.182  14.675  66.658  1.00  0.00    -0.259 N  
HETATM    6  C   UNL     1      -7.349  16.185  67.065  1.00  0.00    -0.266 C  
HETATM    7  C   UNL     1      -7.861  14.730  67.266  1.00  0.00    -0.194 C  
BRANCH   5   8
HETATM    8  C   UNL     1     -10.197  13.783  66.897  1.00  0.00    -0.261 C  
HETATM    9  O   UNL     1     -11.010  13.449  66.042  1.00  0.00    -0.273 OA 
BRANCH   8  10
HETATM   10  N   UNL     1     -10.238  13.259  68.160  1.00  0.00    -0.237 N  
HETATM   11  H   UNL     1      -9.429  12.761  68.532  1.00  0.00     0.000 HD 
BRANCH  10  12
HETATM   12  C   UNL     1     -11.444  13.412  68.979  1.00  0.00    -0.301 C  
HETATM   13  F   UNL     1     -10.227  15.204  70.016  1.00  0.00    -0.260 F  
HETATM   14  C   UNL     1     -11.423  14.571  69.984  1.00  0.00    -0.258 C  
HETATM   15  F   UNL     1     -12.378  15.490  69.728  1.00  0.00    -0.347 F  
HETATM   16  F   UNL     1     -11.646  14.099  71.239  1.00  0.00    -0.315 F  
ENDBRANCH  10  12
ENDBRANCH   8  10
ENDBRANCH   5   8
BRANCH   6  17
HETATM   17  C   UNL     1      -6.620  16.727  68.265  1.00  0.00    -0.152 A  
HETATM   18  N   UNL     1      -5.848  17.034  70.406  1.00  0.00    -0.118 NA 
HETATM   19  C   UNL     1      -6.300  16.129  69.481  1.00  0.00    -0.191 A  
HETATM   20  C   UNL     1      -5.844  18.177  69.758  1.00  0.00    -0.241 A  
HETATM   21  C   UNL     1      -5.549  19.489  70.299  1.00  0.00    -0.241 A  
HETATM   22  N   UNL     1      -5.535  20.578  69.567  1.00  0.00    -0.308 NA 
HETATM   23  C   UNL     1      -5.787  20.349  68.249  1.00  0.00    -0.272 A  
HETATM   24  C   UNL     1      -6.071  19.159  67.604  1.00  0.00    -0.206 A  
HETATM   25  C   UNL     1      -6.161  19.389  66.223  1.00  0.00    -0.175 A  
HETATM   26  N   UNL     1      -6.169  18.022  68.425  1.00  0.00    -0.186 NA 
HETATM   27  C   UNL     1      -6.020  20.756  66.061  1.00  0.00    -0.232 A  
HETATM   28  N   UNL     1      -5.814  21.331  67.297  1.00  0.00    -0.305 NA 
HETATM   29  H   UNL     1      -5.700  22.329  67.473  1.00  0.00     0.000 HD 
ENDBRANCH   6  17
ENDBRANCH   2   3
TORSDOF 5
ENDMDL
MODEL       69
REMARK 921   NORMALIZED FREE ENERGY PREDICTED BY IDOCK:   -5.85 KCAL/MOL
REMARK 922        TOTAL FREE ENERGY PREDICTED BY IDOCK:   -7.78 KCAL/MOL
REMARK 923 INTER-LIGAND FREE ENERGY PREDICTED BY IDOCK:   -8.24 KCAL/MOL
REMARK 924 INTRA-LIGAND FREE ENERGY PREDICTED BY IDOCK:    0.46 KCAL/MOL
REMARK 927      BINDING AFFINITY PREDICTED BY RF-SCORE:    0.00 PKD
ROOT
HETATM    1  C   UNL     1      -8.382  15.870  67.051  1.00  0.00    -0.255 C  
HETATM    2  C   UNL     1      -9.238  14.617  66.894  1.00  0.00    -0.267 C  
ENDROOT
BRANCH   2   3
HETATM    3  C   UNL     1     -10.681  14.920  66.434  1.00  0.00    -0.316 C  
HETATM    4  C   UNL     1     -11.552  15.426  67.586  1.00  0.00    -0.194 C  
HETATM    5  N   UNL     1     -11.998  14.211  68.231  1.00  0.00    -0.351 N  
HETATM    6  C   UNL     1     -11.494  13.684  65.935  1.00  0.00    -0.329 C  
HETATM    7  C   UNL     1     -12.148  13.155  67.242  1.00  0.00    -0.274 C  
BRANCH   5   8
HETATM    8  C   UNL     1     -12.036  14.115  69.599  1.00  0.00    -0.336 C  
HETATM    9  O   UNL     1     -12.218  13.056  70.191  1.00  0.00    -0.321 OA 
BRANCH   8  10
HETATM   10  N   UNL     1     -11.833  15.283  70.280  1.00  0.00    -0.292 N  
HETATM   11  H   UNL     1     -11.859  16.174  69.784  1.00  0.00     0.000 HD 
BRANCH  10  12
HETATM   12  C   UNL     1     -11.577  15.257  71.723  1.00  0.00    -0.427 C  
HETATM   13  F   UNL     1     -13.905  15.815  71.909  1.00  0.00    -0.521 F  
HETATM   14  C   UNL     1     -12.797  15.504  72.621  1.00  0.00    -0.425 C  
HETATM   15  F   UNL     1     -13.084  14.441  73.402  1.00  0.00    -0.589 F  
HETATM   16  F   UNL     1     -12.558  16.556  73.446  1.00  0.00    -0.502 F  
ENDBRANCH  10  12
ENDBRANCH   8  10
ENDBRANCH   5   8
BRANCH   6  17
HETATM   17  C   UNL     1     -10.710  12.632  65.198  1.00  0.00    -0.292 A  
HETATM   18  N   UNL     1      -9.895  11.264  63.543  1.00  0.00    -0.321 NA 
HETATM   19  C   UNL     1     -10.429  12.491  63.841  1.00  0.00    -0.434 A  
HETATM   20  C   UNL     1      -9.802  10.665  64.708  1.00  0.00    -0.310 A  
HETATM   21  C   UNL     1      -9.394   9.296  64.958  1.00  0.00    -0.127 A  
HETATM   22  N   UNL     1      -9.296   8.789  66.164  1.00  0.00    -0.217 NA 
HETATM   23  C   UNL     1      -9.579   9.680  67.153  1.00  0.00    -0.166 A  
HETATM   24  C   UNL     1      -9.967  11.004  67.056  1.00  0.00    -0.190 A  
HETATM   25  C   UNL     1     -10.051  11.559  68.341  1.00  0.00    -0.207 A  
HETATM   26  N   UNL     1     -10.151  11.497  65.752  1.00  0.00    -0.227 NA 
HETATM   27  C   UNL     1      -9.798  10.517  69.216  1.00  0.00    -0.205 A  
HETATM   28  N   UNL     1      -9.533   9.378  68.486  1.00  0.00    -0.145 NA 
HETATM   29  H   UNL     1      -9.335   8.458  68.878  1.00  0.00     0.000 HD 
ENDBRANCH   6  17
ENDBRANCH   2   3
TORSDOF 5
ENDMDL
MODEL       70
REMARK 921   NORMALIZED FREE ENERGY PREDICTED BY IDOCK:   -5.82 KCAL/MOL
REMARK 922        TOTAL FREE ENERGY PREDICTED BY IDOCK:   -7.74 KCAL/MOL
REMARK 923 INTER-LIGAND FREE ENERGY PREDICTED BY IDOCK:   -7.38 KCAL/MOL
REMARK 924 INTRA-LIGAND FREE ENERGY PREDICTED BY IDOCK:   -0.36 KCAL/MOL
REMARK 927      BINDING AFFINITY PREDICTED BY RF-SCORE:    0.00 PKD
ROOT
HETATM    1  C   UNL     1     -11.910  15.575  69.253  1.00  0.00    -0.372 C  
HETATM    2  C   UNL     1     -10.732  15.929  68.352  1.00  0.00    -0.281 C  
ENDROOT
BRANCH   2   3
HETATM    3  C   UNL     1      -9.581  14.902  68.424  1.00  0.00    -0.209 C  
HETATM    4  C   UNL     1      -8.392  15.433  69.227  1.00  0.00    -0.254 C  
HETATM    5  N   UNL     1      -7.653  16.213  68.260  1.00  0.00    -0.142 N  
HETATM    6  C   UNL     1      -8.915  14.552  67.056  1.00  0.00    -0.258 C  
HETATM    7  C   UNL     1      -7.793  15.622  66.938  1.00  0.00    -0.223 C  
BRANCH   5   8
HETATM    8  C   UNL     1      -7.114  17.428  68.601  1.00  0.00    -0.237 C  
HETATM    9  O   UNL     1      -6.287  17.566  69.497  1.00  0.00    -0.247 OA 
BRANCH   8  10
HETATM   10  N   UNL     1      -7.540  18.494  67.857  1.00  0.00    -0.235 N  
HETATM   11  H   UNL     1      -8.424  18.951  68.080  1.00  0.00     0.000 HD 
BRANCH  10  12
HETATM   12  C   UNL     1      -6.727  18.980  66.739  1.00  0.00    -0.191 C  
HETATM   13  F   UNL     1      -7.351  21.157  67.539  1.00  0.00    -0.391 F  
HETATM   14  C   UNL     1      -6.592  20.506  66.627  1.00  0.00    -0.248 C  
HETATM   15  F   UNL     1      -5.316  20.920  66.768  1.00  0.00    -0.178 F  
HETATM   16  F   UNL     1      -7.016  20.918  65.403  1.00  0.00    -0.214 F  
ENDBRANCH  10  12
ENDBRANCH   8  10
ENDBRANCH   5   8
BRANCH   6  17
HETATM   17  C   UNL     1      -9.832  14.522  65.863  1.00  0.00    -0.321 A  
HETATM   18  N   UNL     1     -11.470  15.055  64.344  1.00  0.00    -0.285 NA 
HETATM   19  C   UNL     1     -10.566  15.537  65.255  1.00  0.00    -0.424 A  
HETATM   20  C   UNL     1     -11.270  13.756  64.353  1.00  0.00    -0.352 A  
HETATM   21  C   UNL     1     -12.033  12.748  63.645  1.00  0.00    -0.539 A  
HETATM   22  N   UNL     1     -11.739  11.470  63.684  1.00  0.00    -0.303 NA 
HETATM   23  C   UNL     1     -10.630  11.191  64.421  1.00  0.00    -0.343 A  
HETATM   24  C   UNL     1      -9.811  12.048  65.133  1.00  0.00    -0.200 A  
HETATM   25  C   UNL     1      -8.728  11.328  65.658  1.00  0.00    -0.078 A  
HETATM   26  N   UNL     1     -10.200  13.399  65.148  1.00  0.00    -0.315 NA 
HETATM   27  C   UNL     1      -8.963  10.004  65.327  1.00  0.00    -0.186 A  
HETATM   28  N   UNL     1     -10.129   9.930  64.595  1.00  0.00    -0.359 NA 
HETATM   29  H   UNL     1     -10.551   9.072  64.241  1.00  0.00     0.000 HD 
ENDBRANCH   6  17
ENDBRANCH   2   3
TORSDOF 5
ENDMDL
MODEL       71
REMARK 921   NORMALIZED FREE ENERGY PREDICTED BY IDOCK:   -5.80 KCAL/MOL
REMARK 922        TOTAL FREE ENERGY PREDICTED BY IDOCK:   -7.72 KCAL/MOL
REMARK 923 INTER-LIGAND FREE ENERGY PREDICTED BY IDOCK:   -7.11 KCAL/MOL
REMARK 924 INTRA-LIGAND FREE ENERGY PREDICTED BY IDOCK:   -0.61 KCAL/MOL
REMARK 927      BINDING AFFINITY PREDICTED BY RF-SCORE:    0.00 PKD
ROOT
HETATM    1  C   UNL     1     -12.482  14.479  64.618  1.00  0.00    -0.339 C  
HETATM    2  C   UNL     1     -11.926  14.210  66.012  1.00  0.00    -0.427 C  
ENDROOT
BRANCH   2   3
HETATM    3  C   UNL     1     -10.405  13.941  66.020  1.00  0.00    -0.310 C  
HETATM    4  C   UNL     1      -9.923  13.356  64.690  1.00  0.00    -0.102 C  
HETATM    5  N   UNL     1     -10.187  11.942  64.830  1.00  0.00    -0.268 N  
HETATM    6  C   UNL     1      -9.924  12.862  67.040  1.00  0.00    -0.244 C  
HETATM    7  C   UNL     1     -10.032  11.545  66.220  1.00  0.00    -0.220 C  
BRANCH   5   8
HETATM    8  C   UNL     1     -10.707  11.217  63.786  1.00  0.00    -0.329 C  
HETATM    9  O   UNL     1     -11.767  11.498  63.238  1.00  0.00    -0.293 OA 
BRANCH   8  10
HETATM   10  N   UNL     1      -9.950  10.157  63.368  1.00  0.00    -0.495 N  
HETATM   11  H   UNL     1     -10.385   9.245  63.225  1.00  0.00     0.000 HD 
BRANCH  10  12
HETATM   12  C   UNL     1      -8.515  10.330  63.126  1.00  0.00    -0.180 C  
HETATM   13  F   UNL     1      -8.259   8.891  65.032  1.00  0.00    -0.119 F  
HETATM   14  C   UNL     1      -7.583   9.542  64.057  1.00  0.00    -0.122 C  
HETATM   15  F   UNL     1      -6.833   8.640  63.390  1.00  0.00    -0.087 F  
HETATM   16  F   UNL     1      -6.727  10.394  64.681  1.00  0.00    -0.128 F  
ENDBRANCH  10  12
ENDBRANCH   8  10
ENDBRANCH   5   8
BRANCH   6  17
HETATM   17  C   UNL     1     -10.670  12.809  68.346  1.00  0.00    -0.250 A  
HETATM   18  N   UNL     1     -12.057  12.147  70.053  1.00  0.00    -0.304 NA 
HETATM   19  C   UNL     1     -11.263  11.740  69.012  1.00  0.00    -0.265 A  
HETATM   20  C   UNL     1     -11.924  13.454  70.062  1.00  0.00    -0.337 A  
HETATM   21  C   UNL     1     -12.633  14.400  70.902  1.00  0.00    -0.352 A  
HETATM   22  N   UNL     1     -12.411  15.692  70.868  1.00  0.00    -0.410 NA 
HETATM   23  C   UNL     1     -11.429  16.051  69.997  1.00  0.00    -0.331 A  
HETATM   24  C   UNL     1     -10.672  15.260  69.153  1.00  0.00    -0.251 A  
HETATM   25  C   UNL     1      -9.709  16.052  68.512  1.00  0.00    -0.214 A  
HETATM   26  N   UNL     1     -10.992  13.891  69.143  1.00  0.00    -0.241 NA 
HETATM   27  C   UNL     1      -9.962  17.351  68.917  1.00  0.00    -0.308 A  
HETATM   28  N   UNL     1     -11.019  17.342  69.801  1.00  0.00    -0.188 NA 
HETATM   29  H   UNL     1     -11.430  18.166  70.239  1.00  0.00     0.000 HD 
ENDBRANCH   6  17
ENDBRANCH   2   3
TORSDOF 5
ENDMDL
MODEL       72
REMARK 921   NORMALIZED FREE ENERGY PREDICTED BY IDOCK:   -5.80 KCAL/MOL
REMARK 922        TOTAL FREE ENERGY PREDICTED BY IDOCK:   -7.72 KCAL/MOL
REMARK 923 INTER-LIGAND FREE ENERGY PREDICTED BY IDOCK:   -6.38 KCAL/MOL
REMARK 924 INTRA-LIGAND FREE ENERGY PREDICTED BY IDOCK:   -1.33 KCAL/MOL
REMARK 927      BINDING AFFINITY PREDICTED BY RF-SCORE:    0.00 PKD
ROOT
HETATM    1  C   UNL     1     -10.884   6.797  68.390  1.00  0.00    -0.284 C  
HETATM    2  C   UNL     1     -10.026   7.926  67.831  1.00  0.00    -0.220 C  
ENDROOT
BRANCH   2   3
HETATM    3  C   UNL     1     -10.719   9.305  67.894  1.00  0.00    -0.248 C  
HETATM    4  C   UNL     1     -10.708  10.011  66.535  1.00  0.00    -0.024 C  
HETATM    5  N   UNL     1      -9.412  10.649  66.498  1.00  0.00    -0.166 N  
HETATM    6  C   UNL     1     -10.023  10.359  68.810  1.00  0.00    -0.196 C  
HETATM    7  C   UNL     1      -9.016  11.042  67.841  1.00  0.00    -0.144 C  
BRANCH   5   8
HETATM    8  C   UNL     1      -8.658  10.642  65.351  1.00  0.00    -0.179 C  
HETATM    9  O   UNL     1      -9.148  10.650  64.227  1.00  0.00    -0.200 OA 
BRANCH   8  10
HETATM   10  N   UNL     1      -7.303  10.651  65.535  1.00  0.00    -0.305 N  
HETATM   11  H   UNL     1      -6.848  11.469  65.941  1.00  0.00     0.000 HD 
BRANCH  10  12
HETATM   12  C   UNL     1      -6.502   9.485  65.149  1.00  0.00    -0.079 C  
HETATM   13  F   UNL     1      -7.074   8.665  67.332  1.00  0.00    -0.074 F  
HETATM   14  C   UNL     1      -6.446   8.346  66.177  1.00  0.00    -0.053 C  
HETATM   15  F   UNL     1      -6.987   7.203  65.706  1.00  0.00    -0.055 F  
HETATM   16  F   UNL     1      -5.154   8.077  66.498  1.00  0.00    -0.022 F  
ENDBRANCH  10  12
ENDBRANCH   8  10
ENDBRANCH   5   8
BRANCH   6  17
HETATM   17  C   UNL     1      -9.373   9.824  70.057  1.00  0.00    -0.235 A  
HETATM   18  N   UNL     1      -7.859   8.899  71.516  1.00  0.00    -0.292 NA 
HETATM   19  C   UNL     1      -8.030   9.643  70.378  1.00  0.00    -0.165 A  
HETATM   20  C   UNL     1      -9.084   8.658  71.926  1.00  0.00    -0.256 A  
HETATM   21  C   UNL     1      -9.486   7.820  73.038  1.00  0.00    -0.251 A  
HETATM   22  N   UNL     1     -10.738   7.662  73.399  1.00  0.00    -0.351 NA 
HETATM   23  C   UNL     1     -11.613   8.389  72.653  1.00  0.00    -0.297 A  
HETATM   24  C   UNL     1     -11.367   9.229  71.582  1.00  0.00    -0.397 A  
HETATM   25  C   UNL     1     -12.564   9.845  71.189  1.00  0.00    -0.464 A  
HETATM   26  N   UNL     1     -10.028   9.310  71.159  1.00  0.00    -0.297 NA 
HETATM   27  C   UNL     1     -13.550   9.286  71.984  1.00  0.00    -0.452 A  
HETATM   28  N   UNL     1     -12.966   8.391  72.854  1.00  0.00    -0.679 NA 
HETATM   29  H   UNL     1     -13.464   7.821  73.537  1.00  0.00     0.000 HD 
ENDBRANCH   6  17
ENDBRANCH   2   3
TORSDOF 5
ENDMDL
MODEL       73
REMARK 921   NORMALIZED FREE ENERGY PREDICTED BY IDOCK:   -5.79 KCAL/MOL
REMARK 922        TOTAL FREE ENERGY PREDICTED BY IDOCK:   -7.71 KCAL/MOL
REMARK 923 INTER-LIGAND FREE ENERGY PREDICTED BY IDOCK:   -7.76 KCAL/MOL
REMARK 924 INTRA-LIGAND FREE ENERGY PREDICTED BY IDOCK:    0.05 KCAL/MOL
REMARK 927      BINDING AFFINITY PREDICTED BY RF-SCORE:    0.00 PKD
ROOT
HETATM    1  C   UNL     1      -7.921  15.573  67.079  1.00  0.00    -0.268 C  
HETATM    2  C   UNL     1      -9.036  14.559  66.852  1.00  0.00    -0.274 C  
ENDROOT
BRANCH   2   3
HETATM    3  C   UNL     1      -8.864  13.268  67.683  1.00  0.00    -0.200 C  
HETATM    4  C   UNL     1      -8.467  12.076  66.807  1.00  0.00    -0.155 C  
HETATM    5  N   UNL     1      -9.733  11.596  66.300  1.00  0.00    -0.212 N  
HETATM    6  C   UNL     1     -10.160  12.742  68.374  1.00  0.00    -0.226 C  
HETATM    7  C   UNL     1     -10.778  11.818  67.287  1.00  0.00    -0.237 C  
BRANCH   5   8
HETATM    8  C   UNL     1      -9.862  11.204  64.990  1.00  0.00    -0.266 C  
HETATM    9  O   UNL     1      -9.921  11.997  64.057  1.00  0.00    -0.311 OA 
BRANCH   8  10
HETATM   10  N   UNL     1      -9.898   9.854  64.779  1.00  0.00    -0.412 N  
HETATM   11  H   UNL     1     -10.546   9.462  64.095  1.00  0.00     0.000 HD 
BRANCH  10  12
HETATM   12  C   UNL     1      -9.006   8.968  65.532  1.00  0.00    -0.204 C  
HETATM   13  F   UNL     1      -8.039   8.500  63.384  1.00  0.00    -0.142 F  
HETATM   14  C   UNL     1      -7.919   8.261  64.711  1.00  0.00    -0.146 C  
HETATM   15  F   UNL     1      -6.674   8.618  65.091  1.00  0.00    -0.062 F  
HETATM   16  F   UNL     1      -8.019   6.916  64.874  1.00  0.00    -0.102 F  
ENDBRANCH  10  12
ENDBRANCH   8  10
ENDBRANCH   5   8
BRANCH   6  17
HETATM   17  C   UNL     1     -11.117  13.793  68.870  1.00  0.00    -0.266 A  
HETATM   18  N   UNL     1     -12.097  15.815  69.349  1.00  0.00    -0.308 NA 
HETATM   19  C   UNL     1     -11.290  15.120  68.485  1.00  0.00    -0.309 A  
HETATM   20  C   UNL     1     -12.458  14.917  70.238  1.00  0.00    -0.336 A  
HETATM   21  C   UNL     1     -13.235  15.141  71.442  1.00  0.00    -0.449 A  
HETATM   22  N   UNL     1     -13.581  14.175  72.259  1.00  0.00    -0.452 NA 
HETATM   23  C   UNL     1     -13.172  12.944  71.849  1.00  0.00    -0.423 A  
HETATM   24  C   UNL     1     -12.442  12.590  70.729  1.00  0.00    -0.268 A  
HETATM   25  C   UNL     1     -12.341  11.193  70.661  1.00  0.00    -0.482 A  
HETATM   26  N   UNL     1     -12.007  13.653  69.917  1.00  0.00    -0.330 NA 
HETATM   27  C   UNL     1     -12.944  10.718  71.813  1.00  0.00    -0.463 A  
HETATM   28  N   UNL     1     -13.426  11.789  72.535  1.00  0.00    -0.451 NA 
HETATM   29  H   UNL     1     -13.898  11.728  73.438  1.00  0.00     0.000 HD 
ENDBRANCH   6  17
ENDBRANCH   2   3
TORSDOF 5
ENDMDL
MODEL       74
REMARK 921   NORMALIZED FREE ENERGY PREDICTED BY IDOCK:   -5.79 KCAL/MOL
REMARK 922        TOTAL FREE ENERGY PREDICTED BY IDOCK:   -7.70 KCAL/MOL
REMARK 923 INTER-LIGAND FREE ENERGY PREDICTED BY IDOCK:   -7.65 KCAL/MOL
REMARK 924 INTRA-LIGAND FREE ENERGY PREDICTED BY IDOCK:   -0.05 KCAL/MOL
REMARK 927      BINDING AFFINITY PREDICTED BY RF-SCORE:    0.00 PKD
ROOT
HETATM    1  C   UNL     1     -12.001  14.772  64.334  1.00  0.00    -0.433 C  
HETATM    2  C   UNL     1     -11.473  14.963  65.752  1.00  0.00    -0.281 C  
ENDROOT
BRANCH   2   3
HETATM    3  C   UNL     1     -10.042  14.413  65.947  1.00  0.00    -0.344 C  
HETATM    4  C   UNL     1     -10.028  12.886  66.053  1.00  0.00    -0.272 C  
HETATM    5  N   UNL     1     -10.327  12.642  67.446  1.00  0.00    -0.220 N  
HETATM    6  C   UNL     1      -9.343  14.834  67.277  1.00  0.00    -0.211 C  
HETATM    7  C   UNL     1      -9.780  13.714  68.263  1.00  0.00    -0.231 C  
BRANCH   5   8
HETATM    8  C   UNL     1     -11.185  11.637  67.815  1.00  0.00    -0.268 C  
HETATM    9  O   UNL     1     -11.780  10.933  67.006  1.00  0.00    -0.330 OA 
BRANCH   8  10
HETATM   10  N   UNL     1     -11.325  11.444  69.162  1.00  0.00    -0.261 N  
HETATM   11  H   UNL     1     -10.507  11.487  69.771  1.00  0.00     0.000 HD 
BRANCH  10  12
HETATM   12  C   UNL     1     -12.648  11.177  69.732  1.00  0.00    -0.063 C  
HETATM   13  F   UNL     1     -11.414  10.463  71.664  1.00  0.00    -0.314 F  
HETATM   14  C   UNL     1     -12.661  10.676  71.183  1.00  0.00    -0.423 C  
HETATM   15  F   UNL     1     -13.292  11.530  72.015  1.00  0.00    -0.563 F  
HETATM   16  F   UNL     1     -13.313   9.487  71.255  1.00  0.00    -0.377 F  
ENDBRANCH  10  12
ENDBRANCH   8  10
ENDBRANCH   5   8
BRANCH   6  17
HETATM   17  C   UNL     1      -9.656  16.219  67.779  1.00  0.00    -0.223 A  
HETATM   18  N   UNL     1     -10.647  18.269  68.080  1.00  0.00    -0.332 NA 
HETATM   19  C   UNL     1     -10.837  16.955  67.740  1.00  0.00    -0.281 A  
HETATM   20  C   UNL     1      -9.367  18.340  68.370  1.00  0.00    -0.314 A  
HETATM   21  C   UNL     1      -8.609  19.532  68.695  1.00  0.00    -0.325 A  
HETATM   22  N   UNL     1      -7.335  19.506  69.008  1.00  0.00    -0.365 NA 
HETATM   23  C   UNL     1      -6.808  18.251  69.033  1.00  0.00    -0.254 A  
HETATM   24  C   UNL     1      -7.415  17.039  68.758  1.00  0.00    -0.242 A  
HETATM   25  C   UNL     1      -6.510  15.998  69.010  1.00  0.00    -0.146 A  
HETATM   26  N   UNL     1      -8.755  17.104  68.338  1.00  0.00    -0.239 NA 
HETATM   27  C   UNL     1      -5.318  16.613  69.351  1.00  0.00    -0.140 A  
HETATM   28  N   UNL     1      -5.504  17.979  69.342  1.00  0.00    -0.197 NA 
HETATM   29  H   UNL     1      -4.784  18.675  69.535  1.00  0.00     0.000 HD 
ENDBRANCH   6  17
ENDBRANCH   2   3
TORSDOF 5
ENDMDL
MODEL       75
REMARK 921   NORMALIZED FREE ENERGY PREDICTED BY IDOCK:   -5.78 KCAL/MOL
REMARK 922        TOTAL FREE ENERGY PREDICTED BY IDOCK:   -7.69 KCAL/MOL
REMARK 923 INTER-LIGAND FREE ENERGY PREDICTED BY IDOCK:   -7.39 KCAL/MOL
REMARK 924 INTRA-LIGAND FREE ENERGY PREDICTED BY IDOCK:   -0.30 KCAL/MOL
REMARK 927      BINDING AFFINITY PREDICTED BY RF-SCORE:    0.00 PKD
ROOT
HETATM    1  C   UNL     1      -9.121   9.405  64.585  1.00  0.00    -0.228 C  
HETATM    2  C   UNL     1      -9.233   9.615  66.091  1.00  0.00    -0.222 C  
ENDROOT
BRANCH   2   3
HETATM    3  C   UNL     1     -10.566  10.270  66.517  1.00  0.00    -0.202 C  
HETATM    4  C   UNL     1     -10.552  11.784  66.299  1.00  0.00    -0.252 C  
HETATM    5  N   UNL     1      -9.908  12.290  67.491  1.00  0.00    -0.190 N  
HETATM    6  C   UNL     1     -10.904  10.166  68.037  1.00  0.00    -0.320 C  
HETATM    7  C   UNL     1     -10.229  11.438  68.625  1.00  0.00    -0.208 C  
BRANCH   5   8
HETATM    8  C   UNL     1      -8.983  13.301  67.415  1.00  0.00    -0.215 C  
HETATM    9  O   UNL     1      -7.779  13.099  67.297  1.00  0.00    -0.160 OA 
BRANCH   8  10
HETATM   10  N   UNL     1      -9.490  14.570  67.456  1.00  0.00    -0.200 N  
HETATM   11  H   UNL     1      -9.406  15.180  66.642  1.00  0.00     0.000 HD 
BRANCH  10  12
HETATM   12  C   UNL     1     -10.154  15.056  68.669  1.00  0.00    -0.233 C  
HETATM   13  F   UNL     1     -12.175  14.704  67.421  1.00  0.00    -0.400 F  
HETATM   14  C   UNL     1     -11.689  15.059  68.633  1.00  0.00    -0.337 C  
HETATM   15  F   UNL     1     -12.226  14.238  69.559  1.00  0.00    -0.329 F  
HETATM   16  F   UNL     1     -12.154  16.311  68.886  1.00  0.00    -0.315 F  
ENDBRANCH  10  12
ENDBRANCH   8  10
ENDBRANCH   5   8
BRANCH   6  17
HETATM   17  C   UNL     1     -10.474   8.897  68.724  1.00  0.00    -0.200 A  
HETATM   18  N   UNL     1      -9.610   6.808  69.129  1.00  0.00    -0.140 NA 
HETATM   19  C   UNL     1      -9.529   7.942  68.363  1.00  0.00    -0.148 A  
HETATM   20  C   UNL     1     -10.567   7.073  69.989  1.00  0.00    -0.230 A  
HETATM   21  C   UNL     1     -11.136   6.171  70.971  1.00  0.00    -0.297 A  
HETATM   22  N   UNL     1     -12.071   6.533  71.817  1.00  0.00    -0.347 NA 
HETATM   23  C   UNL     1     -12.426   7.842  71.707  1.00  0.00    -0.323 A  
HETATM   24  C   UNL     1     -11.961   8.806  70.831  1.00  0.00    -0.201 A  
HETATM   25  C   UNL     1     -12.541  10.043  71.150  1.00  0.00    -0.480 A  
HETATM   26  N   UNL     1     -11.026   8.370  69.876  1.00  0.00    -0.212 NA 
HETATM   27  C   UNL     1     -13.435   9.784  72.174  1.00  0.00    -0.399 A  
HETATM   28  N   UNL     1     -13.372   8.443  72.490  1.00  0.00    -0.600 NA 
HETATM   29  H   UNL     1     -13.940   7.975  73.196  1.00  0.00     0.000 HD 
ENDBRANCH   6  17
ENDBRANCH   2   3
TORSDOF 5
ENDMDL
MODEL       76
REMARK 921   NORMALIZED FREE ENERGY PREDICTED BY IDOCK:   -5.78 KCAL/MOL
REMARK 922        TOTAL FREE ENERGY PREDICTED BY IDOCK:   -7.69 KCAL/MOL
REMARK 923 INTER-LIGAND FREE ENERGY PREDICTED BY IDOCK:   -8.38 KCAL/MOL
REMARK 924 INTRA-LIGAND FREE ENERGY PREDICTED BY IDOCK:    0.69 KCAL/MOL
REMARK 927      BINDING AFFINITY PREDICTED BY RF-SCORE:    0.00 PKD
ROOT
HETATM    1  C   UNL     1     -11.878  11.403  68.839  1.00  0.00    -0.413 C  
HETATM    2  C   UNL     1     -11.376  12.670  68.156  1.00  0.00    -0.334 C  
ENDROOT
BRANCH   2   3
HETATM    3  C   UNL     1     -10.036  13.181  68.732  1.00  0.00    -0.038 C  
HETATM    4  C   UNL     1     -10.037  14.700  68.916  1.00  0.00    -0.234 C  
HETATM    5  N   UNL     1      -9.680  15.198  67.607  1.00  0.00    -0.211 N  
HETATM    6  C   UNL     1      -8.793  12.968  67.813  1.00  0.00    -0.188 C  
HETATM    7  C   UNL     1      -8.779  14.263  66.951  1.00  0.00    -0.179 C  
BRANCH   5   8
HETATM    8  C   UNL     1     -10.317  16.290  67.072  1.00  0.00    -0.292 C  
HETATM    9  O   UNL     1     -10.461  16.457  65.866  1.00  0.00    -0.338 OA 
BRANCH   8  10
HETATM   10  N   UNL     1     -10.811  17.188  67.978  1.00  0.00    -0.366 N  
HETATM   11  H   UNL     1     -11.781  17.121  68.285  1.00  0.00     0.000 HD 
BRANCH  10  12
HETATM   12  C   UNL     1      -9.947  18.247  68.507  1.00  0.00    -0.393 C  
HETATM   13  F   UNL     1     -11.059  19.636  66.894  1.00  0.00    -0.571 F  
HETATM   14  C   UNL     1     -10.161  19.644  67.907  1.00  0.00    -0.448 C  
HETATM   15  F   UNL     1     -10.573  20.540  68.827  1.00  0.00    -0.445 F  
HETATM   16  F   UNL     1      -8.994  20.107  67.388  1.00  0.00    -0.364 F  
ENDBRANCH  10  12
ENDBRANCH   8  10
ENDBRANCH   5   8
BRANCH   6  17
HETATM   17  C   UNL     1      -8.787  11.709  66.988  1.00  0.00    -0.177 A  
HETATM   18  N   UNL     1      -8.184   9.690  66.074  1.00  0.00    -0.118 NA 
HETATM   19  C   UNL     1      -8.125  10.500  67.179  1.00  0.00    -0.120 A  
HETATM   20  C   UNL     1      -8.915  10.371  65.220  1.00  0.00    -0.187 A  
HETATM   21  C   UNL     1      -9.207  10.019  63.844  1.00  0.00    -0.272 A  
HETATM   22  N   UNL     1      -9.980  10.744  63.070  1.00  0.00    -0.302 NA 
HETATM   23  C   UNL     1     -10.505  11.833  63.694  1.00  0.00    -0.439 A  
HETATM   24  C   UNL     1     -10.320  12.276  64.991  1.00  0.00    -0.291 A  
HETATM   25  C   UNL     1     -11.141  13.388  65.225  1.00  0.00    -0.305 A  
HETATM   26  N   UNL     1      -9.417  11.531  65.772  1.00  0.00    -0.232 NA 
HETATM   27  C   UNL     1     -11.753  13.663  64.015  1.00  0.00    -0.364 A  
HETATM   28  N   UNL     1     -11.345  12.727  63.088  1.00  0.00    -0.757 NA 
HETATM   29  H   UNL     1     -11.625  12.705  62.108  1.00  0.00     0.000 HD 
ENDBRANCH   6  17
ENDBRANCH   2   3
TORSDOF 5
ENDMDL
MODEL       77
REMARK 921   NORMALIZED FREE ENERGY PREDICTED BY IDOCK:   -5.78 KCAL/MOL
REMARK 922        TOTAL FREE ENERGY PREDICTED BY IDOCK:   -7.69 KCAL/MOL
REMARK 923 INTER-LIGAND FREE ENERGY PREDICTED BY IDOCK:   -6.40 KCAL/MOL
REMARK 924 INTRA-LIGAND FREE ENERGY PREDICTED BY IDOCK:   -1.28 KCAL/MOL
REMARK 927      BINDING AFFINITY PREDICTED BY RF-SCORE:    0.00 PKD
ROOT
HETATM    1  C   UNL     1     -10.826   7.586  67.232  1.00  0.00    -0.297 C  
HETATM    2  C   UNL     1     -10.239   8.990  67.131  1.00  0.00    -0.334 C  
ENDROOT
BRANCH   2   3
HETATM    3  C   UNL     1      -9.377   9.199  65.866  1.00  0.00    -0.306 C  
HETATM    4  C   UNL     1      -8.372   8.062  65.666  1.00  0.00    -0.141 C  
HETATM    5  N   UNL     1      -7.259   8.445  66.505  1.00  0.00    -0.076 N  
HETATM    6  C   UNL     1      -8.445  10.451  65.896  1.00  0.00    -0.160 C  
HETATM    7  C   UNL     1      -7.145   9.895  66.544  1.00  0.00    -0.094 C  
BRANCH   5   8
HETATM    8  C   UNL     1      -6.605   7.515  67.273  1.00  0.00    -0.062 C  
HETATM    9  O   UNL     1      -5.655   6.856  66.863  1.00  0.00    -0.016 OA 
BRANCH   8  10
HETATM   10  N   UNL     1      -7.065   7.377  68.554  1.00  0.00    -0.082 N  
HETATM   11  H   UNL     1      -7.789   6.690  68.764  1.00  0.00     0.000 HD 
BRANCH  10  12
HETATM   12  C   UNL     1      -6.519   8.216  69.624  1.00  0.00    -0.037 C  
HETATM   13  F   UNL     1      -8.737   9.132  69.717  1.00  0.00    -0.120 F  
HETATM   14  C   UNL     1      -7.518   9.161  70.306  1.00  0.00    -0.099 C  
HETATM   15  F   UNL     1      -7.677   8.882  71.616  1.00  0.00    -0.140 F  
HETATM   16  F   UNL     1      -7.076  10.443  70.218  1.00  0.00    -0.142 F  
ENDBRANCH  10  12
ENDBRANCH   8  10
ENDBRANCH   5   8
BRANCH   6  17
HETATM   17  C   UNL     1      -8.988  11.663  66.605  1.00  0.00    -0.189 A  
HETATM   18  N   UNL     1      -9.460  13.232  68.213  1.00  0.00    -0.217 NA 
HETATM   19  C   UNL     1      -8.550  12.317  67.753  1.00  0.00    -0.170 A  
HETATM   20  C   UNL     1     -10.436  13.181  67.335  1.00  0.00    -0.242 A  
HETATM   21  C   UNL     1     -11.706  13.875  67.396  1.00  0.00    -0.389 A  
HETATM   22  N   UNL     1     -12.613  13.792  66.452  1.00  0.00    -0.344 NA 
HETATM   23  C   UNL     1     -12.229  13.022  65.398  1.00  0.00    -0.471 A  
HETATM   24  C   UNL     1     -11.054  12.319  65.206  1.00  0.00    -0.316 A  
HETATM   25  C   UNL     1     -11.056  11.749  63.925  1.00  0.00    -0.482 A  
HETATM   26  N   UNL     1     -10.138  12.352  66.272  1.00  0.00    -0.235 NA 
HETATM   27  C   UNL     1     -12.296  12.045  63.386  1.00  0.00    -0.523 A  
HETATM   28  N   UNL     1     -13.007  12.800  64.294  1.00  0.00    -0.720 NA 
HETATM   29  H   UNL     1     -13.960  13.138  64.164  1.00  0.00     0.000 HD 
ENDBRANCH   6  17
ENDBRANCH   2   3
TORSDOF 5
ENDMDL
MODEL       78
REMARK 921   NORMALIZED FREE ENERGY PREDICTED BY IDOCK:   -5.76 KCAL/MOL
REMARK 922        TOTAL FREE ENERGY PREDICTED BY IDOCK:   -7.67 KCAL/MOL
REMARK 923 INTER-LIGAND FREE ENERGY PREDICTED BY IDOCK:   -6.87 KCAL/MOL
REMARK 924 INTRA-LIGAND FREE ENERGY PREDICTED BY IDOCK:   -0.80 KCAL/MOL
REMARK 927      BINDING AFFINITY PREDICTED BY RF-SCORE:    0.00 PKD
ROOT
HETATM    1  C   UNL     1      -6.959  12.191  68.977  1.00  0.00    -0.086 C  
HETATM    2  C   UNL     1      -7.940  11.244  68.295  1.00  0.00    -0.134 C  
ENDROOT
BRANCH   2   3
HETATM    3  C   UNL     1      -8.897  10.543  69.285  1.00  0.00    -0.135 C  
HETATM    4  C   UNL     1      -8.869   9.021  69.124  1.00  0.00    -0.142 C  
HETATM    5  N   UNL     1      -9.794   8.781  68.039  1.00  0.00    -0.162 N  
HETATM    6  C   UNL     1     -10.411  10.861  69.085  1.00  0.00    -0.248 C  
HETATM    7  C   UNL     1     -10.858   9.772  68.068  1.00  0.00    -0.223 C  
BRANCH   5   8
HETATM    8  C   UNL     1      -9.506   7.864  67.059  1.00  0.00    -0.174 C  
HETATM    9  O   UNL     1      -9.012   6.766  67.294  1.00  0.00    -0.116 OA 
BRANCH   8  10
HETATM   10  N   UNL     1      -9.827   8.241  65.784  1.00  0.00    -0.387 N  
HETATM   11  H   UNL     1     -10.712   7.944  65.373  1.00  0.00     0.000 HD 
BRANCH  10  12
HETATM   12  C   UNL     1      -8.900   9.070  65.009  1.00  0.00    -0.170 C  
HETATM   13  F   UNL     1     -10.703  10.657  64.994  1.00  0.00    -0.350 F  
HETATM   14  C   UNL     1      -9.414  10.466  64.629  1.00  0.00    -0.280 C  
HETATM   15  F   UNL     1      -8.672  11.452  65.176  1.00  0.00    -0.126 F  
HETATM   16  F   UNL     1      -9.364  10.626  63.281  1.00  0.00    -0.200 F  
ENDBRANCH  10  12
ENDBRANCH   8  10
ENDBRANCH   5   8
BRANCH   6  17
HETATM   17  C   UNL     1     -10.739  12.260  68.636  1.00  0.00    -0.233 A  
HETATM   18  N   UNL     1     -10.643  14.311  67.607  1.00  0.00    -0.252 NA 
HETATM   19  C   UNL     1     -10.310  12.984  67.527  1.00  0.00    -0.224 A  
HETATM   20  C   UNL     1     -11.312  14.404  68.734  1.00  0.00    -0.273 A  
HETATM   21  C   UNL     1     -11.812  15.613  69.358  1.00  0.00    -0.375 A  
HETATM   22  N   UNL     1     -12.505  15.609  70.472  1.00  0.00    -0.419 NA 
HETATM   23  C   UNL     1     -12.738  14.360  70.961  1.00  0.00    -0.346 A  
HETATM   24  C   UNL     1     -12.334  13.134  70.466  1.00  0.00    -0.304 A  
HETATM   25  C   UNL     1     -12.893  12.111  71.245  1.00  0.00    -0.349 A  
HETATM   26  N   UNL     1     -11.517  13.172  69.322  1.00  0.00    -0.287 NA 
HETATM   27  C   UNL     1     -13.563  12.748  72.275  1.00  0.00    -0.465 A  
HETATM   28  N   UNL     1     -13.447  14.111  72.104  1.00  0.00    -0.409 NA 
HETATM   29  H   UNL     1     -13.828  14.819  72.731  1.00  0.00     0.000 HD 
ENDBRANCH   6  17
ENDBRANCH   2   3
TORSDOF 5
ENDMDL
MODEL       79
REMARK 921   NORMALIZED FREE ENERGY PREDICTED BY IDOCK:   -5.76 KCAL/MOL
REMARK 922        TOTAL FREE ENERGY PREDICTED BY IDOCK:   -7.66 KCAL/MOL
REMARK 923 INTER-LIGAND FREE ENERGY PREDICTED BY IDOCK:   -6.59 KCAL/MOL
REMARK 924 INTRA-LIGAND FREE ENERGY PREDICTED BY IDOCK:   -1.06 KCAL/MOL
REMARK 927      BINDING AFFINITY PREDICTED BY RF-SCORE:    0.00 PKD
ROOT
HETATM    1  C   UNL     1      -8.356  12.575  67.474  1.00  0.00    -0.175 C  
HETATM    2  C   UNL     1      -8.846  11.442  68.370  1.00  0.00    -0.167 C  
ENDROOT
BRANCH   2   3
HETATM    3  C   UNL     1     -10.383  11.278  68.357  1.00  0.00    -0.207 C  
HETATM    4  C   UNL     1     -10.946  11.081  69.766  1.00  0.00    -0.193 C  
HETATM    5  N   UNL     1     -10.783   9.664  69.999  1.00  0.00    -0.240 N  
HETATM    6  C   UNL     1     -10.910  10.008  67.619  1.00  0.00    -0.336 C  
HETATM    7  C   UNL     1     -10.924   8.938  68.747  1.00  0.00     0.100 C  
BRANCH   5   8
HETATM    8  C   UNL     1     -10.350   9.197  71.215  1.00  0.00    -0.334 C  
HETATM    9  O   UNL     1     -11.108   8.963  72.151  1.00  0.00    -0.362 OA 
BRANCH   8  10
HETATM   10  N   UNL     1      -9.004   8.979  71.319  1.00  0.00    -0.234 N  
HETATM   11  H   UNL     1      -8.350   9.746  71.164  1.00  0.00     0.000 HD 
BRANCH  10  12
HETATM   12  C   UNL     1      -8.501   7.644  71.655  1.00  0.00    -0.108 C  
HETATM   13  F   UNL     1      -8.483   8.475  73.909  1.00  0.00    -0.297 F  
HETATM   14  C   UNL     1      -8.274   7.374  73.149  1.00  0.00    -0.114 C  
HETATM   15  F   UNL     1      -9.062   6.384  73.617  1.00  0.00    -0.126 F  
HETATM   16  F   UNL     1      -6.986   6.996  73.360  1.00  0.00    -0.073 F  
ENDBRANCH  10  12
ENDBRANCH   8  10
ENDBRANCH   5   8
BRANCH   6  17
HETATM   17  C   UNL     1     -10.131   9.578  66.405  1.00  0.00    -0.258 A  
HETATM   18  N   UNL     1      -8.552   8.618  65.041  1.00  0.00    -0.180 NA 
HETATM   19  C   UNL     1      -9.240   8.524  66.223  1.00  0.00    -0.207 A  
HETATM   20  C   UNL     1      -9.042   9.697  64.472  1.00  0.00    -0.236 A  
HETATM   21  C   UNL     1      -8.594  10.319  63.242  1.00  0.00    -0.194 A  
HETATM   22  N   UNL     1      -9.168  11.380  62.727  1.00  0.00    -0.347 NA 
HETATM   23  C   UNL     1     -10.243  11.815  63.439  1.00  0.00    -0.449 A  
HETATM   24  C   UNL     1     -10.780  11.314  64.610  1.00  0.00    -0.303 A  
HETATM   25  C   UNL     1     -11.949  12.022  64.926  1.00  0.00    -0.286 A  
HETATM   26  N   UNL     1     -10.092  10.233  65.190  1.00  0.00    -0.314 NA 
HETATM   27  C   UNL     1     -12.052  13.019  63.971  1.00  0.00    -0.450 A  
HETATM   28  N   UNL     1     -11.002  12.897  63.087  1.00  0.00    -0.503 NA 
HETATM   29  H   UNL     1     -10.820  13.515  62.296  1.00  0.00     0.000 HD 
ENDBRANCH   6  17
ENDBRANCH   2   3
TORSDOF 5
ENDMDL
MODEL       80
REMARK 921   NORMALIZED FREE ENERGY PREDICTED BY IDOCK:   -5.76 KCAL/MOL
REMARK 922        TOTAL FREE ENERGY PREDICTED BY IDOCK:   -7.66 KCAL/MOL
REMARK 923 INTER-LIGAND FREE ENERGY PREDICTED BY IDOCK:   -6.64 KCAL/MOL
REMARK 924 INTRA-LIGAND FREE ENERGY PREDICTED BY IDOCK:   -1.02 KCAL/MOL
REMARK 927      BINDING AFFINITY PREDICTED BY RF-SCORE:    0.00 PKD
ROOT
HETATM    1  C   UNL     1      -7.828  13.642  67.140  1.00  0.00    -0.028 C  
HETATM    2  C   UNL     1      -8.885  12.559  66.953  1.00  0.00    -0.203 C  
ENDROOT
BRANCH   2   3
HETATM    3  C   UNL     1      -9.884  12.474  68.129  1.00  0.00    -0.221 C  
HETATM    4  C   UNL     1      -9.714  11.179  68.927  1.00  0.00    -0.150 C  
HETATM    5  N   UNL     1     -10.492  10.218  68.179  1.00  0.00    -0.177 N  
HETATM    6  C   UNL     1     -11.388  12.406  67.721  1.00  0.00    -0.356 C  
HETATM    7  C   UNL     1     -11.631  10.879  67.560  1.00  0.00    -0.014 C  
BRANCH   5   8
HETATM    8  C   UNL     1     -10.025   8.945  67.971  1.00  0.00    -0.178 C  
HETATM    9  O   UNL     1     -10.661   8.089  67.365  1.00  0.00    -0.282 OA 
BRANCH   8  10
HETATM   10  N   UNL     1      -8.777   8.685  68.466  1.00  0.00    -0.138 N  
HETATM   11  H   UNL     1      -8.503   9.051  69.378  1.00  0.00     0.000 HD 
BRANCH  10  12
HETATM   12  C   UNL     1      -7.831   7.880  67.687  1.00  0.00    -0.122 C  
HETATM   13  F   UNL     1      -6.906  10.004  67.056  1.00  0.00    -0.080 F  
HETATM   14  C   UNL     1      -6.740   8.666  66.946  1.00  0.00    -0.065 C  
HETATM   15  F   UNL     1      -5.501   8.358  67.380  1.00  0.00    -0.034 F  
HETATM   16  F   UNL     1      -6.785   8.377  65.619  1.00  0.00    -0.053 F  
ENDBRANCH  10  12
ENDBRANCH   8  10
ENDBRANCH   5   8
BRANCH   6  17
HETATM   17  C   UNL     1     -11.779  13.199  66.502  1.00  0.00    -0.382 A  
HETATM   18  N   UNL     1     -12.361  13.775  64.356  1.00  0.00    -0.605 NA 
HETATM   19  C   UNL     1     -12.405  12.804  65.323  1.00  0.00    -0.488 A  
HETATM   20  C   UNL     1     -11.753  14.781  64.943  1.00  0.00    -0.390 A  
HETATM   21  C   UNL     1     -11.350  16.034  64.336  1.00  0.00    -0.245 A  
HETATM   22  N   UNL     1     -10.776  17.003  65.010  1.00  0.00    -0.693 NA 
HETATM   23  C   UNL     1     -10.629  16.729  66.335  1.00  0.00    -0.192 A  
HETATM   24  C   UNL     1     -10.974  15.590  67.039  1.00  0.00    -0.283 A  
HETATM   25  C   UNL     1     -10.728  15.795  68.404  1.00  0.00    -0.281 A  
HETATM   26  N   UNL     1     -11.505  14.534  66.278  1.00  0.00    -0.353 NA 
HETATM   27  C   UNL     1     -10.140  17.044  68.495  1.00  0.00    -0.303 A  
HETATM   28  N   UNL     1     -10.066  17.593  67.233  1.00  0.00    -0.318 NA 
HETATM   29  H   UNL     1      -9.656  18.499  67.006  1.00  0.00     0.000 HD 
ENDBRANCH   6  17
ENDBRANCH   2   3
TORSDOF 5
ENDMDL
MODEL       81
REMARK 921   NORMALIZED FREE ENERGY PREDICTED BY IDOCK:   -5.73 KCAL/MOL
REMARK 922        TOTAL FREE ENERGY PREDICTED BY IDOCK:   -7.63 KCAL/MOL
REMARK 923 INTER-LIGAND FREE ENERGY PREDICTED BY IDOCK:   -6.69 KCAL/MOL
REMARK 924 INTRA-LIGAND FREE ENERGY PREDICTED BY IDOCK:   -0.94 KCAL/MOL
REMARK 927      BINDING AFFINITY PREDICTED BY RF-SCORE:    0.00 PKD
ROOT
HETATM    1  C   UNL     1      -6.953   9.655  70.562  1.00  0.00    -0.133 C  
HETATM    2  C   UNL     1      -8.245   9.948  69.806  1.00  0.00    -0.191 C  
ENDROOT
BRANCH   2   3
HETATM    3  C   UNL     1      -9.514   9.708  70.654  1.00  0.00    -0.190 C  
HETATM    4  C   UNL     1      -9.364   8.493  71.572  1.00  0.00    -0.222 C  
HETATM    5  N   UNL     1      -9.709   7.380  70.717  1.00  0.00    -0.171 N  
HETATM    6  C   UNL     1     -10.797   9.343  69.843  1.00  0.00    -0.259 C  
HETATM    7  C   UNL     1     -10.712   7.793  69.748  1.00  0.00    -0.236 C  
BRANCH   5   8
HETATM    8  C   UNL     1      -8.987   6.213  70.756  1.00  0.00    -0.143 C  
HETATM    9  O   UNL     1      -8.289   5.827  69.825  1.00  0.00    -0.109 OA 
BRANCH   8  10
HETATM   10  N   UNL     1      -9.073   5.503  71.922  1.00  0.00    -0.138 N  
HETATM   11  H   UNL     1      -8.385   5.650  72.660  1.00  0.00     0.000 HD 
BRANCH  10  12
HETATM   12  C   UNL     1     -10.155   4.533  72.112  1.00  0.00    -0.195 C  
HETATM   13  F   UNL     1     -10.662   5.833  74.066  1.00  0.00    -0.260 F  
HETATM   14  C   UNL     1     -11.078   4.789  73.311  1.00  0.00    -0.333 C  
HETATM   15  F   UNL     1     -12.353   5.023  72.937  1.00  0.00    -0.300 F  
HETATM   16  F   UNL     1     -11.090   3.702  74.125  1.00  0.00    -0.256 F  
ENDBRANCH  10  12
ENDBRANCH   8  10
ENDBRANCH   5   8
BRANCH   6  17
HETATM   17  C   UNL     1     -10.943  10.011  68.502  1.00  0.00    -0.209 A  
HETATM   18  N   UNL     1     -10.702  10.546  66.282  1.00  0.00    -0.127 NA 
HETATM   19  C   UNL     1     -10.666   9.547  67.220  1.00  0.00    -0.199 A  
HETATM   20  C   UNL     1     -11.041  11.614  66.968  1.00  0.00    -0.302 A  
HETATM   21  C   UNL     1     -11.123  12.977  66.481  1.00  0.00    -0.288 A  
HETATM   22  N   UNL     1     -11.507  13.983  67.232  1.00  0.00    -0.330 NA 
HETATM   23  C   UNL     1     -11.853  13.615  68.495  1.00  0.00    -0.371 A  
HETATM   24  C   UNL     1     -11.833  12.363  69.081  1.00  0.00    -0.300 A  
HETATM   25  C   UNL     1     -12.372  12.445  70.373  1.00  0.00    -0.307 A  
HETATM   26  N   UNL     1     -11.333  11.318  68.284  1.00  0.00    -0.262 NA 
HETATM   27  C   UNL     1     -12.630  13.788  70.586  1.00  0.00    -0.315 A  
HETATM   28  N   UNL     1     -12.292  14.491  69.449  1.00  0.00    -0.541 NA 
HETATM   29  H   UNL     1     -12.360  15.503  69.338  1.00  0.00     0.000 HD 
ENDBRANCH   6  17
ENDBRANCH   2   3
TORSDOF 5
ENDMDL
MODEL       82
REMARK 921   NORMALIZED FREE ENERGY PREDICTED BY IDOCK:   -5.70 KCAL/MOL
REMARK 922        TOTAL FREE ENERGY PREDICTED BY IDOCK:   -7.59 KCAL/MOL
REMARK 923 INTER-LIGAND FREE ENERGY PREDICTED BY IDOCK:   -7.75 KCAL/MOL
REMARK 924 INTRA-LIGAND FREE ENERGY PREDICTED BY IDOCK:    0.15 KCAL/MOL
REMARK 927      BINDING AFFINITY PREDICTED BY RF-SCORE:    0.00 PKD
ROOT
HETATM    1  C   UNL     1     -11.180   7.039  70.273  1.00  0.00    -0.339 C  
HETATM    2  C   UNL     1     -10.780   8.010  69.168  1.00  0.00    -0.121 C  
ENDROOT
BRANCH   2   3
HETATM    3  C   UNL     1     -10.071   9.276  69.697  1.00  0.00    -0.208 C  
HETATM    4  C   UNL     1     -10.668   9.750  71.025  1.00  0.00    -0.272 C  
HETATM    5  N   UNL     1     -11.807  10.541  70.619  1.00  0.00    -0.333 N  
HETATM    6  C   UNL     1     -10.224  10.547  68.804  1.00  0.00    -0.205 C  
HETATM    7  C   UNL     1     -11.528  11.194  69.349  1.00  0.00    -0.298 C  
BRANCH   5   8
HETATM    8  C   UNL     1     -13.001  10.451  71.291  1.00  0.00    -0.419 C  
HETATM    9  O   UNL     1     -13.853   9.608  71.032  1.00  0.00    -0.219 OA 
BRANCH   8  10
HETATM   10  N   UNL     1     -13.180  11.357  72.300  1.00  0.00    -0.509 N  
HETATM   11  H   UNL     1     -12.676  11.247  73.180  1.00  0.00     0.000 HD 
BRANCH  10  12
HETATM   12  C   UNL     1     -14.097  12.486  72.117  1.00  0.00     0.260 C  
HETATM   13  F   UNL     1     -12.089  13.804  72.067  1.00  0.00    -0.213 F  
HETATM   14  C   UNL     1     -13.434  13.858  71.926  1.00  0.00    -0.427 C  
HETATM   15  F   UNL     1     -13.709  14.398  70.720  1.00  0.00    -0.361 F  
HETATM   16  F   UNL     1     -13.888  14.725  72.868  1.00  0.00    -0.499 F  
ENDBRANCH  10  12
ENDBRANCH   8  10
ENDBRANCH   5   8
BRANCH   6  17
HETATM   17  C   UNL     1     -10.257  10.310  67.318  1.00  0.00    -0.218 A  
HETATM   18  N   UNL     1      -9.884   9.430  65.230  1.00  0.00    -0.143 NA 
HETATM   19  C   UNL     1      -9.977   9.168  66.572  1.00  0.00    -0.288 A  
HETATM   20  C   UNL     1     -10.147  10.714  65.136  1.00  0.00    -0.307 A  
HETATM   21  C   UNL     1     -10.083  11.536  63.944  1.00  0.00    -0.345 A  
HETATM   22  N   UNL     1     -10.399  12.809  63.936  1.00  0.00    -0.398 NA 
HETATM   23  C   UNL     1     -10.825  13.270  65.143  1.00  0.00    -0.310 A  
HETATM   24  C   UNL     1     -10.944  12.600  66.346  1.00  0.00    -0.272 A  
HETATM   25  C   UNL     1     -11.521  13.452  67.299  1.00  0.00    -0.374 A  
HETATM   26  N   UNL     1     -10.514  11.261  66.349  1.00  0.00    -0.249 NA 
HETATM   27  C   UNL     1     -11.659  14.677  66.670  1.00  0.00    -0.350 A  
HETATM   28  N   UNL     1     -11.216  14.561  65.370  1.00  0.00    -0.329 NA 
HETATM   29  H   UNL     1     -11.184  15.318  64.687  1.00  0.00     0.000 HD 
ENDBRANCH   6  17
ENDBRANCH   2   3
TORSDOF 5
ENDMDL
MODEL       83
REMARK 921   NORMALIZED FREE ENERGY PREDICTED BY IDOCK:   -5.70 KCAL/MOL
REMARK 922        TOTAL FREE ENERGY PREDICTED BY IDOCK:   -7.59 KCAL/MOL
REMARK 923 INTER-LIGAND FREE ENERGY PREDICTED BY IDOCK:   -6.74 KCAL/MOL
REMARK 924 INTRA-LIGAND FREE ENERGY PREDICTED BY IDOCK:   -0.84 KCAL/MOL
REMARK 927      BINDING AFFINITY PREDICTED BY RF-SCORE:    0.00 PKD
ROOT
HETATM    1  C   UNL     1     -10.313   5.332  69.455  1.00  0.00    -0.333 C  
HETATM    2  C   UNL     1     -10.957   6.625  69.943  1.00  0.00    -0.373 C  
ENDROOT
BRANCH   2   3
HETATM    3  C   UNL     1     -11.845   6.429  71.193  1.00  0.00    -0.325 C  
HETATM    4  C   UNL     1     -12.992   7.441  71.241  1.00  0.00    -0.310 C  
HETATM    5  N   UNL     1     -12.386   8.609  71.839  1.00  0.00    -0.330 N  
HETATM    6  C   UNL     1     -11.135   6.681  72.560  1.00  0.00    -0.296 C  
HETATM    7  C   UNL     1     -11.360   8.203  72.786  1.00  0.00    -0.336 C  
BRANCH   5   8
HETATM    8  C   UNL     1     -12.658   9.866  71.360  1.00  0.00    -0.398 C  
HETATM    9  O   UNL     1     -13.139  10.757  72.052  1.00  0.00    -0.483 OA 
BRANCH   8  10
HETATM   10  N   UNL     1     -12.337  10.081  70.048  1.00  0.00    -0.501 N  
HETATM   11  H   UNL     1     -12.429   9.324  69.370  1.00  0.00     0.000 HD 
BRANCH  10  12
HETATM   12  C   UNL     1     -11.861  11.397  69.615  1.00  0.00    -0.362 C  
HETATM   13  F   UNL     1     -11.417  10.291  67.530  1.00  0.00    -0.370 F  
HETATM   14  C   UNL     1     -11.402  11.492  68.153  1.00  0.00    -0.298 C  
HETATM   15  F   UNL     1     -12.155  12.350  67.433  1.00  0.00    -0.418 F  
HETATM   16  F   UNL     1     -10.120  11.941  68.100  1.00  0.00    -0.175 F  
ENDBRANCH  10  12
ENDBRANCH   8  10
ENDBRANCH   5   8
BRANCH   6  17
HETATM   17  C   UNL     1      -9.687   6.278  72.637  1.00  0.00    -0.158 A  
HETATM   18  N   UNL     1      -7.401   6.267  72.417  1.00  0.00    -0.091 NA 
HETATM   19  C   UNL     1      -8.525   7.040  72.544  1.00  0.00    -0.112 A  
HETATM   20  C   UNL     1      -7.854   5.035  72.473  1.00  0.00    -0.097 A  
HETATM   21  C   UNL     1      -7.095   3.814  72.285  1.00  0.00    -0.047 A  
HETATM   22  N   UNL     1      -7.625   2.618  72.395  1.00  0.00    -0.051 NA 
HETATM   23  C   UNL     1      -8.942   2.638  72.737  1.00  0.00    -0.078 A  
HETATM   24  C   UNL     1      -9.776   3.720  72.956  1.00  0.00    -0.127 A  
HETATM   25  C   UNL     1     -11.029   3.261  73.387  1.00  0.00    -0.301 A  
HETATM   26  N   UNL     1      -9.206   4.988  72.744  1.00  0.00    -0.132 NA 
HETATM   27  C   UNL     1     -10.961   1.880  73.331  1.00  0.00    -0.162 A  
HETATM   28  N   UNL     1      -9.699   1.513  72.917  1.00  0.00    -0.080 NA 
HETATM   29  H   UNL     1      -9.380   0.556  72.769  1.00  0.00     0.000 HD 
ENDBRANCH   6  17
ENDBRANCH   2   3
TORSDOF 5
ENDMDL
MODEL       84
REMARK 921   NORMALIZED FREE ENERGY PREDICTED BY IDOCK:   -5.69 KCAL/MOL
REMARK 922        TOTAL FREE ENERGY PREDICTED BY IDOCK:   -7.57 KCAL/MOL
REMARK 923 INTER-LIGAND FREE ENERGY PREDICTED BY IDOCK:   -6.78 KCAL/MOL
REMARK 924 INTRA-LIGAND FREE ENERGY PREDICTED BY IDOCK:   -0.79 KCAL/MOL
REMARK 927      BINDING AFFINITY PREDICTED BY RF-SCORE:    0.00 PKD
ROOT
HETATM    1  C   UNL     1      -7.863  10.114  69.724  1.00  0.00    -0.175 C  
HETATM    2  C   UNL     1      -8.878  11.193  69.362  1.00  0.00     0.306 C  
ENDROOT
BRANCH   2   3
HETATM    3  C   UNL     1     -10.323  10.657  69.252  1.00  0.00    -0.240 C  
HETATM    4  C   UNL     1     -10.375   9.304  68.539  1.00  0.00    -0.209 C  
HETATM    5  N   UNL     1     -10.387   9.661  67.139  1.00  0.00    -0.245 N  
HETATM    6  C   UNL     1     -11.288  11.519  68.380  1.00  0.00    -0.342 C  
HETATM    7  C   UNL     1     -11.086  10.924  66.957  1.00  0.00    -0.202 C  
BRANCH   5   8
HETATM    8  C   UNL     1      -9.640   8.959  66.227  1.00  0.00    -0.260 C  
HETATM    9  O   UNL     1      -8.756   9.471  65.549  1.00  0.00    -0.137 OA 
BRANCH   8  10
HETATM   10  N   UNL     1      -9.925   7.624  66.132  1.00  0.00    -0.440 N  
HETATM   11  H   UNL     1     -10.692   7.308  65.540  1.00  0.00     0.000 HD 
BRANCH  10  12
HETATM   12  C   UNL     1      -9.128   6.649  66.881  1.00  0.00    -0.136 C  
HETATM   13  F   UNL     1     -11.228   6.050  67.879  1.00  0.00    -0.367 F  
HETATM   14  C   UNL     1      -9.915   5.727  67.822  1.00  0.00    -0.140 C  
HETATM   15  F   UNL     1      -9.817   4.428  67.469  1.00  0.00    -0.195 F  
HETATM   16  F   UNL     1      -9.432   5.837  69.087  1.00  0.00    -0.123 F  
ENDBRANCH  10  12
ENDBRANCH   8  10
ENDBRANCH   5   8
BRANCH   6  17
HETATM   17  C   UNL     1     -11.076  13.008  68.434  1.00  0.00    -0.262 A  
HETATM   18  N   UNL     1     -10.224  15.114  68.098  1.00  0.00    -0.225 NA 
HETATM   19  C   UNL     1     -10.400  13.863  67.567  1.00  0.00    -0.245 A  
HETATM   20  C   UNL     1     -10.823  15.052  69.266  1.00  0.00    -0.261 A  
HETATM   21  C   UNL     1     -10.850  16.076  70.291  1.00  0.00    -0.321 A  
HETATM   22  N   UNL     1     -11.506  15.942  71.419  1.00  0.00    -0.417 NA 
HETATM   23  C   UNL     1     -12.186  14.767  71.515  1.00  0.00    -0.347 A  
HETATM   24  C   UNL     1     -12.255  13.718  70.616  1.00  0.00    -0.363 A  
HETATM   25  C   UNL     1     -13.157  12.756  71.093  1.00  0.00    -0.155 A  
HETATM   26  N   UNL     1     -11.471  13.849  69.456  1.00  0.00    -0.275 NA 
HETATM   27  C   UNL     1     -13.557  13.203  72.340  1.00  0.00    -0.567 A  
HETATM   28  N   UNL     1     -12.947  14.413  72.595  1.00  0.00    -0.433 NA 
HETATM   29  H   UNL     1     -13.047  14.956  73.452  1.00  0.00     0.000 HD 
ENDBRANCH   6  17
ENDBRANCH   2   3
TORSDOF 5
ENDMDL
MODEL       85
REMARK 921   NORMALIZED FREE ENERGY PREDICTED BY IDOCK:   -5.64 KCAL/MOL
REMARK 922        TOTAL FREE ENERGY PREDICTED BY IDOCK:   -7.51 KCAL/MOL
REMARK 923 INTER-LIGAND FREE ENERGY PREDICTED BY IDOCK:   -6.52 KCAL/MOL
REMARK 924 INTRA-LIGAND FREE ENERGY PREDICTED BY IDOCK:   -1.00 KCAL/MOL
REMARK 927      BINDING AFFINITY PREDICTED BY RF-SCORE:    0.00 PKD
ROOT
HETATM    1  C   UNL     1      -7.505  10.501  65.612  1.00  0.00    -0.129 C  
HETATM    2  C   UNL     1      -8.557  10.671  66.702  1.00  0.00    -0.139 C  
ENDROOT
BRANCH   2   3
HETATM    3  C   UNL     1      -9.979  10.276  66.243  1.00  0.00    -0.295 C  
HETATM    4  C   UNL     1     -10.636  11.381  65.413  1.00  0.00    -0.275 C  
HETATM    5  N   UNL     1     -11.190  12.268  66.411  1.00  0.00    -0.306 N  
HETATM    6  C   UNL     1     -11.017  10.075  67.391  1.00  0.00    -0.258 C  
HETATM    7  C   UNL     1     -11.602  11.503  67.577  1.00  0.00    -0.246 C  
BRANCH   5   8
HETATM    8  C   UNL     1     -11.098  13.630  66.270  1.00  0.00    -0.301 C  
HETATM    9  O   UNL     1     -11.944  14.407  66.700  1.00  0.00    -0.407 OA 
BRANCH   8  10
HETATM   10  N   UNL     1      -9.976  14.084  65.633  1.00  0.00    -0.432 N  
HETATM   11  H   UNL     1      -9.421  13.446  65.061  1.00  0.00     0.000 HD 
BRANCH  10  12
HETATM   12  C   UNL     1      -9.571  15.486  65.769  1.00  0.00    -0.332 C  
HETATM   13  F   UNL     1      -8.117  14.653  67.490  1.00  0.00    -0.135 F  
HETATM   14  C   UNL     1      -8.463  15.762  66.796  1.00  0.00    -0.269 C  
HETATM   15  F   UNL     1      -7.349  16.267  66.226  1.00  0.00    -0.247 F  
HETATM   16  F   UNL     1      -8.896  16.672  67.708  1.00  0.00    -0.197 F  
ENDBRANCH  10  12
ENDBRANCH   8  10
ENDBRANCH   5   8
BRANCH   6  17
HETATM   17  C   UNL     1     -10.484   9.482  68.668  1.00  0.00    -0.211 A  
HETATM   18  N   UNL     1      -9.482   9.238  70.720  1.00  0.00    -0.267 NA 
HETATM   19  C   UNL     1     -10.176  10.078  69.888  1.00  0.00    -0.260 A  
HETATM   20  C   UNL     1      -9.398   8.116  70.042  1.00  0.00    -0.159 A  
HETATM   21  C   UNL     1      -8.670   6.920  70.416  1.00  0.00    -0.147 A  
HETATM   22  N   UNL     1      -8.669   5.826  69.691  1.00  0.00    -0.121 NA 
HETATM   23  C   UNL     1      -9.445   5.915  68.576  1.00  0.00    -0.121 A  
HETATM   24  C   UNL     1     -10.193   6.980  68.110  1.00  0.00    -0.181 A  
HETATM   25  C   UNL     1     -10.912   6.581  66.974  1.00  0.00    -0.466 A  
HETATM   26  N   UNL     1     -10.105   8.168  68.858  1.00  0.00    -0.197 NA 
HETATM   27  C   UNL     1     -10.509   5.284  66.712  1.00  0.00    -0.273 A  
HETATM   28  N   UNL     1      -9.604   4.896  67.677  1.00  0.00    -0.144 NA 
HETATM   29  H   UNL     1      -9.130   3.994  67.715  1.00  0.00     0.000 HD 
ENDBRANCH   6  17
ENDBRANCH   2   3
TORSDOF 5
ENDMDL
MODEL       86
REMARK 921   NORMALIZED FREE ENERGY PREDICTED BY IDOCK:   -5.64 KCAL/MOL
REMARK 922        TOTAL FREE ENERGY PREDICTED BY IDOCK:   -7.51 KCAL/MOL
REMARK 923 INTER-LIGAND FREE ENERGY PREDICTED BY IDOCK:   -8.23 KCAL/MOL
REMARK 924 INTRA-LIGAND FREE ENERGY PREDICTED BY IDOCK:    0.72 KCAL/MOL
REMARK 927      BINDING AFFINITY PREDICTED BY RF-SCORE:    0.00 PKD
ROOT
HETATM    1  C   UNL     1     -11.827  15.248  71.278  1.00  0.00    -0.416 C  
HETATM    2  C   UNL     1     -10.934  15.543  70.078  1.00  0.00    -0.331 C  
ENDROOT
BRANCH   2   3
HETATM    3  C   UNL     1     -11.723  15.732  68.764  1.00  0.00    -0.387 C  
HETATM    4  C   UNL     1     -11.988  14.398  68.062  1.00  0.00    -0.291 C  
HETATM    5  N   UNL     1     -10.773  14.164  67.314  1.00  0.00    -0.277 N  
HETATM    6  C   UNL     1     -10.983  16.540  67.653  1.00  0.00    -0.207 C  
HETATM    7  C   UNL     1     -10.204  15.433  66.886  1.00  0.00    -0.273 C  
BRANCH   5   8
HETATM    8  C   UNL     1     -10.213  12.912  67.256  1.00  0.00    -0.234 C  
HETATM    9  O   UNL     1      -9.626  12.398  68.202  1.00  0.00    -0.208 OA 
BRANCH   8  10
HETATM   10  N   UNL     1     -10.369  12.249  66.071  1.00  0.00    -0.240 N  
HETATM   11  H   UNL     1     -10.382  11.229  66.055  1.00  0.00     0.000 HD 
BRANCH  10  12
HETATM   12  C   UNL     1     -10.519  13.002  64.823  1.00  0.00    -0.363 C  
HETATM   13  F   UNL     1     -12.852  12.486  65.066  1.00  0.00    -0.554 F  
HETATM   14  C   UNL     1     -11.958  13.168  64.313  1.00  0.00    -0.411 C  
HETATM   15  F   UNL     1     -12.342  14.461  64.273  1.00  0.00    -0.463 F  
HETATM   16  F   UNL     1     -12.060  12.679  63.050  1.00  0.00    -0.543 F  
ENDBRANCH  10  12
ENDBRANCH   8  10
ENDBRANCH   5   8
BRANCH   6  17
HETATM   17  C   UNL     1     -10.100  17.662  68.128  1.00  0.00    -0.347 A  
HETATM   18  N   UNL     1      -9.178  19.742  68.447  1.00  0.00    -0.329 NA 
HETATM   19  C   UNL     1     -10.322  19.035  68.179  1.00  0.00    -0.368 A  
HETATM   20  C   UNL     1      -8.261  18.814  68.605  1.00  0.00    -0.329 A  
HETATM   21  C   UNL     1      -6.840  19.014  68.805  1.00  0.00    -0.300 A  
HETATM   22  N   UNL     1      -5.997  18.025  68.990  1.00  0.00    -0.208 NA 
HETATM   23  C   UNL     1      -6.593  16.802  69.011  1.00  0.00    -0.205 A  
HETATM   24  C   UNL     1      -7.926  16.472  68.846  1.00  0.00    -0.239 A  
HETATM   25  C   UNL     1      -8.093  15.094  69.047  1.00  0.00    -0.191 A  
HETATM   26  N   UNL     1      -8.793  17.541  68.560  1.00  0.00    -0.281 NA 
HETATM   27  C   UNL     1      -6.820  14.588  69.243  1.00  0.00    -0.134 A  
HETATM   28  N   UNL     1      -5.916  15.628  69.199  1.00  0.00    -0.107 NA 
HETATM   29  H   UNL     1      -4.905  15.537  69.292  1.00  0.00     0.000 HD 
ENDBRANCH   6  17
ENDBRANCH   2   3
TORSDOF 5
ENDMDL
MODEL       87
REMARK 921   NORMALIZED FREE ENERGY PREDICTED BY IDOCK:   -5.64 KCAL/MOL
REMARK 922        TOTAL FREE ENERGY PREDICTED BY IDOCK:   -7.51 KCAL/MOL
REMARK 923 INTER-LIGAND FREE ENERGY PREDICTED BY IDOCK:   -8.50 KCAL/MOL
REMARK 924 INTRA-LIGAND FREE ENERGY PREDICTED BY IDOCK:    0.99 KCAL/MOL
REMARK 927      BINDING AFFINITY PREDICTED BY RF-SCORE:    0.00 PKD
ROOT
HETATM    1  C   UNL     1      -8.192  12.572  67.369  1.00  0.00    -0.183 C  
HETATM    2  C   UNL     1      -7.929  13.970  67.917  1.00  0.00    -0.158 C  
ENDROOT
BRANCH   2   3
HETATM    3  C   UNL     1      -9.044  14.473  68.861  1.00  0.00    -0.111 C  
HETATM    4  C   UNL     1     -10.420  13.942  68.453  1.00  0.00    -0.247 C  
HETATM    5  N   UNL     1     -10.849  14.870  67.431  1.00  0.00    -0.296 N  
HETATM    6  C   UNL     1      -9.278  16.016  68.853  1.00  0.00    -0.233 C  
HETATM    7  C   UNL     1     -10.325  16.196  67.717  1.00  0.00    -0.283 C  
BRANCH   5   8
HETATM    8  C   UNL     1     -11.473  14.424  66.293  1.00  0.00    -0.359 C  
HETATM    9  O   UNL     1     -11.803  15.167  65.375  1.00  0.00    -0.184 OA 
BRANCH   8  10
HETATM   10  N   UNL     1     -11.690  13.075  66.228  1.00  0.00    -0.367 N  
HETATM   11  H   UNL     1     -11.410  12.475  67.004  1.00  0.00     0.000 HD 
BRANCH  10  12
HETATM   12  C   UNL     1     -12.326  12.490  65.044  1.00  0.00    -0.453 C  
HETATM   13  F   UNL     1     -10.190  12.854  64.007  1.00  0.00    -0.397 F  
HETATM   14  C   UNL     1     -11.420  12.323  63.816  1.00  0.00    -0.466 C  
HETATM   15  F   UNL     1     -11.270  11.030  63.460  1.00  0.00    -0.399 F  
HETATM   16  F   UNL     1     -11.962  12.972  62.752  1.00  0.00    -0.466 F  
ENDBRANCH  10  12
ENDBRANCH   8  10
ENDBRANCH   5   8
BRANCH   6  17
HETATM   17  C   UNL     1      -8.052  16.870  68.669  1.00  0.00    -0.253 A  
HETATM   18  N   UNL     1      -5.994  17.843  68.970  1.00  0.00    -0.203 NA 
HETATM   19  C   UNL     1      -6.759  16.721  69.161  1.00  0.00    -0.223 A  
HETATM   20  C   UNL     1      -6.791  18.666  68.326  1.00  0.00    -0.242 A  
HETATM   21  C   UNL     1      -6.520  20.043  67.964  1.00  0.00    -0.255 A  
HETATM   22  N   UNL     1      -7.365  20.784  67.287  1.00  0.00    -0.348 NA 
HETATM   23  C   UNL     1      -8.499  20.124  66.929  1.00  0.00    -0.314 A  
HETATM   24  C   UNL     1      -8.878  18.821  67.196  1.00  0.00    -0.278 A  
HETATM   25  C   UNL     1     -10.086  18.544  66.541  1.00  0.00    -0.425 A  
HETATM   26  N   UNL     1      -7.996  18.076  67.999  1.00  0.00    -0.248 NA 
HETATM   27  C   UNL     1     -10.475  19.734  65.953  1.00  0.00    -0.486 A  
HETATM   28  N   UNL     1      -9.516  20.691  66.211  1.00  0.00    -0.621 NA 
HETATM   29  H   UNL     1      -9.558  21.665  65.914  1.00  0.00     0.000 HD 
ENDBRANCH   6  17
ENDBRANCH   2   3
TORSDOF 5
ENDMDL
MODEL       88
REMARK 921   NORMALIZED FREE ENERGY PREDICTED BY IDOCK:   -5.63 KCAL/MOL
REMARK 922        TOTAL FREE ENERGY PREDICTED BY IDOCK:   -7.49 KCAL/MOL
REMARK 923 INTER-LIGAND FREE ENERGY PREDICTED BY IDOCK:   -6.52 KCAL/MOL
REMARK 924 INTRA-LIGAND FREE ENERGY PREDICTED BY IDOCK:   -0.97 KCAL/MOL
REMARK 927      BINDING AFFINITY PREDICTED BY RF-SCORE:    0.00 PKD
ROOT
HETATM    1  C   UNL     1      -6.994  10.030  70.114  1.00  0.00    -0.148 C  
HETATM    2  C   UNL     1      -8.167  10.206  69.155  1.00  0.00    -0.145 C  
ENDROOT
BRANCH   2   3
HETATM    3  C   UNL     1      -9.252   9.117  69.315  1.00  0.00    -0.146 C  
HETATM    4  C   UNL     1      -8.765   7.751  68.826  1.00  0.00    -0.128 C  
HETATM    5  N   UNL     1      -9.003   7.799  67.401  1.00  0.00    -0.123 N  
HETATM    6  C   UNL     1     -10.537   9.328  68.455  1.00  0.00    -0.222 C  
HETATM    7  C   UNL     1     -10.180   8.608  67.124  1.00  0.00    -0.283 C  
BRANCH   5   8
HETATM    8  C   UNL     1      -8.079   7.303  66.516  1.00  0.00    -0.114 C  
HETATM    9  O   UNL     1      -6.869   7.375  66.701  1.00  0.00    -0.059 OA 
BRANCH   8  10
HETATM   10  N   UNL     1      -8.593   6.690  65.406  1.00  0.00    -0.300 N  
HETATM   11  H   UNL     1      -8.911   7.251  64.616  1.00  0.00     0.000 HD 
BRANCH  10  12
HETATM   12  C   UNL     1      -8.686   5.229  65.352  1.00  0.00    -0.150 C  
HETATM   13  F   UNL     1     -10.945   5.580  66.087  1.00  0.00    -0.301 F  
HETATM   14  C   UNL     1     -10.062   4.636  65.687  1.00  0.00    -0.218 C  
HETATM   15  F   UNL     1     -10.601   3.969  64.646  1.00  0.00    -0.232 F  
HETATM   16  F   UNL     1      -9.946   3.753  66.713  1.00  0.00    -0.231 F  
ENDBRANCH  10  12
ENDBRANCH   8  10
ENDBRANCH   5   8
BRANCH   6  17
HETATM   17  C   UNL     1     -10.974  10.755  68.258  1.00  0.00    -0.255 A  
HETATM   18  N   UNL     1     -11.101  12.926  67.519  1.00  0.00    -0.258 NA 
HETATM   19  C   UNL     1     -10.742  11.640  67.208  1.00  0.00    -0.238 A  
HETATM   20  C   UNL     1     -11.592  12.835  68.735  1.00  0.00    -0.312 A  
HETATM   21  C   UNL     1     -12.027  13.923  69.587  1.00  0.00    -0.342 A  
HETATM   22  N   UNL     1     -12.540  13.736  70.780  1.00  0.00    -0.346 NA 
HETATM   23  C   UNL     1     -12.656  12.424  71.121  1.00  0.00    -0.251 A  
HETATM   24  C   UNL     1     -12.295  11.297  70.407  1.00  0.00    -0.329 A  
HETATM   25  C   UNL     1     -12.695  10.152  71.111  1.00  0.00    -0.494 A  
HETATM   26  N   UNL     1     -11.665  11.527  69.171  1.00  0.00    -0.300 NA 
HETATM   27  C   UNL     1     -13.219  10.612  72.306  1.00  0.00    -0.106 A  
HETATM   28  N   UNL     1     -13.172  11.990  72.311  1.00  0.00    -0.487 NA 
HETATM   29  H   UNL     1     -13.474  12.589  73.079  1.00  0.00     0.000 HD 
ENDBRANCH   6  17
ENDBRANCH   2   3
TORSDOF 5
ENDMDL
MODEL       89
REMARK 921   NORMALIZED FREE ENERGY PREDICTED BY IDOCK:   -5.60 KCAL/MOL
REMARK 922        TOTAL FREE ENERGY PREDICTED BY IDOCK:   -7.46 KCAL/MOL
REMARK 923 INTER-LIGAND FREE ENERGY PREDICTED BY IDOCK:   -6.95 KCAL/MOL
REMARK 924 INTRA-LIGAND FREE ENERGY PREDICTED BY IDOCK:   -0.51 KCAL/MOL
REMARK 927      BINDING AFFINITY PREDICTED BY RF-SCORE:    0.00 PKD
ROOT
HETATM    1  C   UNL     1     -11.940  14.748  64.372  1.00  0.00    -0.433 C  
HETATM    2  C   UNL     1     -11.654  14.355  65.817  1.00  0.00    -0.353 C  
ENDROOT
BRANCH   2   3
HETATM    3  C   UNL     1     -10.177  13.973  66.063  1.00  0.00    -0.313 C  
HETATM    4  C   UNL     1     -10.034  12.524  66.532  1.00  0.00    -0.244 C  
HETATM    5  N   UNL     1     -10.264  12.607  67.957  1.00  0.00    -0.224 N  
HETATM    6  C   UNL     1      -9.471  14.756  67.214  1.00  0.00    -0.217 C  
HETATM    7  C   UNL     1      -9.780  13.882  68.462  1.00  0.00    -0.202 C  
BRANCH   5   8
HETATM    8  C   UNL     1     -11.024  11.664  68.603  1.00  0.00    -0.220 C  
HETATM    9  O   UNL     1     -12.165  11.373  68.259  1.00  0.00    -0.588 OA 
BRANCH   8  10
HETATM   10  N   UNL     1     -10.419  11.037  69.656  1.00  0.00    -0.447 N  
HETATM   11  H   UNL     1      -9.804  11.563  70.278  1.00  0.00     0.000 HD 
BRANCH  10  12
HETATM   12  C   UNL     1     -10.652   9.609  69.894  1.00  0.00    -0.249 C  
HETATM   13  F   UNL     1      -9.137   9.296  68.057  1.00  0.00    -0.127 F  
HETATM   14  C   UNL     1      -9.855   8.646  69.002  1.00  0.00    -0.182 C  
HETATM   15  F   UNL     1      -9.012   7.869  69.712  1.00  0.00    -0.141 F  
HETATM   16  F   UNL     1     -10.706   7.818  68.342  1.00  0.00    -0.224 F  
ENDBRANCH  10  12
ENDBRANCH   8  10
ENDBRANCH   5   8
BRANCH   6  17
HETATM   17  C   UNL     1      -9.879  16.195  67.383  1.00  0.00    -0.238 A  
HETATM   18  N   UNL     1     -11.134  18.103  67.621  1.00  0.00    -0.089 NA 
HETATM   19  C   UNL     1     -11.062  16.755  67.856  1.00  0.00    -0.178 A  
HETATM   20  C   UNL     1      -9.987  18.388  67.047  1.00  0.00    -0.342 A  
HETATM   21  C   UNL     1      -9.578  19.664  66.494  1.00  0.00    -0.389 A  
HETATM   22  N   UNL     1      -8.393  19.868  65.967  1.00  0.00    -0.336 NA 
HETATM   23  C   UNL     1      -7.579  18.780  66.026  1.00  0.00    -0.220 A  
HETATM   24  C   UNL     1      -7.835  17.518  66.530  1.00  0.00    -0.276 A  
HETATM   25  C   UNL     1      -6.665  16.747  66.469  1.00  0.00    -0.173 A  
HETATM   26  N   UNL     1      -9.140  17.299  67.006  1.00  0.00    -0.230 NA 
HETATM   27  C   UNL     1      -5.727  17.539  65.831  1.00  0.00    -0.062 A  
HETATM   28  N   UNL     1      -6.297  18.762  65.549  1.00  0.00    -0.256 NA 
HETATM   29  H   UNL     1      -5.836  19.530  65.061  1.00  0.00     0.000 HD 
ENDBRANCH   6  17
ENDBRANCH   2   3
TORSDOF 5
ENDMDL
MODEL       90
REMARK 921   NORMALIZED FREE ENERGY PREDICTED BY IDOCK:   -5.60 KCAL/MOL
REMARK 922        TOTAL FREE ENERGY PREDICTED BY IDOCK:   -7.46 KCAL/MOL
REMARK 923 INTER-LIGAND FREE ENERGY PREDICTED BY IDOCK:   -6.47 KCAL/MOL
REMARK 924 INTRA-LIGAND FREE ENERGY PREDICTED BY IDOCK:   -0.99 KCAL/MOL
REMARK 927      BINDING AFFINITY PREDICTED BY RF-SCORE:    0.00 PKD
ROOT
HETATM    1  C   UNL     1      -7.789  10.195  66.435  1.00  0.00    -0.114 C  
HETATM    2  C   UNL     1      -8.813  10.840  67.363  1.00  0.00    -0.129 C  
ENDROOT
BRANCH   2   3
HETATM    3  C   UNL     1     -10.259  10.364  67.098  1.00  0.00    -0.271 C  
HETATM    4  C   UNL     1     -11.184  11.527  66.733  1.00  0.00    -0.285 C  
HETATM    5  N   UNL     1     -11.580  12.058  68.018  1.00  0.00    -0.328 N  
HETATM    6  C   UNL     1     -10.990   9.743  68.329  1.00  0.00    -0.215 C  
HETATM    7  C   UNL     1     -11.649  10.984  68.996  1.00  0.00    -0.323 C  
BRANCH   5   8
HETATM    8  C   UNL     1     -11.648  13.413  68.228  1.00  0.00    -0.344 C  
HETATM    9  O   UNL     1     -11.377  13.938  69.302  1.00  0.00    -0.253 OA 
BRANCH   8  10
HETATM   10  N   UNL     1     -12.019  14.161  67.144  1.00  0.00    -0.421 N  
HETATM   11  H   UNL     1     -12.848  13.905  66.608  1.00  0.00     0.000 HD 
BRANCH  10  12
HETATM   12  C   UNL     1     -11.227  15.330  66.754  1.00  0.00    -0.241 C  
HETATM   13  F   UNL     1     -10.772  14.064  64.764  1.00  0.00    -0.346 F  
HETATM   14  C   UNL     1     -10.581  15.263  65.363  1.00  0.00    -0.394 C  
HETATM   15  F   UNL     1     -11.042  16.224  64.536  1.00  0.00    -0.469 F  
HETATM   16  F   UNL     1      -9.237  15.434  65.468  1.00  0.00    -0.327 F  
ENDBRANCH  10  12
ENDBRANCH   8  10
ENDBRANCH   5   8
BRANCH   6  17
HETATM   17  C   UNL     1     -10.133   8.947  69.276  1.00  0.00    -0.203 A  
HETATM   18  N   UNL     1      -8.690   8.369  70.967  1.00  0.00    -0.143 NA 
HETATM   19  C   UNL     1      -9.634   9.265  70.536  1.00  0.00    -0.262 A  
HETATM   20  C   UNL     1      -8.635   7.477  70.003  1.00  0.00    -0.139 A  
HETATM   21  C   UNL     1      -7.719   6.359  69.897  1.00  0.00    -0.109 A  
HETATM   22  N   UNL     1      -7.758   5.493  68.911  1.00  0.00    -0.090 NA 
HETATM   23  C   UNL     1      -8.762   5.728  68.023  1.00  0.00    -0.103 A  
HETATM   24  C   UNL     1      -9.703   6.741  68.010  1.00  0.00    -0.124 A  
HETATM   25  C   UNL     1     -10.604   6.525  66.957  1.00  0.00    -0.402 A  
HETATM   26  N   UNL     1      -9.583   7.706  69.026  1.00  0.00    -0.150 NA 
HETATM   27  C   UNL     1     -10.130   5.415  66.280  1.00  0.00    -0.174 A  
HETATM   28  N   UNL     1      -9.002   4.952  66.923  1.00  0.00    -0.109 NA 
HETATM   29  H   UNL     1      -8.437   4.157  66.625  1.00  0.00     0.000 HD 
ENDBRANCH   6  17
ENDBRANCH   2   3
TORSDOF 5
ENDMDL
MODEL       91
REMARK 921   NORMALIZED FREE ENERGY PREDICTED BY IDOCK:   -5.57 KCAL/MOL
REMARK 922        TOTAL FREE ENERGY PREDICTED BY IDOCK:   -7.42 KCAL/MOL
REMARK 923 INTER-LIGAND FREE ENERGY PREDICTED BY IDOCK:   -7.73 KCAL/MOL
REMARK 924 INTRA-LIGAND FREE ENERGY PREDICTED BY IDOCK:    0.31 KCAL/MOL
REMARK 927      BINDING AFFINITY PREDICTED BY RF-SCORE:    0.00 PKD
ROOT
HETATM    1  C   UNL     1      -7.085   9.871  69.957  1.00  0.00    -0.127 C  
HETATM    2  C   UNL     1      -8.470  10.380  69.574  1.00  0.00    -0.115 C  
ENDROOT
BRANCH   2   3
HETATM    3  C   UNL     1      -8.861  10.043  68.117  1.00  0.00    -0.122 C  
HETATM    4  C   UNL     1      -9.146  11.303  67.298  1.00  0.00    -0.156 C  
HETATM    5  N   UNL     1     -10.525  11.604  67.612  1.00  0.00    -0.187 N  
HETATM    6  C   UNL     1     -10.191   9.243  67.954  1.00  0.00    -0.263 C  
HETATM    7  C   UNL     1     -11.257  10.371  67.852  1.00  0.00    -0.263 C  
BRANCH   5   8
HETATM    8  C   UNL     1     -10.929  12.897  67.835  1.00  0.00    -0.241 C  
HETATM    9  O   UNL     1     -10.351  13.655  68.607  1.00  0.00    -0.238 OA 
BRANCH   8  10
HETATM   10  N   UNL     1     -12.018  13.307  67.118  1.00  0.00    -0.367 N  
HETATM   11  H   UNL     1     -12.852  12.721  67.076  1.00  0.00     0.000 HD 
BRANCH  10  12
HETATM   12  C   UNL     1     -11.990  14.590  66.410  1.00  0.00    -0.334 C  
HETATM   13  F   UNL     1     -10.883  13.344  64.681  1.00  0.00    -0.312 F  
HETATM   14  C   UNL     1     -11.390  14.558  64.997  1.00  0.00    -0.377 C  
HETATM   15  F   UNL     1     -12.289  14.898  64.050  1.00  0.00    -0.509 F  
HETATM   16  F   UNL     1     -10.362  15.442  64.912  1.00  0.00    -0.398 F  
ENDBRANCH  10  12
ENDBRANCH   8  10
ENDBRANCH   5   8
BRANCH   6  17
HETATM   17  C   UNL     1     -10.495   8.237  69.031  1.00  0.00    -0.197 A  
HETATM   18  N   UNL     1     -10.828   6.261  70.154  1.00  0.00    -0.281 NA 
HETATM   19  C   UNL     1     -10.150   6.893  69.144  1.00  0.00    -0.173 A  
HETATM   20  C   UNL     1     -11.554   7.214  70.695  1.00  0.00    -0.314 A  
HETATM   21  C   UNL     1     -12.542   7.072  71.745  1.00  0.00    -0.350 A  
HETATM   22  N   UNL     1     -13.199   8.089  72.252  1.00  0.00    -0.166 NA 
HETATM   23  C   UNL     1     -12.835   9.288  71.721  1.00  0.00    -0.382 A  
HETATM   24  C   UNL     1     -11.909   9.565  70.732  1.00  0.00    -0.277 A  
HETATM   25  C   UNL     1     -11.793  10.955  70.579  1.00  0.00    -0.457 A  
HETATM   26  N   UNL     1     -11.285   8.451  70.143  1.00  0.00    -0.193 NA 
HETATM   27  C   UNL     1     -12.737  11.504  71.429  1.00  0.00    -0.364 A  
HETATM   28  N   UNL     1     -13.377  10.485  72.101  1.00  0.00    -0.569 NA 
HETATM   29  H   UNL     1     -14.133  10.605  72.775  1.00  0.00     0.000 HD 
ENDBRANCH   6  17
ENDBRANCH   2   3
TORSDOF 5
ENDMDL
MODEL       92
REMARK 921   NORMALIZED FREE ENERGY PREDICTED BY IDOCK:   -5.57 KCAL/MOL
REMARK 922        TOTAL FREE ENERGY PREDICTED BY IDOCK:   -7.42 KCAL/MOL
REMARK 923 INTER-LIGAND FREE ENERGY PREDICTED BY IDOCK:   -6.76 KCAL/MOL
REMARK 924 INTRA-LIGAND FREE ENERGY PREDICTED BY IDOCK:   -0.66 KCAL/MOL
REMARK 927      BINDING AFFINITY PREDICTED BY RF-SCORE:    0.00 PKD
ROOT
HETATM    1  C   UNL     1     -10.858  15.887  70.212  1.00  0.00    -0.349 C  
HETATM    2  C   UNL     1      -9.994  16.272  69.016  1.00  0.00    -0.256 C  
ENDROOT
BRANCH   2   3
HETATM    3  C   UNL     1      -8.593  15.620  69.042  1.00  0.00    -0.232 C  
HETATM    4  C   UNL     1      -7.478  16.667  69.079  1.00  0.00    -0.232 C  
HETATM    5  N   UNL     1      -7.302  17.020  67.688  1.00  0.00    -0.156 N  
HETATM    6  C   UNL     1      -8.219  14.795  67.772  1.00  0.00    -0.167 C  
HETATM    7  C   UNL     1      -7.573  15.865  66.847  1.00  0.00    -0.219 C  
BRANCH   5   8
HETATM    8  C   UNL     1      -7.117  18.327  67.313  1.00  0.00    -0.199 C  
HETATM    9  O   UNL     1      -6.315  19.075  67.862  1.00  0.00    -0.207 OA 
BRANCH   8  10
HETATM   10  N   UNL     1      -7.875  18.751  66.256  1.00  0.00    -0.281 N  
HETATM   11  H   UNL     1      -7.659  18.432  65.312  1.00  0.00     0.000 HD 
BRANCH  10  12
HETATM   12  C   UNL     1      -8.999  19.665  66.480  1.00  0.00    -0.369 C  
HETATM   13  F   UNL     1     -10.324  17.883  65.565  1.00  0.00    -0.280 F  
HETATM   14  C   UNL     1     -10.388  19.111  66.131  1.00  0.00    -0.484 C  
HETATM   15  F   UNL     1     -11.196  19.036  67.208  1.00  0.00    -0.498 F  
HETATM   16  F   UNL     1     -10.995  19.924  65.227  1.00  0.00    -0.583 F  
ENDBRANCH  10  12
ENDBRANCH   8  10
ENDBRANCH   5   8
BRANCH   6  17
HETATM   17  C   UNL     1      -9.348  14.047  67.113  1.00  0.00    -0.242 A  
HETATM   18  N   UNL     1     -11.427  13.456  66.338  1.00  0.00    -0.317 NA 
HETATM   19  C   UNL     1     -10.583  14.491  66.648  1.00  0.00    -0.283 A  
HETATM   20  C   UNL     1     -10.709  12.380  66.565  1.00  0.00    -0.236 A  
HETATM   21  C   UNL     1     -11.152  11.001  66.496  1.00  0.00    -0.106 A  
HETATM   22  N   UNL     1     -10.353   9.982  66.706  1.00  0.00    -0.227 NA 
HETATM   23  C   UNL     1      -9.066  10.345  66.957  1.00  0.00    -0.139 A  
HETATM   24  C   UNL     1      -8.510  11.608  67.040  1.00  0.00    -0.168 A  
HETATM   25  C   UNL     1      -7.124  11.496  67.217  1.00  0.00    -0.128 A  
HETATM   26  N   UNL     1      -9.405  12.684  66.901  1.00  0.00    -0.222 NA 
HETATM   27  C   UNL     1      -6.870  10.141  67.334  1.00  0.00    -0.077 A  
HETATM   28  N   UNL     1      -8.056   9.453  67.195  1.00  0.00    -0.102 NA 
HETATM   29  H   UNL     1      -8.164   8.441  67.259  1.00  0.00     0.000 HD 
ENDBRANCH   6  17
ENDBRANCH   2   3
TORSDOF 5
ENDMDL
MODEL       93
REMARK 921   NORMALIZED FREE ENERGY PREDICTED BY IDOCK:   -5.57 KCAL/MOL
REMARK 922        TOTAL FREE ENERGY PREDICTED BY IDOCK:   -7.41 KCAL/MOL
REMARK 923 INTER-LIGAND FREE ENERGY PREDICTED BY IDOCK:   -7.43 KCAL/MOL
REMARK 924 INTRA-LIGAND FREE ENERGY PREDICTED BY IDOCK:    0.02 KCAL/MOL
REMARK 927      BINDING AFFINITY PREDICTED BY RF-SCORE:    0.00 PKD
ROOT
HETATM    1  C   UNL     1      -7.325   9.172  70.487  1.00  0.00    -0.104 C  
HETATM    2  C   UNL     1      -8.199   9.641  69.330  1.00  0.00    -0.123 C  
ENDROOT
BRANCH   2   3
HETATM    3  C   UNL     1      -8.929   8.483  68.611  1.00  0.00    -0.139 C  
HETATM    4  C   UNL     1      -8.697   8.516  67.099  1.00  0.00    -0.129 C  
HETATM    5  N   UNL     1      -9.691   9.454  66.627  1.00  0.00    -0.201 N  
HETATM    6  C   UNL     1     -10.486   8.521  68.700  1.00  0.00    -0.200 C  
HETATM    7  C   UNL     1     -10.879   9.378  67.463  1.00  0.00    -0.138 C  
BRANCH   5   8
HETATM    8  C   UNL     1      -9.382  10.379  65.662  1.00  0.00    -0.198 C  
HETATM    9  O   UNL     1      -8.361  11.058  65.687  1.00  0.00    -0.149 OA 
BRANCH   8  10
HETATM   10  N   UNL     1     -10.283  10.489  64.638  1.00  0.00    -0.340 N  
HETATM   11  H   UNL     1     -10.944   9.734  64.457  1.00  0.00     0.000 HD 
BRANCH  10  12
HETATM   12  C   UNL     1     -10.300  11.692  63.802  1.00  0.00    -0.398 C  
HETATM   13  F   UNL     1     -12.052  12.411  65.279  1.00  0.00    -0.425 F  
HETATM   14  C   UNL     1     -11.279  12.792  64.235  1.00  0.00    -0.364 C  
HETATM   15  F   UNL     1     -10.649  13.936  64.575  1.00  0.00    -0.394 F  
HETATM   16  F   UNL     1     -12.125  13.087  63.213  1.00  0.00    -0.558 F  
ENDBRANCH  10  12
ENDBRANCH   8  10
ENDBRANCH   5   8
BRANCH   6  17
HETATM   17  C   UNL     1     -11.062   9.044  69.989  1.00  0.00    -0.182 A  
HETATM   18  N   UNL     1     -12.134   9.177  72.016  1.00  0.00    -0.372 NA 
HETATM   19  C   UNL     1     -11.412   8.383  71.163  1.00  0.00    -0.274 A  
HETATM   20  C   UNL     1     -12.194  10.335  71.398  1.00  0.00    -0.383 A  
HETATM   21  C   UNL     1     -12.934  11.510  71.813  1.00  0.00    -0.394 A  
HETATM   22  N   UNL     1     -12.910  12.642  71.148  1.00  0.00    -0.287 NA 
HETATM   23  C   UNL     1     -12.097  12.613  70.058  1.00  0.00    -0.269 A  
HETATM   24  C   UNL     1     -11.333  11.573  69.559  1.00  0.00    -0.274 A  
HETATM   25  C   UNL     1     -10.576  12.032  68.472  1.00  0.00    -0.252 A  
HETATM   26  N   UNL     1     -11.447  10.347  70.237  1.00  0.00    -0.302 NA 
HETATM   27  C   UNL     1     -10.970  13.343  68.268  1.00  0.00    -0.259 A  
HETATM   28  N   UNL     1     -11.906  13.679  69.222  1.00  0.00    -0.325 NA 
HETATM   29  H   UNL     1     -12.382  14.578  69.292  1.00  0.00     0.000 HD 
ENDBRANCH   6  17
ENDBRANCH   2   3
TORSDOF 5
ENDMDL
MODEL       94
REMARK 921   NORMALIZED FREE ENERGY PREDICTED BY IDOCK:   -5.52 KCAL/MOL
REMARK 922        TOTAL FREE ENERGY PREDICTED BY IDOCK:   -7.35 KCAL/MOL
REMARK 923 INTER-LIGAND FREE ENERGY PREDICTED BY IDOCK:   -7.69 KCAL/MOL
REMARK 924 INTRA-LIGAND FREE ENERGY PREDICTED BY IDOCK:    0.34 KCAL/MOL
REMARK 927      BINDING AFFINITY PREDICTED BY RF-SCORE:    0.00 PKD
ROOT
HETATM    1  C   UNL     1      -6.732  11.294  67.077  1.00  0.00    -0.126 C  
HETATM    2  C   UNL     1      -8.039  12.067  67.217  1.00  0.00    -0.174 C  
ENDROOT
BRANCH   2   3
HETATM    3  C   UNL     1      -8.831  11.696  68.491  1.00  0.00    -0.131 C  
HETATM    4  C   UNL     1      -8.865  10.184  68.721  1.00  0.00    -0.146 C  
HETATM    5  N   UNL     1      -9.964   9.741  67.893  1.00  0.00    -0.156 N  
HETATM    6  C   UNL     1     -10.351  12.051  68.456  1.00  0.00    -0.228 C  
HETATM    7  C   UNL     1     -10.986  10.775  67.835  1.00  0.00    -0.289 C  
BRANCH   5   8
HETATM    8  C   UNL     1      -9.865   8.593  67.147  1.00  0.00    -0.207 C  
HETATM    9  O   UNL     1      -8.912   8.351  66.414  1.00  0.00    -0.150 OA 
BRANCH   8  10
HETATM   10  N   UNL     1     -10.897   7.707  67.288  1.00  0.00    -0.533 N  
HETATM   11  H   UNL     1     -11.793   7.892  66.837  1.00  0.00     0.000 HD 
BRANCH  10  12
HETATM   12  C   UNL     1     -10.716   6.490  68.084  1.00  0.00    -0.282 C  
HETATM   13  F   UNL     1     -10.971   7.964  69.963  1.00  0.00    -0.244 F  
HETATM   14  C   UNL     1     -10.826   6.667  69.605  1.00  0.00    -0.286 C  
HETATM   15  F   UNL     1     -11.855   5.969  70.130  1.00  0.00    -0.396 F  
HETATM   16  F   UNL     1      -9.691   6.223  70.206  1.00  0.00    -0.165 F  
ENDBRANCH  10  12
ENDBRANCH   8  10
ENDBRANCH   5   8
BRANCH   6  17
HETATM   17  C   UNL     1     -10.719  13.313  67.722  1.00  0.00    -0.244 A  
HETATM   18  N   UNL     1     -11.505  15.415  67.234  1.00  0.00    -0.235 NA 
HETATM   19  C   UNL     1     -10.953  14.602  68.191  1.00  0.00    -0.261 A  
HETATM   20  C   UNL     1     -11.572  14.651  66.168  1.00  0.00    -0.332 A  
HETATM   21  C   UNL     1     -12.174  14.981  64.891  1.00  0.00    -0.148 A  
HETATM   22  N   UNL     1     -12.164  14.165  63.863  1.00  0.00    -0.643 NA 
HETATM   23  C   UNL     1     -11.504  12.999  64.103  1.00  0.00    -0.402 A  
HETATM   24  C   UNL     1     -10.881  12.565  65.258  1.00  0.00    -0.286 A  
HETATM   25  C   UNL     1     -10.244  11.340  65.011  1.00  0.00    -0.339 A  
HETATM   26  N   UNL     1     -10.984  13.419  66.371  1.00  0.00    -0.288 NA 
HETATM   27  C   UNL     1     -10.577  11.001  63.711  1.00  0.00    -0.295 A  
HETATM   28  N   UNL     1     -11.357  12.004  63.176  1.00  0.00    -0.702 NA 
HETATM   29  H   UNL     1     -11.761  12.003  62.240  1.00  0.00     0.000 HD 
ENDBRANCH   6  17
ENDBRANCH   2   3
TORSDOF 5
ENDMDL
MODEL       95
REMARK 921   NORMALIZED FREE ENERGY PREDICTED BY IDOCK:   -5.51 KCAL/MOL
REMARK 922        TOTAL FREE ENERGY PREDICTED BY IDOCK:   -7.34 KCAL/MOL
REMARK 923 INTER-LIGAND FREE ENERGY PREDICTED BY IDOCK:   -6.30 KCAL/MOL
REMARK 924 INTRA-LIGAND FREE ENERGY PREDICTED BY IDOCK:   -1.04 KCAL/MOL
REMARK 927      BINDING AFFINITY PREDICTED BY RF-SCORE:    0.00 PKD
ROOT
HETATM    1  C   UNL     1     -12.005  11.774  68.863  1.00  0.00    -0.332 C  
HETATM    2  C   UNL     1     -11.592  12.816  67.829  1.00  0.00    -0.405 C  
ENDROOT
BRANCH   2   3
HETATM    3  C   UNL     1     -10.158  13.350  68.042  1.00  0.00    -0.241 C  
HETATM    4  C   UNL     1     -10.106  14.879  67.991  1.00  0.00    -0.221 C  
HETATM    5  N   UNL     1     -10.016  15.165  66.577  1.00  0.00    -0.255 N  
HETATM    6  C   UNL     1      -9.129  12.955  66.937  1.00  0.00    -0.224 C  
HETATM    7  C   UNL     1      -9.277  14.108  65.905  1.00  0.00     0.128 C  
BRANCH   5   8
HETATM    8  C   UNL     1     -10.737  16.192  66.020  1.00  0.00    -0.241 C  
HETATM    9  O   UNL     1     -11.139  16.177  64.861  1.00  0.00    -0.433 OA 
BRANCH   8  10
HETATM   10  N   UNL     1     -11.006  17.243  66.852  1.00  0.00     0.025 N  
HETATM   11  H   UNL     1     -11.819  17.211  67.468  1.00  0.00     0.000 HD 
BRANCH  10  12
HETATM   12  C   UNL     1     -10.128  18.417  66.860  1.00  0.00    -0.367 C  
HETATM   13  F   UNL     1     -10.156  18.130  69.244  1.00  0.00    -0.353 F  
HETATM   14  C   UNL     1      -9.614  18.855  68.238  1.00  0.00    -0.352 C  
HETATM   15  F   UNL     1      -8.271  18.771  68.336  1.00  0.00    -0.311 F  
HETATM   16  F   UNL     1      -9.954  20.151  68.467  1.00  0.00    -0.466 F  
ENDBRANCH  10  12
ENDBRANCH   8  10
ENDBRANCH   5   8
BRANCH   6  17
HETATM   17  C   UNL     1      -9.304  11.589  66.329  1.00  0.00    -0.213 A  
HETATM   18  N   UNL     1      -9.972   9.868  64.963  1.00  0.00    -0.270 NA 
HETATM   19  C   UNL     1      -9.695  11.208  65.048  1.00  0.00    -0.253 A  
HETATM   20  C   UNL     1      -9.713   9.412  66.168  1.00  0.00    -0.265 A  
HETATM   21  C   UNL     1      -9.935   8.067  66.661  1.00  0.00    -0.256 A  
HETATM   22  N   UNL     1      -9.612   7.688  67.875  1.00  0.00    -0.142 NA 
HETATM   23  C   UNL     1      -9.018   8.668  68.609  1.00  0.00    -0.142 A  
HETATM   24  C   UNL     1      -8.739   9.977  68.263  1.00  0.00    -0.119 A  
HETATM   25  C   UNL     1      -8.028  10.593  69.303  1.00  0.00    -0.139 A  
HETATM   26  N   UNL     1      -9.176  10.383  66.989  1.00  0.00    -0.146 NA 
HETATM   27  C   UNL     1      -7.967   9.656  70.320  1.00  0.00    -0.179 A  
HETATM   28  N   UNL     1      -8.588   8.500  69.897  1.00  0.00    -0.128 NA 
HETATM   29  H   UNL     1      -8.708   7.656  70.455  1.00  0.00     0.000 HD 
ENDBRANCH   6  17
ENDBRANCH   2   3
TORSDOF 5
ENDMDL
MODEL       96
REMARK 921   NORMALIZED FREE ENERGY PREDICTED BY IDOCK:   -5.49 KCAL/MOL
REMARK 922        TOTAL FREE ENERGY PREDICTED BY IDOCK:   -7.32 KCAL/MOL
REMARK 923 INTER-LIGAND FREE ENERGY PREDICTED BY IDOCK:   -6.88 KCAL/MOL
REMARK 924 INTRA-LIGAND FREE ENERGY PREDICTED BY IDOCK:   -0.43 KCAL/MOL
REMARK 927      BINDING AFFINITY PREDICTED BY RF-SCORE:    0.00 PKD
ROOT
HETATM    1  C   UNL     1     -11.355  15.978  70.002  1.00  0.00    -0.353 C  
HETATM    2  C   UNL     1     -11.114  14.856  68.997  1.00  0.00    -0.260 C  
ENDROOT
BRANCH   2   3
HETATM    3  C   UNL     1      -9.662  14.813  68.470  1.00  0.00    -0.218 C  
HETATM    4  C   UNL     1      -9.371  15.968  67.509  1.00  0.00    -0.217 C  
HETATM    5  N   UNL     1      -9.861  15.482  66.239  1.00  0.00    -0.273 N  
HETATM    6  C   UNL     1      -9.308  13.570  67.596  1.00  0.00    -0.216 C  
HETATM    7  C   UNL     1      -9.689  14.039  66.163  1.00  0.00    -0.280 C  
BRANCH   5   8
HETATM    8  C   UNL     1     -10.560  16.306  65.392  1.00  0.00    -0.352 C  
HETATM    9  O   UNL     1     -10.775  17.488  65.636  1.00  0.00    -0.470 OA 
BRANCH   8  10
HETATM   10  N   UNL     1     -10.991  15.729  64.229  1.00  0.00    -0.600 N  
HETATM   11  H   UNL     1     -10.402  15.758  63.397  1.00  0.00     0.000 HD 
BRANCH  10  12
HETATM   12  C   UNL     1     -12.299  15.071  64.178  1.00  0.00    -0.142 C  
HETATM   13  F   UNL     1     -11.021  13.088  63.726  1.00  0.00    -0.394 F  
HETATM   14  C   UNL     1     -12.272  13.553  63.950  1.00  0.00    -0.399 C  
HETATM   15  F   UNL     1     -12.795  12.868  64.988  1.00  0.00    -0.529 F  
HETATM   16  F   UNL     1     -13.005  13.238  62.850  1.00  0.00    -0.031 F  
ENDBRANCH  10  12
ENDBRANCH   8  10
ENDBRANCH   5   8
BRANCH   6  17
HETATM   17  C   UNL     1      -9.969  12.275  67.989  1.00  0.00    -0.202 A  
HETATM   18  N   UNL     1     -11.546  10.692  68.518  1.00  0.00    -0.351 NA 
HETATM   19  C   UNL     1     -11.271  11.823  67.794  1.00  0.00    -0.266 A  
HETATM   20  C   UNL     1     -10.413  10.418  69.123  1.00  0.00    -0.227 A  
HETATM   21  C   UNL     1     -10.173   9.375  70.101  1.00  0.00    -0.231 A  
HETATM   22  N   UNL     1      -8.993   9.150  70.631  1.00  0.00    -0.226 NA 
HETATM   23  C   UNL     1      -8.016   9.963  70.146  1.00  0.00    -0.162 A  
HETATM   24  C   UNL     1      -8.104  10.981  69.214  1.00  0.00    -0.003 A  
HETATM   25  C   UNL     1      -6.821  11.480  68.948  1.00  0.00    -0.095 A  
HETATM   26  N   UNL     1      -9.394  11.262  68.729  1.00  0.00    -0.164 NA 
HETATM   27  C   UNL     1      -5.971  10.806  69.808  1.00  0.00    -0.071 A  
HETATM   28  N   UNL     1      -6.709   9.903  70.544  1.00  0.00    -0.151 NA 
HETATM   29  H   UNL     1      -6.339   9.290  71.270  1.00  0.00     0.000 HD 
ENDBRANCH   6  17
ENDBRANCH   2   3
TORSDOF 5
ENDMDL
MODEL       97
REMARK 921   NORMALIZED FREE ENERGY PREDICTED BY IDOCK:   -5.48 KCAL/MOL
REMARK 922        TOTAL FREE ENERGY PREDICTED BY IDOCK:   -7.30 KCAL/MOL
REMARK 923 INTER-LIGAND FREE ENERGY PREDICTED BY IDOCK:   -7.52 KCAL/MOL
REMARK 924 INTRA-LIGAND FREE ENERGY PREDICTED BY IDOCK:    0.22 KCAL/MOL
REMARK 927      BINDING AFFINITY PREDICTED BY RF-SCORE:    0.00 PKD
ROOT
HETATM    1  C   UNL     1     -10.751   7.245  69.341  1.00  0.00    -0.236 C  
HETATM    2  C   UNL     1     -10.345   8.715  69.356  1.00  0.00    -0.221 C  
ENDROOT
BRANCH   2   3
HETATM    3  C   UNL     1     -10.964   9.528  68.197  1.00  0.00    -0.144 C  
HETATM    4  C   UNL     1      -9.961   9.758  67.063  1.00  0.00    -0.203 C  
HETATM    5  N   UNL     1      -9.219  10.919  67.500  1.00  0.00    -0.147 N  
HETATM    6  C   UNL     1     -11.382  10.988  68.557  1.00  0.00    -0.355 C  
HETATM    7  C   UNL     1     -10.084  11.796  68.274  1.00  0.00    -0.197 C  
BRANCH   5   8
HETATM    8  C   UNL     1      -7.857  10.984  67.340  1.00  0.00    -0.118 C  
HETATM    9  O   UNL     1      -7.064  10.702  68.232  1.00  0.00    -0.078 OA 
BRANCH   8  10
HETATM   10  N   UNL     1      -7.426  11.367  66.100  1.00  0.00    -0.371 N  
HETATM   11  H   UNL     1      -7.404  12.356  65.851  1.00  0.00     0.000 HD 
BRANCH  10  12
HETATM   12  C   UNL     1      -6.993  10.357  65.130  1.00  0.00    -0.082 C  
HETATM   13  F   UNL     1      -9.069  10.862  64.033  1.00  0.00    -0.185 F  
HETATM   14  C   UNL     1      -7.928  10.141  63.932  1.00  0.00    -0.153 C  
HETATM   15  F   UNL     1      -7.338  10.451  62.758  1.00  0.00    -0.135 F  
HETATM   16  F   UNL     1      -8.298   8.836  63.864  1.00  0.00    -0.156 F  
ENDBRANCH  10  12
ENDBRANCH   8  10
ENDBRANCH   5   8
BRANCH   6  17
HETATM   17  C   UNL     1     -11.917  11.198  69.949  1.00  0.00    -0.363 A  
HETATM   18  N   UNL     1     -12.912  10.852  71.990  1.00  0.00    -0.414 NA 
HETATM   19  C   UNL     1     -12.210  10.285  70.958  1.00  0.00    -0.384 A  
HETATM   20  C   UNL     1     -13.016  12.116  71.647  1.00  0.00    -0.321 A  
HETATM   21  C   UNL     1     -13.760  13.151  72.337  1.00  0.00    -0.540 A  
HETATM   22  N   UNL     1     -13.781  14.402  71.940  1.00  0.00    -0.393 NA 
HETATM   23  C   UNL     1     -13.010  14.636  70.843  1.00  0.00    -0.365 A  
HETATM   24  C   UNL     1     -12.248  13.752  70.101  1.00  0.00    -0.356 A  
HETATM   25  C   UNL     1     -11.541  14.459  69.118  1.00  0.00    -0.344 A  
HETATM   26  N   UNL     1     -12.315  12.403  70.493  1.00  0.00    -0.306 NA 
HETATM   27  C   UNL     1     -11.965  15.772  69.223  1.00  0.00    -0.289 A  
HETATM   28  N   UNL     1     -12.870  15.864  70.259  1.00  0.00    -0.666 NA 
HETATM   29  H   UNL     1     -13.358  16.714  70.543  1.00  0.00     0.000 HD 
ENDBRANCH   6  17
ENDBRANCH   2   3
TORSDOF 5
ENDMDL
MODEL       98
REMARK 921   NORMALIZED FREE ENERGY PREDICTED BY IDOCK:   -5.44 KCAL/MOL
REMARK 922        TOTAL FREE ENERGY PREDICTED BY IDOCK:   -7.25 KCAL/MOL
REMARK 923 INTER-LIGAND FREE ENERGY PREDICTED BY IDOCK:   -6.77 KCAL/MOL
REMARK 924 INTRA-LIGAND FREE ENERGY PREDICTED BY IDOCK:   -0.48 KCAL/MOL
REMARK 927      BINDING AFFINITY PREDICTED BY RF-SCORE:    0.00 PKD
ROOT
HETATM    1  C   UNL     1     -12.383  12.092  69.770  1.00  0.00    -0.112 C  
HETATM    2  C   UNL     1     -11.636  10.879  69.226  1.00  0.00    -0.388 C  
ENDROOT
BRANCH   2   3
HETATM    3  C   UNL     1     -10.129  11.141  69.009  1.00  0.00    -0.173 C  
HETATM    4  C   UNL     1      -9.876  12.497  68.346  1.00  0.00    -0.202 C  
HETATM    5  N   UNL     1     -10.045  12.220  66.937  1.00  0.00    -0.209 N  
HETATM    6  C   UNL     1      -9.419  10.162  68.022  1.00  0.00    -0.156 C  
HETATM    7  C   UNL     1      -9.617  10.860  66.646  1.00  0.00    -0.185 C  
BRANCH   5   8
HETATM    8  C   UNL     1     -10.715  13.099  66.123  1.00  0.00    -0.278 C  
HETATM    9  O   UNL     1     -10.898  12.898  64.928  1.00  0.00    -0.286 OA 
BRANCH   8  10
HETATM   10  N   UNL     1     -11.198  14.222  66.737  1.00  0.00    -0.322 N  
HETATM   11  H   UNL     1     -12.185  14.282  66.987  1.00  0.00     0.000 HD 
BRANCH  10  12
HETATM   12  C   UNL     1     -10.297  15.339  67.035  1.00  0.00    -0.277 C  
HETATM   13  F   UNL     1     -10.725  15.983  64.761  1.00  0.00    -0.425 F  
HETATM   14  C   UNL     1     -10.101  16.357  65.903  1.00  0.00    -0.347 C  
HETATM   15  F   UNL     1     -10.539  17.588  66.238  1.00  0.00    -0.331 F  
HETATM   16  F   UNL     1      -8.780  16.467  65.605  1.00  0.00    -0.280 F  
ENDBRANCH  10  12
ENDBRANCH   8  10
ENDBRANCH   5   8
BRANCH   6  17
HETATM   17  C   UNL     1      -9.907   8.738  68.037  1.00  0.00    -0.169 A  
HETATM   18  N   UNL     1     -11.014   6.795  67.516  1.00  0.00    -0.308 NA 
HETATM   19  C   UNL     1     -10.481   7.962  67.035  1.00  0.00    -0.349 A  
HETATM   20  C   UNL     1     -10.734   6.823  68.800  1.00  0.00    -0.239 A  
HETATM   21  C   UNL     1     -11.160   5.874  69.809  1.00  0.00    -0.352 A  
HETATM   22  N   UNL     1     -10.803   5.961  71.069  1.00  0.00    -0.273 NA 
HETATM   23  C   UNL     1      -9.968   7.004  71.325  1.00  0.00    -0.189 A  
HETATM   24  C   UNL     1      -9.479   7.969  70.463  1.00  0.00    -0.166 A  
HETATM   25  C   UNL     1      -8.569   8.787  71.148  1.00  0.00    -0.244 A  
HETATM   26  N   UNL     1      -9.949   7.906  69.139  1.00  0.00    -0.179 NA 
HETATM   27  C   UNL     1      -8.593   8.354  72.462  1.00  0.00    -0.184 A  
HETATM   28  N   UNL     1      -9.459   7.286  72.562  1.00  0.00    -0.145 NA 
HETATM   29  H   UNL     1      -9.684   6.787  73.423  1.00  0.00     0.000 HD 
ENDBRANCH   6  17
ENDBRANCH   2   3
TORSDOF 5
ENDMDL
MODEL       99
REMARK 921   NORMALIZED FREE ENERGY PREDICTED BY IDOCK:   -5.42 KCAL/MOL
REMARK 922        TOTAL FREE ENERGY PREDICTED BY IDOCK:   -7.23 KCAL/MOL
REMARK 923 INTER-LIGAND FREE ENERGY PREDICTED BY IDOCK:   -6.19 KCAL/MOL
REMARK 924 INTRA-LIGAND FREE ENERGY PREDICTED BY IDOCK:   -1.04 KCAL/MOL
REMARK 927      BINDING AFFINITY PREDICTED BY RF-SCORE:    0.00 PKD
ROOT
HETATM    1  C   UNL     1      -6.877   6.678  65.935  1.00  0.00    -0.053 C  
HETATM    2  C   UNL     1      -7.703   7.831  66.495  1.00  0.00    -0.097 C  
ENDROOT
BRANCH   2   3
HETATM    3  C   UNL     1      -9.015   8.075  65.716  1.00  0.00    -0.148 C  
HETATM    4  C   UNL     1      -9.034   9.453  65.049  1.00  0.00    -0.211 C  
HETATM    5  N   UNL     1      -9.482  10.331  66.106  1.00  0.00    -0.172 N  
HETATM    6  C   UNL     1     -10.308   8.121  66.588  1.00  0.00    -0.284 C  
HETATM    7  C   UNL     1     -10.402   9.622  66.981  1.00  0.00    -0.248 C  
BRANCH   5   8
HETATM    8  C   UNL     1      -8.903  11.562  66.290  1.00  0.00    -0.186 C  
HETATM    9  O   UNL     1      -7.871  11.727  66.933  1.00  0.00    -0.160 OA 
BRANCH   8  10
HETATM   10  N   UNL     1      -9.539  12.611  65.687  1.00  0.00    -0.448 N  
HETATM   11  H   UNL     1      -9.503  12.714  64.673  1.00  0.00     0.000 HD 
BRANCH  10  12
HETATM   12  C   UNL     1     -10.273  13.588  66.496  1.00  0.00    -0.283 C  
HETATM   13  F   UNL     1     -12.160  12.161  66.083  1.00  0.00    -0.438 F  
HETATM   14  C   UNL     1     -11.752  13.264  66.752  1.00  0.00    -0.385 C  
HETATM   15  F   UNL     1     -12.019  13.085  68.062  1.00  0.00    -0.356 F  
HETATM   16  F   UNL     1     -12.531  14.291  66.319  1.00  0.00    -0.452 F  
ENDBRANCH  10  12
ENDBRANCH   8  10
ENDBRANCH   5   8
BRANCH   6  17
HETATM   17  C   UNL     1     -10.338   7.195  67.775  1.00  0.00    -0.202 A  
HETATM   18  N   UNL     1     -10.198   6.367  69.912  1.00  0.00    -0.177 NA 
HETATM   19  C   UNL     1     -10.463   7.464  69.135  1.00  0.00    -0.213 A  
HETATM   20  C   UNL     1      -9.954   5.412  69.042  1.00  0.00    -0.190 A  
HETATM   21  C   UNL     1      -9.513   4.061  69.327  1.00  0.00    -0.190 A  
HETATM   22  N   UNL     1      -9.327   3.158  68.393  1.00  0.00    -0.188 NA 
HETATM   23  C   UNL     1      -9.621   3.604  67.142  1.00  0.00    -0.153 A  
HETATM   24  C   UNL     1     -10.055   4.851  66.734  1.00  0.00    -0.238 A  
HETATM   25  C   UNL     1     -10.326   4.823  65.358  1.00  0.00    -0.100 A  
HETATM   26  N   UNL     1     -10.161   5.826  67.742  1.00  0.00    -0.148 NA 
HETATM   27  C   UNL     1      -9.956   3.560  64.930  1.00  0.00    -0.096 A  
HETATM   28  N   UNL     1      -9.511   2.836  66.015  1.00  0.00    -0.374 NA 
HETATM   29  H   UNL     1      -9.156   1.880  65.982  1.00  0.00     0.000 HD 
ENDBRANCH   6  17
ENDBRANCH   2   3
TORSDOF 5
ENDMDL
MODEL      100
REMARK 921   NORMALIZED FREE ENERGY PREDICTED BY IDOCK:   -5.40 KCAL/MOL
REMARK 922        TOTAL FREE ENERGY PREDICTED BY IDOCK:   -7.20 KCAL/MOL
REMARK 923 INTER-LIGAND FREE ENERGY PREDICTED BY IDOCK:   -6.90 KCAL/MOL
REMARK 924 INTRA-LIGAND FREE ENERGY PREDICTED BY IDOCK:   -0.29 KCAL/MOL
REMARK 927      BINDING AFFINITY PREDICTED BY RF-SCORE:    0.00 PKD
ROOT
HETATM    1  C   UNL     1     -10.499   7.272  68.278  1.00  0.00    -0.239 C  
HETATM    2  C   UNL     1     -10.402   8.701  68.802  1.00  0.00    -0.228 C  
ENDROOT
BRANCH   2   3
HETATM    3  C   UNL     1     -10.862   9.758  67.773  1.00  0.00    -0.306 C  
HETATM    4  C   UNL     1      -9.786  10.035  66.721  1.00  0.00    -0.189 C  
HETATM    5  N   UNL     1      -8.932  11.010  67.361  1.00  0.00    -0.141 N  
HETATM    6  C   UNL     1     -11.119  11.184  68.354  1.00  0.00    -0.303 C  
HETATM    7  C   UNL     1      -9.722  11.856  68.241  1.00  0.00    -0.200 C  
BRANCH   5   8
HETATM    8  C   UNL     1      -7.566  10.927  67.252  1.00  0.00    -0.104 C  
HETATM    9  O   UNL     1      -6.878  11.820  66.769  1.00  0.00    -0.127 OA 
BRANCH   8  10
HETATM   10  N   UNL     1      -7.002   9.782  67.743  1.00  0.00    -0.085 N  
HETATM   11  H   UNL     1      -7.316   8.873  67.403  1.00  0.00     0.000 HD 
BRANCH  10  12
HETATM   12  C   UNL     1      -5.948   9.860  68.758  1.00  0.00    -0.038 C  
HETATM   13  F   UNL     1      -7.774   9.870  70.317  1.00  0.00    -0.140 F  
HETATM   14  C   UNL     1      -6.425   9.846  70.217  1.00  0.00    -0.103 C  
HETATM   15  F   UNL     1      -5.972   8.771  70.894  1.00  0.00    -0.031 F  
HETATM   16  F   UNL     1      -5.968  10.950  70.863  1.00  0.00    -0.119 F  
ENDBRANCH  10  12
ENDBRANCH   8  10
ENDBRANCH   5   8
BRANCH   6  17
HETATM   17  C   UNL     1     -11.692  11.238  69.745  1.00  0.00    -0.349 A  
HETATM   18  N   UNL     1     -12.686  10.650  71.730  1.00  0.00    -0.419 NA 
HETATM   19  C   UNL     1     -11.923  10.226  70.673  1.00  0.00    -0.342 A  
HETATM   20  C   UNL     1     -12.890  11.924  71.485  1.00  0.00    -0.316 A  
HETATM   21  C   UNL     1     -13.728  12.837  72.237  1.00  0.00    -0.400 A  
HETATM   22  N   UNL     1     -13.847  14.110  71.939  1.00  0.00    -0.421 NA 
HETATM   23  C   UNL     1     -13.081  14.493  70.881  1.00  0.00    -0.345 A  
HETATM   24  C   UNL     1     -12.237  13.736  70.089  1.00  0.00    -0.356 A  
HETATM   25  C   UNL     1     -11.576  14.574  69.180  1.00  0.00    -0.331 A  
HETATM   26  N   UNL     1     -12.197  12.359  70.373  1.00  0.00    -0.332 NA 
HETATM   27  C   UNL     1     -12.110  15.836  69.378  1.00  0.00    -0.227 A  
HETATM   28  N   UNL     1     -13.035  15.771  70.398  1.00  0.00    -0.714 NA 
HETATM   29  H   UNL     1     -13.596  16.552  70.736  1.00  0.00     0.000 HD 
ENDBRANCH   6  17
ENDBRANCH   2   3
TORSDOF 5
ENDMDL
MODEL      101
REMARK 921   NORMALIZED FREE ENERGY PREDICTED BY IDOCK:   -5.39 KCAL/MOL
REMARK 922        TOTAL FREE ENERGY PREDICTED BY IDOCK:   -7.18 KCAL/MOL
REMARK 923 INTER-LIGAND FREE ENERGY PREDICTED BY IDOCK:   -6.62 KCAL/MOL
REMARK 924 INTRA-LIGAND FREE ENERGY PREDICTED BY IDOCK:   -0.57 KCAL/MOL
REMARK 927      BINDING AFFINITY PREDICTED BY RF-SCORE:    0.00 PKD
ROOT
HETATM    1  C   UNL     1     -10.913   7.044  67.321  1.00  0.00    -0.372 C  
HETATM    2  C   UNL     1     -10.740   8.549  67.499  1.00  0.00    -0.211 C  
ENDROOT
BRANCH   2   3
HETATM    3  C   UNL     1      -9.262   8.999  67.469  1.00  0.00    -0.152 C  
HETATM    4  C   UNL     1      -8.427   8.284  68.534  1.00  0.00    -0.126 C  
HETATM    5  N   UNL     1      -8.656   9.070  69.725  1.00  0.00    -0.130 N  
HETATM    6  C   UNL     1      -9.016  10.499  67.821  1.00  0.00    -0.132 C  
HETATM    7  C   UNL     1      -8.850  10.466  69.367  1.00  0.00    -0.123 C  
BRANCH   5   8
HETATM    8  C   UNL     1      -8.855   8.463  70.940  1.00  0.00    -0.159 C  
HETATM    9  O   UNL     1      -9.693   8.844  71.750  1.00  0.00    -0.288 OA 
BRANCH   8  10
HETATM   10  N   UNL     1      -8.067   7.374  71.193  1.00  0.00    -0.100 N  
HETATM   11  H   UNL     1      -7.754   6.781  70.424  1.00  0.00     0.000 HD 
BRANCH  10  12
HETATM   12  C   UNL     1      -7.672   7.057  72.568  1.00  0.00    -0.093 C  
HETATM   13  F   UNL     1      -6.540   9.173  72.481  1.00  0.00    -0.032 F  
HETATM   14  C   UNL     1      -6.853   8.136  73.291  1.00  0.00    -0.108 C  
HETATM   15  F   UNL     1      -7.492   8.626  74.374  1.00  0.00    -0.235 F  
HETATM   16  F   UNL     1      -5.676   7.611  73.722  1.00  0.00    -0.051 F  
ENDBRANCH  10  12
ENDBRANCH   8  10
ENDBRANCH   5   8
BRANCH   6  17
HETATM   17  C   UNL     1     -10.072  11.468  67.360  1.00  0.00    -0.191 A  
HETATM   18  N   UNL     1     -11.900  12.859  67.311  1.00  0.00    -0.369 NA 
HETATM   19  C   UNL     1     -10.903  12.319  68.083  1.00  0.00    -0.227 A  
HETATM   20  C   UNL     1     -11.664  12.382  66.110  1.00  0.00    -0.400 A  
HETATM   21  C   UNL     1     -12.482  12.554  64.925  1.00  0.00    -0.450 A  
HETATM   22  N   UNL     1     -12.150  12.070  63.751  1.00  0.00    -0.489 NA 
HETATM   23  C   UNL     1     -10.952  11.425  63.749  1.00  0.00    -0.370 A  
HETATM   24  C   UNL     1     -10.074  11.201  64.794  1.00  0.00    -0.295 A  
HETATM   25  C   UNL     1      -8.916  10.581  64.304  1.00  0.00    -0.237 A  
HETATM   26  N   UNL     1     -10.495  11.651  66.058  1.00  0.00    -0.243 NA 
HETATM   27  C   UNL     1      -9.154  10.352  62.960  1.00  0.00    -0.269 A  
HETATM   28  N   UNL     1     -10.399  10.850  62.638  1.00  0.00    -0.766 NA 
HETATM   29  H   UNL     1     -10.837  10.796  61.719  1.00  0.00     0.000 HD 
ENDBRANCH   6  17
ENDBRANCH   2   3
TORSDOF 5
ENDMDL
MODEL      102
REMARK 921   NORMALIZED FREE ENERGY PREDICTED BY IDOCK:   -5.38 KCAL/MOL
REMARK 922        TOTAL FREE ENERGY PREDICTED BY IDOCK:   -7.17 KCAL/MOL
REMARK 923 INTER-LIGAND FREE ENERGY PREDICTED BY IDOCK:   -7.09 KCAL/MOL
REMARK 924 INTRA-LIGAND FREE ENERGY PREDICTED BY IDOCK:   -0.08 KCAL/MOL
REMARK 927      BINDING AFFINITY PREDICTED BY RF-SCORE:    0.00 PKD
ROOT
HETATM    1  C   UNL     1     -10.887   7.066  69.062  1.00  0.00    -0.212 C  
HETATM    2  C   UNL     1     -10.648   8.531  69.409  1.00  0.00    -0.203 C  
ENDROOT
BRANCH   2   3
HETATM    3  C   UNL     1     -10.991   9.495  68.252  1.00  0.00    -0.131 C  
HETATM    4  C   UNL     1      -9.838   9.618  67.252  1.00  0.00    -0.175 C  
HETATM    5  N   UNL     1      -8.981  10.618  67.848  1.00  0.00    -0.136 N  
HETATM    6  C   UNL     1     -11.216  10.982  68.668  1.00  0.00    -0.322 C  
HETATM    7  C   UNL     1      -9.783  11.582  68.584  1.00  0.00    -0.165 C  
BRANCH   5   8
HETATM    8  C   UNL     1      -7.616  10.468  67.841  1.00  0.00    -0.092 C  
HETATM    9  O   UNL     1      -7.058   9.426  67.516  1.00  0.00    -0.077 OA 
BRANCH   8  10
HETATM   10  N   UNL     1      -6.899  11.575  68.203  1.00  0.00    -0.065 N  
HETATM   11  H   UNL     1      -6.528  11.656  69.150  1.00  0.00     0.000 HD 
BRANCH  10  12
HETATM   12  C   UNL     1      -6.662  12.646  67.230  1.00  0.00    -0.100 C  
HETATM   13  F   UNL     1      -7.429  14.092  68.987  1.00  0.00    -0.119 F  
HETATM   14  C   UNL     1      -6.917  14.073  67.734  1.00  0.00    -0.177 C  
HETATM   15  F   UNL     1      -5.799  14.828  67.726  1.00  0.00    -0.131 F  
HETATM   16  F   UNL     1      -7.825  14.690  66.934  1.00  0.00    -0.216 F  
ENDBRANCH  10  12
ENDBRANCH   8  10
ENDBRANCH   5   8
BRANCH   6  17
HETATM   17  C   UNL     1     -11.872  11.203  70.005  1.00  0.00    -0.361 A  
HETATM   18  N   UNL     1     -13.049  10.874  71.949  1.00  0.00    -0.487 NA 
HETATM   19  C   UNL     1     -12.262  10.296  70.987  1.00  0.00    -0.384 A  
HETATM   20  C   UNL     1     -13.111  12.137  71.594  1.00  0.00    -0.310 A  
HETATM   21  C   UNL     1     -13.905  13.182  72.211  1.00  0.00    -0.490 A  
HETATM   22  N   UNL     1     -13.879  14.431  71.810  1.00  0.00    -0.411 NA 
HETATM   23  C   UNL     1     -13.010  14.654  70.786  1.00  0.00    -0.347 A  
HETATM   24  C   UNL     1     -12.193  13.760  70.118  1.00  0.00    -0.356 A  
HETATM   25  C   UNL     1     -11.394  14.457  69.200  1.00  0.00    -0.308 A  
HETATM   26  N   UNL     1     -12.307  12.413  70.507  1.00  0.00    -0.306 NA 
HETATM   27  C   UNL     1     -11.814  15.774  69.263  1.00  0.00    -0.346 A  
HETATM   28  N   UNL     1     -12.808  15.879  70.213  1.00  0.00    -0.666 NA 
HETATM   29  H   UNL     1     -13.311  16.733  70.449  1.00  0.00     0.000 HD 
ENDBRANCH   6  17
ENDBRANCH   2   3
TORSDOF 5
ENDMDL
MODEL      103
REMARK 921   NORMALIZED FREE ENERGY PREDICTED BY IDOCK:   -5.38 KCAL/MOL
REMARK 922        TOTAL FREE ENERGY PREDICTED BY IDOCK:   -7.17 KCAL/MOL
REMARK 923 INTER-LIGAND FREE ENERGY PREDICTED BY IDOCK:   -6.77 KCAL/MOL
REMARK 924 INTRA-LIGAND FREE ENERGY PREDICTED BY IDOCK:   -0.40 KCAL/MOL
REMARK 927      BINDING AFFINITY PREDICTED BY RF-SCORE:    0.00 PKD
ROOT
HETATM    1  C   UNL     1      -6.932   7.281  67.387  1.00  0.00    -0.079 C  
HETATM    2  C   UNL     1      -7.804   8.521  67.547  1.00  0.00    -0.099 C  
ENDROOT
BRANCH   2   3
HETATM    3  C   UNL     1      -9.317   8.203  67.559  1.00  0.00    -0.165 C  
HETATM    4  C   UNL     1     -10.028   8.772  66.329  1.00  0.00    -0.245 C  
HETATM    5  N   UNL     1     -10.299  10.142  66.700  1.00  0.00    -0.223 N  
HETATM    6  C   UNL     1     -10.123   8.852  68.726  1.00  0.00    -0.215 C  
HETATM    7  C   UNL     1     -10.539  10.228  68.132  1.00  0.00    -0.221 C  
BRANCH   5   8
HETATM    8  C   UNL     1     -10.122  11.163  65.800  1.00  0.00    -0.249 C  
HETATM    9  O   UNL     1      -9.493  11.033  64.755  1.00  0.00    -0.215 OA 
BRANCH   8  10
HETATM   10  N   UNL     1     -10.717  12.350  66.127  1.00  0.00    -0.254 N  
HETATM   11  H   UNL     1     -10.234  13.012  66.735  1.00  0.00     0.000 HD 
BRANCH  10  12
HETATM   12  C   UNL     1     -12.048  12.672  65.606  1.00  0.00    -0.443 C  
HETATM   13  F   UNL     1     -10.839  13.931  63.956  1.00  0.00    -0.319 F  
HETATM   14  C   UNL     1     -12.075  13.526  64.330  1.00  0.00    -0.431 C  
HETATM   15  F   UNL     1     -12.637  12.876  63.290  1.00  0.00    -0.518 F  
HETATM   16  F   UNL     1     -12.805  14.652  64.543  1.00  0.00    -0.396 F  
ENDBRANCH  10  12
ENDBRANCH   8  10
ENDBRANCH   5   8
BRANCH   6  17
HETATM   17  C   UNL     1      -9.403   8.969  70.043  1.00  0.00    -0.183 A  
HETATM   18  N   UNL     1      -7.772   9.291  71.628  1.00  0.00    -0.299 NA 
HETATM   19  C   UNL     1      -8.225   9.630  70.379  1.00  0.00    -0.160 A  
HETATM   20  C   UNL     1      -8.684   8.461  72.082  1.00  0.00    -0.205 A  
HETATM   21  C   UNL     1      -8.648   7.717  73.325  1.00  0.00    -0.177 A  
HETATM   22  N   UNL     1      -9.624   6.933  73.718  1.00  0.00    -0.201 NA 
HETATM   23  C   UNL     1     -10.683   6.917  72.865  1.00  0.00    -0.277 A  
HETATM   24  C   UNL     1     -10.853   7.580  71.663  1.00  0.00    -0.219 A  
HETATM   25  C   UNL     1     -12.147   7.343  71.179  1.00  0.00    -0.357 A  
HETATM   26  N   UNL     1      -9.756   8.342  71.221  1.00  0.00    -0.167 NA 
HETATM   27  C   UNL     1     -12.720   6.448  72.065  1.00  0.00    -0.017 A  
HETATM   28  N   UNL     1     -11.817   6.181  73.072  1.00  0.00    -0.432 NA 
HETATM   29  H   UNL     1     -11.971   5.537  73.848  1.00  0.00     0.000 HD 
ENDBRANCH   6  17
ENDBRANCH   2   3
TORSDOF 5
ENDMDL
MODEL      104
REMARK 921   NORMALIZED FREE ENERGY PREDICTED BY IDOCK:   -5.38 KCAL/MOL
REMARK 922        TOTAL FREE ENERGY PREDICTED BY IDOCK:   -7.17 KCAL/MOL
REMARK 923 INTER-LIGAND FREE ENERGY PREDICTED BY IDOCK:   -6.96 KCAL/MOL
REMARK 924 INTRA-LIGAND FREE ENERGY PREDICTED BY IDOCK:   -0.21 KCAL/MOL
REMARK 927      BINDING AFFINITY PREDICTED BY RF-SCORE:    0.00 PKD
ROOT
HETATM    1  C   UNL     1      -6.673   8.063  64.439  1.00  0.00    -0.061 C  
HETATM    2  C   UNL     1      -7.735   9.144  64.610  1.00  0.00    -0.113 C  
ENDROOT
BRANCH   2   3
HETATM    3  C   UNL     1      -7.417  10.134  65.753  1.00  0.00    -0.131 C  
HETATM    4  C   UNL     1      -6.770   9.433  66.950  1.00  0.00    -0.076 C  
HETATM    5  N   UNL     1      -7.901   8.921  67.691  1.00  0.00    -0.101 N  
HETATM    6  C   UNL     1      -8.659  10.814  66.409  1.00  0.00    -0.159 C  
HETATM    7  C   UNL     1      -9.037   9.816  67.540  1.00  0.00    -0.130 C  
BRANCH   5   8
HETATM    8  C   UNL     1      -7.869   7.665  68.243  1.00  0.00    -0.121 C  
HETATM    9  O   UNL     1      -7.203   6.746  67.778  1.00  0.00    -0.085 OA 
BRANCH   8  10
HETATM   10  N   UNL     1      -8.617   7.497  69.375  1.00  0.00    -0.133 N  
HETATM   11  H   UNL     1      -8.576   8.192  70.121  1.00  0.00     0.000 HD 
BRANCH  10  12
HETATM   12  C   UNL     1      -9.479   6.320  69.518  1.00  0.00    -0.141 C  
HETATM   13  F   UNL     1     -11.203   7.929  69.973  1.00  0.00    -0.256 F  
HETATM   14  C   UNL     1     -10.961   6.609  69.798  1.00  0.00    -0.313 C  
HETATM   15  F   UNL     1     -11.766   6.161  68.813  1.00  0.00    -0.346 F  
HETATM   16  F   UNL     1     -11.343   5.989  70.944  1.00  0.00    -0.349 F  
ENDBRANCH  10  12
ENDBRANCH   8  10
ENDBRANCH   5   8
BRANCH   6  17
HETATM   17  C   UNL     1      -9.806  11.126  65.486  1.00  0.00    -0.235 A  
HETATM   18  N   UNL     1     -11.094  11.396  63.604  1.00  0.00    -0.385 NA 
HETATM   19  C   UNL     1     -10.078  10.689  64.193  1.00  0.00    -0.334 A  
HETATM   20  C   UNL     1     -11.482  12.234  64.539  1.00  0.00    -0.341 A  
HETATM   21  C   UNL     1     -12.466  13.291  64.413  1.00  0.00    -0.290 A  
HETATM   22  N   UNL     1     -12.819  14.062  65.414  1.00  0.00    -0.716 NA 
HETATM   23  C   UNL     1     -12.199  13.750  66.584  1.00  0.00    -0.409 A  
HETATM   24  C   UNL     1     -11.257  12.771  66.845  1.00  0.00    -0.296 A  
HETATM   25  C   UNL     1     -10.975  12.751  68.218  1.00  0.00    -0.278 A  
HETATM   26  N   UNL     1     -10.831  12.018  65.736  1.00  0.00    -0.277 NA 
HETATM   27  C   UNL     1     -11.694  13.800  68.764  1.00  0.00    -0.356 A  
HETATM   28  N   UNL     1     -12.417  14.411  67.762  1.00  0.00    -0.526 NA 
HETATM   29  H   UNL     1     -13.018  15.227  67.880  1.00  0.00     0.000 HD 
ENDBRANCH   6  17
ENDBRANCH   2   3
TORSDOF 5
ENDMDL
MODEL      105
REMARK 921   NORMALIZED FREE ENERGY PREDICTED BY IDOCK:   -5.37 KCAL/MOL
REMARK 922        TOTAL FREE ENERGY PREDICTED BY IDOCK:   -7.16 KCAL/MOL
REMARK 923 INTER-LIGAND FREE ENERGY PREDICTED BY IDOCK:   -6.65 KCAL/MOL
REMARK 924 INTRA-LIGAND FREE ENERGY PREDICTED BY IDOCK:   -0.51 KCAL/MOL
REMARK 927      BINDING AFFINITY PREDICTED BY RF-SCORE:    0.00 PKD
ROOT
HETATM    1  C   UNL     1     -11.086   6.837  69.103  1.00  0.00    -0.270 C  
HETATM    2  C   UNL     1     -10.481   8.090  68.478  1.00  0.00    -0.200 C  
ENDROOT
BRANCH   2   3
HETATM    3  C   UNL     1     -10.491   8.065  66.933  1.00  0.00    -0.387 C  
HETATM    4  C   UNL     1      -9.696   6.882  66.377  1.00  0.00    -0.064 C  
HETATM    5  N   UNL     1      -8.334   7.363  66.373  1.00  0.00    -0.121 N  
HETATM    6  C   UNL     1      -9.791   9.277  66.243  1.00  0.00    -0.361 C  
HETATM    7  C   UNL     1      -8.317   8.796  66.122  1.00  0.00    -0.123 C  
BRANCH   5   8
HETATM    8  C   UNL     1      -7.300   6.552  66.770  1.00  0.00    -0.079 C  
HETATM    9  O   UNL     1      -6.180   6.976  67.034  1.00  0.00    -0.037 OA 
BRANCH   8  10
HETATM   10  N   UNL     1      -7.601   5.222  66.879  1.00  0.00    -0.088 N  
HETATM   11  H   UNL     1      -7.719   4.656  66.038  1.00  0.00     0.000 HD 
BRANCH  10  12
HETATM   12  C   UNL     1      -7.753   4.610  68.201  1.00  0.00    -0.081 C  
HETATM   13  F   UNL     1      -9.716   3.605  67.251  1.00  0.00    -0.229 F  
HETATM   14  C   UNL     1      -8.937   3.645  68.357  1.00  0.00    -0.128 C  
HETATM   15  F   UNL     1      -8.541   2.387  68.638  1.00  0.00    -0.078 F  
HETATM   16  F   UNL     1      -9.734   4.054  69.379  1.00  0.00    -0.238 F  
ENDBRANCH  10  12
ENDBRANCH   8  10
ENDBRANCH   5   8
BRANCH   6  17
HETATM   17  C   UNL     1      -9.924  10.604  66.942  1.00  0.00    -0.202 A  
HETATM   18  N   UNL     1      -9.989  12.231  68.561  1.00  0.00    -0.201 NA 
HETATM   19  C   UNL     1      -9.443  11.035  68.175  1.00  0.00    -0.172 A  
HETATM   20  C   UNL     1     -10.769  12.564  67.557  1.00  0.00    -0.225 A  
HETATM   21  C   UNL     1     -11.670  13.697  67.486  1.00  0.00    -0.371 A  
HETATM   22  N   UNL     1     -12.390  13.974  66.425  1.00  0.00    -0.461 NA 
HETATM   23  C   UNL     1     -12.180  13.117  65.389  1.00  0.00    -0.461 A  
HETATM   24  C   UNL     1     -11.351  12.012  65.318  1.00  0.00    -0.312 A  
HETATM   25  C   UNL     1     -11.383  11.490  64.017  1.00  0.00    -0.380 A  
HETATM   26  N   UNL     1     -10.659  11.685  66.498  1.00  0.00    -0.243 NA 
HETATM   27  C   UNL     1     -12.320  12.244  63.333  1.00  0.00    -0.517 A  
HETATM   28  N   UNL     1     -12.811  13.215  64.180  1.00  0.00    -0.622 NA 
HETATM   29  H   UNL     1     -13.531  13.897  63.942  1.00  0.00     0.000 HD 
ENDBRANCH   6  17
ENDBRANCH   2   3
TORSDOF 5
ENDMDL
MODEL      106
REMARK 921   NORMALIZED FREE ENERGY PREDICTED BY IDOCK:   -5.33 KCAL/MOL
REMARK 922        TOTAL FREE ENERGY PREDICTED BY IDOCK:   -7.11 KCAL/MOL
REMARK 923 INTER-LIGAND FREE ENERGY PREDICTED BY IDOCK:   -7.55 KCAL/MOL
REMARK 924 INTRA-LIGAND FREE ENERGY PREDICTED BY IDOCK:    0.43 KCAL/MOL
REMARK 927      BINDING AFFINITY PREDICTED BY RF-SCORE:    0.00 PKD
ROOT
HETATM    1  C   UNL     1      -7.332  10.540  69.024  1.00  0.00    -0.103 C  
HETATM    2  C   UNL     1      -8.511  11.422  68.631  1.00  0.00    -0.131 C  
ENDROOT
BRANCH   2   3
HETATM    3  C   UNL     1      -9.251  10.924  67.370  1.00  0.00    -0.155 C  
HETATM    4  C   UNL     1      -9.549  12.065  66.395  1.00  0.00    -0.228 C  
HETATM    5  N   UNL     1     -10.776  12.633  66.907  1.00  0.00    -0.240 N  
HETATM    6  C   UNL     1     -10.675  10.336  67.622  1.00  0.00    -0.339 C  
HETATM    7  C   UNL     1     -11.587  11.590  67.515  1.00  0.00    -0.246 C  
BRANCH   5   8
HETATM    8  C   UNL     1     -10.956  13.993  66.953  1.00  0.00    -0.298 C  
HETATM    9  O   UNL     1     -12.061  14.521  67.006  1.00  0.00    -0.398 OA 
BRANCH   8  10
HETATM   10  N   UNL     1      -9.811  14.741  66.960  1.00  0.00    -0.235 N  
HETATM   11  H   UNL     1      -9.122  14.613  67.702  1.00  0.00     0.000 HD 
BRANCH  10  12
HETATM   12  C   UNL     1      -9.571  15.726  65.902  1.00  0.00    -0.347 C  
HETATM   13  F   UNL     1     -10.721  17.237  67.372  1.00  0.00    -0.339 F  
HETATM   14  C   UNL     1     -10.050  17.154  66.200  1.00  0.00    -0.305 C  
HETATM   15  F   UNL     1      -9.033  18.040  66.233  1.00  0.00    -0.275 F  
HETATM   16  F   UNL     1     -10.910  17.564  65.230  1.00  0.00    -0.395 F  
ENDBRANCH  10  12
ENDBRANCH   8  10
ENDBRANCH   5   8
BRANCH   6  17
HETATM   17  C   UNL     1     -10.859   9.578  68.910  1.00  0.00    -0.150 A  
HETATM   18  N   UNL     1     -11.107   7.883  70.439  1.00  0.00    -0.254 NA 
HETATM   19  C   UNL     1     -10.560   8.259  69.240  1.00  0.00    -0.181 A  
HETATM   20  C   UNL     1     -11.703   8.971  70.872  1.00  0.00    -0.276 A  
HETATM   21  C   UNL     1     -12.531   9.103  72.055  1.00  0.00    -0.382 A  
HETATM   22  N   UNL     1     -13.061  10.242  72.433  1.00  0.00    -0.206 NA 
HETATM   23  C   UNL     1     -12.728  11.288  71.629  1.00  0.00    -0.343 A  
HETATM   24  C   UNL     1     -11.948  11.305  70.488  1.00  0.00    -0.371 A  
HETATM   25  C   UNL     1     -11.797  12.627  70.046  1.00  0.00    -0.358 A  
HETATM   26  N   UNL     1     -11.466  10.057  70.054  1.00  0.00    -0.256 NA 
HETATM   27  C   UNL     1     -12.580  13.395  70.890  1.00  0.00    -0.327 A  
HETATM   28  N   UNL     1     -13.156  12.571  71.833  1.00  0.00    -0.407 NA 
HETATM   29  H   UNL     1     -13.799  12.871  72.566  1.00  0.00     0.000 HD 
ENDBRANCH   6  17
ENDBRANCH   2   3
TORSDOF 5
ENDMDL
MODEL      107
REMARK 921   NORMALIZED FREE ENERGY PREDICTED BY IDOCK:   -5.33 KCAL/MOL
REMARK 922        TOTAL FREE ENERGY PREDICTED BY IDOCK:   -7.11 KCAL/MOL
REMARK 923 INTER-LIGAND FREE ENERGY PREDICTED BY IDOCK:   -7.57 KCAL/MOL
REMARK 924 INTRA-LIGAND FREE ENERGY PREDICTED BY IDOCK:    0.46 KCAL/MOL
REMARK 927      BINDING AFFINITY PREDICTED BY RF-SCORE:    0.00 PKD
ROOT
HETATM    1  C   UNL     1      -8.872  16.101  68.056  1.00  0.00    -0.181 C  
HETATM    2  C   UNL     1      -9.541  15.030  67.203  1.00  0.00    -0.222 C  
ENDROOT
BRANCH   2   3
HETATM    3  C   UNL     1     -11.060  15.252  67.029  1.00  0.00    -0.305 C  
HETATM    4  C   UNL     1     -11.763  15.462  68.372  1.00  0.00    -0.316 C  
HETATM    5  N   UNL     1     -12.000  14.116  68.843  1.00  0.00    -0.347 N  
HETATM    6  C   UNL     1     -11.847  14.039  66.440  1.00  0.00    -0.437 C  
HETATM    7  C   UNL     1     -12.232  13.231  67.712  1.00  0.00    -0.113 C  
BRANCH   5   8
HETATM    8  C   UNL     1     -11.802  13.787  70.161  1.00  0.00    -0.290 C  
HETATM    9  O   UNL     1     -11.654  14.624  71.045  1.00  0.00    -0.295 OA 
BRANCH   8  10
HETATM   10  N   UNL     1     -11.802  12.449  70.441  1.00  0.00    -0.541 N  
HETATM   11  H   UNL     1     -11.010  11.869  70.162  1.00  0.00     0.000 HD 
BRANCH  10  12
HETATM   12  C   UNL     1     -12.939  11.846  71.144  1.00  0.00    -0.172 C  
HETATM   13  F   UNL     1     -11.785   9.777  70.749  1.00  0.00    -0.300 F  
HETATM   14  C   UNL     1     -12.863  10.327  71.354  1.00  0.00    -0.441 C  
HETATM   15  F   UNL     1     -12.829   9.991  72.660  1.00  0.00    -0.339 F  
HETATM   16  F   UNL     1     -13.958   9.731  70.813  1.00  0.00    -0.341 F  
ENDBRANCH  10  12
ENDBRANCH   8  10
ENDBRANCH   5   8
BRANCH   6  17
HETATM   17  C   UNL     1     -11.119  13.215  65.413  1.00  0.00    -0.278 A  
HETATM   18  N   UNL     1     -10.511  12.209  63.440  1.00  0.00    -0.447 NA 
HETATM   19  C   UNL     1     -11.104  13.298  64.024  1.00  0.00    -0.311 A  
HETATM   20  C   UNL     1     -10.120  11.476  64.458  1.00  0.00    -0.278 A  
HETATM   21  C   UNL     1      -9.524  10.155  64.408  1.00  0.00    -0.308 A  
HETATM   22  N   UNL     1      -9.130   9.507  65.478  1.00  0.00    -0.195 NA 
HETATM   23  C   UNL     1      -9.303  10.209  66.631  1.00  0.00    -0.162 A  
HETATM   24  C   UNL     1      -9.843  11.468  66.820  1.00  0.00    -0.203 A  
HETATM   25  C   UNL     1      -9.726  11.827  68.170  1.00  0.00    -0.192 A  
HETATM   26  N   UNL     1     -10.340  12.103  65.667  1.00  0.00    -0.249 NA 
HETATM   27  C   UNL     1      -9.190  10.721  68.807  1.00  0.00    -0.189 A  
HETATM   28  N   UNL     1      -8.956   9.739  67.868  1.00  0.00    -0.119 NA 
HETATM   29  H   UNL     1      -8.584   8.810  68.065  1.00  0.00     0.000 HD 
ENDBRANCH   6  17
ENDBRANCH   2   3
TORSDOF 5
ENDMDL
MODEL      108
REMARK 921   NORMALIZED FREE ENERGY PREDICTED BY IDOCK:   -5.32 KCAL/MOL
REMARK 922        TOTAL FREE ENERGY PREDICTED BY IDOCK:   -7.09 KCAL/MOL
REMARK 923 INTER-LIGAND FREE ENERGY PREDICTED BY IDOCK:   -7.11 KCAL/MOL
REMARK 924 INTRA-LIGAND FREE ENERGY PREDICTED BY IDOCK:    0.02 KCAL/MOL
REMARK 927      BINDING AFFINITY PREDICTED BY RF-SCORE:    0.00 PKD
ROOT
HETATM    1  C   UNL     1     -13.121  14.652  65.477  1.00  0.00     0.273 C  
HETATM    2  C   UNL     1     -12.021  13.625  65.232  1.00  0.00    -0.395 C  
ENDROOT
BRANCH   2   3
HETATM    3  C   UNL     1     -12.028  12.469  66.257  1.00  0.00    -0.410 C  
HETATM    4  C   UNL     1     -12.112  12.984  67.696  1.00  0.00    -0.209 C  
HETATM    5  N   UNL     1     -10.738  13.287  68.026  1.00  0.00    -0.235 N  
HETATM    6  C   UNL     1     -10.727  11.609  66.299  1.00  0.00    -0.317 C  
HETATM    7  C   UNL     1      -9.850  12.365  67.337  1.00  0.00    -0.199 C  
BRANCH   5   8
HETATM    8  C   UNL     1     -10.417  14.425  68.723  1.00  0.00    -0.244 C  
HETATM    9  O   UNL     1      -9.722  15.321  68.257  1.00  0.00    -0.205 OA 
BRANCH   8  10
HETATM   10  N   UNL     1     -10.944  14.516  69.982  1.00  0.00    -0.451 N  
HETATM   11  H   UNL     1     -10.783  13.768  70.657  1.00  0.00     0.000 HD 
BRANCH  10  12
HETATM   12  C   UNL     1     -11.738  15.687  70.362  1.00  0.00    -0.357 C  
HETATM   13  F   UNL     1     -11.840  14.626  72.515  1.00  0.00    -0.363 F  
HETATM   14  C   UNL     1     -12.179  15.744  71.832  1.00  0.00    -0.459 C  
HETATM   15  F   UNL     1     -11.662  16.808  72.482  1.00  0.00    -0.574 F  
HETATM   16  F   UNL     1     -13.532  15.848  71.904  1.00  0.00    -0.520 F  
ENDBRANCH  10  12
ENDBRANCH   8  10
ENDBRANCH   5   8
BRANCH   6  17
HETATM   17  C   UNL     1     -10.032  11.396  64.980  1.00  0.00    -0.266 A  
HETATM   18  N   UNL     1      -9.491  11.478  62.750  1.00  0.00    -0.318 NA 
HETATM   19  C   UNL     1     -10.067  12.139  63.804  1.00  0.00    -0.379 A  
HETATM   20  C   UNL     1      -9.062  10.353  63.276  1.00  0.00    -0.263 A  
HETATM   21  C   UNL     1      -8.462   9.233  62.578  1.00  0.00    -0.203 A  
HETATM   22  N   UNL     1      -8.028   8.157  63.191  1.00  0.00    -0.155 NA 
HETATM   23  C   UNL     1      -8.163   8.213  64.544  1.00  0.00    -0.115 A  
HETATM   24  C   UNL     1      -8.701   9.214  65.332  1.00  0.00    -0.186 A  
HETATM   25  C   UNL     1      -8.537   8.880  66.684  1.00  0.00    -0.130 A  
HETATM   26  N   UNL     1      -9.240  10.315  64.644  1.00  0.00    -0.221 NA 
HETATM   27  C   UNL     1      -7.975   7.616  66.692  1.00  0.00    -0.107 A  
HETATM   28  N   UNL     1      -7.771   7.212  65.390  1.00  0.00    -0.103 NA 
HETATM   29  H   UNL     1      -7.388   6.311  65.104  1.00  0.00     0.000 HD 
ENDBRANCH   6  17
ENDBRANCH   2   3
TORSDOF 5
ENDMDL
MODEL      109
REMARK 921   NORMALIZED FREE ENERGY PREDICTED BY IDOCK:   -5.31 KCAL/MOL
REMARK 922        TOTAL FREE ENERGY PREDICTED BY IDOCK:   -7.08 KCAL/MOL
REMARK 923 INTER-LIGAND FREE ENERGY PREDICTED BY IDOCK:   -7.64 KCAL/MOL
REMARK 924 INTRA-LIGAND FREE ENERGY PREDICTED BY IDOCK:    0.55 KCAL/MOL
REMARK 927      BINDING AFFINITY PREDICTED BY RF-SCORE:    0.00 PKD
ROOT
HETATM    1  C   UNL     1     -11.939  15.520  69.740  1.00  0.00    -0.384 C  
HETATM    2  C   UNL     1     -11.094  16.295  68.734  1.00  0.00    -0.355 C  
ENDROOT
BRANCH   2   3
HETATM    3  C   UNL     1     -11.313  15.836  67.275  1.00  0.00    -0.059 C  
HETATM    4  C   UNL     1     -10.952  14.361  67.081  1.00  0.00    -0.303 C  
HETATM    5  N   UNL     1      -9.522  14.389  66.872  1.00  0.00    -0.247 N  
HETATM    6  C   UNL     1     -10.403  16.532  66.215  1.00  0.00    -0.327 C  
HETATM    7  C   UNL     1      -9.146  15.617  66.188  1.00  0.00    -0.342 C  
BRANCH   5   8
HETATM    8  C   UNL     1      -8.707  13.453  67.458  1.00  0.00    -0.205 C  
HETATM    9  O   UNL     1      -8.205  13.602  68.567  1.00  0.00    -0.150 OA 
BRANCH   8  10
HETATM   10  N   UNL     1      -8.501  12.312  66.733  1.00  0.00    -0.327 N  
HETATM   11  H   UNL     1      -7.974  12.350  65.861  1.00  0.00     0.000 HD 
BRANCH  10  12
HETATM   12  C   UNL     1      -9.039  11.034  67.208  1.00  0.00    -0.138 C  
HETATM   13  F   UNL     1     -10.840  11.494  65.688  1.00  0.00    -0.307 F  
HETATM   14  C   UNL     1     -10.343  10.571  66.543  1.00  0.00    -0.233 C  
HETATM   15  F   UNL     1     -10.192   9.411  65.870  1.00  0.00    -0.364 F  
HETATM   16  F   UNL     1     -11.296  10.366  67.490  1.00  0.00    -0.371 F  
ENDBRANCH  10  12
ENDBRANCH   8  10
ENDBRANCH   5   8
BRANCH   6  17
HETATM   17  C   UNL     1     -10.076  17.979  66.472  1.00  0.00    -0.379 A  
HETATM   18  N   UNL     1      -9.925  20.262  66.269  1.00  0.00    -0.410 NA 
HETATM   19  C   UNL     1     -10.672  19.144  65.998  1.00  0.00    -0.364 A  
HETATM   20  C   UNL     1      -8.897  19.801  66.945  1.00  0.00    -0.335 A  
HETATM   21  C   UNL     1      -7.738  20.548  67.393  1.00  0.00    -0.324 A  
HETATM   22  N   UNL     1      -6.769  20.012  68.096  1.00  0.00    -0.281 NA 
HETATM   23  C   UNL     1      -6.977  18.700  68.393  1.00  0.00    -0.260 A  
HETATM   24  C   UNL     1      -8.031  17.877  68.042  1.00  0.00    -0.250 A  
HETATM   25  C   UNL     1      -7.869  16.626  68.656  1.00  0.00    -0.234 A  
HETATM   26  N   UNL     1      -9.011  18.452  67.213  1.00  0.00    -0.260 NA 
HETATM   27  C   UNL     1      -6.649  16.684  69.306  1.00  0.00    -0.214 A  
HETATM   28  N   UNL     1      -6.107  17.938  69.123  1.00  0.00    -0.215 NA 
HETATM   29  H   UNL     1      -5.202  18.247  69.477  1.00  0.00     0.000 HD 
ENDBRANCH   6  17
ENDBRANCH   2   3
TORSDOF 5
ENDMDL
MODEL      110
REMARK 921   NORMALIZED FREE ENERGY PREDICTED BY IDOCK:   -5.30 KCAL/MOL
REMARK 922        TOTAL FREE ENERGY PREDICTED BY IDOCK:   -7.06 KCAL/MOL
REMARK 923 INTER-LIGAND FREE ENERGY PREDICTED BY IDOCK:   -6.87 KCAL/MOL
REMARK 924 INTRA-LIGAND FREE ENERGY PREDICTED BY IDOCK:   -0.20 KCAL/MOL
REMARK 927      BINDING AFFINITY PREDICTED BY RF-SCORE:    0.00 PKD
ROOT
HETATM    1  C   UNL     1     -14.384   7.504  71.814  1.00  0.00    -0.588 C  
HETATM    2  C   UNL     1     -13.264   8.532  71.693  1.00  0.00    -0.371 C  
ENDROOT
BRANCH   2   3
HETATM    3  C   UNL     1     -12.114   8.073  70.769  1.00  0.00    -0.088 C  
HETATM    4  C   UNL     1     -11.324   6.912  71.377  1.00  0.00    -0.270 C  
HETATM    5  N   UNL     1     -10.378   7.569  72.250  1.00  0.00    -0.207 N  
HETATM    6  C   UNL     1     -10.994   9.132  70.524  1.00  0.00    -0.307 C  
HETATM    7  C   UNL     1     -10.005   8.859  71.692  1.00  0.00    -0.327 C  
BRANCH   5   8
HETATM    8  C   UNL     1     -10.103   7.064  73.496  1.00  0.00    -0.310 C  
HETATM    9  O   UNL     1      -9.294   7.576  74.262  1.00  0.00    -0.195 OA 
BRANCH   8  10
HETATM   10  N   UNL     1     -10.812   5.950  73.852  1.00  0.00    -0.395 N  
HETATM   11  H   UNL     1     -11.806   5.886  73.632  1.00  0.00     0.000 HD 
BRANCH  10  12
HETATM   12  C   UNL     1     -10.145   4.847  74.549  1.00  0.00    -0.243 C  
HETATM   13  F   UNL     1     -10.659   3.593  72.567  1.00  0.00    -0.233 F  
HETATM   14  C   UNL     1     -10.023   3.536  73.760  1.00  0.00    -0.118 C  
HETATM   15  F   UNL     1      -8.738   3.190  73.535  1.00  0.00    -0.075 F  
HETATM   16  F   UNL     1     -10.596   2.522  74.458  1.00  0.00    -0.177 F  
ENDBRANCH  10  12
ENDBRANCH   8  10
ENDBRANCH   5   8
BRANCH   6  17
HETATM   17  C   UNL     1     -11.445  10.566  70.452  1.00  0.00    -0.341 A  
HETATM   18  N   UNL     1     -12.659  12.498  70.716  1.00  0.00    -0.267 NA 
HETATM   19  C   UNL     1     -12.323  11.285  71.259  1.00  0.00    -0.270 A  
HETATM   20  C   UNL     1     -11.963  12.552  69.603  1.00  0.00    -0.272 A  
HETATM   21  C   UNL     1     -12.021  13.581  68.584  1.00  0.00    -0.343 A  
HETATM   22  N   UNL     1     -11.259  13.573  67.515  1.00  0.00    -0.274 NA 
HETATM   23  C   UNL     1     -10.389  12.528  67.477  1.00  0.00    -0.220 A  
HETATM   24  C   UNL     1     -10.222  11.492  68.378  1.00  0.00    -0.205 A  
HETATM   25  C   UNL     1      -9.136  10.699  67.979  1.00  0.00    -0.147 A  
HETATM   26  N   UNL     1     -11.111  11.475  69.467  1.00  0.00    -0.226 NA 
HETATM   27  C   UNL     1      -8.714  11.224  66.770  1.00  0.00    -0.166 A  
HETATM   28  N   UNL     1      -9.493  12.320  66.465  1.00  0.00    -0.232 NA 
HETATM   29  H   UNL     1      -9.413  12.885  65.620  1.00  0.00     0.000 HD 
ENDBRANCH   6  17
ENDBRANCH   2   3
TORSDOF 5
ENDMDL
MODEL      111
REMARK 921   NORMALIZED FREE ENERGY PREDICTED BY IDOCK:   -5.29 KCAL/MOL
REMARK 922        TOTAL FREE ENERGY PREDICTED BY IDOCK:   -7.05 KCAL/MOL
REMARK 923 INTER-LIGAND FREE ENERGY PREDICTED BY IDOCK:   -5.97 KCAL/MOL
REMARK 924 INTRA-LIGAND FREE ENERGY PREDICTED BY IDOCK:   -1.08 KCAL/MOL
REMARK 927      BINDING AFFINITY PREDICTED BY RF-SCORE:    0.00 PKD
ROOT
HETATM    1  C   UNL     1     -10.842   6.557  67.394  1.00  0.00    -0.449 C  
HETATM    2  C   UNL     1     -10.082   7.849  67.115  1.00  0.00    -0.328 C  
ENDROOT
BRANCH   2   3
HETATM    3  C   UNL     1     -10.568   9.039  67.972  1.00  0.00    -0.242 C  
HETATM    4  C   UNL     1     -10.814  10.289  67.124  1.00  0.00    -0.212 C  
HETATM    5  N   UNL     1      -9.502  10.886  67.015  1.00  0.00    -0.164 N  
HETATM    6  C   UNL     1      -9.543   9.562  69.027  1.00  0.00    -0.166 C  
HETATM    7  C   UNL     1      -8.738  10.623  68.225  1.00  0.00    -0.135 C  
BRANCH   5   8
HETATM    8  C   UNL     1      -9.067  11.414  65.826  1.00  0.00    -0.184 C  
HETATM    9  O   UNL     1      -8.296  10.826  65.075  1.00  0.00    -0.147 OA 
BRANCH   8  10
HETATM   10  N   UNL     1      -9.568  12.646  65.507  1.00  0.00    -0.454 N  
HETATM   11  H   UNL     1     -10.001  12.800  64.596  1.00  0.00     0.000 HD 
BRANCH  10  12
HETATM   12  C   UNL     1      -9.483  13.745  66.473  1.00  0.00    -0.269 C  
HETATM   13  F   UNL     1     -11.826  13.326  66.799  1.00  0.00    -0.351 F  
HETATM   14  C   UNL     1     -10.778  14.063  67.235  1.00  0.00    -0.278 C  
HETATM   15  F   UNL     1     -10.652  13.869  68.564  1.00  0.00    -0.225 F  
HETATM   16  F   UNL     1     -11.114  15.366  67.049  1.00  0.00    -0.315 F  
ENDBRANCH  10  12
ENDBRANCH   8  10
ENDBRANCH   5   8
BRANCH   6  17
HETATM   17  C   UNL     1      -8.670   8.520  69.673  1.00  0.00    -0.133 A  
HETATM   18  N   UNL     1      -7.016   6.971  70.044  1.00  0.00    -0.060 NA 
HETATM   19  C   UNL     1      -7.367   8.121  69.386  1.00  0.00    -0.076 A  
HETATM   20  C   UNL     1      -8.074   6.681  70.766  1.00  0.00    -0.119 A  
HETATM   21  C   UNL     1      -8.281   5.499  71.580  1.00  0.00    -0.119 A  
HETATM   22  N   UNL     1      -9.361   5.308  72.301  1.00  0.00    -0.141 NA 
HETATM   23  C   UNL     1     -10.245   6.340  72.238  1.00  0.00    -0.187 A  
HETATM   24  C   UNL     1     -10.169   7.518  71.518  1.00  0.00    -0.188 A  
HETATM   25  C   UNL     1     -11.266   8.331  71.839  1.00  0.00    -0.365 A  
HETATM   26  N   UNL     1      -9.045   7.658  70.684  1.00  0.00    -0.157 NA 
HETATM   27  C   UNL     1     -12.052   7.579  72.694  1.00  0.00    -0.037 A  
HETATM   28  N   UNL     1     -11.434   6.366  72.913  1.00  0.00    -0.470 NA 
HETATM   29  H   UNL     1     -11.805   5.609  73.487  1.00  0.00     0.000 HD 
ENDBRANCH   6  17
ENDBRANCH   2   3
TORSDOF 5
ENDMDL
MODEL      112
REMARK 921   NORMALIZED FREE ENERGY PREDICTED BY IDOCK:   -5.27 KCAL/MOL
REMARK 922        TOTAL FREE ENERGY PREDICTED BY IDOCK:   -7.03 KCAL/MOL
REMARK 923 INTER-LIGAND FREE ENERGY PREDICTED BY IDOCK:   -6.67 KCAL/MOL
REMARK 924 INTRA-LIGAND FREE ENERGY PREDICTED BY IDOCK:   -0.36 KCAL/MOL
REMARK 927      BINDING AFFINITY PREDICTED BY RF-SCORE:    0.00 PKD
ROOT
HETATM    1  C   UNL     1     -12.786  10.972  71.389  1.00  0.00    -0.548 C  
HETATM    2  C   UNL     1     -12.035  11.554  70.197  1.00  0.00    -0.452 C  
ENDROOT
BRANCH   2   3
HETATM    3  C   UNL     1     -11.676  10.496  69.129  1.00  0.00    -0.261 C  
HETATM    4  C   UNL     1     -11.110   9.221  69.758  1.00  0.00    -0.150 C  
HETATM    5  N   UNL     1      -9.709   9.530  69.941  1.00  0.00    -0.209 N  
HETATM    6  C   UNL     1     -10.536  10.905  68.145  1.00  0.00    -0.233 C  
HETATM    7  C   UNL     1      -9.257  10.419  68.883  1.00  0.00    -0.177 C  
BRANCH   5   8
HETATM    8  C   UNL     1      -9.053   9.163  71.090  1.00  0.00    -0.205 C  
HETATM    9  O   UNL     1      -9.634   8.894  72.136  1.00  0.00    -0.301 OA 
BRANCH   8  10
HETATM   10  N   UNL     1      -7.691   9.091  70.995  1.00  0.00    -0.129 N  
HETATM   11  H   UNL     1      -7.158   9.900  70.676  1.00  0.00     0.000 HD 
BRANCH  10  12
HETATM   12  C   UNL     1      -6.995   7.851  71.351  1.00  0.00    -0.055 C  
HETATM   13  F   UNL     1      -6.667   8.923  73.475  1.00  0.00    -0.099 F  
HETATM   14  C   UNL     1      -6.479   7.768  72.795  1.00  0.00    -0.066 C  
HETATM   15  F   UNL     1      -7.061   6.770  73.491  1.00  0.00    -0.075 F  
HETATM   16  F   UNL     1      -5.141   7.532  72.794  1.00  0.00    -0.035 F  
ENDBRANCH  10  12
ENDBRANCH   8  10
ENDBRANCH   5   8
BRANCH   6  17
HETATM   17  C   UNL     1     -10.482  12.360  67.762  1.00  0.00    -0.218 A  
HETATM   18  N   UNL     1     -10.614  14.651  67.836  1.00  0.00    -0.242 NA 
HETATM   19  C   UNL     1     -10.385  13.504  68.549  1.00  0.00    -0.240 A  
HETATM   20  C   UNL     1     -10.809  14.228  66.607  1.00  0.00    -0.301 A  
HETATM   21  C   UNL     1     -11.197  15.024  65.459  1.00  0.00    -0.344 A  
HETATM   22  N   UNL     1     -11.336  14.521  64.255  1.00  0.00    -0.205 NA 
HETATM   23  C   UNL     1     -11.046  13.194  64.185  1.00  0.00    -0.394 A  
HETATM   24  C   UNL     1     -10.657  12.326  65.189  1.00  0.00    -0.285 A  
HETATM   25  C   UNL     1     -10.369  11.071  64.633  1.00  0.00    -0.410 A  
HETATM   26  N   UNL     1     -10.604  12.869  66.485  1.00  0.00    -0.257 NA 
HETATM   27  C   UNL     1     -10.682  11.175  63.289  1.00  0.00    -0.121 A  
HETATM   28  N   UNL     1     -11.111  12.460  63.032  1.00  0.00    -0.655 NA 
HETATM   29  H   UNL     1     -11.426  12.808  62.126  1.00  0.00     0.000 HD 
ENDBRANCH   6  17
ENDBRANCH   2   3
TORSDOF 5
ENDMDL
MODEL      113
REMARK 921   NORMALIZED FREE ENERGY PREDICTED BY IDOCK:   -5.26 KCAL/MOL
REMARK 922        TOTAL FREE ENERGY PREDICTED BY IDOCK:   -7.02 KCAL/MOL
REMARK 923 INTER-LIGAND FREE ENERGY PREDICTED BY IDOCK:   -5.83 KCAL/MOL
REMARK 924 INTRA-LIGAND FREE ENERGY PREDICTED BY IDOCK:   -1.20 KCAL/MOL
REMARK 927      BINDING AFFINITY PREDICTED BY RF-SCORE:    0.00 PKD
ROOT
HETATM    1  C   UNL     1      -7.773   8.011  71.891  1.00  0.00    -0.114 C  
HETATM    2  C   UNL     1      -8.689   8.250  70.696  1.00  0.00    -0.144 C  
ENDROOT
BRANCH   2   3
HETATM    3  C   UNL     1     -10.133   8.623  71.102  1.00  0.00    -0.290 C  
HETATM    4  C   UNL     1     -10.565   7.913  72.387  1.00  0.00    -0.298 C  
HETATM    5  N   UNL     1     -11.015   6.621  71.923  1.00  0.00    -0.236 N  
HETATM    6  C   UNL     1     -11.242   8.177  70.099  1.00  0.00    -0.134 C  
HETATM    7  C   UNL     1     -11.599   6.748  70.597  1.00  0.00    -0.370 C  
BRANCH   5   8
HETATM    8  C   UNL     1     -10.699   5.476  72.612  1.00  0.00    -0.243 C  
HETATM    9  O   UNL     1     -11.455   4.953  73.424  1.00  0.00    -0.336 OA 
BRANCH   8  10
HETATM   10  N   UNL     1      -9.480   4.929  72.320  1.00  0.00    -0.137 N  
HETATM   11  H   UNL     1      -8.638   5.294  72.764  1.00  0.00     0.000 HD 
BRANCH  10  12
HETATM   12  C   UNL     1      -9.384   3.817  71.370  1.00  0.00    -0.138 C  
HETATM   13  F   UNL     1      -8.797   5.527  69.789  1.00  0.00    -0.112 F  
HETATM   14  C   UNL     1      -8.931   4.190  69.951  1.00  0.00    -0.099 C  
HETATM   15  F   UNL     1      -7.763   3.606  69.615  1.00  0.00    -0.050 F  
HETATM   16  F   UNL     1      -9.860   3.781  69.048  1.00  0.00    -0.242 F  
ENDBRANCH  10  12
ENDBRANCH   8  10
ENDBRANCH   5   8
BRANCH   6  17
HETATM   17  C   UNL     1     -10.872   8.221  68.641  1.00  0.00     0.077 A  
HETATM   18  N   UNL     1      -9.982   7.698  66.589  1.00  0.00    -0.232 NA 
HETATM   19  C   UNL     1     -10.465   7.209  67.775  1.00  0.00    -0.223 A  
HETATM   20  C   UNL     1     -10.128   8.999  66.698  1.00  0.00    -0.285 A  
HETATM   21  C   UNL     1      -9.680  10.011  65.762  1.00  0.00    -0.257 A  
HETATM   22  N   UNL     1      -9.900  11.293  65.935  1.00  0.00    -0.222 NA 
HETATM   23  C   UNL     1     -10.619  11.573  67.056  1.00  0.00    -0.242 A  
HETATM   24  C   UNL     1     -11.113  10.713  68.019  1.00  0.00    -0.301 A  
HETATM   25  C   UNL     1     -11.880  11.439  68.942  1.00  0.00    -0.413 A  
HETATM   26  N   UNL     1     -10.786   9.355  67.858  1.00  0.00    -0.206 NA 
HETATM   27  C   UNL     1     -11.759  12.766  68.567  1.00  0.00    -0.333 A  
HETATM   28  N   UNL     1     -10.976  12.838  67.435  1.00  0.00    -0.246 NA 
HETATM   29  H   UNL     1     -10.707  13.698  66.956  1.00  0.00     0.000 HD 
ENDBRANCH   6  17
ENDBRANCH   2   3
TORSDOF 5
ENDMDL
MODEL      114
REMARK 921   NORMALIZED FREE ENERGY PREDICTED BY IDOCK:   -5.26 KCAL/MOL
REMARK 922        TOTAL FREE ENERGY PREDICTED BY IDOCK:   -7.02 KCAL/MOL
REMARK 923 INTER-LIGAND FREE ENERGY PREDICTED BY IDOCK:   -6.10 KCAL/MOL
REMARK 924 INTRA-LIGAND FREE ENERGY PREDICTED BY IDOCK:   -0.92 KCAL/MOL
REMARK 927      BINDING AFFINITY PREDICTED BY RF-SCORE:    0.00 PKD
ROOT
HETATM    1  C   UNL     1     -11.471  16.150  68.030  1.00  0.00    -0.163 C  
HETATM    2  C   UNL     1      -9.997  16.518  68.154  1.00  0.00    -0.248 C  
ENDROOT
BRANCH   2   3
HETATM    3  C   UNL     1      -9.183  16.208  66.878  1.00  0.00    -0.246 C  
HETATM    4  C   UNL     1      -9.676  14.937  66.182  1.00  0.00    -0.306 C  
HETATM    5  N   UNL     1      -8.993  13.879  66.891  1.00  0.00    -0.237 N  
HETATM    6  C   UNL     1      -7.675  15.883  67.113  1.00  0.00    -0.247 C  
HETATM    7  C   UNL     1      -7.688  14.343  67.334  1.00  0.00    -0.185 C  
BRANCH   5   8
HETATM    8  C   UNL     1      -9.648  12.721  67.226  1.00  0.00    -0.208 C  
HETATM    9  O   UNL     1     -10.440  12.158  66.478  1.00  0.00    -0.219 OA 
BRANCH   8  10
HETATM   10  N   UNL     1      -9.346  12.206  68.457  1.00  0.00    -0.345 N  
HETATM   11  H   UNL     1      -9.239  12.829  69.258  1.00  0.00     0.000 HD 
BRANCH  10  12
HETATM   12  C   UNL     1      -9.176  10.761  68.627  1.00  0.00    -0.184 C  
HETATM   13  F   UNL     1     -10.609  11.053  70.532  1.00  0.00     0.011 F  
HETATM   14  C   UNL     1      -9.962  10.128  69.784  1.00  0.00    -0.220 C  
HETATM   15  F   UNL     1     -10.867   9.224  69.357  1.00  0.00    -0.221 F  
HETATM   16  F   UNL     1      -9.109   9.480  70.621  1.00  0.00    -0.253 F  
ENDBRANCH  10  12
ENDBRANCH   8  10
ENDBRANCH   5   8
BRANCH   6  17
HETATM   17  C   UNL     1      -7.002  16.635  68.230  1.00  0.00    -0.155 A  
HETATM   18  N   UNL     1      -6.252  17.267  70.306  1.00  0.00     0.079 NA 
HETATM   19  C   UNL     1      -6.604  16.218  69.497  1.00  0.00    -0.202 A  
HETATM   20  C   UNL     1      -6.387  18.323  69.536  1.00  0.00    -0.230 A  
HETATM   21  C   UNL     1      -6.242  19.712  69.923  1.00  0.00    -0.321 A  
HETATM   22  N   UNL     1      -6.362  20.707  69.075  1.00  0.00    -0.253 NA 
HETATM   23  C   UNL     1      -6.598  20.305  67.797  1.00  0.00    -0.263 A  
HETATM   24  C   UNL     1      -6.746  19.026  67.293  1.00  0.00    -0.197 A  
HETATM   25  C   UNL     1      -6.875  19.087  65.898  1.00  0.00    -0.296 A  
HETATM   26  N   UNL     1      -6.704  17.984  68.236  1.00  0.00    -0.201 NA 
HETATM   27  C   UNL     1      -6.896  20.435  65.583  1.00  0.00    -0.247 A  
HETATM   28  N   UNL     1      -6.747  21.164  66.744  1.00  0.00    -0.538 NA 
HETATM   29  H   UNL     1      -6.749  22.182  66.806  1.00  0.00     0.000 HD 
ENDBRANCH   6  17
ENDBRANCH   2   3
TORSDOF 5
ENDMDL
MODEL      115
REMARK 921   NORMALIZED FREE ENERGY PREDICTED BY IDOCK:   -5.26 KCAL/MOL
REMARK 922        TOTAL FREE ENERGY PREDICTED BY IDOCK:   -7.01 KCAL/MOL
REMARK 923 INTER-LIGAND FREE ENERGY PREDICTED BY IDOCK:   -7.69 KCAL/MOL
REMARK 924 INTRA-LIGAND FREE ENERGY PREDICTED BY IDOCK:    0.68 KCAL/MOL
REMARK 927      BINDING AFFINITY PREDICTED BY RF-SCORE:    0.00 PKD
ROOT
HETATM    1  C   UNL     1      -6.382  13.150  68.488  1.00  0.00    -0.082 C  
HETATM    2  C   UNL     1      -7.357  12.125  69.057  1.00  0.00     0.000 C  
ENDROOT
BRANCH   2   3
HETATM    3  C   UNL     1      -8.331  11.559  67.999  1.00  0.00    -0.146 C  
HETATM    4  C   UNL     1      -9.095  12.670  67.276  1.00  0.00    -0.191 C  
HETATM    5  N   UNL     1     -10.201  12.950  68.163  1.00  0.00    -0.233 N  
HETATM    6  C   UNL     1      -9.492  10.684  68.565  1.00  0.00    -0.176 C  
HETATM    7  C   UNL     1     -10.603  11.733  68.851  1.00  0.00    -0.180 C  
BRANCH   5   8
HETATM    8  C   UNL     1     -10.598  14.241  68.407  1.00  0.00    -0.253 C  
HETATM    9  O   UNL     1     -11.303  14.882  67.635  1.00  0.00    -0.315 OA 
BRANCH   8  10
HETATM   10  N   UNL     1     -10.173  14.776  69.592  1.00  0.00    -0.428 N  
HETATM   11  H   UNL     1      -9.334  14.413  70.044  1.00  0.00     0.000 HD 
BRANCH  10  12
HETATM   12  C   UNL     1     -10.923  15.872  70.213  1.00  0.00    -0.362 C  
HETATM   13  F   UNL     1     -11.916  14.130  71.535  1.00  0.00    -0.385 F  
HETATM   14  C   UNL     1     -11.862  15.470  71.360  1.00  0.00    -0.401 C  
HETATM   15  F   UNL     1     -11.508  16.034  72.533  1.00  0.00    -0.494 F  
HETATM   16  F   UNL     1     -13.128  15.877  71.083  1.00  0.00    -0.519 F  
ENDBRANCH  10  12
ENDBRANCH   8  10
ENDBRANCH   5   8
BRANCH   6  17
HETATM   17  C   UNL     1      -9.158   9.834  69.762  1.00  0.00    -0.225 A  
HETATM   18  N   UNL     1      -8.170   8.293  71.149  1.00  0.00    -0.110 NA 
HETATM   19  C   UNL     1      -7.991   9.152  70.096  1.00  0.00    -0.121 A  
HETATM   20  C   UNL     1      -9.425   8.471  71.495  1.00  0.00    -0.222 A  
HETATM   21  C   UNL     1     -10.170   7.732  72.495  1.00  0.00    -0.260 A  
HETATM   22  N   UNL     1     -11.417   8.002  72.802  1.00  0.00    -0.405 NA 
HETATM   23  C   UNL     1     -11.926   9.063  72.119  1.00  0.00    -0.325 A  
HETATM   24  C   UNL     1     -11.329   9.856  71.156  1.00  0.00    -0.370 A  
HETATM   25  C   UNL     1     -12.201  10.895  70.802  1.00  0.00    -0.483 A  
HETATM   26  N   UNL     1     -10.024   9.489  70.781  1.00  0.00    -0.283 NA 
HETATM   27  C   UNL     1     -13.371  10.657  71.502  1.00  0.00    -0.262 A  
HETATM   28  N   UNL     1     -13.200   9.533  72.282  1.00  0.00    -0.462 NA 
HETATM   29  H   UNL     1     -13.912   9.118  72.884  1.00  0.00     0.000 HD 
ENDBRANCH   6  17
ENDBRANCH   2   3
TORSDOF 5
ENDMDL
MODEL      116
REMARK 921   NORMALIZED FREE ENERGY PREDICTED BY IDOCK:   -5.23 KCAL/MOL
REMARK 922        TOTAL FREE ENERGY PREDICTED BY IDOCK:   -6.98 KCAL/MOL
REMARK 923 INTER-LIGAND FREE ENERGY PREDICTED BY IDOCK:   -6.82 KCAL/MOL
REMARK 924 INTRA-LIGAND FREE ENERGY PREDICTED BY IDOCK:   -0.17 KCAL/MOL
REMARK 927      BINDING AFFINITY PREDICTED BY RF-SCORE:    0.00 PKD
ROOT
HETATM    1  C   UNL     1     -13.150  14.565  65.342  1.00  0.00     0.125 C  
HETATM    2  C   UNL     1     -12.165  13.434  65.068  1.00  0.00    -0.463 C  
ENDROOT
BRANCH   2   3
HETATM    3  C   UNL     1     -11.923  12.527  66.296  1.00  0.00    -0.410 C  
HETATM    4  C   UNL     1     -12.024  13.307  67.609  1.00  0.00    -0.322 C  
HETATM    5  N   UNL     1     -10.706  13.883  67.759  1.00  0.00    -0.244 N  
HETATM    6  C   UNL     1     -10.494  11.909  66.396  1.00  0.00    -0.258 C  
HETATM    7  C   UNL     1      -9.709  12.990  67.190  1.00  0.00    -0.230 C  
BRANCH   5   8
HETATM    8  C   UNL     1     -10.550  15.176  68.192  1.00  0.00    -0.246 C  
HETATM    9  O   UNL     1     -10.307  15.467  69.358  1.00  0.00    -0.227 OA 
BRANCH   8  10
HETATM   10  N   UNL     1     -10.660  16.140  67.228  1.00  0.00    -0.311 N  
HETATM   11  H   UNL     1     -11.067  15.910  66.321  1.00  0.00     0.000 HD 
BRANCH  10  12
HETATM   12  C   UNL     1     -10.193  17.503  67.495  1.00  0.00    -0.340 C  
HETATM   13  F   UNL     1     -10.969  17.955  65.268  1.00  0.00    -0.416 F  
HETATM   14  C   UNL     1     -10.442  18.525  66.377  1.00  0.00    -0.406 C  
HETATM   15  F   UNL     1     -11.262  19.522  66.768  1.00  0.00    -0.502 F  
HETATM   16  F   UNL     1      -9.267  19.093  66.001  1.00  0.00    -0.329 F  
ENDBRANCH  10  12
ENDBRANCH   8  10
ENDBRANCH   5   8
BRANCH   6  17
HETATM   17  C   UNL     1      -9.839  11.542  65.091  1.00  0.00    -0.257 A  
HETATM   18  N   UNL     1      -9.316  11.426  62.858  1.00  0.00    -0.362 NA 
HETATM   19  C   UNL     1      -9.808  12.209  63.870  1.00  0.00    -0.214 A  
HETATM   20  C   UNL     1      -9.002  10.297  63.452  1.00  0.00    -0.240 A  
HETATM   21  C   UNL     1      -8.531   9.079  62.824  1.00  0.00    -0.206 A  
HETATM   22  N   UNL     1      -8.207   8.004  63.503  1.00  0.00    -0.093 NA 
HETATM   23  C   UNL     1      -8.321   8.158  64.850  1.00  0.00    -0.123 A  
HETATM   24  C   UNL     1      -8.742   9.257  65.575  1.00  0.00    -0.175 A  
HETATM   25  C   UNL     1      -8.601   8.993  66.945  1.00  0.00    -0.128 A  
HETATM   26  N   UNL     1      -9.170  10.364  64.821  1.00  0.00    -0.209 NA 
HETATM   27  C   UNL     1      -8.175   7.679  67.031  1.00  0.00    -0.117 A  
HETATM   28  N   UNL     1      -8.028   7.176  65.756  1.00  0.00    -0.115 NA 
HETATM   29  H   UNL     1      -7.746   6.223  65.526  1.00  0.00     0.000 HD 
ENDBRANCH   6  17
ENDBRANCH   2   3
TORSDOF 5
ENDMDL
MODEL      117
REMARK 921   NORMALIZED FREE ENERGY PREDICTED BY IDOCK:   -5.23 KCAL/MOL
REMARK 922        TOTAL FREE ENERGY PREDICTED BY IDOCK:   -6.98 KCAL/MOL
REMARK 923 INTER-LIGAND FREE ENERGY PREDICTED BY IDOCK:   -6.98 KCAL/MOL
REMARK 924 INTRA-LIGAND FREE ENERGY PREDICTED BY IDOCK:   -0.01 KCAL/MOL
REMARK 927      BINDING AFFINITY PREDICTED BY RF-SCORE:    0.00 PKD
ROOT
HETATM    1  C   UNL     1      -8.663   7.622  73.735  1.00  0.00    -0.290 C  
HETATM    2  C   UNL     1      -9.809   8.312  73.003  1.00  0.00    -0.248 C  
ENDROOT
BRANCH   2   3
HETATM    3  C   UNL     1     -11.095   7.457  72.943  1.00  0.00    -0.397 C  
HETATM    4  C   UNL     1     -10.804   6.020  72.503  1.00  0.00    -0.247 C  
HETATM    5  N   UNL     1     -10.779   6.109  71.060  1.00  0.00    -0.248 N  
HETATM    6  C   UNL     1     -12.148   7.911  71.884  1.00  0.00    -0.352 C  
HETATM    7  C   UNL     1     -11.712   7.131  70.612  1.00  0.00    -0.307 C  
BRANCH   5   8
HETATM    8  C   UNL     1      -9.830   5.438  70.330  1.00  0.00    -0.205 C  
HETATM    9  O   UNL     1      -8.665   5.321  70.695  1.00  0.00    -0.121 OA 
BRANCH   8  10
HETATM   10  N   UNL     1     -10.269   4.876  69.163  1.00  0.00    -0.165 N  
HETATM   11  H   UNL     1     -11.091   4.271  69.166  1.00  0.00     0.000 HD 
BRANCH  10  12
HETATM   12  C   UNL     1      -9.561   5.143  67.908  1.00  0.00    -0.135 C  
HETATM   13  F   UNL     1     -11.531   6.391  67.335  1.00  0.00    -0.401 F  
HETATM   14  C   UNL     1     -10.287   6.062  66.916  1.00  0.00    -0.244 C  
HETATM   15  F   UNL     1      -9.606   7.203  66.681  1.00  0.00    -0.183 F  
HETATM   16  F   UNL     1     -10.434   5.429  65.723  1.00  0.00    -0.153 F  
ENDBRANCH  10  12
ENDBRANCH   8  10
ENDBRANCH   5   8
BRANCH   6  17
HETATM   17  C   UNL     1     -12.260   9.395  71.658  1.00  0.00    -0.390 A  
HETATM   18  N   UNL     1     -13.080  11.537  71.528  1.00  0.00    -0.398 NA 
HETATM   19  C   UNL     1     -13.158  10.328  72.170  1.00  0.00    -0.343 A  
HETATM   20  C   UNL     1     -12.112  11.372  70.656  1.00  0.00    -0.372 A  
HETATM   21  C   UNL     1     -11.680  12.311  69.639  1.00  0.00    -0.316 A  
HETATM   22  N   UNL     1     -10.675  12.076  68.829  1.00  0.00    -0.226 NA 
HETATM   23  C   UNL     1     -10.059  10.885  69.059  1.00  0.00    -0.196 A  
HETATM   24  C   UNL     1     -10.358   9.909  69.993  1.00  0.00    -0.272 A  
HETATM   25  C   UNL     1      -9.390   8.896  69.932  1.00  0.00    -0.172 A  
HETATM   26  N   UNL     1     -11.493  10.145  70.788  1.00  0.00    -0.335 NA 
HETATM   27  C   UNL     1      -8.557   9.236  68.880  1.00  0.00    -0.130 A  
HETATM   28  N   UNL     1      -8.984  10.433  68.345  1.00  0.00    -0.132 NA 
HETATM   29  H   UNL     1      -8.564  10.906  67.545  1.00  0.00     0.000 HD 
ENDBRANCH   6  17
ENDBRANCH   2   3
TORSDOF 5
ENDMDL
MODEL      118
REMARK 921   NORMALIZED FREE ENERGY PREDICTED BY IDOCK:   -5.23 KCAL/MOL
REMARK 922        TOTAL FREE ENERGY PREDICTED BY IDOCK:   -6.98 KCAL/MOL
REMARK 923 INTER-LIGAND FREE ENERGY PREDICTED BY IDOCK:   -7.36 KCAL/MOL
REMARK 924 INTRA-LIGAND FREE ENERGY PREDICTED BY IDOCK:    0.38 KCAL/MOL
REMARK 927      BINDING AFFINITY PREDICTED BY RF-SCORE:    0.00 PKD
ROOT
HETATM    1  C   UNL     1      -7.412  13.787  67.496  1.00  0.00    -0.182 C  
HETATM    2  C   UNL     1      -7.872  12.370  67.170  1.00  0.00    -0.138 C  
ENDROOT
BRANCH   2   3
HETATM    3  C   UNL     1      -8.611  11.686  68.342  1.00  0.00    -0.156 C  
HETATM    4  C   UNL     1      -8.197  10.220  68.499  1.00  0.00    -0.111 C  
HETATM    5  N   UNL     1      -9.038   9.530  67.548  1.00  0.00    -0.130 N  
HETATM    6  C   UNL     1     -10.158  11.568  68.176  1.00  0.00    -0.201 C  
HETATM    7  C   UNL     1     -10.319  10.209  67.437  1.00  0.00    -0.238 C  
BRANCH   5   8
HETATM    8  C   UNL     1      -8.533   8.523  66.764  1.00  0.00    -0.109 C  
HETATM    9  O   UNL     1      -7.347   8.441  66.461  1.00  0.00    -0.079 OA 
BRANCH   8  10
HETATM   10  N   UNL     1      -9.438   7.586  66.349  1.00  0.00    -0.304 N  
HETATM   11  H   UNL     1     -10.373   7.873  66.058  1.00  0.00     0.000 HD 
BRANCH  10  12
HETATM   12  C   UNL     1      -9.068   6.168  66.323  1.00  0.00    -0.154 C  
HETATM   13  F   UNL     1     -11.438   5.788  66.392  1.00  0.00    -0.163 F  
HETATM   14  C   UNL     1     -10.237   5.174  66.286  1.00  0.00    -0.253 C  
HETATM   15  F   UNL     1     -10.243   4.430  65.161  1.00  0.00    -0.200 F  
HETATM   16  F   UNL     1     -10.146   4.315  67.336  1.00  0.00    -0.219 F  
ENDBRANCH  10  12
ENDBRANCH   8  10
ENDBRANCH   5   8
BRANCH   6  17
HETATM   17  C   UNL     1     -10.835  12.710  67.468  1.00  0.00    -0.239 A  
HETATM   18  N   UNL     1     -12.160  14.530  67.013  1.00  0.00    -0.354 NA 
HETATM   19  C   UNL     1     -11.441  13.859  67.968  1.00  0.00    -0.307 A  
HETATM   20  C   UNL     1     -11.967  13.830  65.919  1.00  0.00    -0.406 A  
HETATM   21  C   UNL     1     -12.586  14.040  64.625  1.00  0.00    -0.248 A  
HETATM   22  N   UNL     1     -12.307  13.309  63.571  1.00  0.00    -0.753 NA 
HETATM   23  C   UNL     1     -11.356  12.364  63.804  1.00  0.00    -0.464 A  
HETATM   24  C   UNL     1     -10.682  12.065  64.974  1.00  0.00    -0.296 A  
HETATM   25  C   UNL     1      -9.718  11.080  64.718  1.00  0.00    -0.311 A  
HETATM   26  N   UNL     1     -11.065  12.803  66.109  1.00  0.00    -0.282 NA 
HETATM   27  C   UNL     1      -9.890  10.724  63.392  1.00  0.00    -0.349 A  
HETATM   28  N   UNL     1     -10.898  11.494  62.852  1.00  0.00    -0.716 NA 
HETATM   29  H   UNL     1     -11.247  11.425  61.897  1.00  0.00     0.000 HD 
ENDBRANCH   6  17
ENDBRANCH   2   3
TORSDOF 5
ENDMDL
MODEL      119
REMARK 921   NORMALIZED FREE ENERGY PREDICTED BY IDOCK:   -5.23 KCAL/MOL
REMARK 922        TOTAL FREE ENERGY PREDICTED BY IDOCK:   -6.98 KCAL/MOL
REMARK 923 INTER-LIGAND FREE ENERGY PREDICTED BY IDOCK:   -7.06 KCAL/MOL
REMARK 924 INTRA-LIGAND FREE ENERGY PREDICTED BY IDOCK:    0.08 KCAL/MOL
REMARK 927      BINDING AFFINITY PREDICTED BY RF-SCORE:    0.00 PKD
ROOT
HETATM    1  C   UNL     1     -10.835  14.550  64.847  1.00  0.00    -0.436 C  
HETATM    2  C   UNL     1     -10.650  13.341  65.758  1.00  0.00    -0.291 C  
ENDROOT
BRANCH   2   3
HETATM    3  C   UNL     1     -11.790  13.175  66.787  1.00  0.00    -0.444 C  
HETATM    4  C   UNL     1     -11.968  14.428  67.648  1.00  0.00    -0.343 C  
HETATM    5  N   UNL     1     -10.983  14.262  68.692  1.00  0.00    -0.243 N  
HETATM    6  C   UNL     1     -11.556  12.073  67.867  1.00  0.00    -0.405 C  
HETATM    7  C   UNL     1     -10.815  12.849  68.993  1.00  0.00    -0.145 C  
BRANCH   5   8
HETATM    8  C   UNL     1     -10.224  15.323  69.118  1.00  0.00    -0.242 C  
HETATM    9  O   UNL     1     -10.609  16.126  69.961  1.00  0.00    -0.300 OA 
BRANCH   8  10
HETATM   10  N   UNL     1      -8.981  15.424  68.557  1.00  0.00    -0.184 N  
HETATM   11  H   UNL     1      -8.206  14.876  68.931  1.00  0.00     0.000 HD 
BRANCH  10  12
HETATM   12  C   UNL     1      -8.761  16.318  67.417  1.00  0.00    -0.182 C  
HETATM   13  F   UNL     1      -6.623  16.711  68.437  1.00  0.00    -0.128 F  
HETATM   14  C   UNL     1      -7.381  16.987  67.350  1.00  0.00    -0.158 C  
HETATM   15  F   UNL     1      -6.687  16.625  66.251  1.00  0.00    -0.226 F  
HETATM   16  F   UNL     1      -7.523  18.337  67.309  1.00  0.00    -0.204 F  
ENDBRANCH  10  12
ENDBRANCH   8  10
ENDBRANCH   5   8
BRANCH   6  17
HETATM   17  C   UNL     1     -10.817  10.845  67.409  1.00  0.00    -0.279 A  
HETATM   18  N   UNL     1      -9.901   9.202  66.091  1.00  0.00    -0.287 NA 
HETATM   19  C   UNL     1     -10.278  10.517  66.168  1.00  0.00    -0.236 A  
HETATM   20  C   UNL     1     -10.162   8.725  67.288  1.00  0.00    -0.263 A  
HETATM   21  C   UNL     1     -10.049   7.348  67.725  1.00  0.00    -0.184 A  
HETATM   22  N   UNL     1     -10.299   6.966  68.955  1.00  0.00    -0.184 NA 
HETATM   23  C   UNL     1     -10.637   7.991  69.784  1.00  0.00    -0.238 A  
HETATM   24  C   UNL     1     -10.771   9.338  69.504  1.00  0.00    -0.222 A  
HETATM   25  C   UNL     1     -11.037  10.036  70.690  1.00  0.00    -0.408 A  
HETATM   26  N   UNL     1     -10.586   9.708  68.159  1.00  0.00    -0.223 NA 
HETATM   27  C   UNL     1     -11.154   9.070  71.674  1.00  0.00    -0.363 A  
HETATM   28  N   UNL     1     -10.930   7.833  71.110  1.00  0.00    -0.236 NA 
HETATM   29  H   UNL     1     -10.976   6.941  71.604  1.00  0.00     0.000 HD 
ENDBRANCH   6  17
ENDBRANCH   2   3
TORSDOF 5
ENDMDL
MODEL      120
REMARK 921   NORMALIZED FREE ENERGY PREDICTED BY IDOCK:   -5.22 KCAL/MOL
REMARK 922        TOTAL FREE ENERGY PREDICTED BY IDOCK:   -6.97 KCAL/MOL
REMARK 923 INTER-LIGAND FREE ENERGY PREDICTED BY IDOCK:   -5.97 KCAL/MOL
REMARK 924 INTRA-LIGAND FREE ENERGY PREDICTED BY IDOCK:   -1.00 KCAL/MOL
REMARK 927      BINDING AFFINITY PREDICTED BY RF-SCORE:    0.00 PKD
ROOT
HETATM    1  C   UNL     1     -12.519   6.867  71.847  1.00  0.00    -0.350 C  
HETATM    2  C   UNL     1     -11.654   6.812  70.592  1.00  0.00    -0.422 C  
ENDROOT
BRANCH   2   3
HETATM    3  C   UNL     1     -10.292   7.522  70.760  1.00  0.00    -0.205 C  
HETATM    4  C   UNL     1     -10.438   8.876  71.459  1.00  0.00    -0.323 C  
HETATM    5  N   UNL     1     -10.789   9.774  70.382  1.00  0.00    -0.287 N  
HETATM    6  C   UNL     1      -9.581   7.921  69.430  1.00  0.00    -0.160 C  
HETATM    7  C   UNL     1     -10.152   9.340  69.149  1.00  0.00    -0.199 C  
BRANCH   5   8
HETATM    8  C   UNL     1     -11.754  10.735  70.555  1.00  0.00    -0.351 C  
HETATM    9  O   UNL     1     -12.798  10.533  71.165  1.00  0.00    -0.357 OA 
BRANCH   8  10
HETATM   10  N   UNL     1     -11.471  11.960  70.017  1.00  0.00    -0.516 N  
HETATM   11  H   UNL     1     -10.807  12.580  70.481  1.00  0.00     0.000 HD 
BRANCH  10  12
HETATM   12  C   UNL     1     -12.120  12.383  68.773  1.00  0.00    -0.110 C  
HETATM   13  F   UNL     1      -9.940  12.089  67.810  1.00  0.00    -0.182 F  
HETATM   14  C   UNL     1     -11.229  12.385  67.523  1.00  0.00    -0.294 C  
HETATM   15  F   UNL     1     -11.661  11.518  66.584  1.00  0.00    -0.374 F  
HETATM   16  F   UNL     1     -11.228  13.621  66.959  1.00  0.00    -0.289 F  
ENDBRANCH  10  12
ENDBRANCH   8  10
ENDBRANCH   5   8
BRANCH   6  17
HETATM   17  C   UNL     1      -9.760   6.973  68.274  1.00  0.00    -0.135 A  
HETATM   18  N   UNL     1     -10.640   5.859  66.469  1.00  0.00    -0.232 NA 
HETATM   19  C   UNL     1     -10.596   7.040  67.163  1.00  0.00    -0.341 A  
HETATM   20  C   UNL     1      -9.805   5.078  67.116  1.00  0.00    -0.182 A  
HETATM   21  C   UNL     1      -9.547   3.673  66.866  1.00  0.00    -0.150 A  
HETATM   22  N   UNL     1      -8.666   2.976  67.543  1.00  0.00    -0.108 NA 
HETATM   23  C   UNL     1      -7.995   3.707  68.474  1.00  0.00    -0.070 A  
HETATM   24  C   UNL     1      -8.132   5.043  68.806  1.00  0.00    -0.084 A  
HETATM   25  C   UNL     1      -7.159   5.388  69.756  1.00  0.00    -0.063 A  
HETATM   26  N   UNL     1      -9.145   5.744  68.129  1.00  0.00    -0.111 NA 
HETATM   27  C   UNL     1      -6.496   4.211  70.057  1.00  0.00    -0.032 A  
HETATM   28  N   UNL     1      -7.024   3.195  69.290  1.00  0.00    -0.041 NA 
HETATM   29  H   UNL     1      -6.736   2.217  69.325  1.00  0.00     0.000 HD 
ENDBRANCH   6  17
ENDBRANCH   2   3
TORSDOF 5
ENDMDL
MODEL      121
REMARK 921   NORMALIZED FREE ENERGY PREDICTED BY IDOCK:   -5.19 KCAL/MOL
REMARK 922        TOTAL FREE ENERGY PREDICTED BY IDOCK:   -6.93 KCAL/MOL
REMARK 923 INTER-LIGAND FREE ENERGY PREDICTED BY IDOCK:   -5.96 KCAL/MOL
REMARK 924 INTRA-LIGAND FREE ENERGY PREDICTED BY IDOCK:   -0.97 KCAL/MOL
REMARK 927      BINDING AFFINITY PREDICTED BY RF-SCORE:    0.00 PKD
ROOT
HETATM    1  C   UNL     1     -11.498   6.687  70.063  1.00  0.00    -0.434 C  
HETATM    2  C   UNL     1     -11.026   7.874  69.230  1.00  0.00     0.009 C  
ENDROOT
BRANCH   2   3
HETATM    3  C   UNL     1     -10.621   9.095  70.086  1.00  0.00    -0.258 C  
HETATM    4  C   UNL     1     -11.306  10.377  69.610  1.00  0.00    -0.272 C  
HETATM    5  N   UNL     1     -10.456  10.833  68.533  1.00  0.00    -0.176 N  
HETATM    6  C   UNL     1      -9.112   9.488  70.012  1.00  0.00    -0.255 C  
HETATM    7  C   UNL     1      -9.074  10.470  68.807  1.00  0.00    -0.166 C  
BRANCH   5   8
HETATM    8  C   UNL     1     -10.996  11.331  67.373  1.00  0.00    -0.282 C  
HETATM    9  O   UNL     1     -12.150  11.739  67.294  1.00  0.00    -0.595 OA 
BRANCH   8  10
HETATM   10  N   UNL     1     -10.153  11.369  66.297  1.00  0.00    -0.217 N  
HETATM   11  H   UNL     1      -9.193  11.693  66.413  1.00  0.00     0.000 HD 
BRANCH  10  12
HETATM   12  C   UNL     1     -10.628  10.942  64.978  1.00  0.00    -0.217 C  
HETATM   13  F   UNL     1     -10.275  13.238  64.369  1.00  0.00    -0.391 F  
HETATM   14  C   UNL     1     -10.625  12.022  63.887  1.00  0.00    -0.400 C  
HETATM   15  F   UNL     1      -9.795  11.719  62.867  1.00  0.00    -0.388 F  
HETATM   16  F   UNL     1     -11.872  12.155  63.366  1.00  0.00    -0.483 F  
ENDBRANCH  10  12
ENDBRANCH   8  10
ENDBRANCH   5   8
BRANCH   6  17
HETATM   17  C   UNL     1      -8.138   8.349  69.877  1.00  0.00    -0.119 A  
HETATM   18  N   UNL     1      -6.728   6.762  68.998  1.00  0.00    -0.057 NA 
HETATM   19  C   UNL     1      -7.270   8.012  68.842  1.00  0.00    -0.075 A  
HETATM   20  C   UNL     1      -7.220   6.343  70.142  1.00  0.00    -0.084 A  
HETATM   21  C   UNL     1      -7.054   5.033  70.739  1.00  0.00    -0.056 A  
HETATM   22  N   UNL     1      -7.554   4.711  71.908  1.00  0.00    -0.085 NA 
HETATM   23  C   UNL     1      -8.212   5.734  72.518  1.00  0.00    -0.117 A  
HETATM   24  C   UNL     1      -8.434   7.024  72.071  1.00  0.00    -0.112 A  
HETATM   25  C   UNL     1      -9.072   7.762  73.079  1.00  0.00    -0.269 A  
HETATM   26  N   UNL     1      -7.965   7.316  70.778  1.00  0.00    -0.098 NA 
HETATM   27  C   UNL     1      -9.313   6.865  74.104  1.00  0.00    -0.235 A  
HETATM   28  N   UNL     1      -8.806   5.634  73.746  1.00  0.00    -0.124 NA 
HETATM   29  H   UNL     1      -8.865   4.784  74.307  1.00  0.00     0.000 HD 
ENDBRANCH   6  17
ENDBRANCH   2   3
TORSDOF 5
ENDMDL
MODEL      122
REMARK 921   NORMALIZED FREE ENERGY PREDICTED BY IDOCK:   -5.19 KCAL/MOL
REMARK 922        TOTAL FREE ENERGY PREDICTED BY IDOCK:   -6.92 KCAL/MOL
REMARK 923 INTER-LIGAND FREE ENERGY PREDICTED BY IDOCK:   -6.34 KCAL/MOL
REMARK 924 INTRA-LIGAND FREE ENERGY PREDICTED BY IDOCK:   -0.58 KCAL/MOL
REMARK 927      BINDING AFFINITY PREDICTED BY RF-SCORE:    0.00 PKD
ROOT
HETATM    1  C   UNL     1     -11.867   5.865  72.266  1.00  0.00    -0.266 C  
HETATM    2  C   UNL     1     -11.764   7.016  71.272  1.00  0.00    -0.356 C  
ENDROOT
BRANCH   2   3
HETATM    3  C   UNL     1     -11.204   6.585  69.898  1.00  0.00    -0.456 C  
HETATM    4  C   UNL     1     -10.275   5.375  70.015  1.00  0.00    -0.279 C  
HETATM    5  N   UNL     1      -9.001   5.962  70.366  1.00  0.00    -0.146 N  
HETATM    6  C   UNL     1     -10.283   7.632  69.197  1.00  0.00    -0.204 C  
HETATM    7  C   UNL     1      -8.875   7.273  69.750  1.00  0.00    -0.142 C  
BRANCH   5   8
HETATM    8  C   UNL     1      -8.197   5.381  71.315  1.00  0.00    -0.120 C  
HETATM    9  O   UNL     1      -7.453   4.436  71.075  1.00  0.00    -0.049 OA 
BRANCH   8  10
HETATM   10  N   UNL     1      -8.255   5.941  72.561  1.00  0.00    -0.116 N  
HETATM   11  H   UNL     1      -9.052   5.750  73.169  1.00  0.00     0.000 HD 
BRANCH  10  12
HETATM   12  C   UNL     1      -7.174   6.815  73.025  1.00  0.00    -0.076 C  
HETATM   13  F   UNL     1      -8.816   8.556  72.835  1.00  0.00    -0.274 F  
HETATM   14  C   UNL     1      -7.549   8.289  73.228  1.00  0.00    -0.119 C  
HETATM   15  F   UNL     1      -7.415   8.681  74.512  1.00  0.00    -0.239 F  
HETATM   16  F   UNL     1      -6.736   9.080  72.480  1.00  0.00    -0.064 F  
ENDBRANCH  10  12
ENDBRANCH   8  10
ENDBRANCH   5   8
BRANCH   6  17
HETATM   17  C   UNL     1     -10.649   9.078  69.403  1.00  0.00    -0.221 A  
HETATM   18  N   UNL     1     -11.534  11.013  70.267  1.00  0.00    -0.298 NA 
HETATM   19  C   UNL     1     -11.057   9.758  70.546  1.00  0.00    -0.321 A  
HETATM   20  C   UNL     1     -11.382  11.128  68.967  1.00  0.00    -0.276 A  
HETATM   21  C   UNL     1     -11.821  12.226  68.128  1.00  0.00    -0.311 A  
HETATM   22  N   UNL     1     -11.595  12.275  66.837  1.00  0.00    -0.435 NA 
HETATM   23  C   UNL     1     -10.879  11.216  66.371  1.00  0.00    -0.225 A  
HETATM   24  C   UNL     1     -10.392  10.117  67.055  1.00  0.00    -0.244 A  
HETATM   25  C   UNL     1      -9.625   9.330  66.185  1.00  0.00    -0.327 A  
HETATM   26  N   UNL     1     -10.726  10.044  68.419  1.00  0.00    -0.223 NA 
HETATM   27  C   UNL     1      -9.738   9.927  64.942  1.00  0.00    -0.262 A  
HETATM   28  N   UNL     1     -10.516  11.059  65.062  1.00  0.00    -0.291 NA 
HETATM   29  H   UNL     1     -10.780  11.678  64.296  1.00  0.00     0.000 HD 
ENDBRANCH   6  17
ENDBRANCH   2   3
TORSDOF 5
ENDMDL
MODEL      123
REMARK 921   NORMALIZED FREE ENERGY PREDICTED BY IDOCK:   -5.18 KCAL/MOL
REMARK 922        TOTAL FREE ENERGY PREDICTED BY IDOCK:   -6.91 KCAL/MOL
REMARK 923 INTER-LIGAND FREE ENERGY PREDICTED BY IDOCK:   -6.04 KCAL/MOL
REMARK 924 INTRA-LIGAND FREE ENERGY PREDICTED BY IDOCK:   -0.87 KCAL/MOL
REMARK 927      BINDING AFFINITY PREDICTED BY RF-SCORE:    0.00 PKD
ROOT
HETATM    1  C   UNL     1     -10.426   5.633  69.061  1.00  0.00    -0.321 C  
HETATM    2  C   UNL     1     -10.511   7.110  69.433  1.00  0.00    -0.232 C  
ENDROOT
BRANCH   2   3
HETATM    3  C   UNL     1      -9.183   7.676  69.983  1.00  0.00    -0.151 C  
HETATM    4  C   UNL     1      -8.577   6.768  71.056  1.00  0.00    -0.136 C  
HETATM    5  N   UNL     1      -9.263   7.169  72.263  1.00  0.00    -0.132 N  
HETATM    6  C   UNL     1      -9.301   9.035  70.741  1.00  0.00    -0.305 C  
HETATM    7  C   UNL     1      -9.578   8.588  72.204  1.00  0.00    -0.312 C  
BRANCH   5   8
HETATM    8  C   UNL     1      -9.694   6.234  73.171  1.00  0.00    -0.159 C  
HETATM    9  O   UNL     1     -10.357   6.519  74.162  1.00  0.00    -0.341 OA 
BRANCH   8  10
HETATM   10  N   UNL     1      -9.357   4.938  72.890  1.00  0.00    -0.130 N  
HETATM   11  H   UNL     1      -8.404   4.613  73.051  1.00  0.00     0.000 HD 
BRANCH  10  12
HETATM   12  C   UNL     1     -10.364   4.017  72.357  1.00  0.00    -0.137 C  
HETATM   13  F   UNL     1      -9.722   2.620  74.201  1.00  0.00    -0.103 F  
HETATM   14  C   UNL     1     -10.588   2.732  73.167  1.00  0.00    -0.162 C  
HETATM   15  F   UNL     1     -11.842   2.646  73.657  1.00  0.00    -0.321 F  
HETATM   16  F   UNL     1     -10.390   1.647  72.375  1.00  0.00    -0.188 F  
ENDBRANCH  10  12
ENDBRANCH   8  10
ENDBRANCH   5   8
BRANCH   6  17
HETATM   17  C   UNL     1     -10.330   9.999  70.212  1.00  0.00    -0.242 A  
HETATM   18  N   UNL     1     -12.322  11.048  69.760  1.00  0.00    -0.305 NA 
HETATM   19  C   UNL     1     -11.615  10.294  70.660  1.00  0.00    -0.347 A  
HETATM   20  C   UNL     1     -11.471  11.258  68.782  1.00  0.00    -0.293 A  
HETATM   21  C   UNL     1     -11.735  11.918  67.518  1.00  0.00    -0.265 A  
HETATM   22  N   UNL     1     -10.810  12.116  66.608  1.00  0.00    -0.256 NA 
HETATM   23  C   UNL     1      -9.578  11.676  66.982  1.00  0.00    -0.184 A  
HETATM   24  C   UNL     1      -9.188  11.045  68.149  1.00  0.00    -0.165 A  
HETATM   25  C   UNL     1      -7.797  10.865  68.138  1.00  0.00    -0.114 A  
HETATM   26  N   UNL     1     -10.214  10.764  69.068  1.00  0.00    -0.206 NA 
HETATM   27  C   UNL     1      -7.372  11.315  66.900  1.00  0.00    -0.145 A  
HETATM   28  N   UNL     1      -8.462  11.785  66.199  1.00  0.00    -0.385 NA 
HETATM   29  H   UNL     1      -8.438  12.155  65.249  1.00  0.00     0.000 HD 
ENDBRANCH   6  17
ENDBRANCH   2   3
TORSDOF 5
ENDMDL
MODEL      124
REMARK 921   NORMALIZED FREE ENERGY PREDICTED BY IDOCK:   -5.18 KCAL/MOL
REMARK 922        TOTAL FREE ENERGY PREDICTED BY IDOCK:   -6.91 KCAL/MOL
REMARK 923 INTER-LIGAND FREE ENERGY PREDICTED BY IDOCK:   -6.13 KCAL/MOL
REMARK 924 INTRA-LIGAND FREE ENERGY PREDICTED BY IDOCK:   -0.78 KCAL/MOL
REMARK 927      BINDING AFFINITY PREDICTED BY RF-SCORE:    0.00 PKD
ROOT
HETATM    1  C   UNL     1      -8.969   7.273  67.611  1.00  0.00    -0.126 C  
HETATM    2  C   UNL     1      -9.675   8.608  67.397  1.00  0.00    -0.227 C  
ENDROOT
BRANCH   2   3
HETATM    3  C   UNL     1      -8.934   9.798  68.047  1.00  0.00    -0.118 C  
HETATM    4  C   UNL     1      -9.208   9.887  69.550  1.00  0.00    -0.223 C  
HETATM    5  N   UNL     1     -10.458  10.609  69.622  1.00  0.00    -0.213 N  
HETATM    6  C   UNL     1      -9.381  11.210  67.553  1.00  0.00    -0.174 C  
HETATM    7  C   UNL     1     -10.545  11.558  68.523  1.00  0.00    -0.210 C  
BRANCH   5   8
HETATM    8  C   UNL     1     -11.439  10.230  70.505  1.00  0.00    -0.343 C  
HETATM    9  O   UNL     1     -12.484  10.854  70.652  1.00  0.00    -0.322 OA 
BRANCH   8  10
HETATM   10  N   UNL     1     -11.190   9.083  71.207  1.00  0.00    -0.287 N  
HETATM   11  H   UNL     1     -10.565   9.104  72.013  1.00  0.00     0.000 HD 
BRANCH  10  12
HETATM   12  C   UNL     1     -11.822   7.824  70.804  1.00  0.00    -0.187 C  
HETATM   13  F   UNL     1     -13.257   8.212  72.690  1.00  0.00    -0.198 F  
HETATM   14  C   UNL     1     -13.037   7.391  71.637  1.00  0.00    -0.364 C  
HETATM   15  F   UNL     1     -14.168   7.335  70.903  1.00  0.00    -0.455 F  
HETATM   16  F   UNL     1     -12.828   6.150  72.149  1.00  0.00    -0.356 F  
ENDBRANCH  10  12
ENDBRANCH   8  10
ENDBRANCH   5   8
BRANCH   6  17
HETATM   17  C   UNL     1      -9.770  11.310  66.102  1.00  0.00    -0.220 A  
HETATM   18  N   UNL     1     -10.999  11.439  64.167  1.00  0.00    -0.359 NA 
HETATM   19  C   UNL     1     -10.956  11.729  65.506  1.00  0.00    -0.290 A  
HETATM   20  C   UNL     1      -9.833  10.885  63.923  1.00  0.00    -0.331 A  
HETATM   21  C   UNL     1      -9.389  10.292  62.677  1.00  0.00    -0.309 A  
HETATM   22  N   UNL     1      -8.188   9.790  62.512  1.00  0.00    -0.128 NA 
HETATM   23  C   UNL     1      -7.393   9.913  63.610  1.00  0.00    -0.126 A  
HETATM   24  C   UNL     1      -7.682  10.460  64.846  1.00  0.00    -0.084 A  
HETATM   25  C   UNL     1      -6.525  10.461  65.638  1.00  0.00    -0.125 A  
HETATM   26  N   UNL     1      -9.003  10.909  65.026  1.00  0.00    -0.192 NA 
HETATM   27  C   UNL     1      -5.557   9.818  64.886  1.00  0.00    -0.072 A  
HETATM   28  N   UNL     1      -6.100   9.471  63.667  1.00  0.00    -0.092 NA 
HETATM   29  H   UNL     1      -5.614   8.966  62.926  1.00  0.00     0.000 HD 
ENDBRANCH   6  17
ENDBRANCH   2   3
TORSDOF 5
ENDMDL
MODEL      125
REMARK 921   NORMALIZED FREE ENERGY PREDICTED BY IDOCK:   -5.17 KCAL/MOL
REMARK 922        TOTAL FREE ENERGY PREDICTED BY IDOCK:   -6.90 KCAL/MOL
REMARK 923 INTER-LIGAND FREE ENERGY PREDICTED BY IDOCK:   -6.24 KCAL/MOL
REMARK 924 INTRA-LIGAND FREE ENERGY PREDICTED BY IDOCK:   -0.66 KCAL/MOL
REMARK 927      BINDING AFFINITY PREDICTED BY RF-SCORE:    0.00 PKD
ROOT
HETATM    1  C   UNL     1      -9.361  10.807  64.139  1.00  0.00    -0.286 C  
HETATM    2  C   UNL     1      -9.193  11.008  65.641  1.00  0.00    -0.231 C  
ENDROOT
BRANCH   2   3
HETATM    3  C   UNL     1     -10.538  11.084  66.398  1.00  0.00    -0.308 C  
HETATM    4  C   UNL     1     -11.492  12.099  65.764  1.00  0.00    -0.361 C  
HETATM    5  N   UNL     1     -11.079  13.357  66.343  1.00  0.00    -0.296 N  
HETATM    6  C   UNL     1     -10.446  11.603  67.867  1.00  0.00    -0.217 C  
HETATM    7  C   UNL     1     -10.591  13.142  67.696  1.00  0.00    -0.228 C  
BRANCH   5   8
HETATM    8  C   UNL     1     -10.998  14.492  65.575  1.00  0.00    -0.335 C  
HETATM    9  O   UNL     1     -10.883  14.468  64.354  1.00  0.00    -0.284 OA 
BRANCH   8  10
HETATM   10  N   UNL     1     -11.078  15.675  66.258  1.00  0.00    -0.200 N  
HETATM   11  H   UNL     1     -11.792  15.802  66.975  1.00  0.00     0.000 HD 
BRANCH  10  12
HETATM   12  C   UNL     1     -10.138  16.759  65.959  1.00  0.00    -0.332 C  
HETATM   13  F   UNL     1     -10.948  17.709  68.011  1.00  0.00    -0.374 F  
HETATM   14  C   UNL     1     -10.048  17.871  67.014  1.00  0.00    -0.340 C  
HETATM   15  F   UNL     1      -8.820  17.955  67.566  1.00  0.00    -0.239 F  
HETATM   16  F   UNL     1     -10.315  19.073  66.441  1.00  0.00    -0.373 F  
ENDBRANCH  10  12
ENDBRANCH   8  10
ENDBRANCH   5   8
BRANCH   6  17
HETATM   17  C   UNL     1      -9.212  11.207  68.632  1.00  0.00    -0.171 A  
HETATM   18  N   UNL     1      -7.023  10.943  69.277  1.00  0.00    -0.099 NA 
HETATM   19  C   UNL     1      -7.927  11.742  68.625  1.00  0.00    -0.116 A  
HETATM   20  C   UNL     1      -7.748   9.942  69.724  1.00  0.00    -0.155 A  
HETATM   21  C   UNL     1      -7.273   8.750  70.399  1.00  0.00    -0.050 A  
HETATM   22  N   UNL     1      -8.076   7.813  70.844  1.00  0.00    -0.100 NA 
HETATM   23  C   UNL     1      -9.393   8.086  70.643  1.00  0.00    -0.158 A  
HETATM   24  C   UNL     1      -9.979   9.178  70.029  1.00  0.00    -0.199 A  
HETATM   25  C   UNL     1     -11.374   9.081  70.140  1.00  0.00    -0.139 A  
HETATM   26  N   UNL     1      -9.094  10.123  69.481  1.00  0.00    -0.207 NA 
HETATM   27  C   UNL     1     -11.617   7.863  70.750  1.00  0.00    -0.247 A  
HETATM   28  N   UNL     1     -10.410   7.259  71.032  1.00  0.00    -0.200 NA 
HETATM   29  H   UNL     1     -10.295   6.341  71.462  1.00  0.00     0.000 HD 
ENDBRANCH   6  17
ENDBRANCH   2   3
TORSDOF 5
ENDMDL
MODEL      126
REMARK 921   NORMALIZED FREE ENERGY PREDICTED BY IDOCK:   -5.16 KCAL/MOL
REMARK 922        TOTAL FREE ENERGY PREDICTED BY IDOCK:   -6.88 KCAL/MOL
REMARK 923 INTER-LIGAND FREE ENERGY PREDICTED BY IDOCK:   -6.86 KCAL/MOL
REMARK 924 INTRA-LIGAND FREE ENERGY PREDICTED BY IDOCK:   -0.02 KCAL/MOL
REMARK 927      BINDING AFFINITY PREDICTED BY RF-SCORE:    0.00 PKD
ROOT
HETATM    1  C   UNL     1      -7.376   8.007  67.080  1.00  0.00    -0.091 C  
HETATM    2  C   UNL     1      -8.638   8.799  67.405  1.00  0.00    -0.126 C  
ENDROOT
BRANCH   2   3
HETATM    3  C   UNL     1      -8.687   9.291  68.869  1.00  0.00    -0.131 C  
HETATM    4  C   UNL     1      -9.107   8.177  69.831  1.00  0.00    -0.151 C  
HETATM    5  N   UNL     1     -10.551   8.199  69.761  1.00  0.00    -0.231 N  
HETATM    6  C   UNL     1      -9.752  10.392  69.166  1.00  0.00    -0.234 C  
HETATM    7  C   UNL     1     -11.014   9.558  69.529  1.00  0.00    -0.195 C  
BRANCH   5   8
HETATM    8  C   UNL     1     -11.271   7.031  69.717  1.00  0.00    -0.217 C  
HETATM    9  O   UNL     1     -11.154   6.206  68.818  1.00  0.00    -0.344 OA 
BRANCH   8  10
HETATM   10  N   UNL     1     -12.125   6.824  70.765  1.00  0.00    -0.444 N  
HETATM   11  H   UNL     1     -13.113   6.640  70.589  1.00  0.00     0.000 HD 
BRANCH  10  12
HETATM   12  C   UNL     1     -11.622   6.866  72.141  1.00  0.00    -0.284 C  
HETATM   13  F   UNL     1     -10.628   4.750  71.593  1.00  0.00    -0.260 F  
HETATM   14  C   UNL     1     -10.721   5.695  72.557  1.00  0.00    -0.239 C  
HETATM   15  F   UNL     1      -9.473   6.096  72.875  1.00  0.00    -0.150 F  
HETATM   16  F   UNL     1     -11.238   5.082  73.654  1.00  0.00    -0.334 F  
ENDBRANCH  10  12
ENDBRANCH   8  10
ENDBRANCH   5   8
BRANCH   6  17
HETATM   17  C   UNL     1      -9.998  11.388  68.064  1.00  0.00    -0.182 A  
HETATM   18  N   UNL     1      -9.809  12.599  66.122  1.00  0.00    -0.258 NA 
HETATM   19  C   UNL     1      -9.588  11.393  66.734  1.00  0.00    -0.188 A  
HETATM   20  C   UNL     1     -10.393  13.324  67.049  1.00  0.00    -0.246 A  
HETATM   21  C   UNL     1     -10.754  14.725  66.967  1.00  0.00    -0.300 A  
HETATM   22  N   UNL     1     -11.369  15.364  67.934  1.00  0.00    -0.334 NA 
HETATM   23  C   UNL     1     -11.667  14.574  69.001  1.00  0.00    -0.311 A  
HETATM   24  C   UNL     1     -11.394  13.234  69.204  1.00  0.00    -0.282 A  
HETATM   25  C   UNL     1     -11.979  12.818  70.409  1.00  0.00    -0.331 A  
HETATM   26  N   UNL     1     -10.655  12.596  68.192  1.00  0.00    -0.221 NA 
HETATM   27  C   UNL     1     -12.527  13.957  70.972  1.00  0.00    -0.377 A  
HETATM   28  N   UNL     1     -12.315  15.019  70.120  1.00  0.00    -0.402 NA 
HETATM   29  H   UNL     1     -12.597  15.983  70.297  1.00  0.00     0.000 HD 
ENDBRANCH   6  17
ENDBRANCH   2   3
TORSDOF 5
ENDMDL
MODEL      127
REMARK 921   NORMALIZED FREE ENERGY PREDICTED BY IDOCK:   -5.15 KCAL/MOL
REMARK 922        TOTAL FREE ENERGY PREDICTED BY IDOCK:   -6.87 KCAL/MOL
REMARK 923 INTER-LIGAND FREE ENERGY PREDICTED BY IDOCK:   -6.02 KCAL/MOL
REMARK 924 INTRA-LIGAND FREE ENERGY PREDICTED BY IDOCK:   -0.85 KCAL/MOL
REMARK 927      BINDING AFFINITY PREDICTED BY RF-SCORE:    0.00 PKD
ROOT
HETATM    1  C   UNL     1     -11.074   6.003  69.839  1.00  0.00    -0.469 C  
HETATM    2  C   UNL     1     -10.958   7.483  69.491  1.00  0.00    -0.127 C  
ENDROOT
BRANCH   2   3
HETATM    3  C   UNL     1     -10.188   8.299  70.552  1.00  0.00    -0.213 C  
HETATM    4  C   UNL     1     -11.031   9.449  71.108  1.00  0.00    -0.360 C  
HETATM    5  N   UNL     1     -10.840  10.505  70.140  1.00  0.00    -0.269 N  
HETATM    6  C   UNL     1      -8.924   9.050  70.028  1.00  0.00    -0.184 C  
HETATM    7  C   UNL     1      -9.505  10.418  69.570  1.00  0.00    -0.139 C  
BRANCH   5   8
HETATM    8  C   UNL     1     -11.894  11.286  69.735  1.00  0.00    -0.364 C  
HETATM    9  O   UNL     1     -12.374  11.231  68.608  1.00  0.00    -0.534 OA 
BRANCH   8  10
HETATM   10  N   UNL     1     -12.404  12.129  70.684  1.00  0.00    -0.342 N  
HETATM   11  H   UNL     1     -12.973  11.756  71.444  1.00  0.00     0.000 HD 
BRANCH  10  12
HETATM   12  C   UNL     1     -12.133  13.567  70.609  1.00  0.00    -0.309 C  
HETATM   13  F   UNL     1     -13.239  13.647  72.740  1.00  0.00    -0.551 F  
HETATM   14  C   UNL     1     -12.569  14.391  71.829  1.00  0.00    -0.351 C  
HETATM   15  F   UNL     1     -11.526  14.979  72.451  1.00  0.00    -0.464 F  
HETATM   16  F   UNL     1     -13.414  15.381  71.439  1.00  0.00    -0.434 F  
ENDBRANCH  10  12
ENDBRANCH   8  10
ENDBRANCH   5   8
BRANCH   6  17
HETATM   17  C   UNL     1      -8.139   8.350  68.950  1.00  0.00    -0.114 A  
HETATM   18  N   UNL     1      -7.334   7.690  66.904  1.00  0.00    -0.088 NA 
HETATM   19  C   UNL     1      -7.879   8.715  67.632  1.00  0.00    -0.103 A  
HETATM   20  C   UNL     1      -7.215   6.711  67.771  1.00  0.00    -0.091 A  
HETATM   21  C   UNL     1      -6.785   5.352  67.504  1.00  0.00    -0.055 A  
HETATM   22  N   UNL     1      -6.662   4.444  68.443  1.00  0.00    -0.046 NA 
HETATM   23  C   UNL     1      -6.940   4.911  69.690  1.00  0.00    -0.053 A  
HETATM   24  C   UNL     1      -7.346   6.173  70.084  1.00  0.00    -0.082 A  
HETATM   25  C   UNL     1      -7.416   6.223  71.484  1.00  0.00    -0.090 A  
HETATM   26  N   UNL     1      -7.557   7.102  69.050  1.00  0.00    -0.098 NA 
HETATM   27  C   UNL     1      -7.136   4.940  71.919  1.00  0.00    -0.062 A  
HETATM   28  N   UNL     1      -6.869   4.148  70.823  1.00  0.00    -0.032 NA 
HETATM   29  H   UNL     1      -6.653   3.151  70.853  1.00  0.00     0.000 HD 
ENDBRANCH   6  17
ENDBRANCH   2   3
TORSDOF 5
ENDMDL
MODEL      128
REMARK 921   NORMALIZED FREE ENERGY PREDICTED BY IDOCK:   -5.13 KCAL/MOL
REMARK 922        TOTAL FREE ENERGY PREDICTED BY IDOCK:   -6.85 KCAL/MOL
REMARK 923 INTER-LIGAND FREE ENERGY PREDICTED BY IDOCK:   -6.34 KCAL/MOL
REMARK 924 INTRA-LIGAND FREE ENERGY PREDICTED BY IDOCK:   -0.51 KCAL/MOL
REMARK 927      BINDING AFFINITY PREDICTED BY RF-SCORE:    0.00 PKD
ROOT
HETATM    1  C   UNL     1      -6.571   8.053  65.221  1.00  0.00    -0.051 C  
HETATM    2  C   UNL     1      -7.745   9.015  65.370  1.00  0.00    -0.095 C  
ENDROOT
BRANCH   2   3
HETATM    3  C   UNL     1      -7.526  10.077  66.470  1.00  0.00    -0.105 C  
HETATM    4  C   UNL     1      -6.936   9.466  67.743  1.00  0.00    -0.080 C  
HETATM    5  N   UNL     1      -8.095   8.961  68.443  1.00  0.00    -0.108 N  
HETATM    6  C   UNL     1      -8.824  10.754  67.009  1.00  0.00    -0.137 C  
HETATM    7  C   UNL     1      -9.245   9.811  68.171  1.00  0.00    -0.128 C  
BRANCH   5   8
HETATM    8  C   UNL     1      -8.062   7.740  69.068  1.00  0.00    -0.125 C  
HETATM    9  O   UNL     1      -8.135   7.608  70.285  1.00  0.00    -0.110 OA 
BRANCH   8  10
HETATM   10  N   UNL     1      -7.965   6.655  68.240  1.00  0.00    -0.110 N  
HETATM   11  H   UNL     1      -7.167   6.563  67.612  1.00  0.00     0.000 HD 
BRANCH  10  12
HETATM   12  C   UNL     1      -9.008   5.625  68.255  1.00  0.00    -0.114 C  
HETATM   13  F   UNL     1     -10.089   7.028  66.634  1.00  0.00    -0.245 F  
HETATM   14  C   UNL     1     -10.173   5.842  67.280  1.00  0.00    -0.200 C  
HETATM   15  F   UNL     1     -10.258   4.864  66.355  1.00  0.00    -0.183 F  
HETATM   16  F   UNL     1     -11.349   5.854  67.961  1.00  0.00    -0.332 F  
ENDBRANCH  10  12
ENDBRANCH   8  10
ENDBRANCH   5   8
BRANCH   6  17
HETATM   17  C   UNL     1      -9.921  10.977  66.002  1.00  0.00    -0.237 A  
HETATM   18  N   UNL     1     -11.117  11.043  64.043  1.00  0.00    -0.103 NA 
HETATM   19  C   UNL     1     -10.149  10.390  64.761  1.00  0.00    -0.317 A  
HETATM   20  C   UNL     1     -11.518  12.001  64.847  1.00  0.00    -0.294 A  
HETATM   21  C   UNL     1     -12.463  13.058  64.546  1.00  0.00    -0.363 A  
HETATM   22  N   UNL     1     -12.835  13.958  65.426  1.00  0.00    -0.722 NA 
HETATM   23  C   UNL     1     -12.276  13.778  66.654  1.00  0.00    -0.409 A  
HETATM   24  C   UNL     1     -11.377  12.816  67.077  1.00  0.00    -0.314 A  
HETATM   25  C   UNL     1     -11.155  12.961  68.454  1.00  0.00    -0.293 A  
HETATM   26  N   UNL     1     -10.927  11.920  66.091  1.00  0.00    -0.297 NA 
HETATM   27  C   UNL     1     -11.864  14.087  68.831  1.00  0.00    -0.355 A  
HETATM   28  N   UNL     1     -12.524  14.587  67.728  1.00  0.00    -0.511 NA 
HETATM   29  H   UNL     1     -13.103  15.426  67.717  1.00  0.00     0.000 HD 
ENDBRANCH   6  17
ENDBRANCH   2   3
TORSDOF 5
ENDMDL
MODEL      129
REMARK 921   NORMALIZED FREE ENERGY PREDICTED BY IDOCK:   -5.13 KCAL/MOL
REMARK 922        TOTAL FREE ENERGY PREDICTED BY IDOCK:   -6.85 KCAL/MOL
REMARK 923 INTER-LIGAND FREE ENERGY PREDICTED BY IDOCK:   -5.98 KCAL/MOL
REMARK 924 INTRA-LIGAND FREE ENERGY PREDICTED BY IDOCK:   -0.87 KCAL/MOL
REMARK 927      BINDING AFFINITY PREDICTED BY RF-SCORE:    0.00 PKD
ROOT
HETATM    1  C   UNL     1      -7.721   7.906  65.216  1.00  0.00    -0.097 C  
HETATM    2  C   UNL     1      -7.840   8.423  66.646  1.00  0.00    -0.093 C  
ENDROOT
BRANCH   2   3
HETATM    3  C   UNL     1      -9.258   8.926  66.996  1.00  0.00    -0.171 C  
HETATM    4  C   UNL     1     -10.008   9.421  65.757  1.00  0.00    -0.208 C  
HETATM    5  N   UNL     1      -9.548  10.783  65.607  1.00  0.00    -0.204 N  
HETATM    6  C   UNL     1      -9.310  10.178  67.926  1.00  0.00    -0.151 C  
HETATM    7  C   UNL     1      -9.270  11.358  66.914  1.00  0.00    -0.176 C  
BRANCH   5   8
HETATM    8  C   UNL     1      -9.248  11.291  64.367  1.00  0.00    -0.049 C  
HETATM    9  O   UNL     1      -8.583  10.681  63.537  1.00  0.00    -0.172 OA 
BRANCH   8  10
HETATM   10  N   UNL     1      -9.761  12.530  64.097  1.00  0.00    -0.580 N  
HETATM   11  H   UNL     1      -9.205  13.364  64.287  1.00  0.00     0.000 HD 
BRANCH  10  12
HETATM   12  C   UNL     1     -11.107  12.659  63.534  1.00  0.00    -0.395 C  
HETATM   13  F   UNL     1     -11.712  13.361  65.749  1.00  0.00    -0.320 F  
HETATM   14  C   UNL     1     -12.181  13.195  64.491  1.00  0.00    -0.406 C  
HETATM   15  F   UNL     1     -12.698  14.371  64.077  1.00  0.00    -0.385 F  
HETATM   16  F   UNL     1     -13.209  12.311  64.573  1.00  0.00    -0.514 F  
ENDBRANCH  10  12
ENDBRANCH   8  10
ENDBRANCH   5   8
BRANCH   6  17
HETATM   17  C   UNL     1      -8.236  10.264  68.978  1.00  0.00    -0.139 A  
HETATM   18  N   UNL     1      -6.199  10.463  70.019  1.00  0.00    -0.078 NA 
HETATM   19  C   UNL     1      -6.953  10.802  68.926  1.00  0.00    -0.077 A  
HETATM   20  C   UNL     1      -7.019   9.758  70.765  1.00  0.00    -0.045 A  
HETATM   21  C   UNL     1      -6.701   9.062  71.996  1.00  0.00     0.088 A  
HETATM   22  N   UNL     1      -7.596   8.407  72.698  1.00  0.00    -0.260 NA 
HETATM   23  C   UNL     1      -8.851   8.476  72.178  1.00  0.00    -0.216 A  
HETATM   24  C   UNL     1      -9.291   9.108  71.029  1.00  0.00    -0.263 A  
HETATM   25  C   UNL     1     -10.686   8.998  70.942  1.00  0.00    -0.319 A  
HETATM   26  N   UNL     1      -8.298   9.725  70.248  1.00  0.00    -0.184 NA 
HETATM   27  C   UNL     1     -11.066   8.206  72.012  1.00  0.00    -0.306 A  
HETATM   28  N   UNL     1      -9.944   7.879  72.743  1.00  0.00    -0.256 NA 
HETATM   29  H   UNL     1      -9.932   7.286  73.573  1.00  0.00     0.000 HD 
ENDBRANCH   6  17
ENDBRANCH   2   3
TORSDOF 5
ENDMDL
MODEL      130
REMARK 921   NORMALIZED FREE ENERGY PREDICTED BY IDOCK:   -5.12 KCAL/MOL
REMARK 922        TOTAL FREE ENERGY PREDICTED BY IDOCK:   -6.84 KCAL/MOL
REMARK 923 INTER-LIGAND FREE ENERGY PREDICTED BY IDOCK:   -5.81 KCAL/MOL
REMARK 924 INTRA-LIGAND FREE ENERGY PREDICTED BY IDOCK:   -1.03 KCAL/MOL
REMARK 927      BINDING AFFINITY PREDICTED BY RF-SCORE:    0.00 PKD
ROOT
HETATM    1  C   UNL     1     -11.364   6.527  69.998  1.00  0.00    -0.472 C  
HETATM    2  C   UNL     1     -11.031   7.871  69.361  1.00  0.00    -0.031 C  
ENDROOT
BRANCH   2   3
HETATM    3  C   UNL     1     -10.805   8.996  70.396  1.00  0.00    -0.284 C  
HETATM    4  C   UNL     1     -11.483  10.302  69.975  1.00  0.00    -0.296 C  
HETATM    5  N   UNL     1     -10.519  10.910  69.085  1.00  0.00    -0.220 N  
HETATM    6  C   UNL     1      -9.322   9.446  70.577  1.00  0.00    -0.319 C  
HETATM    7  C   UNL     1      -9.171  10.564  69.507  1.00  0.00    -0.048 C  
BRANCH   5   8
HETATM    8  C   UNL     1     -10.921  11.522  67.924  1.00  0.00    -0.233 C  
HETATM    9  O   UNL     1     -11.811  11.078  67.207  1.00  0.00    -0.468 OA 
BRANCH   8  10
HETATM   10  N   UNL     1     -10.278  12.690  67.619  1.00  0.00    -0.214 N  
HETATM   11  H   UNL     1      -9.690  12.745  66.787  1.00  0.00     0.000 HD 
BRANCH  10  12
HETATM   12  C   UNL     1     -10.435  13.862  68.484  1.00  0.00    -0.250 C  
HETATM   13  F   UNL     1     -12.424  14.254  67.198  1.00  0.00    -0.423 F  
HETATM   14  C   UNL     1     -11.703  14.695  68.255  1.00  0.00    -0.328 C  
HETATM   15  F   UNL     1     -12.509  14.711  69.337  1.00  0.00    -0.319 F  
HETATM   16  F   UNL     1     -11.367  15.984  67.985  1.00  0.00    -0.340 F  
ENDBRANCH  10  12
ENDBRANCH   8  10
ENDBRANCH   5   8
BRANCH   6  17
HETATM   17  C   UNL     1      -8.283   8.364  70.454  1.00  0.00    -0.115 A  
HETATM   18  N   UNL     1      -6.727   6.906  69.599  1.00  0.00    -0.048 NA 
HETATM   19  C   UNL     1      -7.317   8.138  69.478  1.00  0.00    -0.081 A  
HETATM   20  C   UNL     1      -7.290   6.388  70.667  1.00  0.00    -0.079 A  
HETATM   21  C   UNL     1      -7.107   5.049  71.190  1.00  0.00    -0.052 A  
HETATM   22  N   UNL     1      -7.686   4.625  72.289  1.00  0.00    -0.087 NA 
HETATM   23  C   UNL     1      -8.442   5.574  72.904  1.00  0.00    -0.119 A  
HETATM   24  C   UNL     1      -8.692   6.880  72.524  1.00  0.00    -0.125 A  
HETATM   25  C   UNL     1      -9.447   7.518  73.519  1.00  0.00    -0.326 A  
HETATM   26  N   UNL     1      -8.133   7.281  71.297  1.00  0.00    -0.101 NA 
HETATM   27  C   UNL     1      -9.727   6.542  74.460  1.00  0.00    -0.309 A  
HETATM   28  N   UNL     1      -9.130   5.363  74.068  1.00  0.00    -0.119 NA 
HETATM   29  H   UNL     1      -9.192   4.475  74.566  1.00  0.00     0.000 HD 
ENDBRANCH   6  17
ENDBRANCH   2   3
TORSDOF 5
ENDMDL
MODEL      131
REMARK 921   NORMALIZED FREE ENERGY PREDICTED BY IDOCK:   -5.12 KCAL/MOL
REMARK 922        TOTAL FREE ENERGY PREDICTED BY IDOCK:   -6.83 KCAL/MOL
REMARK 923 INTER-LIGAND FREE ENERGY PREDICTED BY IDOCK:   -5.93 KCAL/MOL
REMARK 924 INTRA-LIGAND FREE ENERGY PREDICTED BY IDOCK:   -0.90 KCAL/MOL
REMARK 927      BINDING AFFINITY PREDICTED BY RF-SCORE:    0.00 PKD
ROOT
HETATM    1  C   UNL     1      -6.995   9.982  65.090  1.00  0.00    -0.134 C  
HETATM    2  C   UNL     1      -8.090  10.289  66.105  1.00  0.00    -0.133 C  
ENDROOT
BRANCH   2   3
HETATM    3  C   UNL     1      -7.574  11.055  67.344  1.00  0.00    -0.110 C  
HETATM    4  C   UNL     1      -6.677  10.180  68.222  1.00  0.00    -0.054 C  
HETATM    5  N   UNL     1      -7.617   9.455  69.047  1.00  0.00    -0.073 N  
HETATM    6  C   UNL     1      -8.675  11.506  68.354  1.00  0.00    -0.160 C  
HETATM    7  C   UNL     1      -8.786  10.282  69.307  1.00  0.00    -0.174 C  
BRANCH   5   8
HETATM    8  C   UNL     1      -7.437   8.120  69.311  1.00  0.00    -0.089 C  
HETATM    9  O   UNL     1      -6.443   7.496  68.957  1.00  0.00    -0.038 OA 
BRANCH   8  10
HETATM   10  N   UNL     1      -8.437   7.519  70.025  1.00  0.00    -0.136 N  
HETATM   11  H   UNL     1      -8.507   7.671  71.031  1.00  0.00     0.000 HD 
BRANCH  10  12
HETATM   12  C   UNL     1      -9.408   6.657  69.345  1.00  0.00    -0.147 C  
HETATM   13  F   UNL     1     -10.884   7.316  71.121  1.00  0.00    -0.238 F  
HETATM   14  C   UNL     1     -10.811   6.615  69.966  1.00  0.00    -0.280 C  
HETATM   15  F   UNL     1     -11.758   7.087  69.128  1.00  0.00    -0.044 F  
HETATM   16  F   UNL     1     -11.144   5.333  70.267  1.00  0.00    -0.300 F  
ENDBRANCH  10  12
ENDBRANCH   8  10
ENDBRANCH   5   8
BRANCH   6  17
HETATM   17  C   UNL     1      -9.995  11.912  67.756  1.00  0.00    -0.186 A  
HETATM   18  N   UNL     1     -12.097  11.843  66.833  1.00  0.00    -0.505 NA 
HETATM   19  C   UNL     1     -11.204  11.228  67.673  1.00  0.00    -0.292 A  
HETATM   20  C   UNL     1     -11.465  12.923  66.434  1.00  0.00    -0.341 A  
HETATM   21  C   UNL     1     -11.916  13.886  65.448  1.00  0.00    -0.381 A  
HETATM   22  N   UNL     1     -11.232  14.961  65.134  1.00  0.00    -0.369 NA 
HETATM   23  C   UNL     1     -10.082  15.100  65.847  1.00  0.00    -0.325 A  
HETATM   24  C   UNL     1      -9.544  14.271  66.815  1.00  0.00    -0.280 A  
HETATM   25  C   UNL     1      -8.392  14.867  67.350  1.00  0.00    -0.213 A  
HETATM   26  N   UNL     1     -10.250  13.082  67.068  1.00  0.00    -0.243 NA 
HETATM   27  C   UNL     1      -8.197  16.026  66.619  1.00  0.00    -0.289 A  
HETATM   28  N   UNL     1      -9.215  16.147  65.698  1.00  0.00    -0.394 NA 
HETATM   29  H   UNL     1      -9.306  16.898  65.013  1.00  0.00     0.000 HD 
ENDBRANCH   6  17
ENDBRANCH   2   3
TORSDOF 5
ENDMDL
MODEL      132
REMARK 921   NORMALIZED FREE ENERGY PREDICTED BY IDOCK:   -5.11 KCAL/MOL
REMARK 922        TOTAL FREE ENERGY PREDICTED BY IDOCK:   -6.83 KCAL/MOL
REMARK 923 INTER-LIGAND FREE ENERGY PREDICTED BY IDOCK:   -6.03 KCAL/MOL
REMARK 924 INTRA-LIGAND FREE ENERGY PREDICTED BY IDOCK:   -0.80 KCAL/MOL
REMARK 927      BINDING AFFINITY PREDICTED BY RF-SCORE:    0.00 PKD
ROOT
HETATM    1  C   UNL     1      -8.236   6.124  70.450  1.00  0.00    -0.117 C  
HETATM    2  C   UNL     1      -9.353   7.098  70.091  1.00  0.00    -0.158 C  
ENDROOT
BRANCH   2   3
HETATM    3  C   UNL     1      -9.036   8.559  70.484  1.00  0.00    -0.171 C  
HETATM    4  C   UNL     1      -9.730   8.961  71.787  1.00  0.00    -0.295 C  
HETATM    5  N   UNL     1     -11.054   9.351  71.357  1.00  0.00    -0.361 N  
HETATM    6  C   UNL     1      -9.558   9.643  69.491  1.00  0.00    -0.211 C  
HETATM    7  C   UNL     1     -10.989   9.936  70.027  1.00  0.00    -0.291 C  
BRANCH   5   8
HETATM    8  C   UNL     1     -12.164   8.984  72.077  1.00  0.00    -0.375 C  
HETATM    9  O   UNL     1     -13.206   9.630  72.076  1.00  0.00    -0.400 OA 
BRANCH   8  10
HETATM   10  N   UNL     1     -12.048   7.824  72.792  1.00  0.00    -0.602 N  
HETATM   11  H   UNL     1     -11.767   7.856  73.772  1.00  0.00     0.000 HD 
BRANCH  10  12
HETATM   12  C   UNL     1     -12.327   6.536  72.151  1.00  0.00    -0.198 C  
HETATM   13  F   UNL     1     -10.580   5.713  73.579  1.00  0.00    -0.209 F  
HETATM   14  C   UNL     1     -11.512   5.343  72.670  1.00  0.00    -0.241 C  
HETATM   15  F   UNL     1     -12.291   4.394  73.230  1.00  0.00    -0.257 F  
HETATM   16  F   UNL     1     -10.842   4.760  71.642  1.00  0.00    -0.211 F  
ENDBRANCH  10  12
ENDBRANCH   8  10
ENDBRANCH   5   8
BRANCH   6  17
HETATM   17  C   UNL     1      -9.537   9.270  68.033  1.00  0.00    -0.142 A  
HETATM   18  N   UNL     1      -9.827   8.138  66.056  1.00  0.00    -0.017 NA 
HETATM   19  C   UNL     1     -10.323   8.376  67.312  1.00  0.00    -0.299 A  
HETATM   20  C   UNL     1      -8.767   8.912  65.981  1.00  0.00    -0.160 A  
HETATM   21  C   UNL     1      -7.805   8.975  64.899  1.00  0.00    -0.119 A  
HETATM   22  N   UNL     1      -6.790   9.807  64.892  1.00  0.00    -0.110 NA 
HETATM   23  C   UNL     1      -6.751  10.624  65.979  1.00  0.00    -0.128 A  
HETATM   24  C   UNL     1      -7.602  10.678  67.067  1.00  0.00    -0.110 A  
HETATM   25  C   UNL     1      -7.232  11.748  67.895  1.00  0.00    -0.092 A  
HETATM   26  N   UNL     1      -8.628   9.716  67.094  1.00  0.00    -0.131 NA 
HETATM   27  C   UNL     1      -6.085  12.278  67.331  1.00  0.00    -0.153 A  
HETATM   28  N   UNL     1      -5.791  11.577  66.181  1.00  0.00    -0.470 NA 
HETATM   29  H   UNL     1      -4.985  11.742  65.578  1.00  0.00     0.000 HD 
ENDBRANCH   6  17
ENDBRANCH   2   3
TORSDOF 5
ENDMDL
MODEL      133
REMARK 921   NORMALIZED FREE ENERGY PREDICTED BY IDOCK:   -5.09 KCAL/MOL
REMARK 922        TOTAL FREE ENERGY PREDICTED BY IDOCK:   -6.80 KCAL/MOL
REMARK 923 INTER-LIGAND FREE ENERGY PREDICTED BY IDOCK:   -5.84 KCAL/MOL
REMARK 924 INTRA-LIGAND FREE ENERGY PREDICTED BY IDOCK:   -0.95 KCAL/MOL
REMARK 927      BINDING AFFINITY PREDICTED BY RF-SCORE:    0.00 PKD
ROOT
HETATM    1  C   UNL     1      -6.894   9.781  70.100  1.00  0.00    -0.109 C  
HETATM    2  C   UNL     1      -8.178   9.941  69.294  1.00  0.00    -0.138 C  
ENDROOT
BRANCH   2   3
HETATM    3  C   UNL     1      -9.370   9.157  69.886  1.00  0.00    -0.198 C  
HETATM    4  C   UNL     1      -9.062   7.663  70.016  1.00  0.00    -0.151 C  
HETATM    5  N   UNL     1      -9.356   7.143  68.700  1.00  0.00    -0.135 N  
HETATM    6  C   UNL     1     -10.660   9.145  69.009  1.00  0.00    -0.219 C  
HETATM    7  C   UNL     1     -10.446   7.899  68.102  1.00  0.00    -0.173 C  
BRANCH   5   8
HETATM    8  C   UNL     1      -8.534   6.216  68.110  1.00  0.00    -0.116 C  
HETATM    9  O   UNL     1      -7.362   6.444  67.829  1.00  0.00    -0.084 OA 
BRANCH   8  10
HETATM   10  N   UNL     1      -9.098   4.994  67.870  1.00  0.00    -0.111 N  
HETATM   11  H   UNL     1      -9.925   4.921  67.277  1.00  0.00     0.000 HD 
BRANCH  10  12
HETATM   12  C   UNL     1      -8.514   3.787  68.462  1.00  0.00    -0.087 C  
HETATM   13  F   UNL     1      -9.978   4.269  70.305  1.00  0.00    -0.258 F  
HETATM   14  C   UNL     1      -9.086   3.371  69.825  1.00  0.00    -0.129 C  
HETATM   15  F   UNL     1      -9.686   2.163  69.782  1.00  0.00    -0.173 F  
HETATM   16  F   UNL     1      -8.085   3.290  70.740  1.00  0.00    -0.051 F  
ENDBRANCH  10  12
ENDBRANCH   8  10
ENDBRANCH   5   8
BRANCH   6  17
HETATM   17  C   UNL     1     -10.942  10.402  68.230  1.00  0.00    -0.270 A  
HETATM   18  N   UNL     1     -10.862  12.063  66.646  1.00  0.00    -0.260 NA 
HETATM   19  C   UNL     1     -10.671  10.730  66.905  1.00  0.00    -0.252 A  
HETATM   20  C   UNL     1     -11.291  12.550  67.789  1.00  0.00    -0.296 A  
HETATM   21  C   UNL     1     -11.550  13.941  68.104  1.00  0.00    -0.335 A  
HETATM   22  N   UNL     1     -12.012  14.337  69.267  1.00  0.00    -0.328 NA 
HETATM   23  C   UNL     1     -12.258  13.313  70.130  1.00  0.00    -0.306 A  
HETATM   24  C   UNL     1     -12.068  11.954  69.956  1.00  0.00    -0.291 A  
HETATM   25  C   UNL     1     -12.555  11.269  71.078  1.00  0.00    -0.495 A  
HETATM   26  N   UNL     1     -11.488  11.566  68.735  1.00  0.00    -0.258 NA 
HETATM   27  C   UNL     1     -12.955  12.249  71.970  1.00  0.00    -0.270 A  
HETATM   28  N   UNL     1     -12.751  13.484  71.393  1.00  0.00    -0.350 NA 
HETATM   29  H   UNL     1     -12.939  14.382  71.839  1.00  0.00     0.000 HD 
ENDBRANCH   6  17
ENDBRANCH   2   3
TORSDOF 5
ENDMDL
MODEL      134
REMARK 921   NORMALIZED FREE ENERGY PREDICTED BY IDOCK:   -5.06 KCAL/MOL
REMARK 922        TOTAL FREE ENERGY PREDICTED BY IDOCK:   -6.75 KCAL/MOL
REMARK 923 INTER-LIGAND FREE ENERGY PREDICTED BY IDOCK:   -6.40 KCAL/MOL
REMARK 924 INTRA-LIGAND FREE ENERGY PREDICTED BY IDOCK:   -0.36 KCAL/MOL
REMARK 927      BINDING AFFINITY PREDICTED BY RF-SCORE:    0.00 PKD
ROOT
HETATM    1  C   UNL     1     -10.678  17.230  68.250  1.00  0.00    -0.349 C  
HETATM    2  C   UNL     1      -9.158  17.278  68.355  1.00  0.00    -0.265 C  
ENDROOT
BRANCH   2   3
HETATM    3  C   UNL     1      -8.444  16.680  67.122  1.00  0.00    -0.213 C  
HETATM    4  C   UNL     1      -9.242  15.532  66.502  1.00  0.00    -0.293 C  
HETATM    5  N   UNL     1      -8.858  14.387  67.297  1.00  0.00    -0.202 N  
HETATM    6  C   UNL     1      -7.071  15.998  67.415  1.00  0.00    -0.222 C  
HETATM    7  C   UNL     1      -7.480  14.533  67.739  1.00  0.00    -0.169 C  
BRANCH   5   8
HETATM    8  C   UNL     1      -9.790  13.462  67.694  1.00  0.00    -0.226 C  
HETATM    9  O   UNL     1     -10.360  13.509  68.779  1.00  0.00    -0.226 OA 
BRANCH   8  10
HETATM   10  N   UNL     1     -10.071  12.478  66.786  1.00  0.00    -0.221 N  
HETATM   11  H   UNL     1      -9.756  11.523  66.955  1.00  0.00     0.000 HD 
BRANCH  10  12
HETATM   12  C   UNL     1     -10.826  12.796  65.570  1.00  0.00    -0.274 C  
HETATM   13  F   UNL     1     -12.752  12.548  66.983  1.00  0.00     0.207 F  
HETATM   14  C   UNL     1     -12.349  12.887  65.737  1.00  0.00    -0.375 C  
HETATM   15  F   UNL     1     -12.822  14.121  65.463  1.00  0.00    -0.491 F  
HETATM   16  F   UNL     1     -12.959  12.024  64.883  1.00  0.00    -0.314 F  
ENDBRANCH  10  12
ENDBRANCH   8  10
ENDBRANCH   5   8
BRANCH   6  17
HETATM   17  C   UNL     1      -6.234  16.631  68.494  1.00  0.00    -0.135 A  
HETATM   18  N   UNL     1      -5.166  17.033  70.487  1.00  0.00    -0.225 NA 
HETATM   19  C   UNL     1      -5.635  16.078  69.622  1.00  0.00    -0.130 A  
HETATM   20  C   UNL     1      -5.431  18.169  69.881  1.00  0.00    -0.227 A  
HETATM   21  C   UNL     1      -5.237  19.506  70.406  1.00  0.00    -0.208 A  
HETATM   22  N   UNL     1      -5.498  20.590  69.714  1.00  0.00    -0.312 NA 
HETATM   23  C   UNL     1      -5.933  20.336  68.450  1.00  0.00    -0.273 A  
HETATM   24  C   UNL     1      -6.150  19.122  67.825  1.00  0.00    -0.202 A  
HETATM   25  C   UNL     1      -6.501  19.344  66.485  1.00  0.00    -0.195 A  
HETATM   26  N   UNL     1      -5.949  17.977  68.617  1.00  0.00    -0.184 NA 
HETATM   27  C   UNL     1      -6.583  20.719  66.343  1.00  0.00    -0.254 A  
HETATM   28  N   UNL     1      -6.256  21.309  67.545  1.00  0.00    -0.420 NA 
HETATM   29  H   UNL     1      -6.255  22.312  67.730  1.00  0.00     0.000 HD 
ENDBRANCH   6  17
ENDBRANCH   2   3
TORSDOF 5
ENDMDL
MODEL      135
REMARK 921   NORMALIZED FREE ENERGY PREDICTED BY IDOCK:   -5.05 KCAL/MOL
REMARK 922        TOTAL FREE ENERGY PREDICTED BY IDOCK:   -6.75 KCAL/MOL
REMARK 923 INTER-LIGAND FREE ENERGY PREDICTED BY IDOCK:   -6.54 KCAL/MOL
REMARK 924 INTRA-LIGAND FREE ENERGY PREDICTED BY IDOCK:   -0.22 KCAL/MOL
REMARK 927      BINDING AFFINITY PREDICTED BY RF-SCORE:    0.00 PKD
ROOT
HETATM    1  C   UNL     1      -6.792  11.524  66.827  1.00  0.00    -0.114 C  
HETATM    2  C   UNL     1      -7.994  11.154  67.688  1.00  0.00    -0.116 C  
ENDROOT
BRANCH   2   3
HETATM    3  C   UNL     1      -7.733   9.942  68.610  1.00  0.00    -0.081 C  
HETATM    4  C   UNL     1      -7.009   8.812  67.874  1.00  0.00    -0.078 C  
HETATM    5  N   UNL     1      -8.081   8.098  67.217  1.00  0.00    -0.119 N  
HETATM    6  C   UNL     1      -9.011   9.218  69.136  1.00  0.00    -0.144 C  
HETATM    7  C   UNL     1      -9.287   8.163  68.027  1.00  0.00    -0.135 C  
BRANCH   5   8
HETATM    8  C   UNL     1      -7.939   7.646  65.929  1.00  0.00    -0.116 C  
HETATM    9  O   UNL     1      -6.932   7.845  65.257  1.00  0.00    -0.057 OA 
BRANCH   8  10
HETATM   10  N   UNL     1      -8.993   6.929  65.435  1.00  0.00    -0.368 N  
HETATM   11  H   UNL     1      -9.778   7.412  64.997  1.00  0.00     0.000 HD 
BRANCH  10  12
HETATM   12  C   UNL     1      -8.996   5.467  65.533  1.00  0.00    -0.144 C  
HETATM   13  F   UNL     1     -11.242   5.759  66.331  1.00  0.00    -0.298 F  
HETATM   14  C   UNL     1     -10.317   4.832  65.989  1.00  0.00    -0.293 C  
HETATM   15  F   UNL     1     -10.854   4.030  65.047  1.00  0.00    -0.235 F  
HETATM   16  F   UNL     1     -10.106   4.069  67.094  1.00  0.00    -0.230 F  
ENDBRANCH  10  12
ENDBRANCH   8  10
ENDBRANCH   5   8
BRANCH   6  17
HETATM   17  C   UNL     1     -10.198  10.098  69.424  1.00  0.00    -0.227 A  
HETATM   18  N   UNL     1     -11.543  11.935  69.722  1.00  0.00    -0.300 NA 
HETATM   19  C   UNL     1     -10.468  11.412  69.053  1.00  0.00    -0.168 A  
HETATM   20  C   UNL     1     -11.966  10.942  70.471  1.00  0.00    -0.371 A  
HETATM   21  C   UNL     1     -13.023  10.981  71.462  1.00  0.00    -0.448 A  
HETATM   22  N   UNL     1     -13.405   9.926  72.143  1.00  0.00    -0.442 NA 
HETATM   23  C   UNL     1     -12.738   8.790  71.802  1.00  0.00    -0.359 A  
HETATM   24  C   UNL     1     -11.727   8.611  70.876  1.00  0.00    -0.252 A  
HETATM   25  C   UNL     1     -11.412   7.247  70.789  1.00  0.00    -0.328 A  
HETATM   26  N   UNL     1     -11.275   9.773  70.226  1.00  0.00    -0.270 NA 
HETATM   27  C   UNL     1     -12.189   6.622  71.749  1.00  0.00    -0.353 A  
HETATM   28  N   UNL     1     -12.974   7.569  72.371  1.00  0.00    -0.488 NA 
HETATM   29  H   UNL     1     -13.627   7.388  73.133  1.00  0.00     0.000 HD 
ENDBRANCH   6  17
ENDBRANCH   2   3
TORSDOF 5
ENDMDL
MODEL      136
REMARK 921   NORMALIZED FREE ENERGY PREDICTED BY IDOCK:   -5.04 KCAL/MOL
REMARK 922        TOTAL FREE ENERGY PREDICTED BY IDOCK:   -6.74 KCAL/MOL
REMARK 923 INTER-LIGAND FREE ENERGY PREDICTED BY IDOCK:   -6.78 KCAL/MOL
REMARK 924 INTRA-LIGAND FREE ENERGY PREDICTED BY IDOCK:    0.04 KCAL/MOL
REMARK 927      BINDING AFFINITY PREDICTED BY RF-SCORE:    0.00 PKD
ROOT
HETATM    1  C   UNL     1      -8.289   7.455  72.270  1.00  0.00    -0.117 C  
HETATM    2  C   UNL     1      -8.519   7.687  70.781  1.00  0.00    -0.125 C  
ENDROOT
BRANCH   2   3
HETATM    3  C   UNL     1      -9.320   6.552  70.104  1.00  0.00    -0.162 C  
HETATM    4  C   UNL     1      -8.787   6.234  68.706  1.00  0.00    -0.123 C  
HETATM    5  N   UNL     1      -9.439   7.213  67.866  1.00  0.00    -0.130 N  
HETATM    6  C   UNL     1     -10.818   6.879  69.812  1.00  0.00    -0.295 C  
HETATM    7  C   UNL     1     -10.758   7.519  68.396  1.00  0.00    -0.067 C  
BRANCH   5   8
HETATM    8  C   UNL     1      -8.749   7.853  66.867  1.00  0.00    -0.131 C  
HETATM    9  O   UNL     1      -7.551   8.107  66.937  1.00  0.00    -0.092 OA 
BRANCH   8  10
HETATM   10  N   UNL     1      -9.480   8.178  65.758  1.00  0.00    -0.432 N  
HETATM   11  H   UNL     1     -10.324   7.651  65.531  1.00  0.00     0.000 HD 
BRANCH  10  12
HETATM   12  C   UNL     1      -9.053   9.283  64.894  1.00  0.00    -0.170 C  
HETATM   13  F   UNL     1     -10.906  10.454  65.875  1.00  0.00    -0.218 F  
HETATM   14  C   UNL     1      -9.853  10.585  65.035  1.00  0.00    -0.306 C  
HETATM   15  F   UNL     1      -9.092  11.611  65.471  1.00  0.00    -0.213 F  
HETATM   16  F   UNL     1     -10.363  10.947  63.828  1.00  0.00    -0.363 F  
ENDBRANCH  10  12
ENDBRANCH   8  10
ENDBRANCH   5   8
BRANCH   6  17
HETATM   17  C   UNL     1     -11.516   7.747  70.825  1.00  0.00    -0.272 A  
HETATM   18  N   UNL     1     -12.947   8.489  72.460  1.00  0.00    -0.306 NA 
HETATM   19  C   UNL     1     -12.282   7.410  71.937  1.00  0.00    -0.310 A  
HETATM   20  C   UNL     1     -12.562   9.495  71.708  1.00  0.00    -0.405 A  
HETATM   21  C   UNL     1     -13.045  10.861  71.760  1.00  0.00    -0.459 A  
HETATM   22  N   UNL     1     -12.577  11.815  70.990  1.00  0.00    -0.359 NA 
HETATM   23  C   UNL     1     -11.574  11.405  70.168  1.00  0.00    -0.280 A  
HETATM   24  C   UNL     1     -11.014  10.148  70.025  1.00  0.00    -0.307 A  
HETATM   25  C   UNL     1      -9.937  10.217  69.130  1.00  0.00    -0.235 A  
HETATM   26  N   UNL     1     -11.595   9.125  70.796  1.00  0.00    -0.281 NA 
HETATM   27  C   UNL     1      -9.919  11.521  68.666  1.00  0.00    -0.199 A  
HETATM   28  N   UNL     1     -10.928  12.227  69.286  1.00  0.00    -0.426 NA 
HETATM   29  H   UNL     1     -11.156  13.206  69.114  1.00  0.00     0.000 HD 
ENDBRANCH   6  17
ENDBRANCH   2   3
TORSDOF 5
ENDMDL
MODEL      137
REMARK 921   NORMALIZED FREE ENERGY PREDICTED BY IDOCK:   -5.03 KCAL/MOL
REMARK 922        TOTAL FREE ENERGY PREDICTED BY IDOCK:   -6.71 KCAL/MOL
REMARK 923 INTER-LIGAND FREE ENERGY PREDICTED BY IDOCK:   -6.58 KCAL/MOL
REMARK 924 INTRA-LIGAND FREE ENERGY PREDICTED BY IDOCK:   -0.13 KCAL/MOL
REMARK 927      BINDING AFFINITY PREDICTED BY RF-SCORE:    0.00 PKD
ROOT
HETATM    1  C   UNL     1     -11.483  13.413  68.412  1.00  0.00    -0.351 C  
HETATM    2  C   UNL     1     -10.304  14.267  68.865  1.00  0.00    -0.218 C  
ENDROOT
BRANCH   2   3
HETATM    3  C   UNL     1     -10.357  15.713  68.323  1.00  0.00    -0.244 C  
HETATM    4  C   UNL     1     -11.192  15.813  67.045  1.00  0.00    -0.082 C  
HETATM    5  N   UNL     1     -10.260  15.443  66.004  1.00  0.00    -0.302 N  
HETATM    6  C   UNL     1      -8.987  16.301  67.860  1.00  0.00    -0.187 C  
HETATM    7  C   UNL     1      -8.918  15.872  66.367  1.00  0.00    -0.326 C  
BRANCH   5   8
HETATM    8  C   UNL     1     -10.646  14.625  64.971  1.00  0.00    -0.439 C  
HETATM    9  O   UNL     1      -9.860  13.928  64.339  1.00  0.00    -0.091 OA 
BRANCH   8  10
HETATM   10  N   UNL     1     -11.986  14.614  64.697  1.00  0.00    -0.452 N  
HETATM   11  H   UNL     1     -12.622  15.201  65.236  1.00  0.00     0.000 HD 
BRANCH  10  12
HETATM   12  C   UNL     1     -12.508  13.758  63.628  1.00  0.00    -0.087 C  
HETATM   13  F   UNL     1     -12.123  11.974  65.188  1.00  0.00    -0.414 F  
HETATM   14  C   UNL     1     -12.629  12.266  63.968  1.00  0.00    -0.420 C  
HETATM   15  F   UNL     1     -13.906  11.832  63.927  1.00  0.00    -0.083 F  
HETATM   16  F   UNL     1     -11.926  11.529  63.069  1.00  0.00    -0.422 F  
ENDBRANCH  10  12
ENDBRANCH   8  10
ENDBRANCH   5   8
BRANCH   6  17
HETATM   17  C   UNL     1      -7.782  15.874  68.655  1.00  0.00    -0.161 A  
HETATM   18  N   UNL     1      -6.319  14.643  69.928  1.00  0.00    -0.147 NA 
HETATM   19  C   UNL     1      -7.309  14.606  68.980  1.00  0.00    -0.134 A  
HETATM   20  C   UNL     1      -6.147  15.925  70.157  1.00  0.00    -0.105 A  
HETATM   21  C   UNL     1      -5.285  16.527  71.155  1.00  0.00    -0.073 A  
HETATM   22  N   UNL     1      -5.147  17.825  71.292  1.00  0.00    -0.476 NA 
HETATM   23  C   UNL     1      -5.861  18.545  70.385  1.00  0.00    -0.112 A  
HETATM   24  C   UNL     1      -6.706  18.103  69.383  1.00  0.00    -0.167 A  
HETATM   25  C   UNL     1      -7.146  19.200  68.629  1.00  0.00    -0.353 A  
HETATM   26  N   UNL     1      -6.906  16.713  69.316  1.00  0.00    -0.228 NA 
HETATM   27  C   UNL     1      -6.625  20.319  69.255  1.00  0.00    -0.217 A  
HETATM   28  N   UNL     1      -5.864  19.912  70.331  1.00  0.00    -0.293 NA 
HETATM   29  H   UNL     1      -5.381  20.531  70.981  1.00  0.00     0.000 HD 
ENDBRANCH   6  17
ENDBRANCH   2   3
TORSDOF 5
ENDMDL
MODEL      138
REMARK 921   NORMALIZED FREE ENERGY PREDICTED BY IDOCK:   -5.01 KCAL/MOL
REMARK 922        TOTAL FREE ENERGY PREDICTED BY IDOCK:   -6.69 KCAL/MOL
REMARK 923 INTER-LIGAND FREE ENERGY PREDICTED BY IDOCK:   -6.88 KCAL/MOL
REMARK 924 INTRA-LIGAND FREE ENERGY PREDICTED BY IDOCK:    0.18 KCAL/MOL
REMARK 927      BINDING AFFINITY PREDICTED BY RF-SCORE:    0.00 PKD
ROOT
HETATM    1  C   UNL     1     -14.379   8.324  71.435  1.00  0.00    -0.461 C  
HETATM    2  C   UNL     1     -13.011   7.656  71.518  1.00  0.00    -0.378 C  
ENDROOT
BRANCH   2   3
HETATM    3  C   UNL     1     -11.949   8.529  72.223  1.00  0.00    -0.454 C  
HETATM    4  C   UNL     1     -11.875   9.934  71.620  1.00  0.00    -0.296 C  
HETATM    5  N   UNL     1     -11.001   9.766  70.481  1.00  0.00    -0.297 N  
HETATM    6  C   UNL     1     -10.476   8.036  72.073  1.00  0.00    -0.308 C  
HETATM    7  C   UNL     1     -10.012   8.737  70.765  1.00  0.00    -0.213 C  
BRANCH   5   8
HETATM    8  C   UNL     1     -11.279  10.379  69.285  1.00  0.00    -0.248 C  
HETATM    9  O   UNL     1     -12.345  10.937  69.051  1.00  0.00    -0.464 OA 
BRANCH   8  10
HETATM   10  N   UNL     1     -10.272  10.351  68.359  1.00  0.00    -0.159 N  
HETATM   11  H   UNL     1      -9.299  10.399  68.662  1.00  0.00     0.000 HD 
BRANCH  10  12
HETATM   12  C   UNL     1     -10.591  10.254  66.932  1.00  0.00    -0.217 C  
HETATM   13  F   UNL     1     -10.549  12.654  66.999  1.00  0.00    -0.233 F  
HETATM   14  C   UNL     1     -10.680  11.588  66.176  1.00  0.00    -0.274 C  
HETATM   15  F   UNL     1      -9.750  11.690  65.204  1.00  0.00    -0.239 F  
HETATM   16  F   UNL     1     -11.897  11.702  65.583  1.00  0.00    -0.310 F  
ENDBRANCH  10  12
ENDBRANCH   8  10
ENDBRANCH   5   8
BRANCH   6  17
HETATM   17  C   UNL     1     -10.278   6.544  72.046  1.00  0.00    -0.193 A  
HETATM   18  N   UNL     1      -9.658   4.405  72.607  1.00  0.00    -0.134 NA 
HETATM   19  C   UNL     1     -10.017   5.642  73.074  1.00  0.00    -0.173 A  
HETATM   20  C   UNL     1      -9.736   4.522  71.301  1.00  0.00    -0.182 A  
HETATM   21  C   UNL     1      -9.360   3.534  70.309  1.00  0.00    -0.172 A  
HETATM   22  N   UNL     1      -9.507   3.725  69.019  1.00  0.00    -0.171 NA 
HETATM   23  C   UNL     1     -10.076   4.921  68.708  1.00  0.00    -0.099 A  
HETATM   24  C   UNL     1     -10.489   5.940  69.546  1.00  0.00    -0.278 A  
HETATM   25  C   UNL     1     -11.112   6.942  68.788  1.00  0.00    -0.163 A  
HETATM   26  N   UNL     1     -10.238   5.749  70.917  1.00  0.00    -0.205 NA 
HETATM   27  C   UNL     1     -10.982   6.548  67.468  1.00  0.00    -0.359 A  
HETATM   28  N   UNL     1     -10.335   5.331  67.429  1.00  0.00    -0.197 NA 
HETATM   29  H   UNL     1     -10.089   4.820  66.582  1.00  0.00     0.000 HD 
ENDBRANCH   6  17
ENDBRANCH   2   3
TORSDOF 5
ENDMDL
MODEL      139
REMARK 921   NORMALIZED FREE ENERGY PREDICTED BY IDOCK:   -5.00 KCAL/MOL
REMARK 922        TOTAL FREE ENERGY PREDICTED BY IDOCK:   -6.68 KCAL/MOL
REMARK 923 INTER-LIGAND FREE ENERGY PREDICTED BY IDOCK:   -7.47 KCAL/MOL
REMARK 924 INTRA-LIGAND FREE ENERGY PREDICTED BY IDOCK:    0.79 KCAL/MOL
REMARK 927      BINDING AFFINITY PREDICTED BY RF-SCORE:    0.00 PKD
ROOT
HETATM    1  C   UNL     1      -8.173  12.832  66.964  1.00  0.00    -0.099 C  
HETATM    2  C   UNL     1      -8.234  14.339  67.185  1.00  0.00    -0.184 C  
ENDROOT
BRANCH   2   3
HETATM    3  C   UNL     1      -8.245  14.736  68.678  1.00  0.00    -0.159 C  
HETATM    4  C   UNL     1      -9.608  14.476  69.326  1.00  0.00     0.052 C  
HETATM    5  N   UNL     1     -10.369  15.659  68.993  1.00  0.00    -0.213 N  
HETATM    6  C   UNL     1      -8.036  16.255  68.965  1.00  0.00    -0.238 C  
HETATM    7  C   UNL     1      -9.487  16.813  68.929  1.00  0.00    -0.246 C  
BRANCH   5   8
HETATM    8  C   UNL     1     -11.682  15.563  68.604  1.00  0.00    -0.348 C  
HETATM    9  O   UNL     1     -12.032  15.049  67.547  1.00  0.00    -0.272 OA 
BRANCH   8  10
HETATM   10  N   UNL     1     -12.598  16.060  69.489  1.00  0.00    -0.472 N  
HETATM   11  H   UNL     1     -12.919  17.025  69.403  1.00  0.00     0.000 HD 
BRANCH  10  12
HETATM   12  C   UNL     1     -13.120  15.209  70.562  1.00  0.00    -0.277 C  
HETATM   13  F   UNL     1     -11.751  16.570  71.989  1.00  0.00    -0.520 F  
HETATM   14  C   UNL     1     -12.662  15.570  71.982  1.00  0.00    -0.411 C  
HETATM   15  F   UNL     1     -13.690  15.931  72.777  1.00  0.00    -0.565 F  
HETATM   16  F   UNL     1     -12.064  14.496  72.561  1.00  0.00    -0.357 F  
ENDBRANCH  10  12
ENDBRANCH   8  10
ENDBRANCH   5   8
BRANCH   6  17
HETATM   17  C   UNL     1      -7.100  16.981  68.036  1.00  0.00    -0.163 A  
HETATM   18  N   UNL     1      -5.202  17.833  67.062  1.00  0.00    -0.126 NA 
HETATM   19  C   UNL     1      -5.738  16.810  67.801  1.00  0.00    -0.135 A  
HETATM   20  C   UNL     1      -6.229  18.610  66.802  1.00  0.00    -0.174 A  
HETATM   21  C   UNL     1      -6.207  19.896  66.134  1.00  0.00    -0.184 A  
HETATM   22  N   UNL     1      -7.291  20.591  65.884  1.00  0.00    -0.128 NA 
HETATM   23  C   UNL     1      -8.436  19.971  66.280  1.00  0.00    -0.288 A  
HETATM   24  C   UNL     1      -8.601  18.753  66.912  1.00  0.00    -0.284 A  
HETATM   25  C   UNL     1      -9.969  18.474  67.035  1.00  0.00    -0.365 A  
HETATM   26  N   UNL     1      -7.418  18.070  67.249  1.00  0.00    -0.197 NA 
HETATM   27  C   UNL     1     -10.624  19.592  66.549  1.00  0.00    -0.476 A  
HETATM   28  N   UNL     1      -9.685  20.502  66.113  1.00  0.00    -0.638 NA 
HETATM   29  H   UNL     1      -9.890  21.424  65.728  1.00  0.00     0.000 HD 
ENDBRANCH   6  17
ENDBRANCH   2   3
TORSDOF 5
ENDMDL
MODEL      140
REMARK 921   NORMALIZED FREE ENERGY PREDICTED BY IDOCK:   -4.98 KCAL/MOL
REMARK 922        TOTAL FREE ENERGY PREDICTED BY IDOCK:   -6.65 KCAL/MOL
REMARK 923 INTER-LIGAND FREE ENERGY PREDICTED BY IDOCK:   -6.31 KCAL/MOL
REMARK 924 INTRA-LIGAND FREE ENERGY PREDICTED BY IDOCK:   -0.34 KCAL/MOL
REMARK 927      BINDING AFFINITY PREDICTED BY RF-SCORE:    0.00 PKD
ROOT
HETATM    1  C   UNL     1     -11.762   5.880  72.368  1.00  0.00    -0.307 C  
HETATM    2  C   UNL     1     -11.839   7.030  71.371  1.00  0.00    -0.359 C  
ENDROOT
BRANCH   2   3
HETATM    3  C   UNL     1     -11.208   6.692  70.002  1.00  0.00    -0.425 C  
HETATM    4  C   UNL     1     -10.218   5.529  70.102  1.00  0.00    -0.263 C  
HETATM    5  N   UNL     1      -8.991   6.167  70.525  1.00  0.00    -0.145 N  
HETATM    6  C   UNL     1     -10.322   7.817  69.381  1.00  0.00    -0.219 C  
HETATM    7  C   UNL     1      -8.916   7.510  69.971  1.00  0.00    -0.144 C  
BRANCH   5   8
HETATM    8  C   UNL     1      -8.190   5.589  71.478  1.00  0.00    -0.119 C  
HETATM    9  O   UNL     1      -7.386   6.224  72.151  1.00  0.00    -0.090 OA 
BRANCH   8  10
HETATM   10  N   UNL     1      -8.359   4.243  71.654  1.00  0.00    -0.094 N  
HETATM   11  H   UNL     1      -8.305   3.613  70.853  1.00  0.00     0.000 HD 
BRANCH  10  12
HETATM   12  C   UNL     1      -8.616   3.704  72.992  1.00  0.00    -0.090 C  
HETATM   13  F   UNL     1     -10.463   2.592  71.934  1.00  0.00    -0.200 F  
HETATM   14  C   UNL     1      -9.787   2.718  73.100  1.00  0.00    -0.109 C  
HETATM   15  F   UNL     1      -9.389   1.489  73.490  1.00  0.00    -0.068 F  
HETATM   16  F   UNL     1     -10.682   3.162  74.021  1.00  0.00    -0.206 F  
ENDBRANCH  10  12
ENDBRANCH   8  10
ENDBRANCH   5   8
BRANCH   6  17
HETATM   17  C   UNL     1     -10.774   9.230  69.635  1.00  0.00    -0.230 A  
HETATM   18  N   UNL     1     -11.777  11.078  70.559  1.00  0.00    -0.334 NA 
HETATM   19  C   UNL     1     -11.229   9.845  70.798  1.00  0.00    -0.353 A  
HETATM   20  C   UNL     1     -11.625  11.249  69.265  1.00  0.00    -0.322 A  
HETATM   21  C   UNL     1     -12.124  12.348  68.463  1.00  0.00    -0.075 A  
HETATM   22  N   UNL     1     -11.893  12.456  67.175  1.00  0.00    -0.534 NA 
HETATM   23  C   UNL     1     -11.112  11.458  66.679  1.00  0.00    -0.271 A  
HETATM   24  C   UNL     1     -10.565  10.366  67.327  1.00  0.00    -0.267 A  
HETATM   25  C   UNL     1      -9.747   9.657  66.436  1.00  0.00    -0.285 A  
HETATM   26  N   UNL     1     -10.902  10.225  68.686  1.00  0.00    -0.221 NA 
HETATM   27  C   UNL     1      -9.888  10.291  65.214  1.00  0.00    -0.306 A  
HETATM   28  N   UNL     1     -10.733  11.369  65.368  1.00  0.00    -0.272 NA 
HETATM   29  H   UNL     1     -11.029  11.999  64.622  1.00  0.00     0.000 HD 
ENDBRANCH   6  17
ENDBRANCH   2   3
TORSDOF 5
ENDMDL
MODEL      141
REMARK 921   NORMALIZED FREE ENERGY PREDICTED BY IDOCK:   -4.96 KCAL/MOL
REMARK 922        TOTAL FREE ENERGY PREDICTED BY IDOCK:   -6.62 KCAL/MOL
REMARK 923 INTER-LIGAND FREE ENERGY PREDICTED BY IDOCK:   -6.93 KCAL/MOL
REMARK 924 INTRA-LIGAND FREE ENERGY PREDICTED BY IDOCK:    0.31 KCAL/MOL
REMARK 927      BINDING AFFINITY PREDICTED BY RF-SCORE:    0.00 PKD
ROOT
HETATM    1  C   UNL     1      -6.722  11.896  67.261  1.00  0.00    -0.138 C  
HETATM    2  C   UNL     1      -7.655  10.789  67.738  1.00  0.00    -0.095 C  
ENDROOT
BRANCH   2   3
HETATM    3  C   UNL     1      -7.863   9.674  66.689  1.00  0.00    -0.105 C  
HETATM    4  C   UNL     1      -8.284  10.241  65.331  1.00  0.00    -0.156 C  
HETATM    5  N   UNL     1      -9.715  10.402  65.463  1.00  0.00    -0.229 N  
HETATM    6  C   UNL     1      -9.024   8.678  66.997  1.00  0.00    -0.152 C  
HETATM    7  C   UNL     1     -10.250   9.367  66.333  1.00  0.00    -0.230 C  
BRANCH   5   8
HETATM    8  C   UNL     1     -10.345  11.520  64.976  1.00  0.00    -0.281 C  
HETATM    9  O   UNL     1     -11.290  11.469  64.195  1.00  0.00    -0.342 OA 
BRANCH   8  10
HETATM   10  N   UNL     1      -9.866  12.716  65.435  1.00  0.00    -0.425 N  
HETATM   11  H   UNL     1      -9.270  12.742  66.262  1.00  0.00     0.000 HD 
BRANCH  10  12
HETATM   12  C   UNL     1     -10.208  13.959  64.739  1.00  0.00    -0.324 C  
HETATM   13  F   UNL     1     -11.985  14.096  66.348  1.00  0.00    -0.367 F  
HETATM   14  C   UNL     1     -11.385  14.750  65.327  1.00  0.00    -0.363 C  
HETATM   15  F   UNL     1     -11.013  15.970  65.769  1.00  0.00    -0.314 F  
HETATM   16  F   UNL     1     -12.335  14.940  64.375  1.00  0.00    -0.470 F  
ENDBRANCH  10  12
ENDBRANCH   8  10
ENDBRANCH   5   8
BRANCH   6  17
HETATM   17  C   UNL     1      -9.245   8.348  68.449  1.00  0.00    -0.135 A  
HETATM   18  N   UNL     1      -9.462   7.204  70.428  1.00  0.00    -0.163 NA 
HETATM   19  C   UNL     1      -8.852   7.245  69.201  1.00  0.00    -0.136 A  
HETATM   20  C   UNL     1     -10.192   8.296  70.458  1.00  0.00    -0.198 A  
HETATM   21  C   UNL     1     -11.126   8.697  71.491  1.00  0.00    -0.288 A  
HETATM   22  N   UNL     1     -11.791   9.827  71.455  1.00  0.00    -0.399 NA 
HETATM   23  C   UNL     1     -11.491  10.598  70.375  1.00  0.00    -0.334 A  
HETATM   24  C   UNL     1     -10.621  10.345  69.330  1.00  0.00    -0.239 A  
HETATM   25  C   UNL     1     -10.558  11.469  68.494  1.00  0.00    -0.236 A  
HETATM   26  N   UNL     1      -9.989   9.089  69.346  1.00  0.00    -0.186 NA 
HETATM   27  C   UNL     1     -11.478  12.368  69.005  1.00  0.00    -0.300 A  
HETATM   28  N   UNL     1     -12.053  11.822  70.133  1.00  0.00    -0.328 NA 
HETATM   29  H   UNL     1     -12.780  12.260  70.697  1.00  0.00     0.000 HD 
ENDBRANCH   6  17
ENDBRANCH   2   3
TORSDOF 5
ENDMDL
MODEL      142
REMARK 921   NORMALIZED FREE ENERGY PREDICTED BY IDOCK:   -4.94 KCAL/MOL
REMARK 922        TOTAL FREE ENERGY PREDICTED BY IDOCK:   -6.60 KCAL/MOL
REMARK 923 INTER-LIGAND FREE ENERGY PREDICTED BY IDOCK:   -7.33 KCAL/MOL
REMARK 924 INTRA-LIGAND FREE ENERGY PREDICTED BY IDOCK:    0.73 KCAL/MOL
REMARK 927      BINDING AFFINITY PREDICTED BY RF-SCORE:    0.00 PKD
ROOT
HETATM    1  C   UNL     1      -8.559  12.282  66.958  1.00  0.00    -0.191 C  
HETATM    2  C   UNL     1      -8.429  13.796  67.075  1.00  0.00    -0.150 C  
ENDROOT
BRANCH   2   3
HETATM    3  C   UNL     1      -8.321  14.286  68.537  1.00  0.00    -0.156 C  
HETATM    4  C   UNL     1      -9.624  14.067  69.309  1.00  0.00     0.333 C  
HETATM    5  N   UNL     1     -10.418  15.224  68.966  1.00  0.00    -0.238 N  
HETATM    6  C   UNL     1      -8.099  15.821  68.709  1.00  0.00    -0.179 C  
HETATM    7  C   UNL     1      -9.552  16.374  68.757  1.00  0.00    -0.249 C  
BRANCH   5   8
HETATM    8  C   UNL     1     -11.758  15.102  68.693  1.00  0.00    -0.341 C  
HETATM    9  O   UNL     1     -12.630  15.647  69.361  1.00  0.00    -0.087 OA 
BRANCH   8  10
HETATM   10  N   UNL     1     -12.071  14.343  67.599  1.00  0.00    -0.590 N  
HETATM   11  H   UNL     1     -12.608  13.483  67.712  1.00  0.00     0.000 HD 
BRANCH  10  12
HETATM   12  C   UNL     1     -11.637  14.765  66.264  1.00  0.00    -0.298 C  
HETATM   13  F   UNL     1     -12.766  12.778  65.526  1.00  0.00    -0.526 F  
HETATM   14  C   UNL     1     -12.105  13.880  65.100  1.00  0.00    -0.403 C  
HETATM   15  F   UNL     1     -12.904  14.544  64.240  1.00  0.00    -0.335 F  
HETATM   16  F   UNL     1     -11.031  13.440  64.394  1.00  0.00    -0.335 F  
ENDBRANCH  10  12
ENDBRANCH   8  10
ENDBRANCH   5   8
BRANCH   6  17
HETATM   17  C   UNL     1      -7.247  16.488  67.663  1.00  0.00    -0.137 A  
HETATM   18  N   UNL     1      -5.442  17.201  66.434  1.00  0.00    -0.320 NA 
HETATM   19  C   UNL     1      -5.953  16.209  67.230  1.00  0.00    -0.110 A  
HETATM   20  C   UNL     1      -6.424  18.068  66.336  1.00  0.00    -0.216 A  
HETATM   21  C   UNL     1      -6.386  19.364  65.688  1.00  0.00    -0.228 A  
HETATM   22  N   UNL     1      -7.430  20.154  65.607  1.00  0.00    -0.289 NA 
HETATM   23  C   UNL     1      -8.556  19.624  66.157  1.00  0.00    -0.333 A  
HETATM   24  C   UNL     1      -8.734  18.408  66.791  1.00  0.00    -0.277 A  
HETATM   25  C   UNL     1     -10.089  18.243  67.109  1.00  0.00    -0.367 A  
HETATM   26  N   UNL     1      -7.579  17.620  66.944  1.00  0.00    -0.202 NA 
HETATM   27  C   UNL     1     -10.707  19.424  66.738  1.00  0.00    -0.448 A  
HETATM   28  N   UNL     1      -9.765  20.262  66.180  1.00  0.00    -0.657 NA 
HETATM   29  H   UNL     1      -9.943  21.207  65.840  1.00  0.00     0.000 HD 
ENDBRANCH   6  17
ENDBRANCH   2   3
TORSDOF 5
ENDMDL
MODEL      143
REMARK 921   NORMALIZED FREE ENERGY PREDICTED BY IDOCK:   -4.93 KCAL/MOL
REMARK 922        TOTAL FREE ENERGY PREDICTED BY IDOCK:   -6.59 KCAL/MOL
REMARK 923 INTER-LIGAND FREE ENERGY PREDICTED BY IDOCK:   -6.16 KCAL/MOL
REMARK 924 INTRA-LIGAND FREE ENERGY PREDICTED BY IDOCK:   -0.43 KCAL/MOL
REMARK 927      BINDING AFFINITY PREDICTED BY RF-SCORE:    0.00 PKD
ROOT
HETATM    1  C   UNL     1     -11.178   6.273  69.283  1.00  0.00    -0.458 C  
HETATM    2  C   UNL     1     -10.676   7.682  69.577  1.00  0.00    -0.211 C  
ENDROOT
BRANCH   2   3
HETATM    3  C   UNL     1     -10.825   8.644  68.376  1.00  0.00     0.003 C  
HETATM    4  C   UNL     1      -9.623   8.566  67.432  1.00  0.00    -0.160 C  
HETATM    5  N   UNL     1      -8.658   9.454  68.041  1.00  0.00    -0.120 N  
HETATM    6  C   UNL     1     -10.852  10.161  68.738  1.00  0.00    -0.259 C  
HETATM    7  C   UNL     1      -9.346  10.548  68.708  1.00  0.00    -0.180 C  
BRANCH   5   8
HETATM    8  C   UNL     1      -7.330   9.112  68.105  1.00  0.00    -0.079 C  
HETATM    9  O   UNL     1      -6.423   9.912  67.904  1.00  0.00    -0.059 OA 
BRANCH   8  10
HETATM   10  N   UNL     1      -7.071   7.811  68.435  1.00  0.00    -0.075 N  
HETATM   11  H   UNL     1      -7.032   7.098  67.707  1.00  0.00     0.000 HD 
BRANCH  10  12
HETATM   12  C   UNL     1      -6.847   7.439  69.835  1.00  0.00    -0.055 C  
HETATM   13  F   UNL     1      -7.826   5.344  69.191  1.00  0.00    -0.083 F  
HETATM   14  C   UNL     1      -7.234   6.003  70.214  1.00  0.00    -0.076 C  
HETATM   15  F   UNL     1      -6.173   5.277  70.624  1.00  0.00    -0.019 F  
HETATM   16  F   UNL     1      -8.129   6.020  71.235  1.00  0.00    -0.109 F  
ENDBRANCH  10  12
ENDBRANCH   8  10
ENDBRANCH   5   8
BRANCH   6  17
HETATM   17  C   UNL     1     -11.529  10.519  70.034  1.00  0.00    -0.316 A  
HETATM   18  N   UNL     1     -12.742  10.396  71.981  1.00  0.00    -0.350 NA 
HETATM   19  C   UNL     1     -11.943   9.719  71.096  1.00  0.00    -0.376 A  
HETATM   20  C   UNL     1     -12.787  11.617  71.499  1.00  0.00    -0.364 A  
HETATM   21  C   UNL     1     -13.583  12.724  71.993  1.00  0.00    -0.367 A  
HETATM   22  N   UNL     1     -13.540  13.926  71.469  1.00  0.00    -0.312 NA 
HETATM   23  C   UNL     1     -12.652  14.039  70.444  1.00  0.00    -0.308 A  
HETATM   24  C   UNL     1     -11.831  13.077  69.884  1.00  0.00    -0.307 A  
HETATM   25  C   UNL     1     -11.011  13.673  68.914  1.00  0.00    -0.281 A  
HETATM   26  N   UNL     1     -11.962  11.778  70.405  1.00  0.00    -0.356 NA 
HETATM   27  C   UNL     1     -11.422  14.992  68.836  1.00  0.00    -0.314 A  
HETATM   28  N   UNL     1     -12.431  15.198  69.753  1.00  0.00    -0.570 NA 
HETATM   29  H   UNL     1     -12.931  16.076  69.893  1.00  0.00     0.000 HD 
ENDBRANCH   6  17
ENDBRANCH   2   3
TORSDOF 5
ENDMDL
MODEL      144
REMARK 921   NORMALIZED FREE ENERGY PREDICTED BY IDOCK:   -4.92 KCAL/MOL
REMARK 922        TOTAL FREE ENERGY PREDICTED BY IDOCK:   -6.58 KCAL/MOL
REMARK 923 INTER-LIGAND FREE ENERGY PREDICTED BY IDOCK:   -6.44 KCAL/MOL
REMARK 924 INTRA-LIGAND FREE ENERGY PREDICTED BY IDOCK:   -0.14 KCAL/MOL
REMARK 927      BINDING AFFINITY PREDICTED BY RF-SCORE:    0.00 PKD
ROOT
HETATM    1  C   UNL     1      -6.487  12.626  69.180  1.00  0.00    -0.106 C  
HETATM    2  C   UNL     1      -7.033  13.533  68.081  1.00  0.00    -0.118 C  
ENDROOT
BRANCH   2   3
HETATM    3  C   UNL     1      -8.427  14.113  68.407  1.00  0.00    -0.170 C  
HETATM    4  C   UNL     1      -9.552  13.165  67.983  1.00  0.00    -0.220 C  
HETATM    5  N   UNL     1      -9.738  13.470  66.582  1.00  0.00    -0.272 N  
HETATM    6  C   UNL     1      -8.800  15.420  67.641  1.00  0.00    -0.179 C  
HETATM    7  C   UNL     1      -9.461  14.878  66.342  1.00  0.00    -0.300 C  
BRANCH   5   8
HETATM    8  C   UNL     1      -9.936  12.468  65.665  1.00  0.00    -0.245 C  
HETATM    9  O   UNL     1     -10.355  12.673  64.530  1.00  0.00    -0.325 OA 
BRANCH   8  10
HETATM   10  N   UNL     1      -9.612  11.208  66.086  1.00  0.00    -0.202 N  
HETATM   11  H   UNL     1     -10.275  10.673  66.648  1.00  0.00     0.000 HD 
BRANCH  10  12
HETATM   12  C   UNL     1      -8.315  10.626  65.732  1.00  0.00    -0.162 C  
HETATM   13  F   UNL     1      -9.500   9.722  63.849  1.00  0.00    -0.310 F  
HETATM   14  C   UNL     1      -8.276   9.836  64.416  1.00  0.00    -0.162 C  
HETATM   15  F   UNL     1      -7.443  10.389  63.510  1.00  0.00    -0.148 F  
HETATM   16  F   UNL     1      -7.836   8.572  64.649  1.00  0.00    -0.102 F  
ENDBRANCH  10  12
ENDBRANCH   8  10
ENDBRANCH   5   8
BRANCH   6  17
HETATM   17  C   UNL     1      -7.668  16.376  67.374  1.00  0.00    -0.154 A  
HETATM   18  N   UNL     1      -5.588  17.347  67.313  1.00  0.00    -0.122 NA 
HETATM   19  C   UNL     1      -6.292  16.171  67.349  1.00  0.00    -0.176 A  
HETATM   20  C   UNL     1      -6.519  18.273  67.271  1.00  0.00    -0.178 A  
HETATM   21  C   UNL     1      -6.327  19.709  67.325  1.00  0.00    -0.189 A  
HETATM   22  N   UNL     1      -7.317  20.567  67.241  1.00  0.00    -0.309 NA 
HETATM   23  C   UNL     1      -8.530  19.978  67.063  1.00  0.00    -0.333 A  
HETATM   24  C   UNL     1      -8.851  18.635  66.984  1.00  0.00    -0.281 A  
HETATM   25  C   UNL     1     -10.217  18.499  66.694  1.00  0.00    -0.429 A  
HETATM   26  N   UNL     1      -7.785  17.736  67.166  1.00  0.00    -0.200 NA 
HETATM   27  C   UNL     1     -10.729  19.785  66.695  1.00  0.00    -0.404 A  
HETATM   28  N   UNL     1      -9.702  20.672  66.940  1.00  0.00    -0.643 NA 
HETATM   29  H   UNL     1      -9.802  21.684  67.016  1.00  0.00     0.000 HD 
ENDBRANCH   6  17
ENDBRANCH   2   3
TORSDOF 5
ENDMDL
MODEL      145
REMARK 921   NORMALIZED FREE ENERGY PREDICTED BY IDOCK:   -4.89 KCAL/MOL
REMARK 922        TOTAL FREE ENERGY PREDICTED BY IDOCK:   -6.53 KCAL/MOL
REMARK 923 INTER-LIGAND FREE ENERGY PREDICTED BY IDOCK:   -5.53 KCAL/MOL
REMARK 924 INTRA-LIGAND FREE ENERGY PREDICTED BY IDOCK:   -1.00 KCAL/MOL
REMARK 927      BINDING AFFINITY PREDICTED BY RF-SCORE:    0.00 PKD
ROOT
HETATM    1  C   UNL     1      -6.852  10.613  67.214  1.00  0.00    -0.079 C  
HETATM    2  C   UNL     1      -8.170  10.848  67.944  1.00  0.00    -0.114 C  
ENDROOT
BRANCH   2   3
HETATM    3  C   UNL     1      -9.332  11.223  66.997  1.00  0.00    -0.183 C  
HETATM    4  C   UNL     1     -10.115  12.435  67.507  1.00  0.00    -0.202 C  
HETATM    5  N   UNL     1     -11.049  11.860  68.448  1.00  0.00    -0.225 N  
HETATM    6  C   UNL     1     -10.454  10.147  66.863  1.00  0.00    -0.286 C  
HETATM    7  C   UNL     1     -11.429  10.525  68.014  1.00  0.00    -0.151 C  
BRANCH   5   8
HETATM    8  C   UNL     1     -11.309  12.477  69.647  1.00  0.00    -0.112 C  
HETATM    9  O   UNL     1     -11.886  11.920  70.575  1.00  0.00    -0.320 OA 
BRANCH   8  10
HETATM   10  N   UNL     1     -10.859  13.763  69.759  1.00  0.00    -0.445 N  
HETATM   11  H   UNL     1      -9.857  13.952  69.791  1.00  0.00     0.000 HD 
BRANCH  10  12
HETATM   12  C   UNL     1     -11.815  14.871  69.835  1.00  0.00    -0.311 C  
HETATM   13  F   UNL     1     -10.970  15.139  72.067  1.00  0.00    -0.454 F  
HETATM   14  C   UNL     1     -11.806  15.671  71.145  1.00  0.00    -0.408 C  
HETATM   15  F   UNL     1     -11.458  16.961  70.956  1.00  0.00    -0.281 F  
HETATM   16  F   UNL     1     -13.047  15.667  71.697  1.00  0.00    -0.417 F  
ENDBRANCH  10  12
ENDBRANCH   8  10
ENDBRANCH   5   8
BRANCH   6  17
HETATM   17  C   UNL     1     -10.004   8.711  66.916  1.00  0.00    -0.260 A  
HETATM   18  N   UNL     1      -9.412   6.627  67.677  1.00  0.00    -0.125 NA 
HETATM   19  C   UNL     1     -10.188   7.736  67.892  1.00  0.00    -0.206 A  
HETATM   20  C   UNL     1      -8.784   6.891  66.554  1.00  0.00    -0.133 A  
HETATM   21  C   UNL     1      -7.754   6.093  65.919  1.00  0.00    -0.093 A  
HETATM   22  N   UNL     1      -7.203   6.417  64.773  1.00  0.00    -0.060 NA 
HETATM   23  C   UNL     1      -7.718   7.551  64.225  1.00  0.00    -0.128 A  
HETATM   24  C   UNL     1      -8.700   8.394  64.713  1.00  0.00     0.024 A  
HETATM   25  C   UNL     1      -8.979   9.385  63.760  1.00  0.00    -0.153 A  
HETATM   26  N   UNL     1      -9.210   8.074  65.984  1.00  0.00    -0.157 NA 
HETATM   27  C   UNL     1      -8.079   9.177  62.730  1.00  0.00    -0.154 A  
HETATM   28  N   UNL     1      -7.306   8.075  63.031  1.00  0.00    -0.098 NA 
HETATM   29  H   UNL     1      -6.548   7.710  62.454  1.00  0.00     0.000 HD 
ENDBRANCH   6  17
ENDBRANCH   2   3
TORSDOF 5
ENDMDL
MODEL      146
REMARK 921   NORMALIZED FREE ENERGY PREDICTED BY IDOCK:   -4.89 KCAL/MOL
REMARK 922        TOTAL FREE ENERGY PREDICTED BY IDOCK:   -6.53 KCAL/MOL
REMARK 923 INTER-LIGAND FREE ENERGY PREDICTED BY IDOCK:   -6.83 KCAL/MOL
REMARK 924 INTRA-LIGAND FREE ENERGY PREDICTED BY IDOCK:    0.30 KCAL/MOL
REMARK 927      BINDING AFFINITY PREDICTED BY RF-SCORE:    0.00 PKD
ROOT
HETATM    1  C   UNL     1      -6.864  10.120  69.206  1.00  0.00    -0.063 C  
HETATM    2  C   UNL     1      -8.176  10.666  68.654  1.00  0.00    -0.135 C  
ENDROOT
BRANCH   2   3
HETATM    3  C   UNL     1      -8.692   9.884  67.426  1.00  0.00    -0.129 C  
HETATM    4  C   UNL     1      -9.262  10.817  66.354  1.00  0.00    -0.170 C  
HETATM    5  N   UNL     1     -10.619  11.046  66.795  1.00  0.00    -0.255 N  
HETATM    6  C   UNL     1      -9.899   8.934  67.701  1.00  0.00    -0.229 C  
HETATM    7  C   UNL     1     -11.125   9.863  67.474  1.00  0.00    -0.071 C  
BRANCH   5   8
HETATM    8  C   UNL     1     -11.179  12.297  66.725  1.00  0.00    -0.318 C  
HETATM    9  O   UNL     1     -12.318  12.499  66.318  1.00  0.00    -0.570 OA 
BRANCH   8  10
HETATM   10  N   UNL     1     -10.389  13.324  67.163  1.00  0.00    -0.247 N  
HETATM   11  H   UNL     1      -9.373  13.238  67.126  1.00  0.00     0.000 HD 
BRANCH  10  12
HETATM   12  C   UNL     1     -11.001  14.549  67.687  1.00  0.00    -0.288 C  
HETATM   13  F   UNL     1      -8.809  14.990  68.562  1.00  0.00    -0.155 F  
HETATM   14  C   UNL     1     -10.053  15.504  68.426  1.00  0.00    -0.214 C  
HETATM   15  F   UNL     1      -9.949  16.701  67.812  1.00  0.00    -0.242 F  
HETATM   16  F   UNL     1     -10.518  15.734  69.682  1.00  0.00    -0.211 F  
ENDBRANCH  10  12
ENDBRANCH   8  10
ENDBRANCH   5   8
BRANCH   6  17
HETATM   17  C   UNL     1      -9.913   8.254  69.044  1.00  0.00    -0.189 A  
HETATM   18  N   UNL     1      -9.770   6.668  70.699  1.00  0.00    -0.172 NA 
HETATM   19  C   UNL     1      -9.314   7.072  69.470  1.00  0.00    -0.148 A  
HETATM   20  C   UNL     1     -10.610   7.614  71.053  1.00  0.00    -0.217 A  
HETATM   21  C   UNL     1     -11.458   7.636  72.229  1.00  0.00    -0.317 A  
HETATM   22  N   UNL     1     -12.246   8.644  72.523  1.00  0.00    -0.359 NA 
HETATM   23  C   UNL     1     -12.161   9.675  71.640  1.00  0.00    -0.402 A  
HETATM   24  C   UNL     1     -11.394   9.789  70.495  1.00  0.00    -0.314 A  
HETATM   25  C   UNL     1     -11.555  11.072  69.953  1.00  0.00    -0.416 A  
HETATM   26  N   UNL     1     -10.628   8.660  70.153  1.00  0.00    -0.220 NA 
HETATM   27  C   UNL     1     -12.506  11.695  70.742  1.00  0.00    -0.330 A  
HETATM   28  N   UNL     1     -12.881  10.832  71.749  1.00  0.00    -0.447 NA 
HETATM   29  H   UNL     1     -13.584  11.027  72.462  1.00  0.00     0.000 HD 
ENDBRANCH   6  17
ENDBRANCH   2   3
TORSDOF 5
ENDMDL
MODEL      147
REMARK 921   NORMALIZED FREE ENERGY PREDICTED BY IDOCK:   -4.88 KCAL/MOL
REMARK 922        TOTAL FREE ENERGY PREDICTED BY IDOCK:   -6.53 KCAL/MOL
REMARK 923 INTER-LIGAND FREE ENERGY PREDICTED BY IDOCK:   -7.16 KCAL/MOL
REMARK 924 INTRA-LIGAND FREE ENERGY PREDICTED BY IDOCK:    0.63 KCAL/MOL
REMARK 927      BINDING AFFINITY PREDICTED BY RF-SCORE:    0.00 PKD
ROOT
HETATM    1  C   UNL     1     -10.353  15.500  65.113  1.00  0.00    -0.388 C  
HETATM    2  C   UNL     1     -10.242  14.064  65.614  1.00  0.00    -0.351 C  
ENDROOT
BRANCH   2   3
HETATM    3  C   UNL     1     -11.614  13.383  65.820  1.00  0.00    -0.358 C  
HETATM    4  C   UNL     1     -12.520  14.197  66.747  1.00  0.00    -0.165 C  
HETATM    5  N   UNL     1     -12.103  13.786  68.069  1.00  0.00    -0.339 N  
HETATM    6  C   UNL     1     -11.570  12.001  66.543  1.00  0.00    -0.384 C  
HETATM    7  C   UNL     1     -11.675  12.397  68.043  1.00  0.00    -0.356 C  
BRANCH   5   8
HETATM    8  C   UNL     1     -11.967  14.705  69.080  1.00  0.00    -0.294 C  
HETATM    9  O   UNL     1     -11.966  14.398  70.268  1.00  0.00    -0.282 OA 
BRANCH   8  10
HETATM   10  N   UNL     1     -11.807  16.003  68.682  1.00  0.00    -0.401 N  
HETATM   11  H   UNL     1     -12.594  16.514  68.281  1.00  0.00     0.000 HD 
BRANCH  10  12
HETATM   12  C   UNL     1     -10.506  16.661  68.830  1.00  0.00    -0.322 C  
HETATM   13  F   UNL     1     -11.394  18.249  67.263  1.00  0.00    -0.206 F  
HETATM   14  C   UNL     1     -10.330  17.973  68.053  1.00  0.00    -0.387 C  
HETATM   15  F   UNL     1     -10.126  19.029  68.868  1.00  0.00    -0.411 F  
HETATM   16  F   UNL     1      -9.250  17.883  67.233  1.00  0.00    -0.245 F  
ENDBRANCH  10  12
ENDBRANCH   8  10
ENDBRANCH   5   8
BRANCH   6  17
HETATM   17  C   UNL     1     -10.376  11.135  66.241  1.00  0.00    -0.249 A  
HETATM   18  N   UNL     1      -8.775   9.919  65.131  1.00  0.00    -0.154 NA 
HETATM   19  C   UNL     1      -9.629  10.990  65.076  1.00  0.00    -0.247 A  
HETATM   20  C   UNL     1      -8.956   9.430  66.337  1.00  0.00    -0.152 A  
HETATM   21  C   UNL     1      -8.373   8.223  66.889  1.00  0.00    -0.114 A  
HETATM   22  N   UNL     1      -8.583   7.826  68.122  1.00  0.00    -0.124 NA 
HETATM   23  C   UNL     1      -9.368   8.675  68.839  1.00  0.00    -0.145 A  
HETATM   24  C   UNL     1      -9.975   9.853  68.444  1.00  0.00    -0.158 A  
HETATM   25  C   UNL     1     -10.606  10.444  69.548  1.00  0.00    -0.274 A  
HETATM   26  N   UNL     1      -9.808  10.209  67.094  1.00  0.00    -0.179 NA 
HETATM   27  C   UNL     1     -10.447   9.550  70.593  1.00  0.00    -0.308 A  
HETATM   28  N   UNL     1      -9.713   8.472  70.146  1.00  0.00    -0.168 NA 
HETATM   29  H   UNL     1      -9.466   7.654  70.703  1.00  0.00     0.000 HD 
ENDBRANCH   6  17
ENDBRANCH   2   3
TORSDOF 5
ENDMDL
MODEL      148
REMARK 921   NORMALIZED FREE ENERGY PREDICTED BY IDOCK:   -4.88 KCAL/MOL
REMARK 922        TOTAL FREE ENERGY PREDICTED BY IDOCK:   -6.53 KCAL/MOL
REMARK 923 INTER-LIGAND FREE ENERGY PREDICTED BY IDOCK:   -6.70 KCAL/MOL
REMARK 924 INTRA-LIGAND FREE ENERGY PREDICTED BY IDOCK:    0.17 KCAL/MOL
REMARK 927      BINDING AFFINITY PREDICTED BY RF-SCORE:    0.00 PKD
ROOT
HETATM    1  C   UNL     1     -13.638   8.818  72.817  1.00  0.00    -0.244 C  
HETATM    2  C   UNL     1     -13.109  10.037  72.069  1.00  0.00    -0.541 C  
ENDROOT
BRANCH   2   3
HETATM    3  C   UNL     1     -12.800   9.751  70.582  1.00  0.00    -0.138 C  
HETATM    4  C   UNL     1     -11.999   8.459  70.405  1.00  0.00     0.184 C  
HETATM    5  N   UNL     1     -10.633   8.878  70.622  1.00  0.00    -0.216 N  
HETATM    6  C   UNL     1     -11.882  10.799  69.880  1.00  0.00    -0.413 C  
HETATM    7  C   UNL     1     -10.455  10.245  70.159  1.00  0.00    -0.203 C  
BRANCH   5   8
HETATM    8  C   UNL     1      -9.769   8.104  71.357  1.00  0.00    -0.171 C  
HETATM    9  O   UNL     1      -8.558   8.083  71.161  1.00  0.00    -0.122 OA 
BRANCH   8  10
HETATM   10  N   UNL     1     -10.341   7.362  72.352  1.00  0.00    -0.211 N  
HETATM   11  H   UNL     1     -10.501   7.777  73.270  1.00  0.00     0.000 HD 
BRANCH  10  12
HETATM   12  C   UNL     1     -10.724   5.970  72.101  1.00  0.00    -0.226 C  
HETATM   13  F   UNL     1     -10.681   5.772  74.494  1.00  0.00    -0.247 F  
HETATM   14  C   UNL     1     -10.970   5.110  73.350  1.00  0.00    -0.320 C  
HETATM   15  F   UNL     1     -12.242   4.670  73.428  1.00  0.00    -0.320 F  
HETATM   16  F   UNL     1     -10.166   4.015  73.321  1.00  0.00    -0.153 F  
ENDBRANCH  10  12
ENDBRANCH   8  10
ENDBRANCH   5   8
BRANCH   6  17
HETATM   17  C   UNL     1     -12.057  12.229  70.316  1.00  0.00    -0.295 A  
HETATM   18  N   UNL     1     -12.844  14.127  71.342  1.00  0.00    -0.337 NA 
HETATM   19  C   UNL     1     -12.685  12.769  71.435  1.00  0.00    -0.255 A  
HETATM   20  C   UNL     1     -12.281  14.436  70.196  1.00  0.00    -0.341 A  
HETATM   21  C   UNL     1     -12.257  15.736  69.555  1.00  0.00    -0.157 A  
HETATM   22  N   UNL     1     -11.638  15.962  68.421  1.00  0.00    -0.355 NA 
HETATM   23  C   UNL     1     -10.992  14.871  67.928  1.00  0.00    -0.286 A  
HETATM   24  C   UNL     1     -10.923  13.587  68.438  1.00  0.00    -0.266 A  
HETATM   25  C   UNL     1     -10.060  12.817  67.645  1.00  0.00    -0.220 A  
HETATM   26  N   UNL     1     -11.670  13.349  69.605  1.00  0.00    -0.309 NA 
HETATM   27  C   UNL     1      -9.686  13.637  66.594  1.00  0.00    -0.284 A  
HETATM   28  N   UNL     1     -10.272  14.873  66.765  1.00  0.00    -0.255 NA 
HETATM   29  H   UNL     1     -10.183  15.662  66.126  1.00  0.00     0.000 HD 
ENDBRANCH   6  17
ENDBRANCH   2   3
TORSDOF 5
ENDMDL
MODEL      149
REMARK 921   NORMALIZED FREE ENERGY PREDICTED BY IDOCK:   -4.85 KCAL/MOL
REMARK 922        TOTAL FREE ENERGY PREDICTED BY IDOCK:   -6.48 KCAL/MOL
REMARK 923 INTER-LIGAND FREE ENERGY PREDICTED BY IDOCK:   -5.22 KCAL/MOL
REMARK 924 INTRA-LIGAND FREE ENERGY PREDICTED BY IDOCK:   -1.26 KCAL/MOL
REMARK 927      BINDING AFFINITY PREDICTED BY RF-SCORE:    0.00 PKD
ROOT
HETATM    1  C   UNL     1     -12.157   6.514  70.339  1.00  0.00    -0.172 C  
HETATM    2  C   UNL     1     -10.887   6.228  69.545  1.00  0.00    -0.404 C  
ENDROOT
BRANCH   2   3
HETATM    3  C   UNL     1      -9.855   5.387  70.330  1.00  0.00    -0.270 C  
HETATM    4  C   UNL     1      -9.841   5.747  71.818  1.00  0.00    -0.166 C  
HETATM    5  N   UNL     1      -8.968   6.897  71.878  1.00  0.00    -0.137 N  
HETATM    6  C   UNL     1      -8.365   5.618  69.929  1.00  0.00    -0.117 C  
HETATM    7  C   UNL     1      -7.938   6.790  70.857  1.00  0.00    -0.106 C  
BRANCH   5   8
HETATM    8  C   UNL     1      -9.278   7.974  72.670  1.00  0.00    -0.239 C  
HETATM    9  O   UNL     1      -8.700   8.219  73.724  1.00  0.00    -0.247 OA 
BRANCH   8  10
HETATM   10  N   UNL     1     -10.271   8.789  72.199  1.00  0.00    -0.326 N  
HETATM   11  H   UNL     1     -11.142   8.884  72.720  1.00  0.00     0.000 HD 
BRANCH  10  12
HETATM   12  C   UNL     1     -10.083   9.524  70.945  1.00  0.00    -0.260 C  
HETATM   13  F   UNL     1     -12.481   9.657  70.937  1.00  0.00    -0.334 F  
HETATM   14  C   UNL     1     -11.364  10.057  70.287  1.00  0.00    -0.308 C  
HETATM   15  F   UNL     1     -11.380  11.404  70.213  1.00  0.00    -0.348 F  
HETATM   16  F   UNL     1     -11.462   9.583  69.018  1.00  0.00    -0.109 F  
ENDBRANCH  10  12
ENDBRANCH   8  10
ENDBRANCH   5   8
BRANCH   6  17
HETATM   17  C   UNL     1      -8.108   5.893  68.471  1.00  0.00    -0.106 A  
HETATM   18  N   UNL     1      -7.820   6.967  66.461  1.00  0.00    -0.104 NA 
HETATM   19  C   UNL     1      -7.700   7.056  67.824  1.00  0.00    -0.112 A  
HETATM   20  C   UNL     1      -8.257   5.744  66.260  1.00  0.00    -0.109 A  
HETATM   21  C   UNL     1      -8.655   5.153  64.997  1.00  0.00    -0.151 A  
HETATM   22  N   UNL     1      -9.047   3.906  64.883  1.00  0.00    -0.133 NA 
HETATM   23  C   UNL     1      -9.010   3.216  66.055  1.00  0.00    -0.146 A  
HETATM   24  C   UNL     1      -8.645   3.649  67.317  1.00  0.00    -0.108 A  
HETATM   25  C   UNL     1      -8.664   2.564  68.205  1.00  0.00    -0.135 A  
HETATM   26  N   UNL     1      -8.315   5.012  67.428  1.00  0.00    -0.106 NA 
HETATM   27  C   UNL     1      -9.139   1.490  67.473  1.00  0.00    -0.130 A  
HETATM   28  N   UNL     1      -9.364   1.901  66.176  1.00  0.00    -0.337 NA 
HETATM   29  H   UNL     1      -9.736   1.317  65.427  1.00  0.00     0.000 HD 
ENDBRANCH   6  17
ENDBRANCH   2   3
TORSDOF 5
ENDMDL
MODEL      150
REMARK 921   NORMALIZED FREE ENERGY PREDICTED BY IDOCK:   -4.85 KCAL/MOL
REMARK 922        TOTAL FREE ENERGY PREDICTED BY IDOCK:   -6.48 KCAL/MOL
REMARK 923 INTER-LIGAND FREE ENERGY PREDICTED BY IDOCK:   -6.21 KCAL/MOL
REMARK 924 INTRA-LIGAND FREE ENERGY PREDICTED BY IDOCK:   -0.28 KCAL/MOL
REMARK 927      BINDING AFFINITY PREDICTED BY RF-SCORE:    0.00 PKD
ROOT
HETATM    1  C   UNL     1     -12.059  12.431  64.981  1.00  0.00    -0.468 C  
HETATM    2  C   UNL     1     -11.515  11.899  66.303  1.00  0.00    -0.367 C  
ENDROOT
BRANCH   2   3
HETATM    3  C   UNL     1      -9.976  11.769  66.320  1.00  0.00    -0.246 C  
HETATM    4  C   UNL     1      -9.527  10.306  66.323  1.00  0.00    -0.177 C  
HETATM    5  N   UNL     1      -9.587   9.939  67.720  1.00  0.00    -0.140 N  
HETATM    6  C   UNL     1      -9.275  12.324  67.598  1.00  0.00    -0.183 C  
HETATM    7  C   UNL     1      -9.270  11.092  68.548  1.00  0.00    -0.183 C  
BRANCH   5   8
HETATM    8  C   UNL     1     -10.086   8.720  68.107  1.00  0.00    -0.190 C  
HETATM    9  O   UNL     1     -10.560   8.513  69.219  1.00  0.00    -0.220 OA 
BRANCH   8  10
HETATM   10  N   UNL     1     -10.045   7.737  67.157  1.00  0.00    -0.229 N  
HETATM   11  H   UNL     1      -9.527   7.886  66.291  1.00  0.00     0.000 HD 
BRANCH  10  12
HETATM   12  C   UNL     1     -10.744   6.469  67.383  1.00  0.00    -0.340 C  
HETATM   13  F   UNL     1      -9.265   5.622  65.691  1.00  0.00    -0.161 F  
HETATM   14  C   UNL     1     -10.230   5.271  66.573  1.00  0.00    -0.253 C  
HETATM   15  F   UNL     1      -9.744   4.289  67.360  1.00  0.00    -0.181 F  
HETATM   16  F   UNL     1     -11.245   4.736  65.845  1.00  0.00    -0.290 F  
ENDBRANCH  10  12
ENDBRANCH   8  10
ENDBRANCH   5   8
BRANCH   6  17
HETATM   17  C   UNL     1      -9.900  13.546  68.218  1.00  0.00    -0.233 A  
HETATM   18  N   UNL     1     -11.434  15.072  68.985  1.00  0.00    -0.286 NA 
HETATM   19  C   UNL     1     -11.173  13.749  68.743  1.00  0.00    -0.271 A  
HETATM   20  C   UNL     1     -10.318  15.683  68.656  1.00  0.00    -0.216 A  
HETATM   21  C   UNL     1     -10.080  17.112  68.621  1.00  0.00    -0.329 A  
HETATM   22  N   UNL     1      -8.917  17.636  68.312  1.00  0.00    -0.269 NA 
HETATM   23  C   UNL     1      -7.953  16.708  68.065  1.00  0.00    -0.171 A  
HETATM   24  C   UNL     1      -8.040  15.328  68.074  1.00  0.00    -0.137 A  
HETATM   25  C   UNL     1      -6.767  14.780  67.859  1.00  0.00    -0.177 A  
HETATM   26  N   UNL     1      -9.317  14.794  68.319  1.00  0.00    -0.193 NA 
HETATM   27  C   UNL     1      -5.930  15.857  67.627  1.00  0.00    -0.152 A  
HETATM   28  N   UNL     1      -6.663  17.020  67.734  1.00  0.00    -0.144 NA 
HETATM   29  H   UNL     1      -6.300  17.962  67.589  1.00  0.00     0.000 HD 
ENDBRANCH   6  17
ENDBRANCH   2   3
TORSDOF 5
ENDMDL
MODEL      151
REMARK 921   NORMALIZED FREE ENERGY PREDICTED BY IDOCK:   -4.83 KCAL/MOL
REMARK 922        TOTAL FREE ENERGY PREDICTED BY IDOCK:   -6.47 KCAL/MOL
REMARK 923 INTER-LIGAND FREE ENERGY PREDICTED BY IDOCK:   -6.47 KCAL/MOL
REMARK 924 INTRA-LIGAND FREE ENERGY PREDICTED BY IDOCK:    0.01 KCAL/MOL
REMARK 927      BINDING AFFINITY PREDICTED BY RF-SCORE:    0.00 PKD
ROOT
HETATM    1  C   UNL     1     -13.591   7.111  71.672  1.00  0.00    -0.399 C  
HETATM    2  C   UNL     1     -12.484   6.951  70.635  1.00  0.00    -0.179 C  
ENDROOT
BRANCH   2   3
HETATM    3  C   UNL     1     -11.128   7.529  71.099  1.00  0.00    -0.270 C  
HETATM    4  C   UNL     1     -11.308   8.717  72.047  1.00  0.00    -0.362 C  
HETATM    5  N   UNL     1     -11.494   9.836  71.151  1.00  0.00    -0.373 N  
HETATM    6  C   UNL     1     -10.247   8.148  69.970  1.00  0.00    -0.202 C  
HETATM    7  C   UNL     1     -10.728   9.626  69.933  1.00  0.00    -0.252 C  
BRANCH   5   8
HETATM    8  C   UNL     1     -12.438  10.798  71.413  1.00  0.00    -0.373 C  
HETATM    9  O   UNL     1     -13.399  10.608  72.150  1.00  0.00    -0.444 OA 
BRANCH   8  10
HETATM   10  N   UNL     1     -12.230  12.009  70.814  1.00  0.00    -0.410 N  
HETATM   11  H   UNL     1     -11.745  12.058  69.918  1.00  0.00     0.000 HD 
BRANCH  10  12
HETATM   12  C   UNL     1     -12.703  13.237  71.458  1.00  0.00    -0.281 C  
HETATM   13  F   UNL     1     -11.379  14.344  69.788  1.00  0.00    -0.256 F  
HETATM   14  C   UNL     1     -12.246  14.550  70.806  1.00  0.00    -0.333 C  
HETATM   15  F   UNL     1     -13.280  15.278  70.337  1.00  0.00    -0.374 F  
HETATM   16  F   UNL     1     -11.596  15.318  71.720  1.00  0.00    -0.358 F  
ENDBRANCH  10  12
ENDBRANCH   8  10
ENDBRANCH   5   8
BRANCH   6  17
HETATM   17  C   UNL     1     -10.318   7.469  68.628  1.00  0.00    -0.200 A  
HETATM   18  N   UNL     1     -10.835   6.001  66.939  1.00  0.00    -0.331 NA 
HETATM   19  C   UNL     1     -11.259   6.588  68.104  1.00  0.00    -0.150 A  
HETATM   20  C   UNL     1      -9.661   6.546  66.718  1.00  0.00    -0.161 A  
HETATM   21  C   UNL     1      -8.723   6.206  65.666  1.00  0.00    -0.126 A  
HETATM   22  N   UNL     1      -7.581   6.830  65.497  1.00  0.00    -0.083 NA 
HETATM   23  C   UNL     1      -7.382   7.845  66.380  1.00  0.00    -0.086 A  
HETATM   24  C   UNL     1      -8.190   8.279  67.415  1.00  0.00    -0.121 A  
HETATM   25  C   UNL     1      -7.626   9.424  67.997  1.00  0.00    -0.083 A  
HETATM   26  N   UNL     1      -9.364   7.537  67.631  1.00  0.00    -0.137 NA 
HETATM   27  C   UNL     1      -6.416   9.614  67.353  1.00  0.00    -0.069 A  
HETATM   28  N   UNL     1      -6.268   8.640  66.389  1.00  0.00    -0.059 NA 
HETATM   29  H   UNL     1      -5.458   8.530  65.779  1.00  0.00     0.000 HD 
ENDBRANCH   6  17
ENDBRANCH   2   3
TORSDOF 5
ENDMDL
MODEL      152
REMARK 921   NORMALIZED FREE ENERGY PREDICTED BY IDOCK:   -4.83 KCAL/MOL
REMARK 922        TOTAL FREE ENERGY PREDICTED BY IDOCK:   -6.46 KCAL/MOL
REMARK 923 INTER-LIGAND FREE ENERGY PREDICTED BY IDOCK:   -5.65 KCAL/MOL
REMARK 924 INTRA-LIGAND FREE ENERGY PREDICTED BY IDOCK:   -0.81 KCAL/MOL
REMARK 927      BINDING AFFINITY PREDICTED BY RF-SCORE:    0.00 PKD
ROOT
HETATM    1  C   UNL     1     -11.090   6.292  68.111  1.00  0.00    -0.364 C  
HETATM    2  C   UNL     1      -9.912   7.255  68.016  1.00  0.00    -0.186 C  
ENDROOT
BRANCH   2   3
HETATM    3  C   UNL     1     -10.342   8.730  67.859  1.00  0.00    -0.281 C  
HETATM    4  C   UNL     1     -10.130   9.236  66.430  1.00  0.00    -0.267 C  
HETATM    5  N   UNL     1      -8.739   9.626  66.413  1.00  0.00    -0.133 N  
HETATM    6  C   UNL     1      -9.512   9.758  68.691  1.00  0.00    -0.151 C  
HETATM    7  C   UNL     1      -8.348  10.119  67.725  1.00  0.00    -0.114 C  
BRANCH   5   8
HETATM    8  C   UNL     1      -7.940   9.336  65.336  1.00  0.00    -0.108 C  
HETATM    9  O   UNL     1      -6.847   9.860  65.152  1.00  0.00    -0.109 OA 
BRANCH   8  10
HETATM   10  N   UNL     1      -8.429   8.393  64.475  1.00  0.00    -0.352 N  
HETATM   11  H   UNL     1      -8.922   8.681  63.629  1.00  0.00     0.000 HD 
BRANCH  10  12
HETATM   12  C   UNL     1      -8.246   6.968  64.765  1.00  0.00    -0.047 C  
HETATM   13  F   UNL     1      -8.759   6.668  62.438  1.00  0.00    -0.048 F  
HETATM   14  C   UNL     1      -8.382   6.020  63.565  1.00  0.00     0.050 C  
HETATM   15  F   UNL     1      -7.237   5.355  63.305  1.00  0.00    -0.042 F  
HETATM   16  F   UNL     1      -9.339   5.090  63.817  1.00  0.00    -0.059 F  
ENDBRANCH  10  12
ENDBRANCH   8  10
ENDBRANCH   5   8
BRANCH   6  17
HETATM   17  C   UNL     1      -9.038   9.287  70.039  1.00  0.00    -0.210 A  
HETATM   18  N   UNL     1      -7.761   8.384  71.721  1.00  0.00    -0.108 NA 
HETATM   19  C   UNL     1      -7.754   9.036  70.515  1.00  0.00    -0.119 A  
HETATM   20  C   UNL     1      -9.037   8.271  72.014  1.00  0.00    -0.202 A  
HETATM   21  C   UNL     1      -9.617   7.564  73.140  1.00  0.00    -0.233 A  
HETATM   22  N   UNL     1     -10.907   7.532  73.376  1.00  0.00    -0.367 NA 
HETATM   23  C   UNL     1     -11.639   8.254  72.485  1.00  0.00    -0.385 A  
HETATM   24  C   UNL     1     -11.218   8.977  71.384  1.00  0.00    -0.324 A  
HETATM   25  C   UNL     1     -12.315   9.642  70.817  1.00  0.00    -0.279 A  
HETATM   26  N   UNL     1      -9.842   8.921  71.101  1.00  0.00    -0.248 NA 
HETATM   27  C   UNL     1     -13.419   9.230  71.542  1.00  0.00    -0.370 A  
HETATM   28  N   UNL     1     -13.001   8.374  72.538  1.00  0.00    -0.597 NA 
HETATM   29  H   UNL     1     -13.610   7.904  73.208  1.00  0.00     0.000 HD 
ENDBRANCH   6  17
ENDBRANCH   2   3
TORSDOF 5
ENDMDL
MODEL      153
REMARK 921   NORMALIZED FREE ENERGY PREDICTED BY IDOCK:   -4.79 KCAL/MOL
REMARK 922        TOTAL FREE ENERGY PREDICTED BY IDOCK:   -6.41 KCAL/MOL
REMARK 923 INTER-LIGAND FREE ENERGY PREDICTED BY IDOCK:   -6.07 KCAL/MOL
REMARK 924 INTRA-LIGAND FREE ENERGY PREDICTED BY IDOCK:   -0.33 KCAL/MOL
REMARK 927      BINDING AFFINITY PREDICTED BY RF-SCORE:    0.00 PKD
ROOT
HETATM    1  C   UNL     1      -7.236   7.003  66.328  1.00  0.00    -0.075 C  
HETATM    2  C   UNL     1      -8.542   7.372  67.024  1.00  0.00    -0.119 C  
ENDROOT
BRANCH   2   3
HETATM    3  C   UNL     1      -8.358   8.414  68.150  1.00  0.00    -0.128 C  
HETATM    4  C   UNL     1      -8.523   7.789  69.537  1.00  0.00    -0.131 C  
HETATM    5  N   UNL     1      -9.954   7.800  69.743  1.00  0.00    -0.186 N  
HETATM    6  C   UNL     1      -9.422   9.555  68.182  1.00  0.00    -0.145 C  
HETATM    7  C   UNL     1     -10.540   8.956  69.082  1.00  0.00    -0.195 C  
BRANCH   5   8
HETATM    8  C   UNL     1     -10.592   6.724  70.307  1.00  0.00    -0.215 C  
HETATM    9  O   UNL     1     -11.770   6.745  70.645  1.00  0.00    -0.349 OA 
BRANCH   8  10
HETATM   10  N   UNL     1      -9.831   5.596  70.454  1.00  0.00    -0.184 N  
HETATM   11  H   UNL     1      -9.186   5.515  71.240  1.00  0.00     0.000 HD 
BRANCH  10  12
HETATM   12  C   UNL     1      -9.942   4.505  69.482  1.00  0.00    -0.165 C  
HETATM   13  F   UNL     1      -7.581   4.836  69.193  1.00  0.00    -0.055 F  
HETATM   14  C   UNL     1      -8.627   4.058  68.829  1.00  0.00    -0.089 C  
HETATM   15  F   UNL     1      -8.319   2.777  69.119  1.00  0.00    -0.066 F  
HETATM   16  F   UNL     1      -8.728   4.151  67.477  1.00  0.00    -0.101 F  
ENDBRANCH  10  12
ENDBRANCH   8  10
ENDBRANCH   5   8
BRANCH   6  17
HETATM   17  C   UNL     1      -9.928  10.024  66.844  1.00  0.00    -0.209 A  
HETATM   18  N   UNL     1     -10.162  10.360  64.584  1.00  0.00    -0.312 NA 
HETATM   19  C   UNL     1      -9.742   9.502  65.567  1.00  0.00    -0.273 A  
HETATM   20  C   UNL     1     -10.646  11.388  65.244  1.00  0.00    -0.277 A  
HETATM   21  C   UNL     1     -11.131  12.636  64.688  1.00  0.00    -0.313 A  
HETATM   22  N   UNL     1     -11.632  13.600  65.424  1.00  0.00    -0.314 NA 
HETATM   23  C   UNL     1     -11.684  13.299  66.750  1.00  0.00    -0.385 A  
HETATM   24  C   UNL     1     -11.269  12.155  67.407  1.00  0.00    -0.302 A  
HETATM   25  C   UNL     1     -11.612  12.249  68.764  1.00  0.00    -0.380 A  
HETATM   26  N   UNL     1     -10.654  11.175  66.608  1.00  0.00    -0.255 NA 
HETATM   27  C   UNL     1     -12.155  13.511  68.927  1.00  0.00    -0.279 A  
HETATM   28  N   UNL     1     -12.175  14.147  67.704  1.00  0.00    -0.574 NA 
HETATM   29  H   UNL     1     -12.504  15.098  67.538  1.00  0.00     0.000 HD 
ENDBRANCH   6  17
ENDBRANCH   2   3
TORSDOF 5
ENDMDL
MODEL      154
REMARK 921   NORMALIZED FREE ENERGY PREDICTED BY IDOCK:   -4.79 KCAL/MOL
REMARK 922        TOTAL FREE ENERGY PREDICTED BY IDOCK:   -6.41 KCAL/MOL
REMARK 923 INTER-LIGAND FREE ENERGY PREDICTED BY IDOCK:   -6.27 KCAL/MOL
REMARK 924 INTRA-LIGAND FREE ENERGY PREDICTED BY IDOCK:   -0.13 KCAL/MOL
REMARK 927      BINDING AFFINITY PREDICTED BY RF-SCORE:    0.00 PKD
ROOT
HETATM    1  C   UNL     1     -13.890   9.072  72.568  1.00  0.00    -0.491 C  
HETATM    2  C   UNL     1     -13.114  10.001  71.641  1.00  0.00    -0.547 C  
ENDROOT
BRANCH   2   3
HETATM    3  C   UNL     1     -12.499   9.272  70.425  1.00  0.00     0.266 C  
HETATM    4  C   UNL     1     -11.752   8.002  70.840  1.00  0.00    -0.251 C  
HETATM    5  N   UNL     1     -10.447   8.490  71.225  1.00  0.00    -0.211 N  
HETATM    6  C   UNL     1     -11.390  10.064  69.665  1.00  0.00    -0.253 C  
HETATM    7  C   UNL     1     -10.095   9.648  70.418  1.00  0.00    -0.276 C  
BRANCH   5   8
HETATM    8  C   UNL     1      -9.812   7.997  72.337  1.00  0.00    -0.247 C  
HETATM    9  O   UNL     1     -10.341   7.946  73.442  1.00  0.00    -0.311 OA 
BRANCH   8  10
HETATM   10  N   UNL     1      -8.540   7.537  72.137  1.00  0.00    -0.112 N  
HETATM   11  H   UNL     1      -7.755   7.984  72.610  1.00  0.00     0.000 HD 
BRANCH  10  12
HETATM   12  C   UNL     1      -8.303   6.401  71.242  1.00  0.00    -0.123 C  
HETATM   13  F   UNL     1      -6.065   6.486  72.108  1.00  0.00    -0.036 F  
HETATM   14  C   UNL     1      -6.896   5.789  71.299  1.00  0.00    -0.062 C  
HETATM   15  F   UNL     1      -6.911   4.506  71.715  1.00  0.00    -0.036 F  
HETATM   16  F   UNL     1      -6.336   5.804  70.061  1.00  0.00    -0.026 F  
ENDBRANCH  10  12
ENDBRANCH   8  10
ENDBRANCH   5   8
BRANCH   6  17
HETATM   17  C   UNL     1     -11.577  11.556  69.589  1.00  0.00    -0.333 A  
HETATM   18  N   UNL     1     -12.362  13.686  69.934  1.00  0.00    -0.289 NA 
HETATM   19  C   UNL     1     -12.170  12.444  70.482  1.00  0.00    -0.295 A  
HETATM   20  C   UNL     1     -11.852  13.585  68.728  1.00  0.00    -0.355 A  
HETATM   21  C   UNL     1     -11.882  14.584  67.678  1.00  0.00    -0.364 A  
HETATM   22  N   UNL     1     -11.314  14.409  66.508  1.00  0.00    -0.341 NA 
HETATM   23  C   UNL     1     -10.666  13.218  66.392  1.00  0.00    -0.285 A  
HETATM   24  C   UNL     1     -10.550  12.189  67.309  1.00  0.00    -0.227 A  
HETATM   25  C   UNL     1      -9.704  11.198  66.791  1.00  0.00    -0.220 A  
HETATM   26  N   UNL     1     -11.243  12.364  68.520  1.00  0.00    -0.257 NA 
HETATM   27  C   UNL     1      -9.389  11.607  65.507  1.00  0.00    -0.156 A  
HETATM   28  N   UNL     1      -9.994  12.823  65.268  1.00  0.00    -0.435 NA 
HETATM   29  H   UNL     1      -9.947  13.344  64.393  1.00  0.00     0.000 HD 
ENDBRANCH   6  17
ENDBRANCH   2   3
TORSDOF 5
ENDMDL
MODEL      155
REMARK 921   NORMALIZED FREE ENERGY PREDICTED BY IDOCK:   -4.78 KCAL/MOL
REMARK 922        TOTAL FREE ENERGY PREDICTED BY IDOCK:   -6.39 KCAL/MOL
REMARK 923 INTER-LIGAND FREE ENERGY PREDICTED BY IDOCK:   -5.74 KCAL/MOL
REMARK 924 INTRA-LIGAND FREE ENERGY PREDICTED BY IDOCK:   -0.65 KCAL/MOL
REMARK 927      BINDING AFFINITY PREDICTED BY RF-SCORE:    0.00 PKD
ROOT
HETATM    1  C   UNL     1      -6.543  11.432  67.287  1.00  0.00    -0.104 C  
HETATM    2  C   UNL     1      -7.345  10.227  67.766  1.00  0.00    -0.087 C  
ENDROOT
BRANCH   2   3
HETATM    3  C   UNL     1      -8.132  10.498  69.068  1.00  0.00    -0.143 C  
HETATM    4  C   UNL     1      -7.864   9.427  70.128  1.00  0.00    -0.142 C  
HETATM    5  N   UNL     1      -8.784   8.369  69.777  1.00  0.00    -0.132 N  
HETATM    6  C   UNL     1      -9.685  10.437  68.932  1.00  0.00    -0.203 C  
HETATM    7  C   UNL     1      -9.993   8.936  69.200  1.00  0.00    -0.190 C  
BRANCH   5   8
HETATM    8  C   UNL     1      -8.393   7.054  69.824  1.00  0.00    -0.132 C  
HETATM    9  O   UNL     1      -8.989   6.201  70.472  1.00  0.00    -0.144 OA 
BRANCH   8  10
HETATM   10  N   UNL     1      -7.295   6.737  69.073  1.00  0.00    -0.091 N  
HETATM   11  H   UNL     1      -6.411   6.513  69.532  1.00  0.00     0.000 HD 
BRANCH  10  12
HETATM   12  C   UNL     1      -7.386   6.719  67.611  1.00  0.00    -0.096 C  
HETATM   13  F   UNL     1      -8.041   4.429  67.914  1.00  0.00    -0.091 F  
HETATM   14  C   UNL     1      -7.874   5.403  66.990  1.00  0.00    -0.101 C  
HETATM   15  F   UNL     1      -9.036   5.551  66.321  1.00  0.00    -0.129 F  
HETATM   16  F   UNL     1      -6.955   4.942  66.102  1.00  0.00    -0.062 F  
ENDBRANCH  10  12
ENDBRANCH   8  10
ENDBRANCH   5   8
BRANCH   6  17
HETATM   17  C   UNL     1     -10.255  10.934  67.631  1.00  0.00    -0.183 A  
HETATM   18  N   UNL     1     -10.620  11.291  65.392  1.00  0.00    -0.266 NA 
HETATM   19  C   UNL     1     -10.177  10.410  66.344  1.00  0.00    -0.230 A  
HETATM   20  C   UNL     1     -11.012  12.337  66.084  1.00  0.00    -0.293 A  
HETATM   21  C   UNL     1     -11.475  13.608  65.562  1.00  0.00    -0.305 A  
HETATM   22  N   UNL     1     -11.883  14.590  66.331  1.00  0.00    -0.375 NA 
HETATM   23  C   UNL     1     -11.861  14.286  67.657  1.00  0.00    -0.385 A  
HETATM   24  C   UNL     1     -11.458  13.122  68.284  1.00  0.00    -0.314 A  
HETATM   25  C   UNL     1     -11.706  13.224  69.660  1.00  0.00    -0.369 A  
HETATM   26  N   UNL     1     -10.942  12.118  67.445  1.00  0.00    -0.248 NA 
HETATM   27  C   UNL     1     -12.179  14.509  69.861  1.00  0.00    -0.328 A  
HETATM   28  N   UNL     1     -12.250  15.151  68.643  1.00  0.00    -0.597 NA 
HETATM   29  H   UNL     1     -12.546  16.117  68.500  1.00  0.00     0.000 HD 
ENDBRANCH   6  17
ENDBRANCH   2   3
TORSDOF 5
ENDMDL
MODEL      156
REMARK 921   NORMALIZED FREE ENERGY PREDICTED BY IDOCK:   -4.78 KCAL/MOL
REMARK 922        TOTAL FREE ENERGY PREDICTED BY IDOCK:   -6.39 KCAL/MOL
REMARK 923 INTER-LIGAND FREE ENERGY PREDICTED BY IDOCK:   -6.63 KCAL/MOL
REMARK 924 INTRA-LIGAND FREE ENERGY PREDICTED BY IDOCK:    0.24 KCAL/MOL
REMARK 927      BINDING AFFINITY PREDICTED BY RF-SCORE:    0.00 PKD
ROOT
HETATM    1  C   UNL     1      -9.120   6.856  72.901  1.00  0.00    -0.149 C  
HETATM    2  C   UNL     1      -9.045   6.872  71.378  1.00  0.00    -0.148 C  
ENDROOT
BRANCH   2   3
HETATM    3  C   UNL     1      -9.954   5.814  70.713  1.00  0.00    -0.249 C  
HETATM    4  C   UNL     1      -9.322   5.238  69.444  1.00  0.00    -0.126 C  
HETATM    5  N   UNL     1      -9.675   6.201  68.425  1.00  0.00    -0.120 N  
HETATM    6  C   UNL     1     -11.319   6.350  70.180  1.00  0.00    -0.485 C  
HETATM    7  C   UNL     1     -10.970   6.789  68.729  1.00  0.00    -0.209 C  
BRANCH   5   8
HETATM    8  C   UNL     1      -8.763   6.585  67.475  1.00  0.00    -0.114 C  
HETATM    9  O   UNL     1      -7.624   6.949  67.748  1.00  0.00    -0.102 OA 
BRANCH   8  10
HETATM   10  N   UNL     1      -9.195   6.516  66.179  1.00  0.00    -0.279 N  
HETATM   11  H   UNL     1      -9.730   7.286  65.778  1.00  0.00     0.000 HD 
BRANCH  10  12
HETATM   12  C   UNL     1      -8.889   5.335  65.366  1.00  0.00    -0.152 C  
HETATM   13  F   UNL     1     -11.117   4.650  65.944  1.00  0.00    -0.321 F  
HETATM   14  C   UNL     1     -10.032   4.323  65.204  1.00  0.00    -0.204 C  
HETATM   15  F   UNL     1     -10.423   4.191  63.920  1.00  0.00    -0.197 F  
HETATM   16  F   UNL     1      -9.627   3.098  65.630  1.00  0.00    -0.159 F  
ENDBRANCH  10  12
ENDBRANCH   8  10
ENDBRANCH   5   8
BRANCH   6  17
HETATM   17  C   UNL     1     -11.962   7.443  70.990  1.00  0.00    -0.306 A  
HETATM   18  N   UNL     1     -13.431   8.623  72.304  1.00  0.00    -0.379 NA 
HETATM   19  C   UNL     1     -12.932   7.386  71.987  1.00  0.00    -0.165 A  
HETATM   20  C   UNL     1     -12.746   9.447  71.543  1.00  0.00    -0.361 A  
HETATM   21  C   UNL     1     -12.943  10.876  71.403  1.00  0.00    -0.424 A  
HETATM   22  N   UNL     1     -12.186  11.631  70.642  1.00  0.00    -0.384 NA 
HETATM   23  C   UNL     1     -11.180  10.948  70.030  1.00  0.00    -0.263 A  
HETATM   24  C   UNL     1     -10.874   9.601  70.085  1.00  0.00    -0.280 A  
HETATM   25  C   UNL     1      -9.689   9.364  69.374  1.00  0.00    -0.181 A  
HETATM   26  N   UNL     1     -11.754   8.800  70.835  1.00  0.00    -0.279 NA 
HETATM   27  C   UNL     1      -9.340  10.579  68.812  1.00  0.00    -0.180 A  
HETATM   28  N   UNL     1     -10.262  11.528  69.199  1.00  0.00    -0.413 NA 
HETATM   29  H   UNL     1     -10.259  12.507  68.912  1.00  0.00     0.000 HD 
ENDBRANCH   6  17
ENDBRANCH   2   3
TORSDOF 5
ENDMDL
MODEL      157
REMARK 921   NORMALIZED FREE ENERGY PREDICTED BY IDOCK:   -4.76 KCAL/MOL
REMARK 922        TOTAL FREE ENERGY PREDICTED BY IDOCK:   -6.37 KCAL/MOL
REMARK 923 INTER-LIGAND FREE ENERGY PREDICTED BY IDOCK:   -5.75 KCAL/MOL
REMARK 924 INTRA-LIGAND FREE ENERGY PREDICTED BY IDOCK:   -0.62 KCAL/MOL
REMARK 927      BINDING AFFINITY PREDICTED BY RF-SCORE:    0.00 PKD
ROOT
HETATM    1  C   UNL     1     -12.207  15.078  69.240  1.00  0.00    -0.214 C  
HETATM    2  C   UNL     1     -11.064  14.896  68.248  1.00  0.00    -0.290 C  
ENDROOT
BRANCH   2   3
HETATM    3  C   UNL     1      -9.699  14.651  68.930  1.00  0.00    -0.196 C  
HETATM    4  C   UNL     1      -8.976  15.963  69.244  1.00  0.00    -0.251 C  
HETATM    5  N   UNL     1      -8.312  16.287  68.002  1.00  0.00    -0.163 N  
HETATM    6  C   UNL     1      -8.644  13.902  68.058  1.00  0.00    -0.178 C  
HETATM    7  C   UNL     1      -7.928  15.065  67.313  1.00  0.00    -0.206 C  
BRANCH   5   8
HETATM    8  C   UNL     1      -8.288  17.577  67.533  1.00  0.00    -0.215 C  
HETATM    9  O   UNL     1      -8.549  18.549  68.234  1.00  0.00    -0.301 OA 
BRANCH   8  10
HETATM   10  N   UNL     1      -7.928  17.722  66.222  1.00  0.00    -0.261 N  
HETATM   11  H   UNL     1      -8.434  17.215  65.495  1.00  0.00     0.000 HD 
BRANCH  10  12
HETATM   12  C   UNL     1      -6.817  18.606  65.860  1.00  0.00    -0.277 C  
HETATM   13  F   UNL     1      -8.542  20.234  65.483  1.00  0.00    -0.238 F  
HETATM   14  C   UNL     1      -7.202  20.049  65.503  1.00  0.00    -0.282 C  
HETATM   15  F   UNL     1      -6.667  20.948  66.355  1.00  0.00    -0.283 F  
HETATM   16  F   UNL     1      -6.749  20.354  64.259  1.00  0.00    -0.295 F  
ENDBRANCH  10  12
ENDBRANCH   8  10
ENDBRANCH   5   8
BRANCH   6  17
HETATM   17  C   UNL     1      -9.182  12.847  67.129  1.00  0.00    -0.225 A  
HETATM   18  N   UNL     1     -10.365  11.781  65.474  1.00  0.00    -0.252 NA 
HETATM   19  C   UNL     1      -9.797  12.959  65.885  1.00  0.00    -0.235 A  
HETATM   20  C   UNL     1     -10.069  10.933  66.433  1.00  0.00    -0.231 A  
HETATM   21  C   UNL     1     -10.517   9.560  66.556  1.00  0.00    -0.131 A  
HETATM   22  N   UNL     1     -10.141   8.770  67.535  1.00  0.00    -0.205 NA 
HETATM   23  C   UNL     1      -9.266   9.355  68.397  1.00  0.00    -0.127 A  
HETATM   24  C   UNL     1      -8.753  10.639  68.392  1.00  0.00    -0.141 A  
HETATM   25  C   UNL     1      -7.806  10.766  69.418  1.00  0.00    -0.093 A  
HETATM   26  N   UNL     1      -9.241  11.491  67.385  1.00  0.00    -0.164 NA 
HETATM   27  C   UNL     1      -7.829   9.562  70.100  1.00  0.00    -0.160 A  
HETATM   28  N   UNL     1      -8.732   8.721  69.485  1.00  0.00    -0.136 NA 
HETATM   29  H   UNL     1      -8.964   7.777  69.793  1.00  0.00     0.000 HD 
ENDBRANCH   6  17
ENDBRANCH   2   3
TORSDOF 5
ENDMDL
MODEL      158
REMARK 921   NORMALIZED FREE ENERGY PREDICTED BY IDOCK:   -4.75 KCAL/MOL
REMARK 922        TOTAL FREE ENERGY PREDICTED BY IDOCK:   -6.36 KCAL/MOL
REMARK 923 INTER-LIGAND FREE ENERGY PREDICTED BY IDOCK:   -4.99 KCAL/MOL
REMARK 924 INTRA-LIGAND FREE ENERGY PREDICTED BY IDOCK:   -1.37 KCAL/MOL
REMARK 927      BINDING AFFINITY PREDICTED BY RF-SCORE:    0.00 PKD
ROOT
HETATM    1  C   UNL     1     -11.138   6.189  69.959  1.00  0.00    -0.462 C  
HETATM    2  C   UNL     1     -10.707   7.478  69.269  1.00  0.00    -0.185 C  
ENDROOT
BRANCH   2   3
HETATM    3  C   UNL     1     -10.623   8.684  70.231  1.00  0.00    -0.240 C  
HETATM    4  C   UNL     1     -11.286   9.931  69.641  1.00  0.00    -0.165 C  
HETATM    5  N   UNL     1     -10.250  10.503  68.812  1.00  0.00    -0.180 N  
HETATM    6  C   UNL     1      -9.180   9.198  70.530  1.00  0.00    -0.286 C  
HETATM    7  C   UNL     1      -8.945  10.237  69.397  1.00  0.00    -0.176 C  
BRANCH   5   8
HETATM    8  C   UNL     1     -10.544  11.013  67.572  1.00  0.00    -0.227 C  
HETATM    9  O   UNL     1     -11.588  11.606  67.321  1.00  0.00    -0.484 OA 
BRANCH   8  10
HETATM   10  N   UNL     1      -9.579  10.840  66.618  1.00  0.00    -0.174 N  
HETATM   11  H   UNL     1      -8.744  11.426  66.625  1.00  0.00     0.000 HD 
BRANCH  10  12
HETATM   12  C   UNL     1      -9.743   9.812  65.586  1.00  0.00    -0.288 C  
HETATM   13  F   UNL     1      -7.927   8.720  66.717  1.00  0.00    -0.094 F  
HETATM   14  C   UNL     1      -8.824   8.589  65.712  1.00  0.00    -0.190 C  
HETATM   15  F   UNL     1      -9.515   7.447  65.911  1.00  0.00    -0.162 F  
HETATM   16  F   UNL     1      -8.107   8.431  64.569  1.00  0.00    -0.125 F  
ENDBRANCH  10  12
ENDBRANCH   8  10
ENDBRANCH   5   8
BRANCH   6  17
HETATM   17  C   UNL     1      -8.105   8.146  70.599  1.00  0.00    -0.105 A  
HETATM   18  N   UNL     1      -6.403   6.711  70.034  1.00  0.00    -0.038 NA 
HETATM   19  C   UNL     1      -7.002   7.918  69.781  1.00  0.00    -0.050 A  
HETATM   20  C   UNL     1      -7.100   6.212  71.030  1.00  0.00    -0.070 A  
HETATM   21  C   UNL     1      -6.959   4.899  71.626  1.00  0.00    -0.052 A  
HETATM   22  N   UNL     1      -7.679   4.495  72.646  1.00  0.00    -0.085 NA 
HETATM   23  C   UNL     1      -8.541   5.440  73.109  1.00  0.00    -0.117 A  
HETATM   24  C   UNL     1      -8.769   6.723  72.646  1.00  0.00    -0.122 A  
HETATM   25  C   UNL     1      -9.677   7.370  73.496  1.00  0.00    -0.338 A  
HETATM   26  N   UNL     1      -8.050   7.099  71.497  1.00  0.00    -0.102 NA 
HETATM   27  C   UNL     1     -10.063   6.420  74.425  1.00  0.00    -0.348 A  
HETATM   28  N   UNL     1      -9.384   5.247  74.169  1.00  0.00    -0.124 NA 
HETATM   29  H   UNL     1      -9.493   4.376  74.688  1.00  0.00     0.000 HD 
ENDBRANCH   6  17
ENDBRANCH   2   3
TORSDOF 5
ENDMDL
MODEL      159
REMARK 921   NORMALIZED FREE ENERGY PREDICTED BY IDOCK:   -4.73 KCAL/MOL
REMARK 922        TOTAL FREE ENERGY PREDICTED BY IDOCK:   -6.33 KCAL/MOL
REMARK 923 INTER-LIGAND FREE ENERGY PREDICTED BY IDOCK:   -5.28 KCAL/MOL
REMARK 924 INTRA-LIGAND FREE ENERGY PREDICTED BY IDOCK:   -1.05 KCAL/MOL
REMARK 927      BINDING AFFINITY PREDICTED BY RF-SCORE:    0.00 PKD
ROOT
HETATM    1  C   UNL     1      -9.101   8.460  67.787  1.00  0.00    -0.142 C  
HETATM    2  C   UNL     1      -9.456   7.656  69.033  1.00  0.00    -0.150 C  
ENDROOT
BRANCH   2   3
HETATM    3  C   UNL     1     -10.353   6.434  68.734  1.00  0.00    -0.232 C  
HETATM    4  C   UNL     1     -11.531   6.341  69.706  1.00  0.00    -0.379 C  
HETATM    5  N   UNL     1     -10.968   5.664  70.853  1.00  0.00    -0.232 N  
HETATM    6  C   UNL     1      -9.669   5.045  68.922  1.00  0.00    -0.234 C  
HETATM    7  C   UNL     1      -9.943   4.729  70.420  1.00  0.00    -0.245 C  
BRANCH   5   8
HETATM    8  C   UNL     1     -11.273   6.070  72.128  1.00  0.00    -0.291 C  
HETATM    9  O   UNL     1     -10.759   5.579  73.128  1.00  0.00    -0.228 OA 
BRANCH   8  10
HETATM   10  N   UNL     1     -12.182   7.087  72.224  1.00  0.00    -0.495 N  
HETATM   11  H   UNL     1     -13.173   6.903  72.064  1.00  0.00     0.000 HD 
BRANCH  10  12
HETATM   12  C   UNL     1     -11.734   8.443  72.555  1.00  0.00    -0.359 C  
HETATM   13  F   UNL     1     -12.764   9.040  70.470  1.00  0.00    -0.057 F  
HETATM   14  C   UNL     1     -12.139   9.540  71.561  1.00  0.00    -0.389 C  
HETATM   15  F   UNL     1     -12.944  10.467  72.119  1.00  0.00    -0.522 F  
HETATM   16  F   UNL     1     -11.032  10.187  71.112  1.00  0.00    -0.394 F  
ENDBRANCH  10  12
ENDBRANCH   8  10
ENDBRANCH   5   8
BRANCH   6  17
HETATM   17  C   UNL     1      -8.210   4.971  68.559  1.00  0.00    -0.085 A  
HETATM   18  N   UNL     1      -5.925   5.199  68.607  1.00  0.00    -0.020 NA 
HETATM   19  C   UNL     1      -7.070   5.070  69.351  1.00  0.00    -0.056 A  
HETATM   20  C   UNL     1      -6.345   5.136  67.364  1.00  0.00    -0.040 A  
HETATM   21  C   UNL     1      -5.555   5.323  66.163  1.00  0.00    -0.017 A  
HETATM   22  N   UNL     1      -6.052   5.207  64.954  1.00  0.00    -0.025 NA 
HETATM   23  C   UNL     1      -7.368   4.859  64.940  1.00  0.00    -0.068 A  
HETATM   24  C   UNL     1      -8.229   4.642  66.000  1.00  0.00    -0.110 A  
HETATM   25  C   UNL     1      -9.469   4.205  65.510  1.00  0.00    -0.176 A  
HETATM   26  N   UNL     1      -7.695   4.861  67.282  1.00  0.00    -0.091 NA 
HETATM   27  C   UNL     1      -9.365   4.255  64.131  1.00  0.00    -0.145 A  
HETATM   28  N   UNL     1      -8.094   4.672  63.796  1.00  0.00    -0.095 NA 
HETATM   29  H   UNL     1      -7.751   4.818  62.847  1.00  0.00     0.000 HD 
ENDBRANCH   6  17
ENDBRANCH   2   3
TORSDOF 5
ENDMDL
MODEL      160
REMARK 921   NORMALIZED FREE ENERGY PREDICTED BY IDOCK:   -4.72 KCAL/MOL
REMARK 922        TOTAL FREE ENERGY PREDICTED BY IDOCK:   -6.32 KCAL/MOL
REMARK 923 INTER-LIGAND FREE ENERGY PREDICTED BY IDOCK:   -7.11 KCAL/MOL
REMARK 924 INTRA-LIGAND FREE ENERGY PREDICTED BY IDOCK:    0.79 KCAL/MOL
REMARK 927      BINDING AFFINITY PREDICTED BY RF-SCORE:    0.00 PKD
ROOT
HETATM    1  C   UNL     1     -10.539  15.539  65.151  1.00  0.00    -0.455 C  
HETATM    2  C   UNL     1     -10.917  14.455  66.154  1.00  0.00    -0.320 C  
ENDROOT
BRANCH   2   3
HETATM    3  C   UNL     1     -11.478  15.019  67.479  1.00  0.00    -0.339 C  
HETATM    4  C   UNL     1     -10.981  16.441  67.748  1.00  0.00    -0.261 C  
HETATM    5  N   UNL     1      -9.692  16.236  68.367  1.00  0.00    -0.217 N  
HETATM    6  C   UNL     1     -11.022  14.269  68.768  1.00  0.00    -0.271 C  
HETATM    7  C   UNL     1      -9.709  15.009  69.149  1.00  0.00    -0.212 C  
BRANCH   5   8
HETATM    8  C   UNL     1      -8.617  17.022  68.032  1.00  0.00    -0.217 C  
HETATM    9  O   UNL     1      -7.707  16.637  67.305  1.00  0.00    -0.150 OA 
BRANCH   8  10
HETATM   10  N   UNL     1      -8.630  18.290  68.544  1.00  0.00    -0.312 N  
HETATM   11  H   UNL     1      -8.786  18.435  69.542  1.00  0.00     0.000 HD 
BRANCH  10  12
HETATM   12  C   UNL     1      -8.419  19.440  67.661  1.00  0.00    -0.304 C  
HETATM   13  F   UNL     1     -10.788  19.298  67.297  1.00  0.00    -0.499 F  
HETATM   14  C   UNL     1      -9.683  20.026  67.016  1.00  0.00    -0.421 C  
HETATM   15  F   UNL     1      -9.910  21.300  67.397  1.00  0.00    -0.618 F  
HETATM   16  F   UNL     1      -9.553  20.027  65.664  1.00  0.00    -0.413 F  
ENDBRANCH  10  12
ENDBRANCH   8  10
ENDBRANCH   5   8
BRANCH   6  17
HETATM   17  C   UNL     1     -10.846  12.779  68.639  1.00  0.00    -0.253 A  
HETATM   18  N   UNL     1     -11.156  10.511  68.824  1.00  0.00    -0.249 NA 
HETATM   19  C   UNL     1     -11.762  11.740  68.773  1.00  0.00    -0.329 A  
HETATM   20  C   UNL     1      -9.878  10.780  68.679  1.00  0.00    -0.184 A  
HETATM   21  C   UNL     1      -8.773   9.846  68.762  1.00  0.00    -0.132 A  
HETATM   22  N   UNL     1      -7.523  10.198  68.568  1.00  0.00    -0.084 NA 
HETATM   23  C   UNL     1      -7.374  11.512  68.247  1.00  0.00    -0.091 A  
HETATM   24  C   UNL     1      -8.333  12.501  68.125  1.00  0.00    -0.175 A  
HETATM   25  C   UNL     1      -7.727  13.684  67.678  1.00  0.00    -0.184 A  
HETATM   26  N   UNL     1      -9.652  12.118  68.426  1.00  0.00    -0.207 NA 
HETATM   27  C   UNL     1      -6.371  13.414  67.626  1.00  0.00    -0.155 A  
HETATM   28  N   UNL     1      -6.166  12.100  67.992  1.00  0.00    -0.059 NA 
HETATM   29  H   UNL     1      -5.257  11.642  68.061  1.00  0.00     0.000 HD 
ENDBRANCH   6  17
ENDBRANCH   2   3
TORSDOF 5
ENDMDL
MODEL      161
REMARK 921   NORMALIZED FREE ENERGY PREDICTED BY IDOCK:   -4.71 KCAL/MOL
REMARK 922        TOTAL FREE ENERGY PREDICTED BY IDOCK:   -6.31 KCAL/MOL
REMARK 923 INTER-LIGAND FREE ENERGY PREDICTED BY IDOCK:   -5.36 KCAL/MOL
REMARK 924 INTRA-LIGAND FREE ENERGY PREDICTED BY IDOCK:   -0.94 KCAL/MOL
REMARK 927      BINDING AFFINITY PREDICTED BY RF-SCORE:    0.00 PKD
ROOT
HETATM    1  C   UNL     1      -7.515  12.629  68.566  1.00  0.00    -0.121 C  
HETATM    2  C   UNL     1      -7.871  11.176  68.273  1.00  0.00    -0.123 C  
ENDROOT
BRANCH   2   3
HETATM    3  C   UNL     1      -9.005  10.634  69.172  1.00  0.00    -0.139 C  
HETATM    4  C   UNL     1      -8.558   9.415  69.982  1.00  0.00    -0.203 C  
HETATM    5  N   UNL     1      -8.742   8.315  69.063  1.00  0.00    -0.142 N  
HETATM    6  C   UNL     1     -10.249  10.077  68.411  1.00  0.00    -0.196 C  
HETATM    7  C   UNL     1      -9.873   8.584  68.190  1.00  0.00    -0.165 C  
BRANCH   5   8
HETATM    8  C   UNL     1      -7.808   7.314  68.968  1.00  0.00    -0.118 C  
HETATM    9  O   UNL     1      -7.133   7.121  67.963  1.00  0.00    -0.080 OA 
BRANCH   8  10
HETATM   10  N   UNL     1      -7.651   6.543  70.087  1.00  0.00    -0.094 N  
HETATM   11  H   UNL     1      -7.524   6.986  70.998  1.00  0.00     0.000 HD 
BRANCH  10  12
HETATM   12  C   UNL     1      -7.666   5.082  69.980  1.00  0.00    -0.063 C  
HETATM   13  F   UNL     1      -5.295   5.267  70.312  1.00  0.00    -0.003 F  
HETATM   14  C   UNL     1      -6.312   4.385  70.175  1.00  0.00    -0.027 C  
HETATM   15  F   UNL     1      -6.306   3.566  71.248  1.00  0.00    -0.016 F  
HETATM   16  F   UNL     1      -6.023   3.625  69.087  1.00  0.00    -0.020 F  
ENDBRANCH  10  12
ENDBRANCH   8  10
ENDBRANCH   5   8
BRANCH   6  17
HETATM   17  C   UNL     1     -10.618  10.789  67.138  1.00  0.00    -0.256 A  
HETATM   18  N   UNL     1     -10.706  11.441  64.937  1.00  0.00    -0.298 NA 
HETATM   19  C   UNL     1     -10.472  10.408  65.807  1.00  0.00    -0.117 A  
HETATM   20  C   UNL     1     -11.039  12.445  65.717  1.00  0.00    -0.315 A  
HETATM   21  C   UNL     1     -11.290  13.816  65.320  1.00  0.00    -0.304 A  
HETATM   22  N   UNL     1     -11.653  14.750  66.167  1.00  0.00    -0.332 NA 
HETATM   23  C   UNL     1     -11.805  14.298  67.441  1.00  0.00    -0.409 A  
HETATM   24  C   UNL     1     -11.611  13.028  67.951  1.00  0.00    -0.342 A  
HETATM   25  C   UNL     1     -11.985  13.006  69.302  1.00  0.00    -0.331 A  
HETATM   26  N   UNL     1     -11.135  12.066  67.041  1.00  0.00    -0.280 NA 
HETATM   27  C   UNL     1     -12.319  14.311  69.619  1.00  0.00    -0.266 A  
HETATM   28  N   UNL     1     -12.187  15.090  68.489  1.00  0.00    -0.602 NA 
HETATM   29  H   UNL     1     -12.348  16.096  68.443  1.00  0.00     0.000 HD 
ENDBRANCH   6  17
ENDBRANCH   2   3
TORSDOF 5
ENDMDL
MODEL      162
REMARK 921   NORMALIZED FREE ENERGY PREDICTED BY IDOCK:   -4.64 KCAL/MOL
REMARK 922        TOTAL FREE ENERGY PREDICTED BY IDOCK:   -6.22 KCAL/MOL
REMARK 923 INTER-LIGAND FREE ENERGY PREDICTED BY IDOCK:   -5.95 KCAL/MOL
REMARK 924 INTRA-LIGAND FREE ENERGY PREDICTED BY IDOCK:   -0.27 KCAL/MOL
REMARK 927      BINDING AFFINITY PREDICTED BY RF-SCORE:    0.00 PKD
ROOT
HETATM    1  C   UNL     1      -8.774   9.294  70.548  1.00  0.00    -0.276 C  
HETATM    2  C   UNL     1      -9.262   9.967  69.269  1.00  0.00    -0.212 C  
ENDROOT
BRANCH   2   3
HETATM    3  C   UNL     1      -8.173  10.059  68.177  1.00  0.00    -0.109 C  
HETATM    4  C   UNL     1      -7.824  11.511  67.842  1.00  0.00    -0.123 C  
HETATM    5  N   UNL     1      -8.837  11.889  66.883  1.00  0.00    -0.192 N  
HETATM    6  C   UNL     1      -8.583   9.496  66.780  1.00  0.00    -0.133 C  
HETATM    7  C   UNL     1      -9.217  10.734  66.085  1.00  0.00    -0.180 C  
BRANCH   5   8
HETATM    8  C   UNL     1      -9.437  13.122  66.942  1.00  0.00    -0.244 C  
HETATM    9  O   UNL     1      -8.955  14.072  67.550  1.00  0.00    -0.177 OA 
BRANCH   8  10
HETATM   10  N   UNL     1     -10.612  13.242  66.253  1.00  0.00    -0.286 N  
HETATM   11  H   UNL     1     -11.498  13.046  66.718  1.00  0.00     0.000 HD 
BRANCH  10  12
HETATM   12  C   UNL     1     -10.598  13.651  64.845  1.00  0.00    -0.408 C  
HETATM   13  F   UNL     1     -12.163  11.853  64.551  1.00  0.00    -0.395 F  
HETATM   14  C   UNL     1     -11.543  12.875  63.917  1.00  0.00    -0.453 C  
HETATM   15  F   UNL     1     -12.489  13.666  63.369  1.00  0.00    -0.516 F  
HETATM   16  F   UNL     1     -10.837  12.326  62.894  1.00  0.00    -0.376 F  
ENDBRANCH  10  12
ENDBRANCH   8  10
ENDBRANCH   5   8
BRANCH   6  17
HETATM   17  C   UNL     1      -9.489   8.295  66.792  1.00  0.00    -0.198 A  
HETATM   18  N   UNL     1     -11.053   6.735  67.423  1.00  0.00    -0.325 NA 
HETATM   19  C   UNL     1     -10.660   8.045  67.503  1.00  0.00    -0.232 A  
HETATM   20  C   UNL     1     -10.160   6.183  66.632  1.00  0.00    -0.162 A  
HETATM   21  C   UNL     1     -10.041   4.779  66.291  1.00  0.00    -0.264 A  
HETATM   22  N   UNL     1      -9.135   4.319  65.461  1.00  0.00    -0.131 NA 
HETATM   23  C   UNL     1      -8.346   5.290  64.927  1.00  0.00    -0.144 A  
HETATM   24  C   UNL     1      -8.357   6.654  65.154  1.00  0.00    -0.088 A  
HETATM   25  C   UNL     1      -7.428   7.274  64.307  1.00  0.00    -0.101 A  
HETATM   26  N   UNL     1      -9.277   7.109  66.115  1.00  0.00    -0.127 NA 
HETATM   27  C   UNL     1      -6.791   6.247  63.633  1.00  0.00    -0.041 A  
HETATM   28  N   UNL     1      -7.341   5.047  64.031  1.00  0.00    -0.054 NA 
HETATM   29  H   UNL     1      -7.045   4.126  63.709  1.00  0.00     0.000 HD 
ENDBRANCH   6  17
ENDBRANCH   2   3
TORSDOF 5
ENDMDL
MODEL      163
REMARK 921   NORMALIZED FREE ENERGY PREDICTED BY IDOCK:   -4.63 KCAL/MOL
REMARK 922        TOTAL FREE ENERGY PREDICTED BY IDOCK:   -6.20 KCAL/MOL
REMARK 923 INTER-LIGAND FREE ENERGY PREDICTED BY IDOCK:   -6.13 KCAL/MOL
REMARK 924 INTRA-LIGAND FREE ENERGY PREDICTED BY IDOCK:   -0.06 KCAL/MOL
REMARK 927      BINDING AFFINITY PREDICTED BY RF-SCORE:    0.00 PKD
ROOT
HETATM    1  C   UNL     1     -11.714  12.666  64.073  1.00  0.00    -0.496 C  
HETATM    2  C   UNL     1     -10.648  12.182  65.050  1.00  0.00    -0.330 C  
ENDROOT
BRANCH   2   3
HETATM    3  C   UNL     1     -11.239  11.587  66.349  1.00  0.00    -0.307 C  
HETATM    4  C   UNL     1     -11.957  12.648  67.186  1.00  0.00    -0.256 C  
HETATM    5  N   UNL     1     -10.887  13.263  67.939  1.00  0.00    -0.238 N  
HETATM    6  C   UNL     1     -10.191  11.030  67.362  1.00  0.00    -0.229 C  
HETATM    7  C   UNL     1      -9.856  12.278  68.228  1.00  0.00    -0.217 C  
BRANCH   5   8
HETATM    8  C   UNL     1     -10.844  14.623  68.117  1.00  0.00    -0.252 C  
HETATM    9  O   UNL     1     -11.364  15.417  67.340  1.00  0.00    -0.319 OA 
BRANCH   8  10
HETATM   10  N   UNL     1     -10.197  15.052  69.242  1.00  0.00    -0.241 N  
HETATM   11  H   UNL     1      -9.287  14.662  69.487  1.00  0.00     0.000 HD 
BRANCH  10  12
HETATM   12  C   UNL     1     -10.810  16.073  70.097  1.00  0.00    -0.346 C  
HETATM   13  F   UNL     1     -12.085  14.236  70.974  1.00  0.00    -0.352 F  
HETATM   14  C   UNL     1     -11.838  15.559  71.115  1.00  0.00    -0.387 C  
HETATM   15  F   UNL     1     -11.454  15.782  72.390  1.00  0.00    -0.474 F  
HETATM   16  F   UNL     1     -13.024  16.197  70.935  1.00  0.00    -0.407 F  
ENDBRANCH  10  12
ENDBRANCH   8  10
ENDBRANCH   5   8
BRANCH   6  17
HETATM   17  C   UNL     1      -8.972  10.381  66.764  1.00  0.00    -0.140 A  
HETATM   18  N   UNL     1      -7.445   9.549  65.262  1.00  0.00    -0.104 NA 
HETATM   19  C   UNL     1      -8.413  10.492  65.493  1.00  0.00    -0.173 A  
HETATM   20  C   UNL     1      -7.371   8.887  66.394  1.00  0.00    -0.088 A  
HETATM   21  C   UNL     1      -6.572   7.708  66.667  1.00  0.00    -0.057 A  
HETATM   22  N   UNL     1      -6.532   7.128  67.844  1.00  0.00    -0.046 NA 
HETATM   23  C   UNL     1      -7.281   7.761  68.786  1.00  0.00    -0.081 A  
HETATM   24  C   UNL     1      -8.074   8.888  68.666  1.00  0.00    -0.111 A  
HETATM   25  C   UNL     1      -8.579   9.238  69.927  1.00  0.00    -0.178 A  
HETATM   26  N   UNL     1      -8.171   9.437  67.375  1.00  0.00    -0.120 NA 
HETATM   27  C   UNL     1      -8.152   8.244  70.790  1.00  0.00    -0.109 A  
HETATM   28  N   UNL     1      -7.382   7.344  70.085  1.00  0.00    -0.076 NA 
HETATM   29  H   UNL     1      -6.957   6.501  70.470  1.00  0.00     0.000 HD 
ENDBRANCH   6  17
ENDBRANCH   2   3
TORSDOF 5
ENDMDL
MODEL      164
REMARK 921   NORMALIZED FREE ENERGY PREDICTED BY IDOCK:   -4.55 KCAL/MOL
REMARK 922        TOTAL FREE ENERGY PREDICTED BY IDOCK:   -6.09 KCAL/MOL
REMARK 923 INTER-LIGAND FREE ENERGY PREDICTED BY IDOCK:   -6.33 KCAL/MOL
REMARK 924 INTRA-LIGAND FREE ENERGY PREDICTED BY IDOCK:    0.24 KCAL/MOL
REMARK 927      BINDING AFFINITY PREDICTED BY RF-SCORE:    0.00 PKD
ROOT
HETATM    1  C   UNL     1      -9.865  11.399  63.672  1.00  0.00    -0.380 C  
HETATM    2  C   UNL     1      -9.955  12.304  64.896  1.00  0.00    -0.219 C  
ENDROOT
BRANCH   2   3
HETATM    3  C   UNL     1     -11.384  12.406  65.473  1.00  0.00    -0.387 C  
HETATM    4  C   UNL     1     -11.840  13.861  65.611  1.00  0.00    -0.371 C  
HETATM    5  N   UNL     1     -11.284  14.269  66.881  1.00  0.00    -0.315 N  
HETATM    6  C   UNL     1     -11.553  11.876  66.931  1.00  0.00    -0.358 C  
HETATM    7  C   UNL     1     -11.244  13.135  67.790  1.00  0.00    -0.277 C  
BRANCH   5   8
HETATM    8  C   UNL     1     -10.712  15.508  67.032  1.00  0.00    -0.321 C  
HETATM    9  O   UNL     1     -11.031  16.288  67.923  1.00  0.00    -0.338 OA 
BRANCH   8  10
HETATM   10  N   UNL     1      -9.732  15.820  66.131  1.00  0.00    -0.296 N  
HETATM   11  H   UNL     1      -9.807  15.502  65.165  1.00  0.00     0.000 HD 
BRANCH  10  12
HETATM   12  C   UNL     1      -8.573  16.612  66.553  1.00  0.00    -0.285 C  
HETATM   13  F   UNL     1      -9.915  18.492  65.897  1.00  0.00    -0.324 F  
HETATM   14  C   UNL     1      -8.738  18.135  66.463  1.00  0.00    -0.268 C  
HETATM   15  F   UNL     1      -8.652  18.733  67.669  1.00  0.00    -0.269 F  
HETATM   16  F   UNL     1      -7.757  18.661  65.683  1.00  0.00    -0.233 F  
ENDBRANCH  10  12
ENDBRANCH   8  10
ENDBRANCH   5   8
BRANCH   6  17
HETATM   17  C   UNL     1     -10.711  10.685  67.303  1.00  0.00    -0.285 A  
HETATM   18  N   UNL     1     -10.050   8.563  67.881  1.00  0.00    -0.196 NA 
HETATM   19  C   UNL     1     -10.973   9.321  67.208  1.00  0.00     0.081 A  
HETATM   20  C   UNL     1      -9.197   9.444  68.353  1.00  0.00    -0.127 A  
HETATM   21  C   UNL     1      -8.074   9.190  69.233  1.00  0.00    -0.102 A  
HETATM   22  N   UNL     1      -7.249  10.131  69.629  1.00  0.00    -0.109 NA 
HETATM   23  C   UNL     1      -7.530  11.354  69.105  1.00  0.00    -0.057 A  
HETATM   24  C   UNL     1      -8.552  11.731  68.253  1.00  0.00    -0.162 A  
HETATM   25  C   UNL     1      -8.388  13.077  67.895  1.00  0.00    -0.170 A  
HETATM   26  N   UNL     1      -9.474  10.724  67.916  1.00  0.00    -0.155 NA 
HETATM   27  C   UNL     1      -7.301  13.527  68.623  1.00  0.00    -0.112 A  
HETATM   28  N   UNL     1      -6.800  12.481  69.368  1.00  0.00    -0.297 NA 
HETATM   29  H   UNL     1      -6.012  12.539  70.013  1.00  0.00     0.000 HD 
ENDBRANCH   6  17
ENDBRANCH   2   3
TORSDOF 5
ENDMDL
MODEL      165
REMARK 921   NORMALIZED FREE ENERGY PREDICTED BY IDOCK:   -4.53 KCAL/MOL
REMARK 922        TOTAL FREE ENERGY PREDICTED BY IDOCK:   -6.08 KCAL/MOL
REMARK 923 INTER-LIGAND FREE ENERGY PREDICTED BY IDOCK:   -7.61 KCAL/MOL
REMARK 924 INTRA-LIGAND FREE ENERGY PREDICTED BY IDOCK:    1.53 KCAL/MOL
REMARK 927      BINDING AFFINITY PREDICTED BY RF-SCORE:    0.00 PKD
ROOT
HETATM    1  C   UNL     1     -10.848   6.743  67.256  1.00  0.00    -0.443 C  
HETATM    2  C   UNL     1      -9.695   7.540  66.656  1.00  0.00    -0.273 C  
ENDROOT
BRANCH   2   3
HETATM    3  C   UNL     1      -8.982   8.448  67.683  1.00  0.00    -0.141 C  
HETATM    4  C   UNL     1      -8.998   7.840  69.087  1.00  0.00    -0.145 C  
HETATM    5  N   UNL     1     -10.286   8.236  69.611  1.00  0.00    -0.204 N  
HETATM    6  C   UNL     1      -9.654   9.835  67.925  1.00  0.00    -0.158 C  
HETATM    7  C   UNL     1     -10.662   9.532  69.070  1.00  0.00    -0.202 C  
BRANCH   5   8
HETATM    8  C   UNL     1     -11.052   7.355  70.333  1.00  0.00    -0.265 C  
HETATM    9  O   UNL     1     -12.237   7.548  70.583  1.00  0.00    -0.178 OA 
BRANCH   8  10
HETATM   10  N   UNL     1     -10.414   6.218  70.747  1.00  0.00    -0.213 N  
HETATM   11  H   UNL     1     -10.356   5.412  70.125  1.00  0.00     0.000 HD 
BRANCH  10  12
HETATM   12  C   UNL     1      -9.814   6.158  72.083  1.00  0.00    -0.157 C  
HETATM   13  F   UNL     1     -12.016   5.503  72.785  1.00  0.00    -0.348 F  
HETATM   14  C   UNL     1     -10.744   5.686  73.210  1.00  0.00    -0.269 C  
HETATM   15  F   UNL     1     -10.321   4.538  73.778  1.00  0.00    -0.171 F  
HETATM   16  F   UNL     1     -10.793   6.625  74.191  1.00  0.00    -0.280 F  
ENDBRANCH  10  12
ENDBRANCH   8  10
ENDBRANCH   5   8
BRANCH   6  17
HETATM   17  C   UNL     1     -10.298  10.476  66.725  1.00  0.00    -0.245 A  
HETATM   18  N   UNL     1     -10.785  11.094  64.567  1.00  0.00    -0.326 NA 
HETATM   19  C   UNL     1     -10.281  10.113  65.381  1.00  0.00    -0.211 A  
HETATM   20  C   UNL     1     -11.153  12.041  65.400  1.00  0.00    -0.320 A  
HETATM   21  C   UNL     1     -11.659  13.357  65.062  1.00  0.00    -0.317 A  
HETATM   22  N   UNL     1     -12.038  14.231  65.964  1.00  0.00    -0.415 NA 
HETATM   23  C   UNL     1     -11.944  13.769  67.240  1.00  0.00    -0.401 A  
HETATM   24  C   UNL     1     -11.493  12.545  67.699  1.00  0.00    -0.334 A  
HETATM   25  C   UNL     1     -11.670  12.475  69.089  1.00  0.00    -0.375 A  
HETATM   26  N   UNL     1     -11.009  11.661  66.719  1.00  0.00    -0.278 NA 
HETATM   27  C   UNL     1     -12.149  13.717  69.468  1.00  0.00    -0.334 A  
HETATM   28  N   UNL     1     -12.292  14.500  68.342  1.00  0.00    -0.605 NA 
HETATM   29  H   UNL     1     -12.606  15.470  68.334  1.00  0.00     0.000 HD 
ENDBRANCH   6  17
ENDBRANCH   2   3
TORSDOF 5
ENDMDL
MODEL      166
REMARK 921   NORMALIZED FREE ENERGY PREDICTED BY IDOCK:   -4.52 KCAL/MOL
REMARK 922        TOTAL FREE ENERGY PREDICTED BY IDOCK:   -6.07 KCAL/MOL
REMARK 923 INTER-LIGAND FREE ENERGY PREDICTED BY IDOCK:   -5.13 KCAL/MOL
REMARK 924 INTRA-LIGAND FREE ENERGY PREDICTED BY IDOCK:   -0.93 KCAL/MOL
REMARK 927      BINDING AFFINITY PREDICTED BY RF-SCORE:    0.00 PKD
ROOT
HETATM    1  C   UNL     1     -10.651   8.440  69.096  1.00  0.00    -0.177 C  
HETATM    2  C   UNL     1     -10.068   9.091  67.846  1.00  0.00    -0.246 C  
ENDROOT
BRANCH   2   3
HETATM    3  C   UNL     1      -8.688   9.743  68.087  1.00  0.00    -0.119 C  
HETATM    4  C   UNL     1      -8.811  11.231  68.420  1.00  0.00    -0.159 C  
HETATM    5  N   UNL     1      -8.896  11.861  67.122  1.00  0.00    -0.174 N  
HETATM    6  C   UNL     1      -7.738   9.767  66.849  1.00  0.00    -0.098 C  
HETATM    7  C   UNL     1      -8.116  11.106  66.154  1.00  0.00    -0.111 C  
BRANCH   5   8
HETATM    8  C   UNL     1      -9.779  12.888  66.895  1.00  0.00    -0.240 C  
HETATM    9  O   UNL     1     -10.508  13.348  67.766  1.00  0.00    -0.236 OA 
BRANCH   8  10
HETATM   10  N   UNL     1      -9.782  13.394  65.625  1.00  0.00    -0.481 N  
HETATM   11  H   UNL     1      -8.949  13.315  65.042  1.00  0.00     0.000 HD 
BRANCH  10  12
HETATM   12  C   UNL     1     -10.983  14.049  65.099  1.00  0.00    -0.353 C  
HETATM   13  F   UNL     1     -11.696  11.813  64.591  1.00  0.00    -0.379 F  
HETATM   14  C   UNL     1     -12.079  13.111  64.574  1.00  0.00    -0.404 C  
HETATM   15  F   UNL     1     -13.227  13.219  65.275  1.00  0.00    -0.461 F  
HETATM   16  F   UNL     1     -12.367  13.414  63.282  1.00  0.00    -0.580 F  
ENDBRANCH  10  12
ENDBRANCH   8  10
ENDBRANCH   5   8
BRANCH   6  17
HETATM   17  C   UNL     1      -7.821   8.579  65.929  1.00  0.00    -0.099 A  
HETATM   18  N   UNL     1      -8.380   7.192  64.186  1.00  0.00     0.074 NA 
HETATM   19  C   UNL     1      -8.201   8.489  64.593  1.00  0.00    -0.160 A  
HETATM   20  C   UNL     1      -8.070   6.480  65.246  1.00  0.00    -0.133 A  
HETATM   21  C   UNL     1      -8.186   5.043  65.400  1.00  0.00    -0.120 A  
HETATM   22  N   UNL     1      -7.819   4.409  66.488  1.00  0.00    -0.098 NA 
HETATM   23  C   UNL     1      -7.288   5.225  67.439  1.00  0.00    -0.083 A  
HETATM   24  C   UNL     1      -7.111   6.596  67.419  1.00  0.00    -0.080 A  
HETATM   25  C   UNL     1      -6.432   6.994  68.579  1.00  0.00    -0.036 A  
HETATM   26  N   UNL     1      -7.595   7.262  66.279  1.00  0.00    -0.089 NA 
HETATM   27  C   UNL     1      -6.288   5.848  69.341  1.00  0.00    -0.041 A  
HETATM   28  N   UNL     1      -6.828   4.785  68.649  1.00  0.00    -0.050 NA 
HETATM   29  H   UNL     1      -6.877   3.824  68.987  1.00  0.00     0.000 HD 
ENDBRANCH   6  17
ENDBRANCH   2   3
TORSDOF 5
ENDMDL
MODEL      167
REMARK 921   NORMALIZED FREE ENERGY PREDICTED BY IDOCK:   -4.50 KCAL/MOL
REMARK 922        TOTAL FREE ENERGY PREDICTED BY IDOCK:   -6.04 KCAL/MOL
REMARK 923 INTER-LIGAND FREE ENERGY PREDICTED BY IDOCK:   -5.29 KCAL/MOL
REMARK 924 INTRA-LIGAND FREE ENERGY PREDICTED BY IDOCK:   -0.75 KCAL/MOL
REMARK 927      BINDING AFFINITY PREDICTED BY RF-SCORE:    0.00 PKD
ROOT
HETATM    1  C   UNL     1      -7.268   6.364  67.542  1.00  0.00    -0.086 C  
HETATM    2  C   UNL     1      -7.888   7.753  67.434  1.00  0.00    -0.118 C  
ENDROOT
BRANCH   2   3
HETATM    3  C   UNL     1      -9.420   7.752  67.634  1.00  0.00    -0.168 C  
HETATM    4  C   UNL     1     -10.147   8.427  66.468  1.00  0.00    -0.247 C  
HETATM    5  N   UNL     1     -10.090   9.832  66.805  1.00  0.00    -0.218 N  
HETATM    6  C   UNL     1      -9.933   8.578  68.855  1.00  0.00    -0.197 C  
HETATM    7  C   UNL     1     -10.132   9.996  68.249  1.00  0.00    -0.158 C  
BRANCH   5   8
HETATM    8  C   UNL     1      -9.822  10.775  65.844  1.00  0.00    -0.239 C  
HETATM    9  O   UNL     1     -10.312  10.744  64.720  1.00  0.00    -0.321 OA 
BRANCH   8  10
HETATM   10  N   UNL     1      -8.980  11.783  66.224  1.00  0.00    -0.269 N  
HETATM   11  H   UNL     1      -7.972  11.678  66.103  1.00  0.00     0.000 HD 
BRANCH  10  12
HETATM   12  C   UNL     1      -9.523  13.013  66.806  1.00  0.00    -0.250 C  
HETATM   13  F   UNL     1      -9.972  13.615  64.525  1.00  0.00    -0.382 F  
HETATM   14  C   UNL     1     -10.137  14.007  65.809  1.00  0.00    -0.327 C  
HETATM   15  F   UNL     1     -11.454  14.202  66.024  1.00  0.00    -0.316 F  
HETATM   16  F   UNL     1      -9.526  15.215  65.928  1.00  0.00    -0.302 F  
ENDBRANCH  10  12
ENDBRANCH   8  10
ENDBRANCH   5   8
BRANCH   6  17
HETATM   17  C   UNL     1      -9.049   8.574  70.074  1.00  0.00    -0.147 A  
HETATM   18  N   UNL     1      -7.442   9.129  71.618  1.00  0.00    -0.340 NA 
HETATM   19  C   UNL     1      -8.312   9.595  70.666  1.00  0.00     0.008 A  
HETATM   20  C   UNL     1      -7.667   7.835  71.648  1.00  0.00    -0.088 A  
HETATM   21  C   UNL     1      -6.942   6.839  72.412  1.00  0.00    -0.067 A  
HETATM   22  N   UNL     1      -7.259   5.566  72.409  1.00  0.00    -0.091 NA 
HETATM   23  C   UNL     1      -8.353   5.281  71.651  1.00  0.00    -0.118 A  
HETATM   24  C   UNL     1      -9.137   6.127  70.888  1.00  0.00    -0.150 A  
HETATM   25  C   UNL     1     -10.218   5.409  70.359  1.00  0.00    -0.332 A  
HETATM   26  N   UNL     1      -8.721   7.470  70.836  1.00  0.00    -0.141 NA 
HETATM   27  C   UNL     1     -10.017   4.094  70.741  1.00  0.00    -0.122 A  
HETATM   28  N   UNL     1      -8.873   4.024  71.507  1.00  0.00    -0.105 NA 
HETATM   29  H   UNL     1      -8.478   3.171  71.903  1.00  0.00     0.000 HD 
ENDBRANCH   6  17
ENDBRANCH   2   3
TORSDOF 5
ENDMDL
MODEL      168
REMARK 921   NORMALIZED FREE ENERGY PREDICTED BY IDOCK:   -4.49 KCAL/MOL
REMARK 922        TOTAL FREE ENERGY PREDICTED BY IDOCK:   -6.02 KCAL/MOL
REMARK 923 INTER-LIGAND FREE ENERGY PREDICTED BY IDOCK:   -6.20 KCAL/MOL
REMARK 924 INTRA-LIGAND FREE ENERGY PREDICTED BY IDOCK:    0.18 KCAL/MOL
REMARK 927      BINDING AFFINITY PREDICTED BY RF-SCORE:    0.00 PKD
ROOT
HETATM    1  C   UNL     1      -8.904   7.049  74.084  1.00  0.00    -0.223 C  
HETATM    2  C   UNL     1     -10.000   7.713  73.257  1.00  0.00    -0.379 C  
ENDROOT
BRANCH   2   3
HETATM    3  C   UNL     1     -11.200   6.780  72.978  1.00  0.00    -0.193 C  
HETATM    4  C   UNL     1     -10.750   5.416  72.450  1.00  0.00    -0.231 C  
HETATM    5  N   UNL     1     -10.580   5.643  71.033  1.00  0.00    -0.248 N  
HETATM    6  C   UNL     1     -12.167   7.259  71.850  1.00  0.00    -0.348 C  
HETATM    7  C   UNL     1     -11.537   6.636  70.572  1.00  0.00    -0.390 C  
BRANCH   5   8
HETATM    8  C   UNL     1      -9.507   5.112  70.360  1.00  0.00    -0.169 C  
HETATM    9  O   UNL     1      -8.351   5.216  70.754  1.00  0.00    -0.108 OA 
BRANCH   8  10
HETATM   10  N   UNL     1      -9.808   4.427  69.215  1.00  0.00    -0.183 N  
HETATM   11  H   UNL     1     -10.640   3.836  69.178  1.00  0.00     0.000 HD 
BRANCH  10  12
HETATM   12  C   UNL     1      -8.938   4.540  68.042  1.00  0.00    -0.116 C  
HETATM   13  F   UNL     1      -8.029   2.453  68.806  1.00  0.00    -0.052 F  
HETATM   14  C   UNL     1      -7.979   3.365  67.807  1.00  0.00    -0.080 C  
HETATM   15  F   UNL     1      -8.222   2.727  66.643  1.00  0.00    -0.078 F  
HETATM   16  F   UNL     1      -6.698   3.816  67.758  1.00  0.00    -0.042 F  
ENDBRANCH  10  12
ENDBRANCH   8  10
ENDBRANCH   5   8
BRANCH   6  17
HETATM   17  C   UNL     1     -12.372   8.747  71.743  1.00  0.00    -0.351 A  
HETATM   18  N   UNL     1     -13.323  10.837  71.785  1.00  0.00    -0.371 NA 
HETATM   19  C   UNL     1     -13.322   9.578  72.329  1.00  0.00    -0.441 A  
HETATM   20  C   UNL     1     -12.353  10.802  70.900  1.00  0.00    -0.396 A  
HETATM   21  C   UNL     1     -11.987  11.843  69.960  1.00  0.00    -0.332 A  
HETATM   22  N   UNL     1     -10.976  11.736  69.131  1.00  0.00    -0.229 NA 
HETATM   23  C   UNL     1     -10.286  10.571  69.265  1.00  0.00    -0.227 A  
HETATM   24  C   UNL     1     -10.517   9.507  70.119  1.00  0.00    -0.255 A  
HETATM   25  C   UNL     1      -9.489   8.565  69.976  1.00  0.00    -0.165 A  
HETATM   26  N   UNL     1     -11.659   9.609  70.933  1.00  0.00    -0.317 NA 
HETATM   27  C   UNL     1      -8.687   9.038  68.953  1.00  0.00    -0.136 A  
HETATM   28  N   UNL     1      -9.190  10.244  68.515  1.00  0.00    -0.139 NA 
HETATM   29  H   UNL     1      -8.806  10.804  67.754  1.00  0.00     0.000 HD 
ENDBRANCH   6  17
ENDBRANCH   2   3
TORSDOF 5
ENDMDL
MODEL      169
REMARK 921   NORMALIZED FREE ENERGY PREDICTED BY IDOCK:   -4.40 KCAL/MOL
REMARK 922        TOTAL FREE ENERGY PREDICTED BY IDOCK:   -5.90 KCAL/MOL
REMARK 923 INTER-LIGAND FREE ENERGY PREDICTED BY IDOCK:   -4.87 KCAL/MOL
REMARK 924 INTRA-LIGAND FREE ENERGY PREDICTED BY IDOCK:   -1.03 KCAL/MOL
REMARK 927      BINDING AFFINITY PREDICTED BY RF-SCORE:    0.00 PKD
ROOT
HETATM    1  C   UNL     1     -12.250  14.561  65.254  1.00  0.00    -0.321 C  
HETATM    2  C   UNL     1     -11.438  14.063  66.445  1.00  0.00    -0.361 C  
ENDROOT
BRANCH   2   3
HETATM    3  C   UNL     1      -9.962  13.772  66.095  1.00  0.00    -0.318 C  
HETATM    4  C   UNL     1      -9.745  12.304  65.718  1.00  0.00    -0.216 C  
HETATM    5  N   UNL     1      -9.585  11.648  66.997  1.00  0.00    -0.182 N  
HETATM    6  C   UNL     1      -8.951  13.956  67.270  1.00  0.00    -0.225 C  
HETATM    7  C   UNL     1      -8.945  12.552  67.939  1.00  0.00    -0.188 C  
BRANCH   5   8
HETATM    8  C   UNL     1     -10.176  10.434  67.242  1.00  0.00    -0.211 C  
HETATM    9  O   UNL     1     -11.392  10.275  67.276  1.00  0.00    -0.280 OA 
BRANCH   8  10
HETATM   10  N   UNL     1      -9.317   9.386  67.427  1.00  0.00    -0.126 N  
HETATM   11  H   UNL     1      -9.419   8.780  68.242  1.00  0.00     0.000 HD 
BRANCH  10  12
HETATM   12  C   UNL     1      -8.250   9.131  66.455  1.00  0.00    -0.111 C  
HETATM   13  F   UNL     1      -6.798   9.926  68.195  1.00  0.00    -0.062 F  
HETATM   14  C   UNL     1      -6.821   9.393  66.951  1.00  0.00    -0.080 C  
HETATM   15  F   UNL     1      -6.067   8.274  66.959  1.00  0.00    -0.048 F  
HETATM   16  F   UNL     1      -6.205  10.287  66.134  1.00  0.00    -0.065 F  
ENDBRANCH  10  12
ENDBRANCH   8  10
ENDBRANCH   5   8
BRANCH   6  17
HETATM   17  C   UNL     1      -9.254  15.070  68.235  1.00  0.00    -0.184 A  
HETATM   18  N   UNL     1     -10.179  16.306  69.936  1.00  0.00    -0.167 NA 
HETATM   19  C   UNL     1      -9.867  15.049  69.485  1.00  0.00    -0.126 A  
HETATM   20  C   UNL     1      -9.725  17.103  68.995  1.00  0.00    -0.212 A  
HETATM   21  C   UNL     1      -9.885  18.542  68.916  1.00  0.00    -0.341 A  
HETATM   22  N   UNL     1      -9.365  19.267  67.954  1.00  0.00    -0.307 NA 
HETATM   23  C   UNL     1      -8.635  18.543  67.062  1.00  0.00    -0.272 A  
HETATM   24  C   UNL     1      -8.395  17.181  67.026  1.00  0.00    -0.207 A  
HETATM   25  C   UNL     1      -7.504  16.894  65.982  1.00  0.00    -0.029 A  
HETATM   26  N   UNL     1      -9.037  16.417  68.016  1.00  0.00    -0.198 NA 
HETATM   27  C   UNL     1      -7.287  18.097  65.333  1.00  0.00     0.421 A  
HETATM   28  N   UNL     1      -7.994  19.086  65.984  1.00  0.00    -0.452 NA 
HETATM   29  H   UNL     1      -8.031  20.067  65.705  1.00  0.00     0.000 HD 
ENDBRANCH   6  17
ENDBRANCH   2   3
TORSDOF 5
ENDMDL
MODEL      170
REMARK 921   NORMALIZED FREE ENERGY PREDICTED BY IDOCK:   -4.39 KCAL/MOL
REMARK 922        TOTAL FREE ENERGY PREDICTED BY IDOCK:   -5.89 KCAL/MOL
REMARK 923 INTER-LIGAND FREE ENERGY PREDICTED BY IDOCK:   -6.31 KCAL/MOL
REMARK 924 INTRA-LIGAND FREE ENERGY PREDICTED BY IDOCK:    0.42 KCAL/MOL
REMARK 927      BINDING AFFINITY PREDICTED BY RF-SCORE:    0.00 PKD
ROOT
HETATM    1  C   UNL     1      -7.756   5.444  66.605  1.00  0.00    -0.100 C  
HETATM    2  C   UNL     1      -7.960   6.941  66.809  1.00  0.00    -0.108 C  
ENDROOT
BRANCH   2   3
HETATM    3  C   UNL     1      -9.394   7.410  66.476  1.00  0.00    -0.222 C  
HETATM    4  C   UNL     1      -9.405   8.470  65.372  1.00  0.00     0.126 C  
HETATM    5  N   UNL     1      -9.153   9.702  66.085  1.00  0.00    -0.153 N  
HETATM    6  C   UNL     1     -10.141   8.143  67.634  1.00  0.00    -0.267 C  
HETATM    7  C   UNL     1      -9.733   9.628  67.417  1.00  0.00    -0.156 C  
BRANCH   5   8
HETATM    8  C   UNL     1      -8.303  10.650  65.573  1.00  0.00    -0.158 C  
HETATM    9  O   UNL     1      -7.094  10.477  65.466  1.00  0.00    -0.142 OA 
BRANCH   8  10
HETATM   10  N   UNL     1      -8.894  11.812  65.160  1.00  0.00    -0.319 N  
HETATM   11  H   UNL     1      -8.336  12.660  65.059  1.00  0.00     0.000 HD 
BRANCH  10  12
HETATM   12  C   UNL     1     -10.329  11.840  64.861  1.00  0.00    -0.289 C  
HETATM   13  F   UNL     1     -10.243  14.048  65.801  1.00  0.00    -0.283 F  
HETATM   14  C   UNL     1     -11.052  13.155  65.184  1.00  0.00    -0.287 C  
HETATM   15  F   UNL     1     -11.565  13.743  64.083  1.00  0.00    -0.384 F  
HETATM   16  F   UNL     1     -12.086  12.917  66.032  1.00  0.00    -0.422 F  
ENDBRANCH  10  12
ENDBRANCH   8  10
ENDBRANCH   5   8
BRANCH   6  17
HETATM   17  C   UNL     1      -9.852   7.647  69.025  1.00  0.00    -0.168 A  
HETATM   18  N   UNL     1      -9.213   6.327  70.793  1.00  0.00    -0.154 NA 
HETATM   19  C   UNL     1      -9.008   6.634  69.472  1.00  0.00    -0.138 A  
HETATM   20  C   UNL     1     -10.144   7.171  71.175  1.00  0.00    -0.187 A  
HETATM   21  C   UNL     1     -10.811   7.215  72.461  1.00  0.00    -0.264 A  
HETATM   22  N   UNL     1     -11.710   8.120  72.770  1.00  0.00    -0.364 NA 
HETATM   23  C   UNL     1     -11.925   9.030  71.782  1.00  0.00    -0.368 A  
HETATM   24  C   UNL     1     -11.356   9.112  70.525  1.00  0.00    -0.257 A  
HETATM   25  C   UNL     1     -11.806  10.275  69.885  1.00  0.00    -0.267 A  
HETATM   26  N   UNL     1     -10.464   8.079  70.185  1.00  0.00    -0.220 NA 
HETATM   27  C   UNL     1     -12.730  10.842  70.745  1.00  0.00    -0.340 A  
HETATM   28  N   UNL     1     -12.809  10.069  71.884  1.00  0.00    -0.423 NA 
HETATM   29  H   UNL     1     -13.429  10.244  72.675  1.00  0.00     0.000 HD 
ENDBRANCH   6  17
ENDBRANCH   2   3
TORSDOF 5
ENDMDL
MODEL      171
REMARK 921   NORMALIZED FREE ENERGY PREDICTED BY IDOCK:   -4.38 KCAL/MOL
REMARK 922        TOTAL FREE ENERGY PREDICTED BY IDOCK:   -5.88 KCAL/MOL
REMARK 923 INTER-LIGAND FREE ENERGY PREDICTED BY IDOCK:   -6.38 KCAL/MOL
REMARK 924 INTRA-LIGAND FREE ENERGY PREDICTED BY IDOCK:    0.51 KCAL/MOL
REMARK 927      BINDING AFFINITY PREDICTED BY RF-SCORE:    0.00 PKD
ROOT
HETATM    1  C   UNL     1      -8.224   7.261  72.469  1.00  0.00    -0.122 C  
HETATM    2  C   UNL     1      -8.674   6.820  71.081  1.00  0.00    -0.136 C  
ENDROOT
BRANCH   2   3
HETATM    3  C   UNL     1      -9.842   5.809  71.112  1.00  0.00    -0.227 C  
HETATM    4  C   UNL     1      -9.641   4.674  70.107  1.00  0.00    -0.196 C  
HETATM    5  N   UNL     1     -10.137   5.229  68.868  1.00  0.00    -0.184 N  
HETATM    6  C   UNL     1     -11.228   6.381  70.680  1.00  0.00    -0.400 C  
HETATM    7  C   UNL     1     -11.228   6.151  69.142  1.00  0.00    -0.339 C  
BRANCH   5   8
HETATM    8  C   UNL     1      -9.471   5.019  67.686  1.00  0.00    -0.132 C  
HETATM    9  O   UNL     1      -8.447   5.619  67.379  1.00  0.00    -0.108 OA 
BRANCH   8  10
HETATM   10  N   UNL     1     -10.011   4.067  66.865  1.00  0.00    -0.308 N  
HETATM   11  H   UNL     1     -10.957   3.725  67.034  1.00  0.00     0.000 HD 
BRANCH  10  12
HETATM   12  C   UNL     1      -9.231   3.539  65.742  1.00  0.00    -0.160 C  
HETATM   13  F   UNL     1     -11.200   4.019  64.454  1.00  0.00    -0.335 F  
HETATM   14  C   UNL     1      -9.921   3.585  64.372  1.00  0.00    -0.185 C  
HETATM   15  F   UNL     1      -9.266   4.373  63.493  1.00  0.00    -0.137 F  
HETATM   16  F   UNL     1      -9.967   2.337  63.836  1.00  0.00    -0.132 F  
ENDBRANCH  10  12
ENDBRANCH   8  10
ENDBRANCH   5   8
BRANCH   6  17
HETATM   17  C   UNL     1     -11.503   7.811  71.064  1.00  0.00    -0.281 A  
HETATM   18  N   UNL     1     -12.342   9.678  72.105  1.00  0.00    -0.292 NA 
HETATM   19  C   UNL     1     -12.010   8.355  72.240  1.00  0.00    -0.389 A  
HETATM   20  C   UNL     1     -12.004   9.966  70.868  1.00  0.00    -0.345 A  
HETATM   21  C   UNL     1     -12.235  11.212  70.166  1.00  0.00    -0.337 A  
HETATM   22  N   UNL     1     -11.829  11.426  68.936  1.00  0.00    -0.353 NA 
HETATM   23  C   UNL     1     -11.142  10.380  68.402  1.00  0.00    -0.268 A  
HETATM   24  C   UNL     1     -10.843   9.150  68.959  1.00  0.00    -0.090 A  
HETATM   25  C   UNL     1     -10.028   8.426  68.078  1.00  0.00    -0.221 A  
HETATM   26  N   UNL     1     -11.367   8.913  70.243  1.00  0.00    -0.210 NA 
HETATM   27  C   UNL     1      -9.921   9.206  66.940  1.00  0.00    -0.238 A  
HETATM   28  N   UNL     1     -10.616  10.380  67.140  1.00  0.00    -0.256 NA 
HETATM   29  H   UNL     1     -10.722  11.127  66.454  1.00  0.00     0.000 HD 
ENDBRANCH   6  17
ENDBRANCH   2   3
TORSDOF 5
ENDMDL
MODEL      172
REMARK 921   NORMALIZED FREE ENERGY PREDICTED BY IDOCK:   -4.33 KCAL/MOL
REMARK 922        TOTAL FREE ENERGY PREDICTED BY IDOCK:   -5.82 KCAL/MOL
REMARK 923 INTER-LIGAND FREE ENERGY PREDICTED BY IDOCK:   -5.43 KCAL/MOL
REMARK 924 INTRA-LIGAND FREE ENERGY PREDICTED BY IDOCK:   -0.39 KCAL/MOL
REMARK 927      BINDING AFFINITY PREDICTED BY RF-SCORE:    0.00 PKD
ROOT
HETATM    1  C   UNL     1      -9.594   4.429  69.700  1.00  0.00    -0.275 C  
HETATM    2  C   UNL     1      -9.510   5.827  69.097  1.00  0.00    -0.157 C  
ENDROOT
BRANCH   2   3
HETATM    3  C   UNL     1      -8.302   6.640  69.611  1.00  0.00    -0.132 C  
HETATM    4  C   UNL     1      -8.177   6.575  71.135  1.00  0.00    -0.121 C  
HETATM    5  N   UNL     1      -9.082   7.606  71.591  1.00  0.00    -0.133 N  
HETATM    6  C   UNL     1      -8.379   8.179  69.360  1.00  0.00    -0.123 C  
HETATM    7  C   UNL     1      -9.115   8.696  70.629  1.00  0.00    -0.171 C  
BRANCH   5   8
HETATM    8  C   UNL     1      -9.900   7.395  72.673  1.00  0.00    -0.178 C  
HETATM    9  O   UNL     1      -9.630   7.789  73.803  1.00  0.00    -0.288 OA 
BRANCH   8  10
HETATM   10  N   UNL     1     -11.066   6.729  72.412  1.00  0.00    -0.248 N  
HETATM   11  H   UNL     1     -11.306   5.894  72.946  1.00  0.00     0.000 HD 
BRANCH  10  12
HETATM   12  C   UNL     1     -11.970   7.215  71.366  1.00  0.00    -0.328 C  
HETATM   13  F   UNL     1     -12.653   8.811  73.026  1.00  0.00    -0.395 F  
HETATM   14  C   UNL     1     -12.815   8.443  71.733  1.00  0.00    -0.345 C  
HETATM   15  F   UNL     1     -12.537   9.509  70.955  1.00  0.00    -0.332 F  
HETATM   16  F   UNL     1     -14.134   8.161  71.573  1.00  0.00    -0.388 F  
ENDBRANCH  10  12
ENDBRANCH   8  10
ENDBRANCH   5   8
BRANCH   6  17
HETATM   17  C   UNL     1      -9.040   8.607  68.077  1.00  0.00    -0.140 A  
HETATM   18  N   UNL     1     -10.403   8.673  66.230  1.00  0.00    -0.092 NA 
HETATM   19  C   UNL     1     -10.275   8.266  67.533  1.00  0.00    -0.243 A  
HETATM   20  C   UNL     1      -9.276   9.300  65.980  1.00  0.00    -0.206 A  
HETATM   21  C   UNL     1      -8.840   9.844  64.709  1.00  0.00    -0.202 A  
HETATM   22  N   UNL     1      -7.708  10.489  64.558  1.00  0.00    -0.038 NA 
HETATM   23  C   UNL     1      -7.004  10.628  65.714  1.00  0.00    -0.094 A  
HETATM   24  C   UNL     1      -7.305  10.173  66.985  1.00  0.00    -0.091 A  
HETATM   25  C   UNL     1      -6.338  10.638  67.887  1.00  0.00    -0.058 A  
HETATM   26  N   UNL     1      -8.479   9.408  67.102  1.00  0.00    -0.127 NA 
HETATM   27  C   UNL     1      -5.398  11.302  67.118  1.00  0.00    -0.065 A  
HETATM   28  N   UNL     1      -5.801  11.273  65.800  1.00  0.00    -0.460 NA 
HETATM   29  H   UNL     1      -5.284  11.669  65.015  1.00  0.00     0.000 HD 
ENDBRANCH   6  17
ENDBRANCH   2   3
TORSDOF 5
ENDMDL
MODEL      173
REMARK 921   NORMALIZED FREE ENERGY PREDICTED BY IDOCK:   -4.32 KCAL/MOL
REMARK 922        TOTAL FREE ENERGY PREDICTED BY IDOCK:   -5.81 KCAL/MOL
REMARK 923 INTER-LIGAND FREE ENERGY PREDICTED BY IDOCK:   -6.10 KCAL/MOL
REMARK 924 INTRA-LIGAND FREE ENERGY PREDICTED BY IDOCK:    0.29 KCAL/MOL
REMARK 927      BINDING AFFINITY PREDICTED BY RF-SCORE:    0.00 PKD
ROOT
HETATM    1  C   UNL     1     -13.395   7.322  71.527  1.00  0.00    -0.435 C  
HETATM    2  C   UNL     1     -12.148   6.555  71.101  1.00  0.00    -0.318 C  
ENDROOT
BRANCH   2   3
HETATM    3  C   UNL     1     -10.947   6.773  72.048  1.00  0.00    -0.269 C  
HETATM    4  C   UNL     1     -10.562   8.251  72.149  1.00  0.00    -0.310 C  
HETATM    5  N   UNL     1      -9.710   8.456  71.000  1.00  0.00    -0.166 N  
HETATM    6  C   UNL     1      -9.607   6.122  71.584  1.00  0.00    -0.166 C  
HETATM    7  C   UNL     1      -8.968   7.239  70.711  1.00  0.00    -0.152 C  
BRANCH   5   8
HETATM    8  C   UNL     1      -9.818   9.593  70.239  1.00  0.00    -0.266 C  
HETATM    9  O   UNL     1      -8.847  10.202  69.802  1.00  0.00    -0.193 OA 
BRANCH   8  10
HETATM   10  N   UNL     1     -11.094  10.005  69.970  1.00  0.00    -0.275 N  
HETATM   11  H   UNL     1     -11.860   9.331  69.977  1.00  0.00     0.000 HD 
BRANCH  10  12
HETATM   12  C   UNL     1     -11.363  11.415  69.672  1.00  0.00    -0.275 C  
HETATM   13  F   UNL     1     -10.664  10.835  67.449  1.00  0.00    -0.237 F  
HETATM   14  C   UNL     1     -11.165  11.836  68.209  1.00  0.00    -0.255 C  
HETATM   15  F   UNL     1     -12.311  12.265  67.639  1.00  0.00    -0.264 F  
HETATM   16  F   UNL     1     -10.274  12.860  68.140  1.00  0.00    -0.210 F  
ENDBRANCH  10  12
ENDBRANCH   8  10
ENDBRANCH   5   8
BRANCH   6  17
HETATM   17  C   UNL     1      -9.726   4.805  70.865  1.00  0.00    -0.190 A  
HETATM   18  N   UNL     1      -9.556   2.579  70.327  1.00  0.00    -0.086 NA 
HETATM   19  C   UNL     1      -9.639   3.499  71.339  1.00  0.00    -0.169 A  
HETATM   20  C   UNL     1      -9.635   3.301  69.232  1.00  0.00    -0.040 A  
HETATM   21  C   UNL     1      -9.494   2.839  67.866  1.00  0.00    -0.142 A  
HETATM   22  N   UNL     1      -9.623   3.629  66.826  1.00  0.00    -0.189 NA 
HETATM   23  C   UNL     1      -9.936   4.912  67.156  1.00  0.00    -0.197 A  
HETATM   24  C   UNL     1     -10.109   5.480  68.405  1.00  0.00    -0.178 A  
HETATM   25  C   UNL     1     -10.524   6.811  68.257  1.00  0.00    -0.243 A  
HETATM   26  N   UNL     1      -9.877   4.633  69.503  1.00  0.00    -0.212 NA 
HETATM   27  C   UNL     1     -10.506   7.060  66.895  1.00  0.00    -0.286 A  
HETATM   28  N   UNL     1     -10.129   5.908  66.239  1.00  0.00    -0.377 NA 
HETATM   29  H   UNL     1     -10.013   5.814  65.230  1.00  0.00     0.000 HD 
ENDBRANCH   6  17
ENDBRANCH   2   3
TORSDOF 5
ENDMDL
MODEL      174
REMARK 921   NORMALIZED FREE ENERGY PREDICTED BY IDOCK:   -4.31 KCAL/MOL
REMARK 922        TOTAL FREE ENERGY PREDICTED BY IDOCK:   -5.79 KCAL/MOL
REMARK 923 INTER-LIGAND FREE ENERGY PREDICTED BY IDOCK:   -5.37 KCAL/MOL
REMARK 924 INTRA-LIGAND FREE ENERGY PREDICTED BY IDOCK:   -0.42 KCAL/MOL
REMARK 927      BINDING AFFINITY PREDICTED BY RF-SCORE:    0.00 PKD
ROOT
HETATM    1  C   UNL     1      -6.954   7.046  72.356  1.00  0.00    -0.065 C  
HETATM    2  C   UNL     1      -7.716   6.005  71.543  1.00  0.00    -0.101 C  
ENDROOT
BRANCH   2   3
HETATM    3  C   UNL     1      -8.637   6.627  70.469  1.00  0.00    -0.143 C  
HETATM    4  C   UNL     1      -9.446   7.801  71.023  1.00  0.00    -0.155 C  
HETATM    5  N   UNL     1     -10.583   7.163  71.647  1.00  0.00    -0.207 N  
HETATM    6  C   UNL     1      -9.760   5.686  69.931  1.00  0.00    -0.222 C  
HETATM    7  C   UNL     1     -10.931   5.953  70.918  1.00  0.00    -0.265 C  
BRANCH   5   8
HETATM    8  C   UNL     1     -11.053   7.595  72.862  1.00  0.00    -0.393 C  
HETATM    9  O   UNL     1     -10.379   7.576  73.886  1.00  0.00    -0.271 OA 
BRANCH   8  10
HETATM   10  N   UNL     1     -12.332   8.079  72.862  1.00  0.00    -0.586 N  
HETATM   11  H   UNL     1     -12.835   8.192  73.742  1.00  0.00     0.000 HD 
BRANCH  10  12
HETATM   12  C   UNL     1     -12.982   8.436  71.598  1.00  0.00    -0.334 C  
HETATM   13  F   UNL     1     -11.827  10.525  71.865  1.00  0.00    -0.267 F  
HETATM   14  C   UNL     1     -12.621   9.816  71.029  1.00  0.00    -0.314 C  
HETATM   15  F   UNL     1     -12.003   9.732  69.833  1.00  0.00    -0.196 F  
HETATM   16  F   UNL     1     -13.749  10.551  70.849  1.00  0.00    -0.236 F  
ENDBRANCH  10  12
ENDBRANCH   8  10
ENDBRANCH   5   8
BRANCH   6  17
HETATM   17  C   UNL     1      -9.403   4.228  69.816  1.00  0.00    -0.161 A  
HETATM   18  N   UNL     1      -8.602   2.125  70.274  1.00  0.00    -0.051 NA 
HETATM   19  C   UNL     1      -9.124   3.281  70.796  1.00  0.00    -0.114 A  
HETATM   20  C   UNL     1      -8.598   2.336  68.977  1.00  0.00    -0.072 A  
HETATM   21  C   UNL     1      -8.050   1.470  67.952  1.00  0.00    -0.058 A  
HETATM   22  N   UNL     1      -8.122   1.744  66.671  1.00  0.00    -0.072 NA 
HETATM   23  C   UNL     1      -8.792   2.897  66.400  1.00  0.00    -0.145 A  
HETATM   24  C   UNL     1      -9.369   3.803  67.271  1.00  0.00    -0.197 A  
HETATM   25  C   UNL     1     -10.038   4.793  66.538  1.00  0.00    -0.286 A  
HETATM   26  N   UNL     1      -9.199   3.532  68.641  1.00  0.00    -0.151 NA 
HETATM   27  C   UNL     1      -9.773   4.517  65.208  1.00  0.00    -0.172 A  
HETATM   28  N   UNL     1      -8.999   3.378  65.136  1.00  0.00    -0.132 NA 
HETATM   29  H   UNL     1      -8.640   2.961  64.278  1.00  0.00     0.000 HD 
ENDBRANCH   6  17
ENDBRANCH   2   3
TORSDOF 5
ENDMDL
MODEL      175
REMARK 921   NORMALIZED FREE ENERGY PREDICTED BY IDOCK:   -4.31 KCAL/MOL
REMARK 922        TOTAL FREE ENERGY PREDICTED BY IDOCK:   -5.79 KCAL/MOL
REMARK 923 INTER-LIGAND FREE ENERGY PREDICTED BY IDOCK:   -5.69 KCAL/MOL
REMARK 924 INTRA-LIGAND FREE ENERGY PREDICTED BY IDOCK:   -0.10 KCAL/MOL
REMARK 927      BINDING AFFINITY PREDICTED BY RF-SCORE:    0.00 PKD
ROOT
HETATM    1  C   UNL     1      -9.592   7.324  73.862  1.00  0.00    -0.322 C  
HETATM    2  C   UNL     1      -9.625   7.116  72.352  1.00  0.00    -0.168 C  
ENDROOT
BRANCH   2   3
HETATM    3  C   UNL     1     -10.713   6.117  71.899  1.00  0.00    -0.277 C  
HETATM    4  C   UNL     1     -10.172   5.106  70.885  1.00  0.00    -0.229 C  
HETATM    5  N   UNL     1     -10.273   5.808  69.625  1.00  0.00    -0.209 N  
HETATM    6  C   UNL     1     -11.912   6.745  71.122  1.00  0.00    -0.421 C  
HETATM    7  C   UNL     1     -11.423   6.698  69.646  1.00  0.00    -0.298 C  
BRANCH   5   8
HETATM    8  C   UNL     1      -9.265   5.734  68.696  1.00  0.00    -0.118 C  
HETATM    9  O   UNL     1      -9.460   5.817  67.488  1.00  0.00    -0.111 OA 
BRANCH   8  10
HETATM   10  N   UNL     1      -8.004   5.585  69.204  1.00  0.00    -0.094 N  
HETATM   11  H   UNL     1      -7.709   4.683  69.578  1.00  0.00     0.000 HD 
BRANCH  10  12
HETATM   12  C   UNL     1      -7.076   6.719  69.211  1.00  0.00    -0.087 C  
HETATM   13  F   UNL     1      -6.991   6.333  71.580  1.00  0.00    -0.067 F  
HETATM   14  C   UNL     1      -6.472   7.078  70.576  1.00  0.00    -0.047 C  
HETATM   15  F   UNL     1      -5.130   6.934  70.597  1.00  0.00    -0.017 F  
HETATM   16  F   UNL     1      -6.742   8.375  70.874  1.00  0.00    -0.036 F  
ENDBRANCH  10  12
ENDBRANCH   8  10
ENDBRANCH   5   8
BRANCH   6  17
HETATM   17  C   UNL     1     -12.337   8.120  71.561  1.00  0.00    -0.306 A  
HETATM   18  N   UNL     1     -13.546   9.865  72.437  1.00  0.00    -0.294 NA 
HETATM   19  C   UNL     1     -13.273   8.523  72.508  1.00  0.00    -0.223 A  
HETATM   20  C   UNL     1     -12.753  10.301  71.484  1.00  0.00    -0.452 A  
HETATM   21  C   UNL     1     -12.709  11.638  70.926  1.00  0.00    -0.258 A  
HETATM   22  N   UNL     1     -11.856  11.996  69.995  1.00  0.00    -0.331 NA 
HETATM   23  C   UNL     1     -10.999  11.003  69.634  1.00  0.00    -0.225 A  
HETATM   24  C   UNL     1     -10.924   9.699  70.089  1.00  0.00    -0.275 A  
HETATM   25  C   UNL     1      -9.817   9.066  69.506  1.00  0.00    -0.181 A  
HETATM   26  N   UNL     1     -11.906   9.316  71.019  1.00  0.00    -0.295 NA 
HETATM   27  C   UNL     1      -9.283   9.986  68.620  1.00  0.00    -0.152 A  
HETATM   28  N   UNL     1     -10.019  11.150  68.691  1.00  0.00    -0.200 NA 
HETATM   29  H   UNL     1      -9.858  11.985  68.129  1.00  0.00     0.000 HD 
ENDBRANCH   6  17
ENDBRANCH   2   3
TORSDOF 5
ENDMDL
MODEL      176
REMARK 921   NORMALIZED FREE ENERGY PREDICTED BY IDOCK:   -4.29 KCAL/MOL
REMARK 922        TOTAL FREE ENERGY PREDICTED BY IDOCK:   -5.77 KCAL/MOL
REMARK 923 INTER-LIGAND FREE ENERGY PREDICTED BY IDOCK:   -5.48 KCAL/MOL
REMARK 924 INTRA-LIGAND FREE ENERGY PREDICTED BY IDOCK:   -0.29 KCAL/MOL
REMARK 927      BINDING AFFINITY PREDICTED BY RF-SCORE:    0.00 PKD
ROOT
HETATM    1  C   UNL     1     -11.893   6.139  71.911  1.00  0.00    -0.316 C  
HETATM    2  C   UNL     1     -11.773   7.351  70.994  1.00  0.00    -0.326 C  
ENDROOT
BRANCH   2   3
HETATM    3  C   UNL     1     -11.525   6.973  69.516  1.00  0.00    -0.078 C  
HETATM    4  C   UNL     1     -10.599   5.762  69.386  1.00  0.00    -0.313 C  
HETATM    5  N   UNL     1      -9.276   6.338  69.474  1.00  0.00    -0.139 N  
HETATM    6  C   UNL     1     -10.771   8.048  68.672  1.00  0.00    -0.066 C  
HETATM    7  C   UNL     1      -9.279   7.672  68.894  1.00  0.00    -0.139 C  
BRANCH   5   8
HETATM    8  C   UNL     1      -8.290   5.725  70.205  1.00  0.00    -0.117 C  
HETATM    9  O   UNL     1      -8.160   5.876  71.415  1.00  0.00    -0.111 OA 
BRANCH   8  10
HETATM   10  N   UNL     1      -7.457   4.901  69.499  1.00  0.00    -0.056 N  
HETATM   11  H   UNL     1      -6.602   5.273  69.085  1.00  0.00     0.000 HD 
BRANCH  10  12
HETATM   12  C   UNL     1      -7.792   3.483  69.336  1.00  0.00    -0.050 C  
HETATM   13  F   UNL     1      -8.601   4.164  67.180  1.00  0.00    -0.102 F  
HETATM   14  C   UNL     1      -8.386   3.091  67.976  1.00  0.00    -0.079 C  
HETATM   15  F   UNL     1      -7.603   2.220  67.306  1.00  0.00    -0.058 F  
HETATM   16  F   UNL     1      -9.592   2.492  68.155  1.00  0.00    -0.248 F  
ENDBRANCH  10  12
ENDBRANCH   8  10
ENDBRANCH   5   8
BRANCH   6  17
HETATM   17  C   UNL     1     -11.076   9.484  69.005  1.00  0.00    -0.027 A  
HETATM   18  N   UNL     1     -11.890  11.370  70.031  1.00  0.00    -0.333 NA 
HETATM   19  C   UNL     1     -11.476  10.075  70.200  1.00  0.00    -0.277 A  
HETATM   20  C   UNL     1     -11.707  11.598  68.750  1.00  0.00    -0.330 A  
HETATM   21  C   UNL     1     -12.080  12.787  68.010  1.00  0.00    -0.121 A  
HETATM   22  N   UNL     1     -11.827  12.944  66.732  1.00  0.00    -0.387 NA 
HETATM   23  C   UNL     1     -11.149  11.900  66.182  1.00  0.00    -0.326 A  
HETATM   24  C   UNL     1     -10.726  10.721  66.768  1.00  0.00    -0.231 A  
HETATM   25  C   UNL     1      -9.978   9.983  65.841  1.00  0.00    -0.339 A  
HETATM   26  N   UNL     1     -11.090  10.539  68.115  1.00  0.00    -0.273 NA 
HETATM   27  C   UNL     1     -10.039  10.696  64.657  1.00  0.00    -0.349 A  
HETATM   28  N   UNL     1     -10.768  11.847  64.869  1.00  0.00    -0.289 NA 
HETATM   29  H   UNL     1     -10.989  12.546  64.160  1.00  0.00     0.000 HD 
ENDBRANCH   6  17
ENDBRANCH   2   3
TORSDOF 5
ENDMDL
MODEL      177
REMARK 921   NORMALIZED FREE ENERGY PREDICTED BY IDOCK:   -4.29 KCAL/MOL
REMARK 922        TOTAL FREE ENERGY PREDICTED BY IDOCK:   -5.77 KCAL/MOL
REMARK 923 INTER-LIGAND FREE ENERGY PREDICTED BY IDOCK:   -4.58 KCAL/MOL
REMARK 924 INTRA-LIGAND FREE ENERGY PREDICTED BY IDOCK:   -1.19 KCAL/MOL
REMARK 927      BINDING AFFINITY PREDICTED BY RF-SCORE:    0.00 PKD
ROOT
HETATM    1  C   UNL     1     -10.271   8.417  66.940  1.00  0.00    -0.383 C  
HETATM    2  C   UNL     1     -10.173   7.878  68.363  1.00  0.00    -0.232 C  
ENDROOT
BRANCH   2   3
HETATM    3  C   UNL     1     -10.790   6.470  68.524  1.00  0.00    -0.353 C  
HETATM    4  C   UNL     1     -11.595   6.345  69.820  1.00  0.00    -0.327 C  
HETATM    5  N   UNL     1     -10.590   6.033  70.811  1.00  0.00    -0.241 N  
HETATM    6  C   UNL     1      -9.762   5.305  68.670  1.00  0.00    -0.199 C  
HETATM    7  C   UNL     1      -9.526   5.247  70.206  1.00  0.00    -0.168 C  
BRANCH   5   8
HETATM    8  C   UNL     1     -10.622   6.618  72.053  1.00  0.00    -0.211 C  
HETATM    9  O   UNL     1     -11.243   6.146  72.999  1.00  0.00    -0.242 OA 
BRANCH   8  10
HETATM   10  N   UNL     1      -9.889   7.765  72.184  1.00  0.00    -0.177 N  
HETATM   11  H   UNL     1      -9.992   8.517  71.503  1.00  0.00     0.000 HD 
BRANCH  10  12
HETATM   12  C   UNL     1      -8.956   7.915  73.304  1.00  0.00    -0.264 C  
HETATM   13  F   UNL     1      -7.292   7.267  71.698  1.00  0.00    -0.075 F  
HETATM   14  C   UNL     1      -7.475   7.683  72.973  1.00  0.00    -0.097 C  
HETATM   15  F   UNL     1      -6.726   8.789  73.167  1.00  0.00    -0.117 F  
HETATM   16  F   UNL     1      -6.969   6.710  73.775  1.00  0.00    -0.076 F  
ENDBRANCH  10  12
ENDBRANCH   8  10
ENDBRANCH   5   8
BRANCH   6  17
HETATM   17  C   UNL     1      -8.487   5.446  67.881  1.00  0.00    -0.098 A  
HETATM   18  N   UNL     1      -6.383   6.077  67.210  1.00  0.00    -0.036 NA 
HETATM   19  C   UNL     1      -7.212   5.840  68.276  1.00  0.00    -0.076 A  
HETATM   20  C   UNL     1      -7.123   5.790  66.162  1.00  0.00    -0.071 A  
HETATM   21  C   UNL     1      -6.770   5.964  64.767  1.00  0.00    -0.046 A  
HETATM   22  N   UNL     1      -7.561   5.616  63.780  1.00  0.00    -0.068 NA 
HETATM   23  C   UNL     1      -8.724   5.044  64.193  1.00  0.00    -0.097 A  
HETATM   24  C   UNL     1      -9.179   4.809  65.478  1.00  0.00    -0.154 A  
HETATM   25  C   UNL     1     -10.390   4.105  65.421  1.00  0.00    -0.166 A  
HETATM   26  N   UNL     1      -8.352   5.273  66.517  1.00  0.00    -0.108 NA 
HETATM   27  C   UNL     1     -10.702   4.004  64.077  1.00  0.00    -0.144 A  
HETATM   28  N   UNL     1      -9.696   4.594  63.342  1.00  0.00    -0.355 NA 
HETATM   29  H   UNL     1      -9.679   4.681  62.326  1.00  0.00     0.000 HD 
ENDBRANCH   6  17
ENDBRANCH   2   3
TORSDOF 5
ENDMDL
MODEL      178
REMARK 921   NORMALIZED FREE ENERGY PREDICTED BY IDOCK:   -4.29 KCAL/MOL
REMARK 922        TOTAL FREE ENERGY PREDICTED BY IDOCK:   -5.76 KCAL/MOL
REMARK 923 INTER-LIGAND FREE ENERGY PREDICTED BY IDOCK:   -4.98 KCAL/MOL
REMARK 924 INTRA-LIGAND FREE ENERGY PREDICTED BY IDOCK:   -0.79 KCAL/MOL
REMARK 927      BINDING AFFINITY PREDICTED BY RF-SCORE:    0.00 PKD
ROOT
HETATM    1  C   UNL     1      -7.204   7.224  67.834  1.00  0.00    -0.091 C  
HETATM    2  C   UNL     1      -8.085   8.463  67.726  1.00  0.00    -0.122 C  
ENDROOT
BRANCH   2   3
HETATM    3  C   UNL     1      -9.542   8.215  68.176  1.00  0.00    -0.162 C  
HETATM    4  C   UNL     1     -10.547   8.934  67.273  1.00  0.00    -0.234 C  
HETATM    5  N   UNL     1     -10.593  10.272  67.819  1.00  0.00    -0.230 N  
HETATM    6  C   UNL     1      -9.910   8.780  69.583  1.00  0.00    -0.183 C  
HETATM    7  C   UNL     1     -10.383  10.226  69.257  1.00  0.00    -0.231 C  
BRANCH   5   8
HETATM    8  C   UNL     1     -10.621  11.368  66.993  1.00  0.00    -0.248 C  
HETATM    9  O   UNL     1      -9.757  11.594  66.152  1.00  0.00    -0.216 OA 
BRANCH   8  10
HETATM   10  N   UNL     1     -11.698  12.196  67.146  1.00  0.00    -0.335 N  
HETATM   11  H   UNL     1     -12.644  11.825  67.056  1.00  0.00     0.000 HD 
BRANCH  10  12
HETATM   12  C   UNL     1     -11.494  13.618  67.439  1.00  0.00    -0.336 C  
HETATM   13  F   UNL     1     -12.302  13.041  69.626  1.00  0.00    -0.311 F  
HETATM   14  C   UNL     1     -11.791  14.050  68.882  1.00  0.00    -0.355 C  
HETATM   15  F   UNL     1     -10.696  14.524  69.511  1.00  0.00    -0.236 F  
HETATM   16  F   UNL     1     -12.718  15.043  68.885  1.00  0.00    -0.017 F  
ENDBRANCH  10  12
ENDBRANCH   8  10
ENDBRANCH   5   8
BRANCH   6  17
HETATM   17  C   UNL     1      -8.820   8.734  70.620  1.00  0.00    -0.182 A  
HETATM   18  N   UNL     1      -6.835   9.056  71.729  1.00  0.00    -0.272 NA 
HETATM   19  C   UNL     1      -7.736   9.579  70.838  1.00  0.00     0.018 A  
HETATM   20  C   UNL     1      -7.376   7.916  72.096  1.00  0.00    -0.083 A  
HETATM   21  C   UNL     1      -6.790   6.905  72.953  1.00  0.00    -0.070 A  
HETATM   22  N   UNL     1      -7.420   5.806  73.298  1.00  0.00    -0.094 NA 
HETATM   23  C   UNL     1      -8.685   5.729  72.802  1.00  0.00    -0.118 A  
HETATM   24  C   UNL     1      -9.365   6.617  71.990  1.00  0.00    -0.142 A  
HETATM   25  C   UNL     1     -10.683   6.171  71.814  1.00  0.00    -0.289 A  
HETATM   26  N   UNL     1      -8.637   7.741  71.562  1.00  0.00    -0.114 NA 
HETATM   27  C   UNL     1     -10.754   4.948  72.459  1.00  0.00    -0.196 A  
HETATM   28  N   UNL     1      -9.531   4.680  73.038  1.00  0.00    -0.128 NA 
HETATM   29  H   UNL     1      -9.296   3.835  73.558  1.00  0.00     0.000 HD 
ENDBRANCH   6  17
ENDBRANCH   2   3
TORSDOF 5
ENDMDL
MODEL      179
REMARK 921   NORMALIZED FREE ENERGY PREDICTED BY IDOCK:   -4.27 KCAL/MOL
REMARK 922        TOTAL FREE ENERGY PREDICTED BY IDOCK:   -5.74 KCAL/MOL
REMARK 923 INTER-LIGAND FREE ENERGY PREDICTED BY IDOCK:   -5.56 KCAL/MOL
REMARK 924 INTRA-LIGAND FREE ENERGY PREDICTED BY IDOCK:   -0.18 KCAL/MOL
REMARK 927      BINDING AFFINITY PREDICTED BY RF-SCORE:    0.00 PKD
ROOT
HETATM    1  C   UNL     1     -11.410  10.257  70.705  1.00  0.00    -0.421 C  
HETATM    2  C   UNL     1     -10.653  10.706  69.461  1.00  0.00    -0.265 C  
ENDROOT
BRANCH   2   3
HETATM    3  C   UNL     1     -11.376  10.344  68.144  1.00  0.00    -0.284 C  
HETATM    4  C   UNL     1     -10.840   9.046  67.538  1.00  0.00    -0.060 C  
HETATM    5  N   UNL     1      -9.676   9.476  66.796  1.00  0.00    -0.183 N  
HETATM    6  C   UNL     1     -11.172  11.355  66.973  1.00  0.00    -0.350 C  
HETATM    7  C   UNL     1      -9.890  10.818  66.277  1.00  0.00    -0.215 C  
BRANCH   5   8
HETATM    8  C   UNL     1      -8.517   8.742  66.819  1.00  0.00    -0.111 C  
HETATM    9  O   UNL     1      -7.664   8.810  65.940  1.00  0.00    -0.091 OA 
BRANCH   8  10
HETATM   10  N   UNL     1      -8.351   7.932  67.909  1.00  0.00    -0.125 N  
HETATM   11  H   UNL     1      -8.829   7.032  67.952  1.00  0.00     0.000 HD 
BRANCH  10  12
HETATM   12  C   UNL     1      -7.488   8.356  69.014  1.00  0.00    -0.093 C  
HETATM   13  F   UNL     1      -9.351   7.739  70.397  1.00  0.00    -0.156 F  
HETATM   14  C   UNL     1      -8.070   8.174  70.423  1.00  0.00    -0.108 C  
HETATM   15  F   UNL     1      -7.348   7.311  71.168  1.00  0.00    -0.069 F  
HETATM   16  F   UNL     1      -8.076   9.364  71.078  1.00  0.00    -0.187 F  
ENDBRANCH  10  12
ENDBRANCH   8  10
ENDBRANCH   5   8
BRANCH   6  17
HETATM   17  C   UNL     1     -11.070  12.806  67.362  1.00  0.00    -0.275 A  
HETATM   18  N   UNL     1     -11.553  15.028  67.684  1.00  0.00    -0.336 NA 
HETATM   19  C   UNL     1     -12.059  13.757  67.594  1.00  0.00    -0.298 A  
HETATM   20  C   UNL     1     -10.256  14.864  67.554  1.00  0.00    -0.233 A  
HETATM   21  C   UNL     1      -9.247  15.901  67.470  1.00  0.00    -0.207 A  
HETATM   22  N   UNL     1      -7.964  15.644  67.375  1.00  0.00    -0.162 NA 
HETATM   23  C   UNL     1      -7.674  14.315  67.399  1.00  0.00    -0.173 A  
HETATM   24  C   UNL     1      -8.528  13.232  67.486  1.00  0.00    -0.202 A  
HETATM   25  C   UNL     1      -7.776  12.052  67.579  1.00  0.00    -0.155 A  
HETATM   26  N   UNL     1      -9.902  13.531  67.495  1.00  0.00    -0.223 NA 
HETATM   27  C   UNL     1      -6.454  12.440  67.453  1.00  0.00    -0.154 A  
HETATM   28  N   UNL     1      -6.404  13.812  67.324  1.00  0.00    -0.423 NA 
HETATM   29  H   UNL     1      -5.556  14.363  67.193  1.00  0.00     0.000 HD 
ENDBRANCH   6  17
ENDBRANCH   2   3
TORSDOF 5
ENDMDL
MODEL      180
REMARK 921   NORMALIZED FREE ENERGY PREDICTED BY IDOCK:   -4.26 KCAL/MOL
REMARK 922        TOTAL FREE ENERGY PREDICTED BY IDOCK:   -5.72 KCAL/MOL
REMARK 923 INTER-LIGAND FREE ENERGY PREDICTED BY IDOCK:   -5.08 KCAL/MOL
REMARK 924 INTRA-LIGAND FREE ENERGY PREDICTED BY IDOCK:   -0.65 KCAL/MOL
REMARK 927      BINDING AFFINITY PREDICTED BY RF-SCORE:    0.00 PKD
ROOT
HETATM    1  C   UNL     1     -11.479  12.715  68.899  1.00  0.00    -0.354 C  
HETATM    2  C   UNL     1      -9.991  12.522  68.633  1.00  0.00    -0.111 C  
ENDROOT
BRANCH   2   3
HETATM    3  C   UNL     1      -9.646  12.449  67.128  1.00  0.00    -0.206 C  
HETATM    4  C   UNL     1     -10.357  11.284  66.437  1.00  0.00    -0.245 C  
HETATM    5  N   UNL     1      -9.492  10.157  66.703  1.00  0.00    -0.165 N  
HETATM    6  C   UNL     1      -8.149  12.154  66.802  1.00  0.00    -0.055 C  
HETATM    7  C   UNL     1      -8.108  10.600  66.764  1.00  0.00    -0.131 C  
BRANCH   5   8
HETATM    8  C   UNL     1     -10.014   8.934  67.043  1.00  0.00    -0.233 C  
HETATM    9  O   UNL     1      -9.496   7.871  66.721  1.00  0.00    -0.175 OA 
BRANCH   8  10
HETATM   10  N   UNL     1     -11.156   8.968  67.796  1.00  0.00    -0.456 N  
HETATM   11  H   UNL     1     -12.053   8.730  67.373  1.00  0.00     0.000 HD 
BRANCH  10  12
HETATM   12  C   UNL     1     -11.090   9.346  69.211  1.00  0.00    -0.045 C  
HETATM   13  F   UNL     1     -11.194   6.979  69.606  1.00  0.00    -0.268 F  
HETATM   14  C   UNL     1     -11.052   8.182  70.211  1.00  0.00    -0.221 C  
HETATM   15  F   UNL     1      -9.910   8.159  70.929  1.00  0.00    -0.171 F  
HETATM   16  F   UNL     1     -12.079   8.296  71.092  1.00  0.00    -0.290 F  
ENDBRANCH  10  12
ENDBRANCH   8  10
ENDBRANCH   5   8
BRANCH   6  17
HETATM   17  C   UNL     1      -7.137  12.750  67.743  1.00  0.00    -0.132 A  
HETATM   18  N   UNL     1      -5.610  13.015  69.439  1.00  0.00    -0.080 NA 
HETATM   19  C   UNL     1      -6.167  12.145  68.537  1.00  0.00    -0.053 A  
HETATM   20  C   UNL     1      -6.197  14.162  69.177  1.00  0.00    -0.101 A  
HETATM   21  C   UNL     1      -6.053  15.405  69.909  1.00  0.00    -0.152 A  
HETATM   22  N   UNL     1      -6.653  16.517  69.554  1.00  0.00    -0.223 NA 
HETATM   23  C   UNL     1      -7.391  16.396  68.418  1.00  0.00    -0.168 A  
HETATM   24  C   UNL     1      -7.604  15.284  67.623  1.00  0.00    -0.172 A  
HETATM   25  C   UNL     1      -8.352  15.654  66.496  1.00  0.00    -0.276 A  
HETATM   26  N   UNL     1      -7.023  14.086  68.074  1.00  0.00    -0.126 NA 
HETATM   27  C   UNL     1      -8.666  16.990  66.677  1.00  0.00    -0.251 A  
HETATM   28  N   UNL     1      -8.095  17.424  67.854  1.00  0.00    -0.215 NA 
HETATM   29  H   UNL     1      -8.185  18.363  68.243  1.00  0.00     0.000 HD 
ENDBRANCH   6  17
ENDBRANCH   2   3
TORSDOF 5
ENDMDL
MODEL      181
REMARK 921   NORMALIZED FREE ENERGY PREDICTED BY IDOCK:   -4.21 KCAL/MOL
REMARK 922        TOTAL FREE ENERGY PREDICTED BY IDOCK:   -5.66 KCAL/MOL
REMARK 923 INTER-LIGAND FREE ENERGY PREDICTED BY IDOCK:   -4.92 KCAL/MOL
REMARK 924 INTRA-LIGAND FREE ENERGY PREDICTED BY IDOCK:   -0.74 KCAL/MOL
REMARK 927      BINDING AFFINITY PREDICTED BY RF-SCORE:    0.00 PKD
ROOT
HETATM    1  C   UNL     1      -7.996   8.217  71.851  1.00  0.00    -0.153 C  
HETATM    2  C   UNL     1      -8.672   7.255  70.880  1.00  0.00    -0.148 C  
ENDROOT
BRANCH   2   3
HETATM    3  C   UNL     1      -9.628   7.961  69.892  1.00  0.00    -0.168 C  
HETATM    4  C   UNL     1     -10.881   8.492  70.593  1.00  0.00    -0.225 C  
HETATM    5  N   UNL     1     -11.755   7.342  70.638  1.00  0.00    -0.296 N  
HETATM    6  C   UNL     1     -10.241   7.043  68.789  1.00  0.00    -0.181 C  
HETATM    7  C   UNL     1     -11.532   6.505  69.469  1.00  0.00    -0.319 C  
BRANCH   5   8
HETATM    8  C   UNL     1     -12.491   7.062  71.762  1.00  0.00    -0.356 C  
HETATM    9  O   UNL     1     -13.681   6.767  71.727  1.00  0.00    -0.250 OA 
BRANCH   8  10
HETATM   10  N   UNL     1     -11.805   7.109  72.945  1.00  0.00    -0.522 N  
HETATM   11  H   UNL     1     -12.049   7.806  73.648  1.00  0.00     0.000 HD 
BRANCH  10  12
HETATM   12  C   UNL     1     -10.720   6.158  73.202  1.00  0.00    -0.260 C  
HETATM   13  F   UNL     1     -12.479   4.524  73.250  1.00  0.00    -0.249 F  
HETATM   14  C   UNL     1     -11.137   4.684  73.309  1.00  0.00    -0.321 C  
HETATM   15  F   UNL     1     -10.579   3.922  72.345  1.00  0.00    -0.241 F  
HETATM   16  F   UNL     1     -10.737   4.177  74.504  1.00  0.00    -0.263 F  
ENDBRANCH  10  12
ENDBRANCH   8  10
ENDBRANCH   5   8
BRANCH   6  17
HETATM   17  C   UNL     1      -9.348   5.949  68.267  1.00  0.00    -0.116 A  
HETATM   18  N   UNL     1      -8.215   3.964  68.046  1.00  0.00    -0.091 NA 
HETATM   19  C   UNL     1      -9.342   4.580  68.523  1.00  0.00    -0.143 A  
HETATM   20  C   UNL     1      -7.546   4.931  67.461  1.00  0.00    -0.086 A  
HETATM   21  C   UNL     1      -6.222   4.851  66.876  1.00  0.00    -0.032 A  
HETATM   22  N   UNL     1      -5.642   5.864  66.277  1.00  0.00    -0.013 NA 
HETATM   23  C   UNL     1      -6.417   6.981  66.229  1.00  0.00    -0.051 A  
HETATM   24  C   UNL     1      -7.688   7.190  66.731  1.00  0.00    -0.098 A  
HETATM   25  C   UNL     1      -8.133   8.467  66.357  1.00  0.00    -0.104 A  
HETATM   26  N   UNL     1      -8.251   6.118  67.446  1.00  0.00    -0.109 NA 
HETATM   27  C   UNL     1      -7.067   9.056  65.700  1.00  0.00    -0.081 A  
HETATM   28  N   UNL     1      -6.025   8.155  65.646  1.00  0.00    -0.041 NA 
HETATM   29  H   UNL     1      -5.109   8.335  65.236  1.00  0.00     0.000 HD 
ENDBRANCH   6  17
ENDBRANCH   2   3
TORSDOF 5
ENDMDL
MODEL      182
REMARK 921   NORMALIZED FREE ENERGY PREDICTED BY IDOCK:   -4.20 KCAL/MOL
REMARK 922        TOTAL FREE ENERGY PREDICTED BY IDOCK:   -5.64 KCAL/MOL
REMARK 923 INTER-LIGAND FREE ENERGY PREDICTED BY IDOCK:   -5.78 KCAL/MOL
REMARK 924 INTRA-LIGAND FREE ENERGY PREDICTED BY IDOCK:    0.14 KCAL/MOL
REMARK 927      BINDING AFFINITY PREDICTED BY RF-SCORE:    0.00 PKD
ROOT
HETATM    1  C   UNL     1      -8.809   5.964  66.583  1.00  0.00    -0.123 C  
HETATM    2  C   UNL     1      -8.877   7.392  67.112  1.00  0.00    -0.126 C  
ENDROOT
BRANCH   2   3
HETATM    3  C   UNL     1     -10.282   8.023  66.981  1.00  0.00    -0.374 C  
HETATM    4  C   UNL     1     -10.228   9.400  66.316  1.00  0.00    -0.214 C  
HETATM    5  N   UNL     1      -9.916  10.290  67.411  1.00  0.00    -0.182 N  
HETATM    6  C   UNL     1     -10.996   8.344  68.331  1.00  0.00     0.164 C  
HETATM    7  C   UNL     1     -10.507   9.787  68.641  1.00  0.00    -0.208 C  
BRANCH   5   8
HETATM    8  C   UNL     1      -9.013  11.312  67.251  1.00  0.00    -0.149 C  
HETATM    9  O   UNL     1      -7.839  11.126  66.949  1.00  0.00    -0.137 OA 
BRANCH   8  10
HETATM   10  N   UNL     1      -9.510  12.573  67.428  1.00  0.00    -0.180 N  
HETATM   11  H   UNL     1      -9.319  13.080  68.293  1.00  0.00     0.000 HD 
BRANCH  10  12
HETATM   12  C   UNL     1     -10.317  13.198  66.377  1.00  0.00    -0.287 C  
HETATM   13  F   UNL     1     -12.182  12.496  67.717  1.00  0.00    -0.383 F  
HETATM   14  C   UNL     1     -11.835  13.188  66.607  1.00  0.00    -0.391 C  
HETATM   15  F   UNL     1     -12.347  14.433  66.711  1.00  0.00    -0.445 F  
HETATM   16  F   UNL     1     -12.457  12.583  65.562  1.00  0.00    -0.498 F  
ENDBRANCH  10  12
ENDBRANCH   8  10
ENDBRANCH   5   8
BRANCH   6  17
HETATM   17  C   UNL     1     -10.743   7.379  69.459  1.00  0.00    -0.224 A  
HETATM   18  N   UNL     1     -11.036   5.788  71.089  1.00  0.00    -0.253 NA 
HETATM   19  C   UNL     1     -11.452   6.253  69.869  1.00  0.00    -0.389 A  
HETATM   20  C   UNL     1     -10.047   6.590  71.415  1.00  0.00    -0.191 A  
HETATM   21  C   UNL     1      -9.312   6.609  72.664  1.00  0.00    -0.139 A  
HETATM   22  N   UNL     1      -8.310   7.426  72.891  1.00  0.00    -0.109 NA 
HETATM   23  C   UNL     1      -8.009   8.223  71.831  1.00  0.00    -0.127 A  
HETATM   24  C   UNL     1      -8.615   8.299  70.590  1.00  0.00    -0.136 A  
HETATM   25  C   UNL     1      -7.902   9.194  69.778  1.00  0.00    -0.088 A  
HETATM   26  N   UNL     1      -9.741   7.478  70.404  1.00  0.00    -0.179 NA 
HETATM   27  C   UNL     1      -6.912   9.724  70.586  1.00  0.00    -0.094 A  
HETATM   28  N   UNL     1      -6.998   9.144  71.834  1.00  0.00    -0.314 NA 
HETATM   29  H   UNL     1      -6.402   9.367  72.631  1.00  0.00     0.000 HD 
ENDBRANCH   6  17
ENDBRANCH   2   3
TORSDOF 5
ENDMDL
MODEL      183
REMARK 921   NORMALIZED FREE ENERGY PREDICTED BY IDOCK:   -4.19 KCAL/MOL
REMARK 922        TOTAL FREE ENERGY PREDICTED BY IDOCK:   -5.63 KCAL/MOL
REMARK 923 INTER-LIGAND FREE ENERGY PREDICTED BY IDOCK:   -5.93 KCAL/MOL
REMARK 924 INTRA-LIGAND FREE ENERGY PREDICTED BY IDOCK:    0.30 KCAL/MOL
REMARK 927      BINDING AFFINITY PREDICTED BY RF-SCORE:    0.00 PKD
ROOT
HETATM    1  C   UNL     1      -6.506  10.240  65.314  1.00  0.00    -0.122 C  
HETATM    2  C   UNL     1      -7.436  11.257  65.966  1.00  0.00     0.117 C  
ENDROOT
BRANCH   2   3
HETATM    3  C   UNL     1      -7.393  11.219  67.510  1.00  0.00    -0.105 C  
HETATM    4  C   UNL     1      -8.155  10.016  68.072  1.00  0.00    -0.112 C  
HETATM    5  N   UNL     1      -9.526  10.474  68.108  1.00  0.00    -0.148 N  
HETATM    6  C   UNL     1      -8.100  12.412  68.226  1.00  0.00    -0.166 C  
HETATM    7  C   UNL     1      -9.563  11.903  68.373  1.00  0.00    -0.196 C  
BRANCH   5   8
HETATM    8  C   UNL     1     -10.553   9.648  67.726  1.00  0.00    -0.264 C  
HETATM    9  O   UNL     1     -11.733   9.901  67.945  1.00  0.00     0.098 OA 
BRANCH   8  10
HETATM   10  N   UNL     1     -10.183   8.516  67.054  1.00  0.00    -0.275 N  
HETATM   11  H   UNL     1      -9.352   8.523  66.462  1.00  0.00     0.000 HD 
BRANCH  10  12
HETATM   12  C   UNL     1     -10.978   7.292  67.184  1.00  0.00    -0.215 C  
HETATM   13  F   UNL     1      -9.307   6.656  68.788  1.00  0.00    -0.133 F  
HETATM   14  C   UNL     1     -10.481   6.282  68.228  1.00  0.00    -0.228 C  
HETATM   15  F   UNL     1     -11.375   6.085  69.218  1.00  0.00    -0.431 F  
HETATM   16  F   UNL     1     -10.262   5.078  67.637  1.00  0.00    -0.199 F  
ENDBRANCH  10  12
ENDBRANCH   8  10
ENDBRANCH   5   8
BRANCH   6  17
HETATM   17  C   UNL     1      -8.005  13.747  67.537  1.00  0.00    -0.181 A  
HETATM   18  N   UNL     1      -7.436  15.911  67.022  1.00  0.00    -0.219 NA 
HETATM   19  C   UNL     1      -7.034  14.741  67.612  1.00  0.00    -0.182 A  
HETATM   20  C   UNL     1      -8.628  15.633  66.544  1.00  0.00    -0.300 A  
HETATM   21  C   UNL     1      -9.552  16.552  65.909  1.00  0.00    -0.248 A  
HETATM   22  N   UNL     1     -10.714  16.178  65.428  1.00  0.00    -0.406 NA 
HETATM   23  C   UNL     1     -10.948  14.843  65.550  1.00  0.00    -0.350 A  
HETATM   24  C   UNL     1     -10.157  13.862  66.119  1.00  0.00    -0.308 A  
HETATM   25  C   UNL     1     -10.760  12.610  65.929  1.00  0.00    -0.293 A  
HETATM   26  N   UNL     1      -8.958  14.303  66.707  1.00  0.00    -0.248 NA 
HETATM   27  C   UNL     1     -11.974  12.869  65.318  1.00  0.00    -0.419 A  
HETATM   28  N   UNL     1     -12.088  14.227  65.112  1.00  0.00    -0.394 NA 
HETATM   29  H   UNL     1     -12.893  14.696  64.698  1.00  0.00     0.000 HD 
ENDBRANCH   6  17
ENDBRANCH   2   3
TORSDOF 5
ENDMDL
MODEL      184
REMARK 921   NORMALIZED FREE ENERGY PREDICTED BY IDOCK:   -4.18 KCAL/MOL
REMARK 922        TOTAL FREE ENERGY PREDICTED BY IDOCK:   -5.62 KCAL/MOL
REMARK 923 INTER-LIGAND FREE ENERGY PREDICTED BY IDOCK:   -4.29 KCAL/MOL
REMARK 924 INTRA-LIGAND FREE ENERGY PREDICTED BY IDOCK:   -1.33 KCAL/MOL
REMARK 927      BINDING AFFINITY PREDICTED BY RF-SCORE:    0.00 PKD
ROOT
HETATM    1  C   UNL     1     -11.284   5.756  69.616  1.00  0.00    -0.160 C  
HETATM    2  C   UNL     1     -10.601   7.094  69.356  1.00  0.00    -0.246 C  
ENDROOT
BRANCH   2   3
HETATM    3  C   UNL     1     -10.186   7.828  70.650  1.00  0.00    -0.199 C  
HETATM    4  C   UNL     1     -11.052   9.062  70.908  1.00  0.00    -0.280 C  
HETATM    5  N   UNL     1     -10.422  10.089  70.109  1.00  0.00    -0.279 N  
HETATM    6  C   UNL     1      -8.750   8.438  70.638  1.00  0.00    -0.158 C  
HETATM    7  C   UNL     1      -8.987   9.859  70.051  1.00  0.00    -0.169 C  
BRANCH   5   8
HETATM    8  C   UNL     1     -11.176  10.976  69.382  1.00  0.00    -0.268 C  
HETATM    9  O   UNL     1     -11.602  12.029  69.844  1.00  0.00    -0.291 OA 
BRANCH   8  10
HETATM   10  N   UNL     1     -11.411  10.624  68.081  1.00  0.00    -0.424 N  
HETATM   11  H   UNL     1     -12.061   9.868  67.867  1.00  0.00     0.000 HD 
BRANCH  10  12
HETATM   12  C   UNL     1     -10.730  11.334  66.995  1.00  0.00    -0.260 C  
HETATM   13  F   UNL     1      -9.365   9.361  66.877  1.00  0.00    -0.150 F  
HETATM   14  C   UNL     1      -9.608  10.557  66.291  1.00  0.00    -0.187 C  
HETATM   15  F   UNL     1      -9.875  10.339  64.987  1.00  0.00    -0.294 F  
HETATM   16  F   UNL     1      -8.449  11.262  66.353  1.00  0.00    -0.154 F  
ENDBRANCH  10  12
ENDBRANCH   8  10
ENDBRANCH   5   8
BRANCH   6  17
HETATM   17  C   UNL     1      -7.705   7.656  69.889  1.00  0.00    -0.097 A  
HETATM   18  N   UNL     1      -6.306   6.890  68.236  1.00  0.00    -0.034 NA 
HETATM   19  C   UNL     1      -6.980   7.971  68.743  1.00  0.00    -0.066 A  
HETATM   20  C   UNL     1      -6.572   5.923  69.084  1.00  0.00    -0.051 A  
HETATM   21  C   UNL     1      -6.191   4.529  68.969  1.00  0.00    -0.031 A  
HETATM   22  N   UNL     1      -6.472   3.633  69.886  1.00  0.00    -0.032 NA 
HETATM   23  C   UNL     1      -7.119   4.147  70.966  1.00  0.00    -0.036 A  
HETATM   24  C   UNL     1      -7.529   5.445  71.208  1.00  0.00    -0.093 A  
HETATM   25  C   UNL     1      -8.069   5.530  72.499  1.00  0.00    -0.103 A  
HETATM   26  N   UNL     1      -7.297   6.366  70.171  1.00  0.00    -0.083 NA 
HETATM   27  C   UNL     1      -8.062   4.237  72.993  1.00  0.00    -0.091 A  
HETATM   28  N   UNL     1      -7.503   3.403  72.048  1.00  0.00    -0.051 NA 
HETATM   29  H   UNL     1      -7.393   2.394  72.142  1.00  0.00     0.000 HD 
ENDBRANCH   6  17
ENDBRANCH   2   3
TORSDOF 5
ENDMDL
MODEL      185
REMARK 921   NORMALIZED FREE ENERGY PREDICTED BY IDOCK:   -4.13 KCAL/MOL
REMARK 922        TOTAL FREE ENERGY PREDICTED BY IDOCK:   -5.56 KCAL/MOL
REMARK 923 INTER-LIGAND FREE ENERGY PREDICTED BY IDOCK:   -4.92 KCAL/MOL
REMARK 924 INTRA-LIGAND FREE ENERGY PREDICTED BY IDOCK:   -0.64 KCAL/MOL
REMARK 927      BINDING AFFINITY PREDICTED BY RF-SCORE:    0.00 PKD
ROOT
HETATM    1  C   UNL     1     -10.967   7.265  68.745  1.00  0.00    -0.045 C  
HETATM    2  C   UNL     1     -10.258   8.323  67.908  1.00  0.00    -0.276 C  
ENDROOT
BRANCH   2   3
HETATM    3  C   UNL     1      -9.313   9.222  68.736  1.00  0.00    -0.139 C  
HETATM    4  C   UNL     1     -10.065   9.985  69.829  1.00  0.00    -0.248 C  
HETATM    5  N   UNL     1     -10.581  11.144  69.136  1.00  0.00    -0.217 N  
HETATM    6  C   UNL     1      -8.632  10.381  67.943  1.00  0.00    -0.118 C  
HETATM    7  C   UNL     1      -9.660  11.540  68.082  1.00  0.00    -0.187 C  
BRANCH   5   8
HETATM    8  C   UNL     1     -11.856  11.595  69.372  1.00  0.00    -0.342 C  
HETATM    9  O   UNL     1     -12.800  10.845  69.598  1.00  0.00    -0.197 OA 
BRANCH   8  10
HETATM   10  N   UNL     1     -12.013  12.953  69.365  1.00  0.00    -0.295 N  
HETATM   11  H   UNL     1     -11.961  13.468  68.486  1.00  0.00     0.000 HD 
BRANCH  10  12
HETATM   12  C   UNL     1     -12.256  13.671  70.620  1.00  0.00    -0.360 C  
HETATM   13  F   UNL     1     -11.702  15.624  69.337  1.00  0.00    -0.294 F  
HETATM   14  C   UNL     1     -12.129  15.199  70.549  1.00  0.00    -0.343 C  
HETATM   15  F   UNL     1     -13.291  15.824  70.828  1.00  0.00    -0.534 F  
HETATM   16  F   UNL     1     -11.213  15.629  71.455  1.00  0.00    -0.379 F  
ENDBRANCH  10  12
ENDBRANCH   8  10
ENDBRANCH   5   8
BRANCH   6  17
HETATM   17  C   UNL     1      -8.268  10.081  66.514  1.00  0.00    -0.119 A  
HETATM   18  N   UNL     1      -8.291   9.989  64.219  1.00  0.00    -0.159 NA 
HETATM   19  C   UNL     1      -8.630  10.717  65.330  1.00  0.00    -0.157 A  
HETATM   20  C   UNL     1      -7.684   8.930  64.706  1.00  0.00    -0.111 A  
HETATM   21  C   UNL     1      -7.211   7.776  63.967  1.00  0.00    -0.080 A  
HETATM   22  N   UNL     1      -6.581   6.774  64.533  1.00  0.00    -0.041 NA 
HETATM   23  C   UNL     1      -6.385   6.942  65.869  1.00  0.00    -0.050 A  
HETATM   24  C   UNL     1      -6.771   7.987  66.689  1.00  0.00    -0.063 A  
HETATM   25  C   UNL     1      -6.265   7.778  67.980  1.00  0.00    -0.046 A  
HETATM   26  N   UNL     1      -7.523   9.004  66.075  1.00  0.00    -0.093 NA 
HETATM   27  C   UNL     1      -5.647   6.540  67.943  1.00  0.00    -0.008 A  
HETATM   28  N   UNL     1      -5.743   6.033  66.665  1.00  0.00    -0.016 NA 
HETATM   29  H   UNL     1      -5.392   5.125  66.361  1.00  0.00     0.000 HD 
ENDBRANCH   6  17
ENDBRANCH   2   3
TORSDOF 5
ENDMDL
MODEL      186
REMARK 921   NORMALIZED FREE ENERGY PREDICTED BY IDOCK:   -4.10 KCAL/MOL
REMARK 922        TOTAL FREE ENERGY PREDICTED BY IDOCK:   -5.52 KCAL/MOL
REMARK 923 INTER-LIGAND FREE ENERGY PREDICTED BY IDOCK:   -7.39 KCAL/MOL
REMARK 924 INTRA-LIGAND FREE ENERGY PREDICTED BY IDOCK:    1.87 KCAL/MOL
REMARK 927      BINDING AFFINITY PREDICTED BY RF-SCORE:    0.00 PKD
ROOT
HETATM    1  C   UNL     1     -10.916   6.392  67.123  1.00  0.00    -0.476 C  
HETATM    2  C   UNL     1      -9.485   6.031  66.742  1.00  0.00    -0.158 C  
ENDROOT
BRANCH   2   3
HETATM    3  C   UNL     1      -8.424   6.793  67.568  1.00  0.00    -0.121 C  
HETATM    4  C   UNL     1      -8.479   6.416  69.050  1.00  0.00    -0.124 C  
HETATM    5  N   UNL     1      -9.521   7.269  69.576  1.00  0.00    -0.155 N  
HETATM    6  C   UNL     1      -8.609   8.341  67.621  1.00  0.00    -0.130 C  
HETATM    7  C   UNL     1      -9.535   8.533  68.856  1.00  0.00    -0.147 C  
BRANCH   5   8
HETATM    8  C   UNL     1     -10.440   6.785  70.473  1.00  0.00    -0.209 C  
HETATM    9  O   UNL     1     -10.709   5.593  70.578  1.00  0.00    -0.278 OA 
BRANCH   8  10
HETATM   10  N   UNL     1     -11.035   7.721  71.274  1.00  0.00    -0.232 N  
HETATM   11  H   UNL     1     -10.480   8.480  71.669  1.00  0.00     0.000 HD 
BRANCH  10  12
HETATM   12  C   UNL     1     -12.469   7.635  71.563  1.00  0.00    -0.336 C  
HETATM   13  F   UNL     1     -12.301  10.005  71.913  1.00  0.00    -0.439 F  
HETATM   14  C   UNL     1     -13.169   8.967  71.863  1.00  0.00    -0.405 C  
HETATM   15  F   UNL     1     -14.124   9.261  70.956  1.00  0.00    -0.384 F  
HETATM   16  F   UNL     1     -13.774   8.907  73.079  1.00  0.00    -0.428 F  
ENDBRANCH  10  12
ENDBRANCH   8  10
ENDBRANCH   5   8
BRANCH   6  17
HETATM   17  C   UNL     1      -9.147   8.987  66.372  1.00  0.00    -0.170 A  
HETATM   18  N   UNL     1      -9.368   9.733  64.212  1.00  0.00    -0.244 NA 
HETATM   19  C   UNL     1      -8.840   8.770  65.032  1.00  0.00    -0.107 A  
HETATM   20  C   UNL     1     -10.035  10.517  65.029  1.00  0.00    -0.322 A  
HETATM   21  C   UNL     1     -10.705  11.759  64.698  1.00  0.00    -0.310 A  
HETATM   22  N   UNL     1     -11.380  12.463  65.576  1.00  0.00    -0.332 NA 
HETATM   23  C   UNL     1     -11.420  11.895  66.812  1.00  0.00    -0.316 A  
HETATM   24  C   UNL     1     -10.840  10.721  67.257  1.00  0.00    -0.288 A  
HETATM   25  C   UNL     1     -11.232  10.482  68.582  1.00  0.00    -0.328 A  
HETATM   26  N   UNL     1     -10.048  10.033  66.321  1.00  0.00    -0.245 NA 
HETATM   27  C   UNL     1     -11.982  11.584  68.955  1.00  0.00    -0.299 A  
HETATM   28  N   UNL     1     -12.073  12.444  67.881  1.00  0.00    -0.404 NA 
HETATM   29  H   UNL     1     -12.551  13.345  67.884  1.00  0.00     0.000 HD 
ENDBRANCH   6  17
ENDBRANCH   2   3
TORSDOF 5
ENDMDL
MODEL      187
REMARK 921   NORMALIZED FREE ENERGY PREDICTED BY IDOCK:   -4.05 KCAL/MOL
REMARK 922        TOTAL FREE ENERGY PREDICTED BY IDOCK:   -5.45 KCAL/MOL
REMARK 923 INTER-LIGAND FREE ENERGY PREDICTED BY IDOCK:   -6.14 KCAL/MOL
REMARK 924 INTRA-LIGAND FREE ENERGY PREDICTED BY IDOCK:    0.69 KCAL/MOL
REMARK 927      BINDING AFFINITY PREDICTED BY RF-SCORE:    0.00 PKD
ROOT
HETATM    1  C   UNL     1      -7.618  12.319  66.845  1.00  0.00     0.001 C  
HETATM    2  C   UNL     1      -7.736  13.742  67.380  1.00  0.00    -0.158 C  
ENDROOT
BRANCH   2   3
HETATM    3  C   UNL     1      -8.381  13.813  68.782  1.00  0.00     0.014 C  
HETATM    4  C   UNL     1      -9.015  12.480  69.186  1.00  0.00     0.716 C  
HETATM    5  N   UNL     1     -10.322  12.529  68.568  1.00  0.00    -0.235 N  
HETATM    6  C   UNL     1      -9.586  14.796  68.912  1.00  0.00    -0.210 C  
HETATM    7  C   UNL     1     -10.799  13.902  68.530  1.00  0.00    -0.259 C  
BRANCH   5   8
HETATM    8  C   UNL     1     -10.849  11.422  67.952  1.00  0.00    -0.225 C  
HETATM    9  O   UNL     1     -12.008  11.365  67.554  1.00  0.00    -0.626 OA 
BRANCH   8  10
HETATM   10  N   UNL     1      -9.988  10.373  67.781  1.00  0.00    -0.171 N  
HETATM   11  H   UNL     1      -9.185  10.267  68.401  1.00  0.00     0.000 HD 
BRANCH  10  12
HETATM   12  C   UNL     1     -10.218   9.401  66.709  1.00  0.00    -0.250 C  
HETATM   13  F   UNL     1      -8.456   8.164  67.772  1.00  0.00    -0.125 F  
HETATM   14  C   UNL     1      -9.367   8.125  66.772  1.00  0.00    -0.183 C  
HETATM   15  F   UNL     1     -10.118   7.015  66.931  1.00  0.00    -0.216 F  
HETATM   16  F   UNL     1      -8.670   7.977  65.616  1.00  0.00    -0.143 F  
ENDBRANCH  10  12
ENDBRANCH   8  10
ENDBRANCH   5   8
BRANCH   6  17
HETATM   17  C   UNL     1      -9.501  16.058  68.095  1.00  0.00    -0.208 A  
HETATM   18  N   UNL     1      -9.335  18.265  67.482  1.00  0.00    -0.260 NA 
HETATM   19  C   UNL     1      -9.006  17.318  68.417  1.00  0.00    -0.269 A  
HETATM   20  C   UNL     1      -9.990  17.591  66.564  1.00  0.00    -0.321 A  
HETATM   21  C   UNL     1     -10.658  18.127  65.394  1.00  0.00     0.184 A  
HETATM   22  N   UNL     1     -11.262  17.372  64.507  1.00  0.00    -0.789 NA 
HETATM   23  C   UNL     1     -11.168  16.041  64.773  1.00  0.00    -0.339 A  
HETATM   24  C   UNL     1     -10.559  15.400  65.836  1.00  0.00    -0.339 A  
HETATM   25  C   UNL     1     -10.627  14.012  65.643  1.00  0.00    -0.313 A  
HETATM   26  N   UNL     1      -9.998  16.234  66.819  1.00  0.00    -0.252 NA 
HETATM   27  C   UNL     1     -11.372  13.831  64.491  1.00  0.00    -0.380 A  
HETATM   28  N   UNL     1     -11.712  15.067  63.983  1.00  0.00    -0.789 NA 
HETATM   29  H   UNL     1     -12.279  15.228  63.150  1.00  0.00     0.000 HD 
ENDBRANCH   6  17
ENDBRANCH   2   3
TORSDOF 5
ENDMDL
MODEL      188
REMARK 921   NORMALIZED FREE ENERGY PREDICTED BY IDOCK:   -4.04 KCAL/MOL
REMARK 922        TOTAL FREE ENERGY PREDICTED BY IDOCK:   -5.44 KCAL/MOL
REMARK 923 INTER-LIGAND FREE ENERGY PREDICTED BY IDOCK:   -5.20 KCAL/MOL
REMARK 924 INTRA-LIGAND FREE ENERGY PREDICTED BY IDOCK:   -0.24 KCAL/MOL
REMARK 927      BINDING AFFINITY PREDICTED BY RF-SCORE:    0.00 PKD
ROOT
HETATM    1  C   UNL     1      -7.752   4.665  72.795  1.00  0.00    -0.088 C  
HETATM    2  C   UNL     1      -7.991   4.490  71.300  1.00  0.00    -0.086 C  
ENDROOT
BRANCH   2   3
HETATM    3  C   UNL     1      -8.425   5.795  70.596  1.00  0.00    -0.128 C  
HETATM    4  C   UNL     1      -9.274   6.681  71.510  1.00  0.00    -0.146 C  
HETATM    5  N   UNL     1     -10.606   6.141  71.360  1.00  0.00    -0.235 N  
HETATM    6  C   UNL     1      -9.366   5.606  69.365  1.00  0.00    -0.156 C  
HETATM    7  C   UNL     1     -10.781   5.625  70.011  1.00  0.00    -0.320 C  
BRANCH   5   8
HETATM    8  C   UNL     1     -11.431   5.991  72.446  1.00  0.00    -0.308 C  
HETATM    9  O   UNL     1     -11.073   5.454  73.490  1.00  0.00    -0.295 OA 
BRANCH   8  10
HETATM   10  N   UNL     1     -12.692   6.503  72.307  1.00  0.00    -0.553 N  
HETATM   11  H   UNL     1     -13.456   6.138  72.876  1.00  0.00     0.000 HD 
BRANCH  10  12
HETATM   12  C   UNL     1     -12.945   7.576  71.341  1.00  0.00    -0.335 C  
HETATM   13  F   UNL     1     -13.256   8.940  73.293  1.00  0.00    -0.266 F  
HETATM   14  C   UNL     1     -13.202   8.966  71.941  1.00  0.00    -0.393 C  
HETATM   15  F   UNL     1     -12.265   9.865  71.575  1.00  0.00    -0.392 F  
HETATM   16  F   UNL     1     -14.402   9.438  71.514  1.00  0.00    -0.271 F  
ENDBRANCH  10  12
ENDBRANCH   8  10
ENDBRANCH   5   8
BRANCH   6  17
HETATM   17  C   UNL     1      -9.117   4.384  68.523  1.00  0.00    -0.124 A  
HETATM   18  N   UNL     1      -8.701   2.223  67.865  1.00  0.00    -0.094 NA 
HETATM   19  C   UNL     1      -9.270   3.032  68.815  1.00  0.00    -0.166 A  
HETATM   20  C   UNL     1      -8.238   3.063  66.968  1.00  0.00    -0.085 A  
HETATM   21  C   UNL     1      -7.447   2.744  65.796  1.00  0.00    -0.072 A  
HETATM   22  N   UNL     1      -7.054   3.648  64.930  1.00  0.00    -0.064 NA 
HETATM   23  C   UNL     1      -7.491   4.904  65.221  1.00  0.00    -0.077 A  
HETATM   24  C   UNL     1      -8.252   5.343  66.289  1.00  0.00    -0.110 A  
HETATM   25  C   UNL     1      -8.545   6.704  66.124  1.00  0.00    -0.148 A  
HETATM   26  N   UNL     1      -8.583   4.370  67.249  1.00  0.00    -0.104 NA 
HETATM   27  C   UNL     1      -7.865   7.097  64.984  1.00  0.00    -0.125 A  
HETATM   28  N   UNL     1      -7.214   6.003  64.456  1.00  0.00    -0.060 NA 
HETATM   29  H   UNL     1      -6.619   6.012  63.627  1.00  0.00     0.000 HD 
ENDBRANCH   6  17
ENDBRANCH   2   3
TORSDOF 5
ENDMDL
MODEL      189
REMARK 921   NORMALIZED FREE ENERGY PREDICTED BY IDOCK:   -4.04 KCAL/MOL
REMARK 922        TOTAL FREE ENERGY PREDICTED BY IDOCK:   -5.44 KCAL/MOL
REMARK 923 INTER-LIGAND FREE ENERGY PREDICTED BY IDOCK:   -4.66 KCAL/MOL
REMARK 924 INTRA-LIGAND FREE ENERGY PREDICTED BY IDOCK:   -0.78 KCAL/MOL
REMARK 927      BINDING AFFINITY PREDICTED BY RF-SCORE:    0.00 PKD
ROOT
HETATM    1  C   UNL     1      -9.437   9.844  65.118  1.00  0.00    -0.338 C  
HETATM    2  C   UNL     1      -9.499   9.566  66.616  1.00  0.00    -0.222 C  
ENDROOT
BRANCH   2   3
HETATM    3  C   UNL     1      -8.185   9.910  67.353  1.00  0.00    -0.118 C  
HETATM    4  C   UNL     1      -7.545   8.672  67.984  1.00  0.00    -0.098 C  
HETATM    5  N   UNL     1      -8.236   8.544  69.248  1.00  0.00    -0.113 N  
HETATM    6  C   UNL     1      -8.341  10.857  68.584  1.00  0.00    -0.148 C  
HETATM    7  C   UNL     1      -8.595   9.860  69.751  1.00  0.00    -0.203 C  
BRANCH   5   8
HETATM    8  C   UNL     1      -8.632   7.314  69.710  1.00  0.00    -0.141 C  
HETATM    9  O   UNL     1      -8.079   6.739  70.642  1.00  0.00    -0.115 OA 
BRANCH   8  10
HETATM   10  N   UNL     1      -9.713   6.764  69.077  1.00  0.00    -0.145 N  
HETATM   11  H   UNL     1     -10.485   7.360  68.777  1.00  0.00     0.000 HD 
BRANCH  10  12
HETATM   12  C   UNL     1      -9.763   5.321  68.830  1.00  0.00    -0.148 C  
HETATM   13  F   UNL     1      -8.707   5.879  66.746  1.00  0.00    -0.115 F  
HETATM   14  C   UNL     1      -9.123   4.847  67.517  1.00  0.00    -0.118 C  
HETATM   15  F   UNL     1      -8.073   4.026  67.724  1.00  0.00    -0.087 F  
HETATM   16  F   UNL     1     -10.035   4.157  66.783  1.00  0.00    -0.224 F  
ENDBRANCH  10  12
ENDBRANCH   8  10
ENDBRANCH   5   8
BRANCH   6  17
HETATM   17  C   UNL     1      -9.402  11.918  68.472  1.00  0.00    -0.140 A  
HETATM   18  N   UNL     1     -11.410  12.984  68.146  1.00  0.00    -0.274 NA 
HETATM   19  C   UNL     1     -10.790  11.829  68.544  1.00  0.00    -0.224 A  
HETATM   20  C   UNL     1     -10.418  13.800  67.870  1.00  0.00    -0.246 A  
HETATM   21  C   UNL     1     -10.510  15.131  67.303  1.00  0.00    -0.271 A  
HETATM   22  N   UNL     1      -9.463  15.893  67.092  1.00  0.00    -0.211 NA 
HETATM   23  C   UNL     1      -8.292  15.327  67.490  1.00  0.00    -0.175 A  
HETATM   24  C   UNL     1      -8.063  14.083  68.049  1.00  0.00    -0.152 A  
HETATM   25  C   UNL     1      -6.708  13.968  68.392  1.00  0.00    -0.099 A  
HETATM   26  N   UNL     1      -9.190  13.252  68.181  1.00  0.00    -0.208 NA 
HETATM   27  C   UNL     1      -6.109  15.131  67.941  1.00  0.00    -0.154 A  
HETATM   28  N   UNL     1      -7.074  15.939  67.377  1.00  0.00    -0.178 NA 
HETATM   29  H   UNL     1      -6.905  16.847  66.946  1.00  0.00     0.000 HD 
ENDBRANCH   6  17
ENDBRANCH   2   3
TORSDOF 5
ENDMDL
MODEL      190
REMARK 921   NORMALIZED FREE ENERGY PREDICTED BY IDOCK:   -4.03 KCAL/MOL
REMARK 922        TOTAL FREE ENERGY PREDICTED BY IDOCK:   -5.43 KCAL/MOL
REMARK 923 INTER-LIGAND FREE ENERGY PREDICTED BY IDOCK:   -6.04 KCAL/MOL
REMARK 924 INTRA-LIGAND FREE ENERGY PREDICTED BY IDOCK:    0.61 KCAL/MOL
REMARK 927      BINDING AFFINITY PREDICTED BY RF-SCORE:    0.00 PKD
ROOT
HETATM    1  C   UNL     1     -12.527   6.866  70.846  1.00  0.00    -0.314 C  
HETATM    2  C   UNL     1     -11.365   6.215  70.104  1.00  0.00    -0.433 C  
ENDROOT
BRANCH   2   3
HETATM    3  C   UNL     1     -10.140   5.947  71.007  1.00  0.00    -0.252 C  
HETATM    4  C   UNL     1      -9.636   7.227  71.677  1.00  0.00    -0.151 C  
HETATM    5  N   UNL     1      -8.783   7.820  70.672  1.00  0.00    -0.138 N  
HETATM    6  C   UNL     1      -8.862   5.447  70.263  1.00  0.00    -0.143 C  
HETATM    7  C   UNL     1      -8.145   6.775  69.887  1.00  0.00    -0.126 C  
BRANCH   5   8
HETATM    8  C   UNL     1      -8.807   9.172  70.438  1.00  0.00    -0.220 C  
HETATM    9  O   UNL     1      -7.828   9.895  70.588  1.00  0.00    -0.278 OA 
BRANCH   8  10
HETATM   10  N   UNL     1     -10.000   9.674  69.997  1.00  0.00    -0.232 N  
HETATM   11  H   UNL     1     -10.144   9.846  69.002  1.00  0.00     0.000 HD 
BRANCH  10  12
HETATM   12  C   UNL     1     -11.072   9.964  70.952  1.00  0.00    -0.348 C  
HETATM   13  F   UNL     1     -12.050  11.180  69.127  1.00  0.00    -0.350 F  
HETATM   14  C   UNL     1     -12.255  10.774  70.402  1.00  0.00    -0.349 C  
HETATM   15  F   UNL     1     -13.413  10.084  70.443  1.00  0.00    -0.310 F  
HETATM   16  F   UNL     1     -12.430  11.898  71.144  1.00  0.00    -0.434 F  
ENDBRANCH  10  12
ENDBRANCH   8  10
ENDBRANCH   5   8
BRANCH   6  17
HETATM   17  C   UNL     1      -9.095   4.545  69.081  1.00  0.00    -0.121 A  
HETATM   18  N   UNL     1      -9.170   2.704  67.710  1.00  0.00    -0.189 NA 
HETATM   19  C   UNL     1      -9.208   3.160  69.003  1.00  0.00    -0.159 A  
HETATM   20  C   UNL     1      -9.079   3.798  66.989  1.00  0.00    -0.162 A  
HETATM   21  C   UNL     1      -8.901   3.888  65.553  1.00  0.00    -0.124 A  
HETATM   22  N   UNL     1      -8.856   5.030  64.908  1.00  0.00    -0.154 NA 
HETATM   23  C   UNL     1      -9.027   6.114  65.712  1.00  0.00    -0.086 A  
HETATM   24  C   UNL     1      -9.215   6.171  67.081  1.00  0.00    -0.118 A  
HETATM   25  C   UNL     1      -9.447   7.500  67.464  1.00  0.00    -0.165 A  
HETATM   26  N   UNL     1      -9.169   4.940  67.760  1.00  0.00    -0.117 NA 
HETATM   27  C   UNL     1      -9.301   8.252  66.312  1.00  0.00    -0.204 A  
HETATM   28  N   UNL     1      -9.027   7.405  65.260  1.00  0.00    -0.360 NA 
HETATM   29  H   UNL     1      -8.852   7.695  64.298  1.00  0.00     0.000 HD 
ENDBRANCH   6  17
ENDBRANCH   2   3
TORSDOF 5
ENDMDL
MODEL      191
REMARK 921   NORMALIZED FREE ENERGY PREDICTED BY IDOCK:   -4.00 KCAL/MOL
REMARK 922        TOTAL FREE ENERGY PREDICTED BY IDOCK:   -5.39 KCAL/MOL
REMARK 923 INTER-LIGAND FREE ENERGY PREDICTED BY IDOCK:   -5.78 KCAL/MOL
REMARK 924 INTRA-LIGAND FREE ENERGY PREDICTED BY IDOCK:    0.39 KCAL/MOL
REMARK 927      BINDING AFFINITY PREDICTED BY RF-SCORE:    0.00 PKD
ROOT
HETATM    1  C   UNL     1      -8.812   6.225  73.062  1.00  0.00    -0.123 C  
HETATM    2  C   UNL     1      -8.847   6.633  71.594  1.00  0.00    -0.134 C  
ENDROOT
BRANCH   2   3
HETATM    3  C   UNL     1      -9.614   5.631  70.702  1.00  0.00    -0.213 C  
HETATM    4  C   UNL     1      -8.818   5.259  69.449  1.00  0.00    -0.100 C  
HETATM    5  N   UNL     1      -9.120   6.331  68.527  1.00  0.00    -0.126 N  
HETATM    6  C   UNL     1     -10.945   6.169  70.090  1.00  0.00    -0.426 C  
HETATM    7  C   UNL     1     -10.473   6.812  68.755  1.00  0.00    -0.208 C  
BRANCH   5   8
HETATM    8  C   UNL     1      -8.137   6.880  67.742  1.00  0.00    -0.114 C  
HETATM    9  O   UNL     1      -7.116   7.380  68.200  1.00  0.00    -0.079 OA 
BRANCH   8  10
HETATM   10  N   UNL     1      -8.355   6.816  66.393  1.00  0.00    -0.116 N  
HETATM   11  H   UNL     1      -8.909   6.055  66.001  1.00  0.00     0.000 HD 
BRANCH  10  12
HETATM   12  C   UNL     1      -7.791   7.841  65.510  1.00  0.00    -0.111 C  
HETATM   13  F   UNL     1      -8.248   6.255  63.766  1.00  0.00    -0.118 F  
HETATM   14  C   UNL     1      -7.804   7.509  64.011  1.00  0.00    -0.127 C  
HETATM   15  F   UNL     1      -8.563   8.370  63.301  1.00  0.00    -0.157 F  
HETATM   16  F   UNL     1      -6.542   7.579  63.512  1.00  0.00    -0.051 F  
ENDBRANCH  10  12
ENDBRANCH   8  10
ENDBRANCH   5   8
BRANCH   6  17
HETATM   17  C   UNL     1     -11.737   7.113  70.955  1.00  0.00    -0.328 A  
HETATM   18  N   UNL     1     -13.365   8.004  72.307  1.00  0.00    -0.150 NA 
HETATM   19  C   UNL     1     -12.707   6.865  71.922  1.00  0.00    -0.274 A  
HETATM   20  C   UNL     1     -12.780   8.958  71.620  1.00  0.00    -0.349 A  
HETATM   21  C   UNL     1     -13.156  10.357  71.569  1.00  0.00    -0.431 A  
HETATM   22  N   UNL     1     -12.490  11.252  70.878  1.00  0.00    -0.391 NA 
HETATM   23  C   UNL     1     -11.395  10.746  70.248  1.00  0.00    -0.290 A  
HETATM   24  C   UNL     1     -10.920   9.448  70.221  1.00  0.00    -0.262 A  
HETATM   25  C   UNL     1      -9.703   9.413  69.525  1.00  0.00    -0.191 A  
HETATM   26  N   UNL     1     -11.702   8.493  70.894  1.00  0.00    -0.272 NA 
HETATM   27  C   UNL     1      -9.504  10.698  69.053  1.00  0.00    -0.191 A  
HETATM   28  N   UNL     1     -10.546  11.494  69.480  1.00  0.00    -0.448 NA 
HETATM   29  H   UNL     1     -10.664  12.482  69.258  1.00  0.00     0.000 HD 
ENDBRANCH   6  17
ENDBRANCH   2   3
TORSDOF 5
ENDMDL
MODEL      192
REMARK 921   NORMALIZED FREE ENERGY PREDICTED BY IDOCK:   -4.00 KCAL/MOL
REMARK 922        TOTAL FREE ENERGY PREDICTED BY IDOCK:   -5.38 KCAL/MOL
REMARK 923 INTER-LIGAND FREE ENERGY PREDICTED BY IDOCK:   -4.18 KCAL/MOL
REMARK 924 INTRA-LIGAND FREE ENERGY PREDICTED BY IDOCK:   -1.20 KCAL/MOL
REMARK 927      BINDING AFFINITY PREDICTED BY RF-SCORE:    0.00 PKD
ROOT
HETATM    1  C   UNL     1     -10.855   9.292  69.227  1.00  0.00    -0.170 C  
HETATM    2  C   UNL     1      -9.604   9.369  68.359  1.00  0.00    -0.157 C  
ENDROOT
BRANCH   2   3
HETATM    3  C   UNL     1      -8.327   9.709  69.161  1.00  0.00    -0.130 C  
HETATM    4  C   UNL     1      -7.571  10.893  68.554  1.00  0.00    -0.111 C  
HETATM    5  N   UNL     1      -6.773  10.284  67.514  1.00  0.00    -0.071 N  
HETATM    6  C   UNL     1      -7.232   8.597  69.170  1.00  0.00    -0.064 C  
HETATM    7  C   UNL     1      -6.388   8.939  67.910  1.00  0.00    -0.056 C  
BRANCH   5   8
HETATM    8  C   UNL     1      -6.636  10.887  66.288  1.00  0.00    -0.126 C  
HETATM    9  O   UNL     1      -5.559  11.273  65.848  1.00  0.00    -0.167 OA 
BRANCH   8  10
HETATM   10  N   UNL     1      -7.788  11.016  65.561  1.00  0.00    -0.365 N  
HETATM   11  H   UNL     1      -8.236  11.928  65.472  1.00  0.00     0.000 HD 
BRANCH  10  12
HETATM   12  C   UNL     1      -8.378   9.843  64.910  1.00  0.00    -0.150 C  
HETATM   13  F   UNL     1      -7.565  10.850  62.887  1.00  0.00    -0.106 F  
HETATM   14  C   UNL     1      -8.177   9.753  63.390  1.00  0.00    -0.158 C  
HETATM   15  F   UNL     1      -7.460   8.669  63.031  1.00  0.00    -0.096 F  
HETATM   16  F   UNL     1      -9.383   9.662  62.770  1.00  0.00    -0.278 F  
ENDBRANCH  10  12
ENDBRANCH   8  10
ENDBRANCH   5   8
BRANCH   6  17
HETATM   17  C   UNL     1      -7.731   7.177  69.181  1.00  0.00    -0.109 A  
HETATM   18  N   UNL     1      -8.431   5.094  68.510  1.00  0.00    -0.089 NA 
HETATM   19  C   UNL     1      -7.631   6.170  68.224  1.00  0.00    -0.098 A  
HETATM   20  C   UNL     1      -8.990   5.410  69.657  1.00  0.00    -0.109 A  
HETATM   21  C   UNL     1     -10.011   4.665  70.366  1.00  0.00    -0.230 A  
HETATM   22  N   UNL     1     -10.490   5.038  71.530  1.00  0.00    -0.189 NA 
HETATM   23  C   UNL     1      -9.910   6.168  72.018  1.00  0.00    -0.155 A  
HETATM   24  C   UNL     1      -8.928   6.963  71.456  1.00  0.00    -0.140 A  
HETATM   25  C   UNL     1      -8.567   7.968  72.365  1.00  0.00    -0.220 A  
HETATM   26  N   UNL     1      -8.496   6.592  70.170  1.00  0.00    -0.134 NA 
HETATM   27  C   UNL     1      -9.418   7.818  73.446  1.00  0.00    -0.287 A  
HETATM   28  N   UNL     1     -10.241   6.737  73.217  1.00  0.00    -0.222 NA 
HETATM   29  H   UNL     1     -10.980   6.413  73.841  1.00  0.00     0.000 HD 
ENDBRANCH   6  17
ENDBRANCH   2   3
TORSDOF 5
ENDMDL
MODEL      193
REMARK 921   NORMALIZED FREE ENERGY PREDICTED BY IDOCK:   -3.98 KCAL/MOL
REMARK 922        TOTAL FREE ENERGY PREDICTED BY IDOCK:   -5.36 KCAL/MOL
REMARK 923 INTER-LIGAND FREE ENERGY PREDICTED BY IDOCK:   -4.76 KCAL/MOL
REMARK 924 INTRA-LIGAND FREE ENERGY PREDICTED BY IDOCK:   -0.61 KCAL/MOL
REMARK 927      BINDING AFFINITY PREDICTED BY RF-SCORE:    0.00 PKD
ROOT
HETATM    1  C   UNL     1     -10.115   5.231  68.981  1.00  0.00    -0.272 C  
HETATM    2  C   UNL     1      -9.897   6.739  68.950  1.00  0.00    -0.146 C  
ENDROOT
BRANCH   2   3
HETATM    3  C   UNL     1      -8.424   7.146  69.179  1.00  0.00    -0.133 C  
HETATM    4  C   UNL     1      -7.826   6.454  70.406  1.00  0.00    -0.107 C  
HETATM    5  N   UNL     1      -8.244   7.297  71.504  1.00  0.00    -0.105 N  
HETATM    6  C   UNL     1      -8.194   8.652  69.514  1.00  0.00    -0.115 C  
HETATM    7  C   UNL     1      -8.318   8.681  71.064  1.00  0.00    -0.161 C  
BRANCH   5   8
HETATM    8  C   UNL     1      -8.686   6.749  72.683  1.00  0.00    -0.122 C  
HETATM    9  O   UNL     1      -9.053   7.424  73.638  1.00  0.00    -0.182 OA 
BRANCH   8  10
HETATM   10  N   UNL     1      -8.716   5.382  72.724  1.00  0.00    -0.123 N  
HETATM   11  H   UNL     1      -7.901   4.864  73.052  1.00  0.00     0.000 HD 
BRANCH  10  12
HETATM   12  C   UNL     1      -9.919   4.662  72.298  1.00  0.00    -0.177 C  
HETATM   13  F   UNL     1     -10.706   5.139  74.517  1.00  0.00    -0.303 F  
HETATM   14  C   UNL     1     -11.057   4.597  73.327  1.00  0.00    -0.321 C  
HETATM   15  F   UNL     1     -12.175   5.218  72.896  1.00  0.00    -0.340 F  
HETATM   16  F   UNL     1     -11.385   3.302  73.572  1.00  0.00    -0.296 F  
ENDBRANCH  10  12
ENDBRANCH   8  10
ENDBRANCH   5   8
BRANCH   6  17
HETATM   17  C   UNL     1      -9.111   9.630  68.829  1.00  0.00    -0.134 A  
HETATM   18  N   UNL     1     -10.863  11.043  68.376  1.00  0.00    -0.203 NA 
HETATM   19  C   UNL     1     -10.065  10.499  69.349  1.00  0.00    -0.209 A  
HETATM   20  C   UNL     1     -10.381  10.552  67.257  1.00  0.00    -0.228 A  
HETATM   21  C   UNL     1     -10.920  10.722  65.923  1.00  0.00     0.073 A  
HETATM   22  N   UNL     1     -10.351  10.221  64.852  1.00  0.00    -0.200 NA 
HETATM   23  C   UNL     1      -9.190   9.561  65.114  1.00  0.00    -0.244 A  
HETATM   24  C   UNL     1      -8.562   9.336  66.325  1.00  0.00    -0.128 A  
HETATM   25  C   UNL     1      -7.335   8.696  66.101  1.00  0.00    -0.085 A  
HETATM   26  N   UNL     1      -9.239   9.805  67.465  1.00  0.00    -0.130 NA 
HETATM   27  C   UNL     1      -7.280   8.456  64.739  1.00  0.00    -0.082 A  
HETATM   28  N   UNL     1      -8.419   8.967  64.153  1.00  0.00    -0.285 NA 
HETATM   29  H   UNL     1      -8.649   8.910  63.161  1.00  0.00     0.000 HD 
ENDBRANCH   6  17
ENDBRANCH   2   3
TORSDOF 5
ENDMDL
MODEL      194
REMARK 921   NORMALIZED FREE ENERGY PREDICTED BY IDOCK:   -3.96 KCAL/MOL
REMARK 922        TOTAL FREE ENERGY PREDICTED BY IDOCK:   -5.34 KCAL/MOL
REMARK 923 INTER-LIGAND FREE ENERGY PREDICTED BY IDOCK:   -6.07 KCAL/MOL
REMARK 924 INTRA-LIGAND FREE ENERGY PREDICTED BY IDOCK:    0.73 KCAL/MOL
REMARK 927      BINDING AFFINITY PREDICTED BY RF-SCORE:    0.00 PKD
ROOT
HETATM    1  C   UNL     1     -11.797  14.953  68.443  1.00  0.00    -0.309 C  
HETATM    2  C   UNL     1     -10.629  15.918  68.615  1.00  0.00    -0.250 C  
ENDROOT
BRANCH   2   3
HETATM    3  C   UNL     1     -10.568  17.003  67.516  1.00  0.00    -0.310 C  
HETATM    4  C   UNL     1     -11.236  16.538  66.220  1.00  0.00     0.411 C  
HETATM    5  N   UNL     1     -10.194  15.788  65.555  1.00  0.00    -0.368 N  
HETATM    6  C   UNL     1      -9.134  17.374  67.026  1.00  0.00    -0.251 C  
HETATM    7  C   UNL     1      -8.895  16.360  65.871  1.00  0.00    -0.135 C  
BRANCH   5   8
HETATM    8  C   UNL     1     -10.477  14.605  64.920  1.00  0.00    -0.387 C  
HETATM    9  O   UNL     1      -9.681  13.673  64.855  1.00  0.00    -0.081 OA 
BRANCH   8  10
HETATM   10  N   UNL     1     -11.726  14.511  64.372  1.00  0.00    -0.605 N  
HETATM   11  H   UNL     1     -12.465  15.145  64.677  1.00  0.00     0.000 HD 
BRANCH  10  12
HETATM   12  C   UNL     1     -12.004  13.502  63.347  1.00  0.00    -0.256 C  
HETATM   13  F   UNL     1     -12.233  12.008  65.213  1.00  0.00    -0.418 F  
HETATM   14  C   UNL     1     -12.350  12.100  63.868  1.00  0.00    -0.487 C  
HETATM   15  F   UNL     1     -13.598  11.718  63.527  1.00  0.00    -0.319 F  
HETATM   16  F   UNL     1     -11.492  11.187  63.341  1.00  0.00    -0.401 F  
ENDBRANCH  10  12
ENDBRANCH   8  10
ENDBRANCH   5   8
BRANCH   6  17
HETATM   17  C   UNL     1      -8.050  17.347  68.070  1.00  0.00    -0.227 A  
HETATM   18  N   UNL     1      -6.352  17.975  69.482  1.00  0.00    -0.242 NA 
HETATM   19  C   UNL     1      -7.481  18.375  68.816  1.00  0.00    -0.279 A  
HETATM   20  C   UNL     1      -6.244  16.699  69.189  1.00  0.00    -0.184 A  
HETATM   21  C   UNL     1      -5.161  15.806  69.550  1.00  0.00    -0.105 A  
HETATM   22  N   UNL     1      -5.153  14.530  69.242  1.00  0.00    -0.083 NA 
HETATM   23  C   UNL     1      -6.273  14.124  68.586  1.00  0.00    -0.088 A  
HETATM   24  C   UNL     1      -7.376  14.860  68.192  1.00  0.00    -0.117 A  
HETATM   25  C   UNL     1      -8.333  14.001  67.634  1.00  0.00    -0.191 A  
HETATM   26  N   UNL     1      -7.319  16.240  68.454  1.00  0.00    -0.151 NA 
HETATM   27  C   UNL     1      -7.746  12.748  67.614  1.00  0.00    -0.162 A  
HETATM   28  N   UNL     1      -6.490  12.837  68.175  1.00  0.00    -0.074 NA 
HETATM   29  H   UNL     1      -5.828  12.067  68.268  1.00  0.00     0.000 HD 
ENDBRANCH   6  17
ENDBRANCH   2   3
TORSDOF 5
ENDMDL
MODEL      195
REMARK 921   NORMALIZED FREE ENERGY PREDICTED BY IDOCK:   -3.93 KCAL/MOL
REMARK 922        TOTAL FREE ENERGY PREDICTED BY IDOCK:   -5.30 KCAL/MOL
REMARK 923 INTER-LIGAND FREE ENERGY PREDICTED BY IDOCK:   -5.05 KCAL/MOL
REMARK 924 INTRA-LIGAND FREE ENERGY PREDICTED BY IDOCK:   -0.25 KCAL/MOL
REMARK 927      BINDING AFFINITY PREDICTED BY RF-SCORE:    0.00 PKD
ROOT
HETATM    1  C   UNL     1      -6.513  10.368  67.042  1.00  0.00    -0.074 C  
HETATM    2  C   UNL     1      -7.791  11.041  67.530  1.00  0.00    -0.116 C  
ENDROOT
BRANCH   2   3
HETATM    3  C   UNL     1      -8.713  11.504  66.379  1.00  0.00    -0.179 C  
HETATM    4  C   UNL     1      -9.550  12.723  66.775  1.00  0.00    -0.244 C  
HETATM    5  N   UNL     1     -10.680  12.145  67.465  1.00  0.00    -0.226 N  
HETATM    6  C   UNL     1      -9.812  10.482  65.954  1.00  0.00    -0.291 C  
HETATM    7  C   UNL     1     -10.998  10.847  66.891  1.00  0.00    -0.223 C  
BRANCH   5   8
HETATM    8  C   UNL     1     -11.171  12.716  68.613  1.00  0.00    -0.282 C  
HETATM    9  O   UNL     1     -10.632  13.665  69.171  1.00  0.00    -0.176 OA 
BRANCH   8  10
HETATM   10  N   UNL     1     -12.330  12.173  69.095  1.00  0.00     0.001 N  
HETATM   11  H   UNL     1     -13.187  12.726  69.105  1.00  0.00     0.000 HD 
BRANCH  10  12
HETATM   12  C   UNL     1     -12.342  10.796  69.596  1.00  0.00    -0.192 C  
HETATM   13  F   UNL     1     -12.371  11.835  71.762  1.00  0.00    -0.252 F  
HETATM   14  C   UNL     1     -12.428  10.644  71.122  1.00  0.00    -0.418 C  
HETATM   15  F   UNL     1     -13.553  10.010  71.512  1.00  0.00    -0.395 F  
HETATM   16  F   UNL     1     -11.376   9.910  71.572  1.00  0.00    -0.424 F  
ENDBRANCH  10  12
ENDBRANCH   8  10
ENDBRANCH   5   8
BRANCH   6  17
HETATM   17  C   UNL     1      -9.427   9.028  66.026  1.00  0.00    -0.256 A  
HETATM   18  N   UNL     1      -9.080   6.888  66.782  1.00  0.00    -0.140 NA 
HETATM   19  C   UNL     1      -9.852   8.016  66.881  1.00  0.00    -0.248 A  
HETATM   20  C   UNL     1      -8.210   7.180  65.842  1.00  0.00    -0.132 A  
HETATM   21  C   UNL     1      -7.087   6.372  65.408  1.00  0.00    -0.064 A  
HETATM   22  N   UNL     1      -6.285   6.728  64.432  1.00  0.00    -0.035 NA 
HETATM   23  C   UNL     1      -6.632   7.907  63.848  1.00  0.00    -0.062 A  
HETATM   24  C   UNL     1      -7.673   8.764  64.152  1.00  0.00    -0.130 A  
HETATM   25  C   UNL     1      -7.703   9.810  63.218  1.00  0.00    -0.138 A  
HETATM   26  N   UNL     1      -8.463   8.405  65.259  1.00  0.00    -0.173 NA 
HETATM   27  C   UNL     1      -6.602   9.615  62.402  1.00  0.00    -0.096 A  
HETATM   28  N   UNL     1      -5.948   8.470  62.805  1.00  0.00    -0.086 NA 
HETATM   29  H   UNL     1      -5.092   8.103  62.392  1.00  0.00     0.000 HD 
ENDBRANCH   6  17
ENDBRANCH   2   3
TORSDOF 5
ENDMDL
MODEL      196
REMARK 921   NORMALIZED FREE ENERGY PREDICTED BY IDOCK:   -3.92 KCAL/MOL
REMARK 922        TOTAL FREE ENERGY PREDICTED BY IDOCK:   -5.28 KCAL/MOL
REMARK 923 INTER-LIGAND FREE ENERGY PREDICTED BY IDOCK:   -5.81 KCAL/MOL
REMARK 924 INTRA-LIGAND FREE ENERGY PREDICTED BY IDOCK:    0.52 KCAL/MOL
REMARK 927      BINDING AFFINITY PREDICTED BY RF-SCORE:    0.00 PKD
ROOT
HETATM    1  C   UNL     1     -11.987   6.496  70.102  1.00  0.00    -0.200 C  
HETATM    2  C   UNL     1     -10.892   6.181  69.089  1.00  0.00    -0.418 C  
ENDROOT
BRANCH   2   3
HETATM    3  C   UNL     1      -9.594   5.653  69.740  1.00  0.00    -0.206 C  
HETATM    4  C   UNL     1      -9.392   6.218  71.148  1.00  0.00    -0.160 C  
HETATM    5  N   UNL     1      -8.767   7.500  70.909  1.00  0.00    -0.141 N  
HETATM    6  C   UNL     1      -8.272   6.078  69.029  1.00  0.00    -0.108 C  
HETATM    7  C   UNL     1      -7.930   7.427  69.722  1.00  0.00    -0.125 C  
BRANCH   5   8
HETATM    8  C   UNL     1      -9.141   8.609  71.626  1.00  0.00    -0.247 C  
HETATM    9  O   UNL     1      -8.505   9.031  72.586  1.00  0.00    -0.311 OA 
BRANCH   8  10
HETATM   10  N   UNL     1     -10.270   9.243  71.188  1.00  0.00    -0.311 N  
HETATM   11  H   UNL     1     -10.284   9.680  70.266  1.00  0.00     0.000 HD 
BRANCH  10  12
HETATM   12  C   UNL     1     -11.460   9.296  72.041  1.00  0.00    -0.200 C  
HETATM   13  F   UNL     1     -12.398  10.594  70.251  1.00  0.00    -0.325 F  
HETATM   14  C   UNL     1     -12.675  10.023  71.447  1.00  0.00    -0.415 C  
HETATM   15  F   UNL     1     -13.735   9.204  71.286  1.00  0.00    -0.395 F  
HETATM   16  F   UNL     1     -13.064  11.027  72.276  1.00  0.00    -0.575 F  
ENDBRANCH  10  12
ENDBRANCH   8  10
ENDBRANCH   5   8
BRANCH   6  17
HETATM   17  C   UNL     1      -8.333   6.182  67.528  1.00  0.00    -0.109 A  
HETATM   18  N   UNL     1      -7.985   5.807  65.289  1.00  0.00    -0.113 NA 
HETATM   19  C   UNL     1      -8.043   5.247  66.539  1.00  0.00    -0.108 A  
HETATM   20  C   UNL     1      -8.279   7.071  65.493  1.00  0.00    -0.135 A  
HETATM   21  C   UNL     1      -8.260   8.143  64.517  1.00  0.00    -0.115 A  
HETATM   22  N   UNL     1      -8.604   9.376  64.803  1.00  0.00    -0.170 NA 
HETATM   23  C   UNL     1      -9.014   9.541  66.089  1.00  0.00    -0.158 A  
HETATM   24  C   UNL     1      -9.092   8.613  67.112  1.00  0.00    -0.133 A  
HETATM   25  C   UNL     1      -9.667   9.212  68.241  1.00  0.00    -0.171 A  
HETATM   26  N   UNL     1      -8.632   7.320  66.804  1.00  0.00    -0.123 NA 
HETATM   27  C   UNL     1      -9.846  10.543  67.909  1.00  0.00    -0.160 A  
HETATM   28  N   UNL     1      -9.429  10.736  66.609  1.00  0.00    -0.172 NA 
HETATM   29  H   UNL     1      -9.429  11.628  66.115  1.00  0.00     0.000 HD 
ENDBRANCH   6  17
ENDBRANCH   2   3
TORSDOF 5
ENDMDL
MODEL      197
REMARK 921   NORMALIZED FREE ENERGY PREDICTED BY IDOCK:   -3.91 KCAL/MOL
REMARK 922        TOTAL FREE ENERGY PREDICTED BY IDOCK:   -5.27 KCAL/MOL
REMARK 923 INTER-LIGAND FREE ENERGY PREDICTED BY IDOCK:   -6.40 KCAL/MOL
REMARK 924 INTRA-LIGAND FREE ENERGY PREDICTED BY IDOCK:    1.13 KCAL/MOL
REMARK 927      BINDING AFFINITY PREDICTED BY RF-SCORE:    0.00 PKD
ROOT
HETATM    1  C   UNL     1      -6.478  13.976  69.706  1.00  0.00    -0.115 C  
HETATM    2  C   UNL     1      -6.650  12.473  69.891  1.00  0.00     0.126 C  
ENDROOT
BRANCH   2   3
HETATM    3  C   UNL     1      -6.943  11.727  68.570  1.00  0.00    -0.083 C  
HETATM    4  C   UNL     1      -7.501  12.665  67.497  1.00  0.00    -0.155 C  
HETATM    5  N   UNL     1      -8.914  12.717  67.798  1.00  0.00    -0.179 N  
HETATM    6  C   UNL     1      -8.056  10.636  68.655  1.00  0.00    -0.132 C  
HETATM    7  C   UNL     1      -9.350  11.442  68.347  1.00  0.00    -0.194 C  
BRANCH   5   8
HETATM    8  C   UNL     1      -9.603  13.903  67.738  1.00  0.00    -0.222 C  
HETATM    9  O   UNL     1      -9.095  14.986  68.006  1.00  0.00    -0.174 OA 
BRANCH   8  10
HETATM   10  N   UNL     1     -10.906  13.810  67.332  1.00  0.00    -0.274 N  
HETATM   11  H   UNL     1     -11.447  12.971  67.543  1.00  0.00     0.000 HD 
BRANCH  10  12
HETATM   12  C   UNL     1     -11.526  14.914  66.595  1.00  0.00    -0.296 C  
HETATM   13  F   UNL     1     -10.495  13.902  64.677  1.00  0.00    -0.385 F  
HETATM   14  C   UNL     1     -11.320  14.899  65.074  1.00  0.00    -0.398 C  
HETATM   15  F   UNL     1     -12.483  14.776  64.400  1.00  0.00    -0.480 F  
HETATM   16  F   UNL     1     -10.745  16.063  64.674  1.00  0.00    -0.431 F  
ENDBRANCH  10  12
ENDBRANCH   8  10
ENDBRANCH   5   8
BRANCH   6  17
HETATM   17  C   UNL     1      -8.131   9.867  69.946  1.00  0.00    -0.188 A  
HETATM   18  N   UNL     1      -7.649   8.435  71.676  1.00  0.00    -0.096 NA 
HETATM   19  C   UNL     1      -7.137   9.237  70.689  1.00  0.00    -0.111 A  
HETATM   20  C   UNL     1      -8.948   8.599  71.577  1.00  0.00    -0.234 A  
HETATM   21  C   UNL     1      -9.978   7.900  72.320  1.00  0.00    -0.219 A  
HETATM   22  N   UNL     1     -11.258   8.154  72.182  1.00  0.00    -0.303 NA 
HETATM   23  C   UNL     1     -11.519   9.159  71.303  1.00  0.00    -0.335 A  
HETATM   24  C   UNL     1     -10.641   9.910  70.542  1.00  0.00    -0.293 A  
HETATM   25  C   UNL     1     -11.354  10.904  69.855  1.00  0.00    -0.381 A  
HETATM   26  N   UNL     1      -9.284   9.557  70.642  1.00  0.00    -0.231 NA 
HETATM   27  C   UNL     1     -12.688  10.675  70.144  1.00  0.00    -0.159 A  
HETATM   28  N   UNL     1     -12.778   9.603  71.006  1.00  0.00    -0.457 NA 
HETATM   29  H   UNL     1     -13.646   9.205  71.365  1.00  0.00     0.000 HD 
ENDBRANCH   6  17
ENDBRANCH   2   3
TORSDOF 5
ENDMDL
MODEL      198
REMARK 921   NORMALIZED FREE ENERGY PREDICTED BY IDOCK:   -3.81 KCAL/MOL
REMARK 922        TOTAL FREE ENERGY PREDICTED BY IDOCK:   -5.15 KCAL/MOL
REMARK 923 INTER-LIGAND FREE ENERGY PREDICTED BY IDOCK:   -4.22 KCAL/MOL
REMARK 924 INTRA-LIGAND FREE ENERGY PREDICTED BY IDOCK:   -0.93 KCAL/MOL
REMARK 927      BINDING AFFINITY PREDICTED BY RF-SCORE:    0.00 PKD
ROOT
HETATM    1  C   UNL     1     -11.507   6.506  68.855  1.00  0.00    -0.150 C  
HETATM    2  C   UNL     1     -10.147   6.995  68.368  1.00  0.00    -0.176 C  
ENDROOT
BRANCH   2   3
HETATM    3  C   UNL     1      -8.964   6.356  69.129  1.00  0.00    -0.129 C  
HETATM    4  C   UNL     1      -9.350   5.960  70.556  1.00  0.00    -0.163 C  
HETATM    5  N   UNL     1      -9.184   7.187  71.302  1.00  0.00    -0.151 N  
HETATM    6  C   UNL     1      -7.744   7.298  69.375  1.00  0.00    -0.107 C  
HETATM    7  C   UNL     1      -8.099   7.969  70.732  1.00  0.00    -0.101 C  
BRANCH   5   8
HETATM    8  C   UNL     1     -10.102   7.562  72.252  1.00  0.00    -0.199 C  
HETATM    9  O   UNL     1     -10.051   7.186  73.417  1.00  0.00    -0.234 OA 
BRANCH   8  10
HETATM   10  N   UNL     1     -11.082   8.414  71.822  1.00  0.00    -0.269 N  
HETATM   11  H   UNL     1     -10.831   9.290  71.363  1.00  0.00     0.000 HD 
BRANCH  10  12
HETATM   12  C   UNL     1     -12.492   8.070  72.022  1.00  0.00    -0.320 C  
HETATM   13  F   UNL     1     -12.876  10.407  71.623  1.00  0.00    -0.427 F  
HETATM   14  C   UNL     1     -13.491   9.222  71.839  1.00  0.00    -0.430 C  
HETATM   15  F   UNL     1     -14.348   9.001  70.821  1.00  0.00    -0.270 F  
HETATM   16  F   UNL     1     -14.236   9.370  72.966  1.00  0.00    -0.276 F  
ENDBRANCH  10  12
ENDBRANCH   8  10
ENDBRANCH   5   8
BRANCH   6  17
HETATM   17  C   UNL     1      -7.445   8.291  68.284  1.00  0.00    -0.097 A  
HETATM   18  N   UNL     1      -7.397  10.205  67.016  1.00  0.00    -0.091 NA 
HETATM   19  C   UNL     1      -7.508   9.682  68.278  1.00  0.00    -0.077 A  
HETATM   20  C   UNL     1      -7.221   9.153  66.249  1.00  0.00    -0.091 A  
HETATM   21  C   UNL     1      -7.150   9.127  64.801  1.00  0.00    -0.096 A  
HETATM   22  N   UNL     1      -6.936   8.029  64.115  1.00  0.00    -0.068 NA 
HETATM   23  C   UNL     1      -6.754   6.929  64.895  1.00  0.00    -0.046 A  
HETATM   24  C   UNL     1      -6.785   6.815  66.273  1.00  0.00    -0.052 A  
HETATM   25  C   UNL     1      -6.443   5.506  66.640  1.00  0.00    -0.050 A  
HETATM   26  N   UNL     1      -7.105   7.988  66.980  1.00  0.00    -0.080 NA 
HETATM   27  C   UNL     1      -6.297   4.811  65.452  1.00  0.00    -0.035 A  
HETATM   28  N   UNL     1      -6.507   5.678  64.401  1.00  0.00    -0.036 NA 
HETATM   29  H   UNL     1      -6.483   5.426  63.413  1.00  0.00     0.000 HD 
ENDBRANCH   6  17
ENDBRANCH   2   3
TORSDOF 5
ENDMDL
MODEL      199
REMARK 921   NORMALIZED FREE ENERGY PREDICTED BY IDOCK:   -3.78 KCAL/MOL
REMARK 922        TOTAL FREE ENERGY PREDICTED BY IDOCK:   -5.11 KCAL/MOL
REMARK 923 INTER-LIGAND FREE ENERGY PREDICTED BY IDOCK:   -5.51 KCAL/MOL
REMARK 924 INTRA-LIGAND FREE ENERGY PREDICTED BY IDOCK:    0.41 KCAL/MOL
REMARK 927      BINDING AFFINITY PREDICTED BY RF-SCORE:    0.00 PKD
ROOT
HETATM    1  C   UNL     1      -8.224   7.261  72.469  1.00  0.00    -0.122 C  
HETATM    2  C   UNL     1      -8.677   6.818  71.082  1.00  0.00    -0.136 C  
ENDROOT
BRANCH   2   3
HETATM    3  C   UNL     1      -9.846   5.808  71.116  1.00  0.00    -0.227 C  
HETATM    4  C   UNL     1      -9.646   4.671  70.112  1.00  0.00    -0.196 C  
HETATM    5  N   UNL     1     -10.144   5.225  68.873  1.00  0.00    -0.184 N  
HETATM    6  C   UNL     1     -11.233   6.380  70.685  1.00  0.00    -0.400 C  
HETATM    7  C   UNL     1     -11.235   6.147  69.148  1.00  0.00    -0.339 C  
BRANCH   5   8
HETATM    8  C   UNL     1      -9.480   5.013  67.691  1.00  0.00    -0.132 C  
HETATM    9  O   UNL     1      -9.942   4.342  66.774  1.00  0.00    -0.223 OA 
BRANCH   8  10
HETATM   10  N   UNL     1      -8.261   5.622  67.580  1.00  0.00    -0.101 N  
HETATM   11  H   UNL     1      -7.804   6.003  68.409  1.00  0.00     0.000 HD 
BRANCH  10  12
HETATM   12  C   UNL     1      -7.609   5.729  66.272  1.00  0.00    -0.091 C  
HETATM   13  F   UNL     1      -5.695   4.835  67.415  1.00  0.00    -0.017 F  
HETATM   14  C   UNL     1      -6.165   5.212  66.203  1.00  0.00    -0.031 C  
HETATM   15  F   UNL     1      -6.033   4.169  65.357  1.00  0.00    -0.020 F  
HETATM   16  F   UNL     1      -5.343   6.198  65.757  1.00  0.00    -0.012 F  
ENDBRANCH  10  12
ENDBRANCH   8  10
ENDBRANCH   5   8
BRANCH   6  17
HETATM   17  C   UNL     1     -11.506   7.810  71.068  1.00  0.00    -0.281 A  
HETATM   18  N   UNL     1     -12.344   9.678  72.108  1.00  0.00    -0.292 NA 
HETATM   19  C   UNL     1     -12.012   8.355  72.244  1.00  0.00    -0.389 A  
HETATM   20  C   UNL     1     -12.007   9.965  70.870  1.00  0.00    -0.345 A  
HETATM   21  C   UNL     1     -12.239  11.210  70.166  1.00  0.00    -0.337 A  
HETATM   22  N   UNL     1     -11.835  11.422  68.936  1.00  0.00    -0.353 NA 
HETATM   23  C   UNL     1     -11.148  10.375  68.402  1.00  0.00    -0.268 A  
HETATM   24  C   UNL     1     -10.849   9.146  68.961  1.00  0.00    -0.090 A  
HETATM   25  C   UNL     1     -10.035   8.420  68.080  1.00  0.00    -0.221 A  
HETATM   26  N   UNL     1     -11.371   8.911  70.246  1.00  0.00    -0.210 NA 
HETATM   27  C   UNL     1      -9.929   9.199  66.941  1.00  0.00    -0.238 A  
HETATM   28  N   UNL     1     -10.624  10.373  67.139  1.00  0.00    -0.256 NA 
HETATM   29  H   UNL     1     -10.730  11.120  66.453  1.00  0.00     0.000 HD 
ENDBRANCH   6  17
ENDBRANCH   2   3
TORSDOF 5
ENDMDL
MODEL      200
REMARK 921   NORMALIZED FREE ENERGY PREDICTED BY IDOCK:   -3.78 KCAL/MOL
REMARK 922        TOTAL FREE ENERGY PREDICTED BY IDOCK:   -5.10 KCAL/MOL
REMARK 923 INTER-LIGAND FREE ENERGY PREDICTED BY IDOCK:   -6.18 KCAL/MOL
REMARK 924 INTRA-LIGAND FREE ENERGY PREDICTED BY IDOCK:    1.08 KCAL/MOL
REMARK 927      BINDING AFFINITY PREDICTED BY RF-SCORE:    0.00 PKD
ROOT
HETATM    1  C   UNL     1     -11.507   6.848  70.957  1.00  0.00    -0.358 C  
HETATM    2  C   UNL     1     -10.928   7.640  69.790  1.00  0.00    -0.178 C  
ENDROOT
BRANCH   2   3
HETATM    3  C   UNL     1      -9.904   8.711  70.229  1.00  0.00    -0.195 C  
HETATM    4  C   UNL     1     -10.560   9.821  71.054  1.00  0.00    -0.225 C  
HETATM    5  N   UNL     1     -11.088  10.718  70.052  1.00  0.00    -0.277 N  
HETATM    6  C   UNL     1      -9.246   9.519  69.067  1.00  0.00    -0.155 C  
HETATM    7  C   UNL     1     -10.230  10.708  68.878  1.00  0.00    -0.201 C  
BRANCH   5   8
HETATM    8  C   UNL     1     -12.331  11.282  70.198  1.00  0.00    -0.276 C  
HETATM    9  O   UNL     1     -13.348  10.795  69.716  1.00  0.00     0.107 OA 
BRANCH   8  10
HETATM   10  N   UNL     1     -12.376  12.426  70.945  1.00  0.00    -0.379 N  
HETATM   11  H   UNL     1     -12.050  12.418  71.912  1.00  0.00     0.000 HD 
BRANCH  10  12
HETATM   12  C   UNL     1     -12.893  13.666  70.359  1.00  0.00    -0.042 C  
HETATM   13  F   UNL     1     -11.966  14.703  72.317  1.00  0.00    -0.388 F  
HETATM   14  C   UNL     1     -12.585  14.952  71.139  1.00  0.00    -0.335 C  
HETATM   15  F   UNL     1     -11.819  15.810  70.434  1.00  0.00    -0.288 F  
HETATM   16  F   UNL     1     -13.742  15.598  71.438  1.00  0.00    -0.530 F  
ENDBRANCH  10  12
ENDBRANCH   8  10
ENDBRANCH   5   8
BRANCH   6  17
HETATM   17  C   UNL     1      -8.988   8.756  67.795  1.00  0.00    -0.135 A  
HETATM   18  N   UNL     1      -8.177   7.234  66.279  1.00  0.00    -0.117 NA 
HETATM   19  C   UNL     1      -8.502   7.468  67.590  1.00  0.00    -0.117 A  
HETATM   20  C   UNL     1      -8.500   8.351  65.667  1.00  0.00    -0.164 A  
HETATM   21  C   UNL     1      -8.268   8.685  64.275  1.00  0.00    -0.158 A  
HETATM   22  N   UNL     1      -8.657   9.816  63.737  1.00  0.00    -0.183 NA 
HETATM   23  C   UNL     1      -9.329  10.625  64.601  1.00  0.00    -0.238 A  
HETATM   24  C   UNL     1      -9.627  10.428  65.936  1.00  0.00    -0.206 A  
HETATM   25  C   UNL     1     -10.424  11.486  66.397  1.00  0.00    -0.292 A  
HETATM   26  N   UNL     1      -9.120   9.249  66.512  1.00  0.00    -0.147 NA 
HETATM   27  C   UNL     1     -10.521  12.370  65.337  1.00  0.00    -0.277 A  
HETATM   28  N   UNL     1      -9.837  11.848  64.259  1.00  0.00    -0.422 NA 
HETATM   29  H   UNL     1      -9.727  12.303  63.353  1.00  0.00     0.000 HD 
ENDBRANCH   6  17
ENDBRANCH   2   3
TORSDOF 5
ENDMDL
MODEL      201
REMARK 921   NORMALIZED FREE ENERGY PREDICTED BY IDOCK:   -3.76 KCAL/MOL
REMARK 922        TOTAL FREE ENERGY PREDICTED BY IDOCK:   -5.07 KCAL/MOL
REMARK 923 INTER-LIGAND FREE ENERGY PREDICTED BY IDOCK:   -4.22 KCAL/MOL
REMARK 924 INTRA-LIGAND FREE ENERGY PREDICTED BY IDOCK:   -0.85 KCAL/MOL
REMARK 927      BINDING AFFINITY PREDICTED BY RF-SCORE:    0.00 PKD
ROOT
HETATM    1  C   UNL     1      -7.193   6.532  68.599  1.00  0.00    -0.085 C  
HETATM    2  C   UNL     1      -7.880   7.827  68.181  1.00  0.00    -0.121 C  
ENDROOT
BRANCH   2   3
HETATM    3  C   UNL     1      -9.410   7.801  68.393  1.00  0.00    -0.143 C  
HETATM    4  C   UNL     1     -10.162   8.369  67.188  1.00  0.00    -0.292 C  
HETATM    5  N   UNL     1     -10.142   9.796  67.421  1.00  0.00    -0.194 N  
HETATM    6  C   UNL     1      -9.937   8.699  69.555  1.00  0.00    -0.196 C  
HETATM    7  C   UNL     1     -10.179  10.064  68.850  1.00  0.00    -0.193 C  
BRANCH   5   8
HETATM    8  C   UNL     1      -9.905  10.673  66.392  1.00  0.00    -0.211 C  
HETATM    9  O   UNL     1     -10.743  11.473  65.988  1.00  0.00    -0.268 OA 
BRANCH   8  10
HETATM   10  N   UNL     1      -8.652  10.620  65.846  1.00  0.00    -0.167 N  
HETATM   11  H   UNL     1      -7.831  10.703  66.446  1.00  0.00     0.000 HD 
BRANCH  10  12
HETATM   12  C   UNL     1      -8.488  10.445  64.401  1.00  0.00    -0.163 C  
HETATM   13  F   UNL     1      -8.002   8.163  64.970  1.00  0.00    -0.106 F  
HETATM   14  C   UNL     1      -8.178   9.015  63.934  1.00  0.00    -0.172 C  
HETATM   15  F   UNL     1      -9.144   8.515  63.136  1.00  0.00     0.044 F  
HETATM   16  F   UNL     1      -7.021   9.004  63.220  1.00  0.00    -0.091 F  
ENDBRANCH  10  12
ENDBRANCH   8  10
ENDBRANCH   5   8
BRANCH   6  17
HETATM   17  C   UNL     1      -9.046   8.807  70.763  1.00  0.00    -0.192 A  
HETATM   18  N   UNL     1      -7.239   9.200  72.126  1.00  0.00    -0.310 NA 
HETATM   19  C   UNL     1      -7.902   9.569  70.984  1.00  0.00     0.146 A  
HETATM   20  C   UNL     1      -7.988   8.248  72.635  1.00  0.00    -0.137 A  
HETATM   21  C   UNL     1      -7.696   7.431  73.796  1.00  0.00    -0.112 A  
HETATM   22  N   UNL     1      -8.522   6.521  74.257  1.00  0.00    -0.130 NA 
HETATM   23  C   UNL     1      -9.689   6.446  73.561  1.00  0.00    -0.173 A  
HETATM   24  C   UNL     1     -10.097   7.165  72.452  1.00  0.00    -0.182 A  
HETATM   25  C   UNL     1     -11.419   6.820  72.136  1.00  0.00    -0.319 A  
HETATM   26  N   UNL     1      -9.158   8.069  71.925  1.00  0.00    -0.142 NA 
HETATM   27  C   UNL     1     -11.765   5.812  73.018  1.00  0.00     0.022 A  
HETATM   28  N   UNL     1     -10.702   5.579  73.864  1.00  0.00    -0.335 NA 
HETATM   29  H   UNL     1     -10.676   4.872  74.599  1.00  0.00     0.000 HD 
ENDBRANCH   6  17
ENDBRANCH   2   3
TORSDOF 5
ENDMDL
MODEL      202
REMARK 921   NORMALIZED FREE ENERGY PREDICTED BY IDOCK:   -3.73 KCAL/MOL
REMARK 922        TOTAL FREE ENERGY PREDICTED BY IDOCK:   -5.04 KCAL/MOL
REMARK 923 INTER-LIGAND FREE ENERGY PREDICTED BY IDOCK:   -5.60 KCAL/MOL
REMARK 924 INTRA-LIGAND FREE ENERGY PREDICTED BY IDOCK:    0.56 KCAL/MOL
REMARK 927      BINDING AFFINITY PREDICTED BY RF-SCORE:    0.00 PKD
ROOT
HETATM    1  C   UNL     1      -6.722  11.475  66.833  1.00  0.00    -0.139 C  
HETATM    2  C   UNL     1      -7.507  12.738  67.171  1.00  0.00    -0.037 C  
ENDROOT
BRANCH   2   3
HETATM    3  C   UNL     1      -8.363  12.599  68.450  1.00  0.00    -0.125 C  
HETATM    4  C   UNL     1      -8.643  11.134  68.791  1.00  0.00    -0.132 C  
HETATM    5  N   UNL     1      -9.790  10.810  67.973  1.00  0.00    -0.162 N  
HETATM    6  C   UNL     1      -9.805  13.189  68.353  1.00  0.00    -0.206 C  
HETATM    7  C   UNL     1     -10.631  11.987  67.814  1.00  0.00    -0.207 C  
BRANCH   5   8
HETATM    8  C   UNL     1      -9.869   9.607  67.318  1.00  0.00    -0.175 C  
HETATM    9  O   UNL     1     -10.773   9.328  66.537  1.00  0.00    -0.107 OA 
BRANCH   8  10
HETATM   10  N   UNL     1      -8.852   8.728  67.570  1.00  0.00    -0.134 N  
HETATM   11  H   UNL     1      -8.362   8.759  68.464  1.00  0.00     0.000 HD 
BRANCH  10  12
HETATM   12  C   UNL     1      -8.465   7.743  66.556  1.00  0.00    -0.132 C  
HETATM   13  F   UNL     1      -7.749   6.435  68.439  1.00  0.00    -0.095 F  
HETATM   14  C   UNL     1      -7.896   6.422  67.094  1.00  0.00    -0.108 C  
HETATM   15  F   UNL     1      -8.663   5.362  66.765  1.00  0.00    -0.114 F  
HETATM   16  F   UNL     1      -6.662   6.204  66.570  1.00  0.00    -0.052 F  
ENDBRANCH  10  12
ENDBRANCH   8  10
ENDBRANCH   5   8
BRANCH   6  17
HETATM   17  C   UNL     1      -9.956  14.432  67.519  1.00  0.00    -0.224 A  
HETATM   18  N   UNL     1     -10.263  16.615  66.874  1.00  0.00    -0.286 NA 
HETATM   19  C   UNL     1      -9.792  15.775  67.849  1.00  0.00    -0.217 A  
HETATM   20  C   UNL     1     -10.675  15.803  65.926  1.00  0.00    -0.313 A  
HETATM   21  C   UNL     1     -11.362  16.165  64.702  1.00  0.00    -0.282 A  
HETATM   22  N   UNL     1     -11.708  15.287  63.790  1.00  0.00    -0.043 NA 
HETATM   23  C   UNL     1     -11.327  14.015  64.089  1.00  0.00    -0.153 A  
HETATM   24  C   UNL     1     -10.665  13.537  65.205  1.00  0.00    -0.341 A  
HETATM   25  C   UNL     1     -10.394  12.172  65.036  1.00  0.00    -0.320 A  
HETATM   26  N   UNL     1     -10.386  14.484  66.207  1.00  0.00    -0.285 NA 
HETATM   27  C   UNL     1     -10.991  11.818  63.838  1.00  0.00    -0.407 A  
HETATM   28  N   UNL     1     -11.571  12.938  63.283  1.00  0.00    -0.802 NA 
HETATM   29  H   UNL     1     -12.097  12.959  62.410  1.00  0.00     0.000 HD 
ENDBRANCH   6  17
ENDBRANCH   2   3
TORSDOF 5
ENDMDL
MODEL      203
REMARK 921   NORMALIZED FREE ENERGY PREDICTED BY IDOCK:   -3.68 KCAL/MOL
REMARK 922        TOTAL FREE ENERGY PREDICTED BY IDOCK:   -4.98 KCAL/MOL
REMARK 923 INTER-LIGAND FREE ENERGY PREDICTED BY IDOCK:   -4.11 KCAL/MOL
REMARK 924 INTRA-LIGAND FREE ENERGY PREDICTED BY IDOCK:   -0.87 KCAL/MOL
REMARK 927      BINDING AFFINITY PREDICTED BY RF-SCORE:    0.00 PKD
ROOT
HETATM    1  C   UNL     1     -10.567   9.905  70.400  1.00  0.00    -0.364 C  
HETATM    2  C   UNL     1      -9.741   9.350  69.244  1.00  0.00    -0.173 C  
ENDROOT
BRANCH   2   3
HETATM    3  C   UNL     1      -8.221   9.558  69.428  1.00  0.00    -0.126 C  
HETATM    4  C   UNL     1      -7.857  11.042  69.526  1.00  0.00     0.096 C  
HETATM    5  N   UNL     1      -7.761  11.457  68.145  1.00  0.00    -0.111 N  
HETATM    6  C   UNL     1      -7.336   9.088  68.232  1.00  0.00    -0.082 C  
HETATM    7  C   UNL     1      -7.279  10.353  67.329  1.00  0.00    -0.089 C  
BRANCH   5   8
HETATM    8  C   UNL     1      -8.273  12.662  67.735  1.00  0.00    -0.171 C  
HETATM    9  O   UNL     1      -7.590  13.541  67.220  1.00  0.00    -0.149 OA 
BRANCH   8  10
HETATM   10  N   UNL     1      -9.619  12.824  67.917  1.00  0.00    -0.205 N  
HETATM   11  H   UNL     1      -9.968  13.601  68.478  1.00  0.00     0.000 HD 
BRANCH  10  12
HETATM   12  C   UNL     1     -10.560  11.883  67.304  1.00  0.00    -0.228 C  
HETATM   13  F   UNL     1      -9.911  12.937  65.246  1.00  0.00    -0.278 F  
HETATM   14  C   UNL     1     -10.654  11.936  65.772  1.00  0.00    -0.267 C  
HETATM   15  F   UNL     1     -10.269  10.778  65.195  1.00  0.00    -0.301 F  
HETATM   16  F   UNL     1     -11.939  12.166  65.396  1.00  0.00    -0.418 F  
ENDBRANCH  10  12
ENDBRANCH   8  10
ENDBRANCH   5   8
BRANCH   6  17
HETATM   17  C   UNL     1      -7.810   7.860  67.501  1.00  0.00    -0.122 A  
HETATM   18  N   UNL     1      -8.821   6.470  65.978  1.00  0.00    -0.154 NA 
HETATM   19  C   UNL     1      -8.236   7.692  66.186  1.00  0.00    -0.124 A  
HETATM   20  C   UNL     1      -8.720   5.866  67.140  1.00  0.00    -0.108 A  
HETATM   21  C   UNL     1      -9.273   4.578  67.508  1.00  0.00    -0.137 A  
HETATM   22  N   UNL     1      -9.092   4.032  68.687  1.00  0.00    -0.122 NA 
HETATM   23  C   UNL     1      -8.308   4.775  69.514  1.00  0.00    -0.082 A  
HETATM   24  C   UNL     1      -7.713   6.003  69.290  1.00  0.00    -0.095 A  
HETATM   25  C   UNL     1      -6.912   6.340  70.391  1.00  0.00    -0.063 A  
HETATM   26  N   UNL     1      -7.996   6.607  68.052  1.00  0.00    -0.109 NA 
HETATM   27  C   UNL     1      -7.112   5.335  71.320  1.00  0.00    -0.064 A  
HETATM   28  N   UNL     1      -7.975   4.402  70.787  1.00  0.00    -0.063 NA 
HETATM   29  H   UNL     1      -8.312   3.567  71.266  1.00  0.00     0.000 HD 
ENDBRANCH   6  17
ENDBRANCH   2   3
TORSDOF 5
ENDMDL
MODEL      204
REMARK 921   NORMALIZED FREE ENERGY PREDICTED BY IDOCK:   -3.68 KCAL/MOL
REMARK 922        TOTAL FREE ENERGY PREDICTED BY IDOCK:   -4.97 KCAL/MOL
REMARK 923 INTER-LIGAND FREE ENERGY PREDICTED BY IDOCK:   -6.62 KCAL/MOL
REMARK 924 INTRA-LIGAND FREE ENERGY PREDICTED BY IDOCK:    1.65 KCAL/MOL
REMARK 927      BINDING AFFINITY PREDICTED BY RF-SCORE:    0.00 PKD
ROOT
HETATM    1  C   UNL     1      -6.923  13.686  67.461  1.00  0.00    -0.157 C  
HETATM    2  C   UNL     1      -6.717  14.343  68.821  1.00  0.00    -0.093 C  
ENDROOT
BRANCH   2   3
HETATM    3  C   UNL     1      -8.023  14.899  69.432  1.00  0.00    -0.123 C  
HETATM    4  C   UNL     1      -9.223  14.001  69.125  1.00  0.00     0.279 C  
HETATM    5  N   UNL     1      -9.639  14.433  67.809  1.00  0.00    -0.212 N  
HETATM    6  C   UNL     1      -8.493  16.273  68.860  1.00  0.00    -0.253 C  
HETATM    7  C   UNL     1      -9.377  15.855  67.651  1.00  0.00    -0.217 C  
BRANCH   5   8
HETATM    8  C   UNL     1     -10.012  13.520  66.855  1.00  0.00    -0.256 C  
HETATM    9  O   UNL     1      -9.890  13.722  65.651  1.00  0.00    -0.268 OA 
BRANCH   8  10
HETATM   10  N   UNL     1     -10.516  12.341  67.329  1.00  0.00    -0.216 N  
HETATM   11  H   UNL     1     -10.009  11.470  67.173  1.00  0.00     0.000 HD 
BRANCH  10  12
HETATM   12  C   UNL     1     -11.784  12.328  68.064  1.00  0.00    -0.356 C  
HETATM   13  F   UNL     1     -10.567  11.029  69.676  1.00  0.00    -0.253 F  
HETATM   14  C   UNL     1     -11.757  11.623  69.427  1.00  0.00    -0.340 C  
HETATM   15  F   UNL     1     -12.029  12.465  70.446  1.00  0.00    -0.397 F  
HETATM   16  F   UNL     1     -12.695  10.640  69.457  1.00  0.00    -0.328 F  
ENDBRANCH  10  12
ENDBRANCH   8  10
ENDBRANCH   5   8
BRANCH   6  17
HETATM   17  C   UNL     1      -7.403  17.242  68.489  1.00  0.00    -0.235 A  
HETATM   18  N   UNL     1      -5.389  18.342  68.386  1.00  0.00    -0.168 NA 
HETATM   19  C   UNL     1      -6.020  17.145  68.609  1.00  0.00    -0.150 A  
HETATM   20  C   UNL     1      -6.368  19.166  68.086  1.00  0.00    -0.219 A  
HETATM   21  C   UNL     1      -6.271  20.594  67.859  1.00  0.00    -0.294 A  
HETATM   22  N   UNL     1      -7.300  21.337  67.528  1.00  0.00    -0.418 NA 
HETATM   23  C   UNL     1      -8.455  20.632  67.384  1.00  0.00    -0.213 A  
HETATM   24  C   UNL     1      -8.684  19.279  67.557  1.00  0.00    -0.299 A  
HETATM   25  C   UNL     1     -10.007  18.982  67.200  1.00  0.00    -0.403 A  
HETATM   26  N   UNL     1      -7.585  18.521  67.999  1.00  0.00    -0.250 NA 
HETATM   27  C   UNL     1     -10.596  20.198  66.899  1.00  0.00    -0.214 A  
HETATM   28  N   UNL     1      -9.652  21.193  67.033  1.00  0.00    -0.569 NA 
HETATM   29  H   UNL     1      -9.820  22.189  66.893  1.00  0.00     0.000 HD 
ENDBRANCH   6  17
ENDBRANCH   2   3
TORSDOF 5
ENDMDL
MODEL      205
REMARK 921   NORMALIZED FREE ENERGY PREDICTED BY IDOCK:   -3.66 KCAL/MOL
REMARK 922        TOTAL FREE ENERGY PREDICTED BY IDOCK:   -4.95 KCAL/MOL
REMARK 923 INTER-LIGAND FREE ENERGY PREDICTED BY IDOCK:   -5.71 KCAL/MOL
REMARK 924 INTRA-LIGAND FREE ENERGY PREDICTED BY IDOCK:    0.75 KCAL/MOL
REMARK 927      BINDING AFFINITY PREDICTED BY RF-SCORE:    0.00 PKD
ROOT
HETATM    1  C   UNL     1     -10.140   8.292  70.111  1.00  0.00    -0.191 C  
HETATM    2  C   UNL     1     -10.774   6.938  69.812  1.00  0.00    -0.276 C  
ENDROOT
BRANCH   2   3
HETATM    3  C   UNL     1     -11.307   6.223  71.074  1.00  0.00    -0.378 C  
HETATM    4  C   UNL     1     -12.667   6.773  71.508  1.00  0.00    -0.290 C  
HETATM    5  N   UNL     1     -12.325   7.936  72.295  1.00  0.00    -0.287 N  
HETATM    6  C   UNL     1     -10.451   6.424  72.363  1.00  0.00    -0.222 C  
HETATM    7  C   UNL     1     -11.062   7.713  72.982  1.00  0.00    -0.381 C  
BRANCH   5   8
HETATM    8  C   UNL     1     -13.040   9.101  72.176  1.00  0.00    -0.446 C  
HETATM    9  O   UNL     1     -14.201   9.216  72.553  1.00  0.00    -0.512 OA 
BRANCH   8  10
HETATM   10  N   UNL     1     -12.365  10.154  71.623  1.00  0.00    -0.397 N  
HETATM   11  H   UNL     1     -11.444  10.412  71.976  1.00  0.00     0.000 HD 
BRANCH  10  12
HETATM   12  C   UNL     1     -12.965  10.913  70.522  1.00  0.00    -0.136 C  
HETATM   13  F   UNL     1     -10.689  11.403  69.931  1.00  0.00    -0.178 F  
HETATM   14  C   UNL     1     -11.976  11.560  69.542  1.00  0.00    -0.335 C  
HETATM   15  F   UNL     1     -12.100  11.071  68.290  1.00  0.00    -0.342 F  
HETATM   16  F   UNL     1     -12.201  12.898  69.475  1.00  0.00    -0.326 F  
ENDBRANCH  10  12
ENDBRANCH   8  10
ENDBRANCH   5   8
BRANCH   6  17
HETATM   17  C   UNL     1      -8.962   6.512  72.161  1.00  0.00    -0.139 A  
HETATM   18  N   UNL     1      -6.828   7.325  71.916  1.00  0.00    -0.058 NA 
HETATM   19  C   UNL     1      -8.058   7.519  72.489  1.00  0.00    -0.104 A  
HETATM   20  C   UNL     1      -6.952   6.185  71.275  1.00  0.00    -0.072 A  
HETATM   21  C   UNL     1      -5.974   5.558  70.407  1.00  0.00    -0.025 A  
HETATM   22  N   UNL     1      -6.170   4.395  69.832  1.00  0.00    -0.026 NA 
HETATM   23  C   UNL     1      -7.360   3.822  70.159  1.00  0.00    -0.042 A  
HETATM   24  C   UNL     1      -8.370   4.300  70.974  1.00  0.00    -0.084 A  
HETATM   25  C   UNL     1      -9.368   3.323  71.100  1.00  0.00    -0.210 A  
HETATM   26  N   UNL     1      -8.174   5.587  71.505  1.00  0.00    -0.117 NA 
HETATM   27  C   UNL     1      -8.983   2.285  70.268  1.00  0.00    -0.091 A  
HETATM   28  N   UNL     1      -7.775   2.607  69.687  1.00  0.00    -0.043 NA 
HETATM   29  H   UNL     1      -7.271   2.030  69.014  1.00  0.00     0.000 HD 
ENDBRANCH   6  17
ENDBRANCH   2   3
TORSDOF 5
ENDMDL
MODEL      206
REMARK 921   NORMALIZED FREE ENERGY PREDICTED BY IDOCK:   -3.61 KCAL/MOL
REMARK 922        TOTAL FREE ENERGY PREDICTED BY IDOCK:   -4.88 KCAL/MOL
REMARK 923 INTER-LIGAND FREE ENERGY PREDICTED BY IDOCK:   -5.62 KCAL/MOL
REMARK 924 INTRA-LIGAND FREE ENERGY PREDICTED BY IDOCK:    0.74 KCAL/MOL
REMARK 927      BINDING AFFINITY PREDICTED BY RF-SCORE:    0.00 PKD
ROOT
HETATM    1  C   UNL     1      -6.357  13.137  68.424  1.00  0.00    -0.084 C  
HETATM    2  C   UNL     1      -6.928  11.983  69.240  1.00  0.00    -0.028 C  
ENDROOT
BRANCH   2   3
HETATM    3  C   UNL     1      -7.536  10.862  68.368  1.00  0.00    -0.104 C  
HETATM    4  C   UNL     1      -8.668  11.383  67.479  1.00  0.00    -0.140 C  
HETATM    5  N   UNL     1      -9.822  11.350  68.349  1.00  0.00    -0.200 N  
HETATM    6  C   UNL     1      -8.246   9.717  69.155  1.00  0.00    -0.120 C  
HETATM    7  C   UNL     1      -9.704  10.243  69.284  1.00  0.00    -0.225 C  
BRANCH   5   8
HETATM    8  C   UNL     1     -10.730  12.380  68.351  1.00  0.00    -0.235 C  
HETATM    9  O   UNL     1     -11.910  12.231  68.649  1.00  0.00    -0.310 OA 
BRANCH   8  10
HETATM   10  N   UNL     1     -10.231  13.609  68.019  1.00  0.00    -0.242 N  
HETATM   11  H   UNL     1      -9.333  13.682  67.540  1.00  0.00     0.000 HD 
BRANCH  10  12
HETATM   12  C   UNL     1     -10.984  14.821  68.352  1.00  0.00    -0.252 C  
HETATM   13  F   UNL     1      -9.534  14.916  70.264  1.00  0.00     0.046 F  
HETATM   14  C   UNL     1     -10.517  15.574  69.606  1.00  0.00    -0.286 C  
HETATM   15  F   UNL     1     -10.077  16.817  69.324  1.00  0.00    -0.248 F  
HETATM   16  F   UNL     1     -11.551  15.701  70.479  1.00  0.00    -0.255 F  
ENDBRANCH  10  12
ENDBRANCH   8  10
ENDBRANCH   5   8
BRANCH   6  17
HETATM   17  C   UNL     1      -7.632   9.345  70.478  1.00  0.00    -0.150 A  
HETATM   18  N   UNL     1      -6.138   8.683  72.092  1.00  0.00    -0.068 NA 
HETATM   19  C   UNL     1      -6.302   9.315  70.887  1.00  0.00    -0.076 A  
HETATM   20  C   UNL     1      -7.361   8.361  72.451  1.00  0.00    -0.090 A  
HETATM   21  C   UNL     1      -7.756   7.578  73.605  1.00  0.00    -0.117 A  
HETATM   22  N   UNL     1      -9.010   7.334  73.908  1.00  0.00    -0.200 NA 
HETATM   23  C   UNL     1      -9.897   7.915  73.055  1.00  0.00    -0.289 A  
HETATM   24  C   UNL     1      -9.659   8.688  71.933  1.00  0.00    -0.307 A  
HETATM   25  C   UNL     1     -10.878   9.156  71.423  1.00  0.00    -0.419 A  
HETATM   26  N   UNL     1      -8.308   8.859  71.580  1.00  0.00    -0.311 NA 
HETATM   27  C   UNL     1     -11.859   8.572  72.205  1.00  0.00    -0.383 A  
HETATM   28  N   UNL     1     -11.254   7.806  73.179  1.00  0.00    -0.528 NA 
HETATM   29  H   UNL     1     -11.742   7.248  73.879  1.00  0.00     0.000 HD 
ENDBRANCH   6  17
ENDBRANCH   2   3
TORSDOF 5
ENDMDL
MODEL      207
REMARK 921   NORMALIZED FREE ENERGY PREDICTED BY IDOCK:   -3.56 KCAL/MOL
REMARK 922        TOTAL FREE ENERGY PREDICTED BY IDOCK:   -4.82 KCAL/MOL
REMARK 923 INTER-LIGAND FREE ENERGY PREDICTED BY IDOCK:   -5.51 KCAL/MOL
REMARK 924 INTRA-LIGAND FREE ENERGY PREDICTED BY IDOCK:    0.69 KCAL/MOL
REMARK 927      BINDING AFFINITY PREDICTED BY RF-SCORE:    0.00 PKD
ROOT
HETATM    1  C   UNL     1      -7.629   4.983  70.439  1.00  0.00    -0.063 C  
HETATM    2  C   UNL     1      -8.413   6.285  70.323  1.00  0.00    -0.134 C  
ENDROOT
BRANCH   2   3
HETATM    3  C   UNL     1      -7.916   7.383  71.289  1.00  0.00    -0.096 C  
HETATM    4  C   UNL     1      -8.617   7.307  72.647  1.00  0.00    -0.111 C  
HETATM    5  N   UNL     1      -9.847   8.035  72.433  1.00  0.00    -0.221 N  
HETATM    6  C   UNL     1      -8.226   8.848  70.848  1.00  0.00    -0.207 C  
HETATM    7  C   UNL     1      -9.628   9.103  71.470  1.00  0.00    -0.208 C  
BRANCH   5   8
HETATM    8  C   UNL     1     -11.035   7.573  72.943  1.00  0.00    -0.383 C  
HETATM    9  O   UNL     1     -12.101   8.160  72.793  1.00  0.00    -0.337 OA 
BRANCH   8  10
HETATM   10  N   UNL     1     -10.966   6.389  73.623  1.00  0.00    -0.456 N  
HETATM   11  H   UNL     1     -10.481   6.343  74.520  1.00  0.00     0.000 HD 
BRANCH  10  12
HETATM   12  C   UNL     1     -11.587   5.185  73.064  1.00  0.00    -0.223 C  
HETATM   13  F   UNL     1      -9.447   4.175  73.474  1.00  0.00    -0.104 F  
HETATM   14  C   UNL     1     -10.709   3.925  73.053  1.00  0.00    -0.153 C  
HETATM   15  F   UNL     1     -11.220   2.937  73.816  1.00  0.00    -0.270 F  
HETATM   16  F   UNL     1     -10.608   3.445  71.786  1.00  0.00    -0.097 F  
ENDBRANCH  10  12
ENDBRANCH   8  10
ENDBRANCH   5   8
BRANCH   6  17
HETATM   17  C   UNL     1      -8.178   9.117  69.368  1.00  0.00    -0.118 A  
HETATM   18  N   UNL     1      -7.424   9.449  67.224  1.00  0.00    -0.091 NA 
HETATM   19  C   UNL     1      -7.203   8.817  68.420  1.00  0.00    -0.081 A  
HETATM   20  C   UNL     1      -8.549  10.101  67.411  1.00  0.00    -0.122 A  
HETATM   21  C   UNL     1      -9.190  11.022  66.494  1.00  0.00    -0.171 A  
HETATM   22  N   UNL     1     -10.338  11.604  66.750  1.00  0.00    -0.217 NA 
HETATM   23  C   UNL     1     -10.881  11.232  67.941  1.00  0.00    -0.228 A  
HETATM   24  C   UNL     1     -10.387  10.364  68.898  1.00  0.00    -0.209 A  
HETATM   25  C   UNL     1     -11.336  10.206  69.918  1.00  0.00    -0.335 A  
HETATM   26  N   UNL     1      -9.115   9.823  68.639  1.00  0.00    -0.128 NA 
HETATM   27  C   UNL     1     -12.371  11.070  69.602  1.00  0.00    -0.234 A  
HETATM   28  N   UNL     1     -12.076  11.701  68.413  1.00  0.00    -0.518 NA 
HETATM   29  H   UNL     1     -12.656  12.406  67.958  1.00  0.00     0.000 HD 
ENDBRANCH   6  17
ENDBRANCH   2   3
TORSDOF 5
ENDMDL
MODEL      208
REMARK 921   NORMALIZED FREE ENERGY PREDICTED BY IDOCK:   -3.56 KCAL/MOL
REMARK 922        TOTAL FREE ENERGY PREDICTED BY IDOCK:   -4.82 KCAL/MOL
REMARK 923 INTER-LIGAND FREE ENERGY PREDICTED BY IDOCK:   -6.64 KCAL/MOL
REMARK 924 INTRA-LIGAND FREE ENERGY PREDICTED BY IDOCK:    1.82 KCAL/MOL
REMARK 927      BINDING AFFINITY PREDICTED BY RF-SCORE:    0.00 PKD
ROOT
HETATM    1  C   UNL     1     -10.703   7.414  70.091  1.00  0.00    -0.254 C  
HETATM    2  C   UNL     1     -10.252   8.026  68.769  1.00  0.00    -0.220 C  
ENDROOT
BRANCH   2   3
HETATM    3  C   UNL     1      -9.238   9.179  68.947  1.00  0.00    -0.139 C  
HETATM    4  C   UNL     1      -9.893  10.426  69.546  1.00  0.00    -0.184 C  
HETATM    5  N   UNL     1     -10.467  11.090  68.398  1.00  0.00    -0.171 N  
HETATM    6  C   UNL     1      -8.629   9.739  67.624  1.00  0.00    -0.125 C  
HETATM    7  C   UNL     1      -9.642  10.850  67.225  1.00  0.00    -0.164 C  
BRANCH   5   8
HETATM    8  C   UNL     1     -11.716  11.655  68.465  1.00  0.00    -0.315 C  
HETATM    9  O   UNL     1     -12.646  11.153  69.087  1.00  0.00    -0.358 OA 
BRANCH   8  10
HETATM   10  N   UNL     1     -11.863  12.844  67.805  1.00  0.00    -0.354 N  
HETATM   11  H   UNL     1     -12.166  13.675  68.313  1.00  0.00     0.000 HD 
BRANCH  10  12
HETATM   12  C   UNL     1     -11.584  12.925  66.368  1.00  0.00    -0.371 C  
HETATM   13  F   UNL     1     -11.285  15.269  66.798  1.00  0.00    -0.323 F  
HETATM   14  C   UNL     1     -11.198  14.315  65.842  1.00  0.00    -0.319 C  
HETATM   15  F   UNL     1      -9.948  14.342  65.333  1.00  0.00    -0.334 F  
HETATM   16  F   UNL     1     -12.046  14.683  64.846  1.00  0.00    -0.372 F  
ENDBRANCH  10  12
ENDBRANCH   8  10
ENDBRANCH   5   8
BRANCH   6  17
HETATM   17  C   UNL     1      -8.392   8.735  66.528  1.00  0.00    -0.112 A  
HETATM   18  N   UNL     1      -7.609   6.932  65.339  1.00  0.00    -0.088 NA 
HETATM   19  C   UNL     1      -7.916   7.427  66.580  1.00  0.00    -0.121 A  
HETATM   20  C   UNL     1      -7.933   7.906  64.519  1.00  0.00    -0.140 A  
HETATM   21  C   UNL     1      -7.716   7.952  63.086  1.00  0.00    -0.136 A  
HETATM   22  N   UNL     1      -8.106   8.955  62.336  1.00  0.00    -0.145 NA 
HETATM   23  C   UNL     1      -8.761   9.927  63.027  1.00  0.00    -0.218 A  
HETATM   24  C   UNL     1      -9.043  10.004  64.378  1.00  0.00    -0.247 A  
HETATM   25  C   UNL     1      -9.828  11.139  64.626  1.00  0.00    -0.330 A  
HETATM   26  N   UNL     1      -8.537   8.960  65.173  1.00  0.00    -0.176 NA 
HETATM   27  C   UNL     1      -9.933  11.794  63.411  1.00  0.00    -0.423 A  
HETATM   28  N   UNL     1      -9.266  11.061  62.452  1.00  0.00    -0.496 NA 
HETATM   29  H   UNL     1      -9.165  11.323  61.472  1.00  0.00     0.000 HD 
ENDBRANCH   6  17
ENDBRANCH   2   3
TORSDOF 5
ENDMDL
MODEL      209
REMARK 921   NORMALIZED FREE ENERGY PREDICTED BY IDOCK:   -3.47 KCAL/MOL
REMARK 922        TOTAL FREE ENERGY PREDICTED BY IDOCK:   -4.71 KCAL/MOL
REMARK 923 INTER-LIGAND FREE ENERGY PREDICTED BY IDOCK:   -4.80 KCAL/MOL
REMARK 924 INTRA-LIGAND FREE ENERGY PREDICTED BY IDOCK:    0.10 KCAL/MOL
REMARK 927      BINDING AFFINITY PREDICTED BY RF-SCORE:    0.00 PKD
ROOT
HETATM    1  C   UNL     1      -8.806   8.592  71.818  1.00  0.00    -0.281 C  
HETATM    2  C   UNL     1      -9.144   9.412  70.577  1.00  0.00    -0.308 C  
ENDROOT
BRANCH   2   3
HETATM    3  C   UNL     1      -7.994   9.460  69.547  1.00  0.00    -0.098 C  
HETATM    4  C   UNL     1      -7.659  10.894  69.133  1.00  0.00    -0.133 C  
HETATM    5  N   UNL     1      -8.621  11.179  68.092  1.00  0.00    -0.134 N  
HETATM    6  C   UNL     1      -8.305   8.792  68.171  1.00  0.00    -0.122 C  
HETATM    7  C   UNL     1      -8.925   9.962  67.355  1.00  0.00    -0.135 C  
BRANCH   5   8
HETATM    8  C   UNL     1      -9.251  12.396  68.031  1.00  0.00    -0.203 C  
HETATM    9  O   UNL     1      -8.823  13.401  68.589  1.00  0.00    -0.108 OA 
BRANCH   8  10
HETATM   10  N   UNL     1     -10.393  12.434  67.279  1.00  0.00    -0.214 N  
HETATM   11  H   UNL     1     -10.998  11.614  67.230  1.00  0.00     0.000 HD 
BRANCH  10  12
HETATM   12  C   UNL     1     -10.746  13.650  66.542  1.00  0.00    -0.284 C  
HETATM   13  F   UNL     1     -12.744  13.594  67.874  1.00  0.00    -0.092 F  
HETATM   14  C   UNL     1     -12.066  14.318  66.953  1.00  0.00    -0.409 C  
HETATM   15  F   UNL     1     -11.881  15.560  67.447  1.00  0.00    -0.237 F  
HETATM   16  F   UNL     1     -12.882  14.433  65.873  1.00  0.00    -0.456 F  
ENDBRANCH  10  12
ENDBRANCH   8  10
ENDBRANCH   5   8
BRANCH   6  17
HETATM   17  C   UNL     1      -9.183   7.570  68.212  1.00  0.00    -0.138 A  
HETATM   18  N   UNL     1     -10.594   5.908  68.936  1.00  0.00    -0.264 NA 
HETATM   19  C   UNL     1     -10.207   7.214  69.087  1.00  0.00    -0.194 A  
HETATM   20  C   UNL     1      -9.850   5.468  67.947  1.00  0.00    -0.138 A  
HETATM   21  C   UNL     1      -9.779   4.111  67.442  1.00  0.00    -0.154 A  
HETATM   22  N   UNL     1      -9.030   3.766  66.422  1.00  0.00    -0.129 NA 
HETATM   23  C   UNL     1      -8.357   4.809  65.865  1.00  0.00    -0.116 A  
HETATM   24  C   UNL     1      -8.342   6.142  66.235  1.00  0.00    -0.124 A  
HETATM   25  C   UNL     1      -7.585   6.873  65.310  1.00  0.00    -0.099 A  
HETATM   26  N   UNL     1      -9.082   6.468  67.386  1.00  0.00    -0.113 NA 
HETATM   27  C   UNL     1      -7.067   5.940  64.429  1.00  0.00    -0.053 A  
HETATM   28  N   UNL     1      -7.525   4.690  64.786  1.00  0.00    -0.071 NA 
HETATM   29  H   UNL     1      -7.282   3.816  64.320  1.00  0.00     0.000 HD 
ENDBRANCH   6  17
ENDBRANCH   2   3
TORSDOF 5
ENDMDL
MODEL      210
REMARK 921   NORMALIZED FREE ENERGY PREDICTED BY IDOCK:   -3.36 KCAL/MOL
REMARK 922        TOTAL FREE ENERGY PREDICTED BY IDOCK:   -4.57 KCAL/MOL
REMARK 923 INTER-LIGAND FREE ENERGY PREDICTED BY IDOCK:   -3.68 KCAL/MOL
REMARK 924 INTRA-LIGAND FREE ENERGY PREDICTED BY IDOCK:   -0.89 KCAL/MOL
REMARK 927      BINDING AFFINITY PREDICTED BY RF-SCORE:    0.00 PKD
ROOT
HETATM    1  C   UNL     1     -10.080   9.388  65.564  1.00  0.00     0.029 C  
HETATM    2  C   UNL     1     -10.291   9.017  67.027  1.00  0.00    -0.339 C  
ENDROOT
BRANCH   2   3
HETATM    3  C   UNL     1     -10.691   7.538  67.229  1.00  0.00    -0.365 C  
HETATM    4  C   UNL     1     -11.527   7.342  68.496  1.00  0.00     0.618 C  
HETATM    5  N   UNL     1     -10.534   7.230  69.540  1.00  0.00    -0.225 N  
HETATM    6  C   UNL     1      -9.503   6.555  67.471  1.00  0.00    -0.131 C  
HETATM    7  C   UNL     1      -9.335   6.596  69.016  1.00  0.00    -0.133 C  
BRANCH   5   8
HETATM    8  C   UNL     1     -10.714   7.851  70.751  1.00  0.00    -0.223 C  
HETATM    9  O   UNL     1     -11.122   7.268  71.749  1.00  0.00    -0.230 OA 
BRANCH   8  10
HETATM   10  N   UNL     1     -10.384   9.178  70.789  1.00  0.00    -0.236 N  
HETATM   11  H   UNL     1      -9.509   9.498  70.374  1.00  0.00     0.000 HD 
BRANCH  10  12
HETATM   12  C   UNL     1     -11.288  10.141  71.424  1.00  0.00    -0.061 C  
HETATM   13  F   UNL     1     -12.183  10.406  69.212  1.00  0.00    -0.259 F  
HETATM   14  C   UNL     1     -12.340  10.775  70.504  1.00  0.00    -0.369 C  
HETATM   15  F   UNL     1     -13.600  10.469  70.878  1.00  0.00    -0.334 F  
HETATM   16  F   UNL     1     -12.228  12.129  70.538  1.00  0.00    -0.394 F  
ENDBRANCH  10  12
ENDBRANCH   8  10
ENDBRANCH   5   8
BRANCH   6  17
HETATM   17  C   UNL     1      -8.230   6.860  66.728  1.00  0.00    -0.114 A  
HETATM   18  N   UNL     1      -6.303   7.883  66.011  1.00  0.00    -0.045 NA 
HETATM   19  C   UNL     1      -7.154   7.677  67.066  1.00  0.00    -0.084 A  
HETATM   20  C   UNL     1      -6.819   7.165  65.040  1.00  0.00    -0.047 A  
HETATM   21  C   UNL     1      -6.370   7.103  63.663  1.00  0.00    -0.044 A  
HETATM   22  N   UNL     1      -6.928   6.328  62.763  1.00  0.00    -0.041 NA 
HETATM   23  C   UNL     1      -7.940   5.564  63.257  1.00  0.00    -0.100 A  
HETATM   24  C   UNL     1      -8.458   5.516  64.538  1.00  0.00    -0.094 A  
HETATM   25  C   UNL     1      -9.429   4.507  64.610  1.00  0.00    -0.108 A  
HETATM   26  N   UNL     1      -7.903   6.421  65.460  1.00  0.00    -0.096 NA 
HETATM   27  C   UNL     1      -9.551   4.013  63.322  1.00  0.00    -0.149 A  
HETATM   28  N   UNL     1      -8.659   4.675  62.507  1.00  0.00    -0.103 NA 
HETATM   29  H   UNL     1      -8.552   4.525  61.503  1.00  0.00     0.000 HD 
ENDBRANCH   6  17
ENDBRANCH   2   3
TORSDOF 5
ENDMDL
MODEL      211
REMARK 921   NORMALIZED FREE ENERGY PREDICTED BY IDOCK:   -3.35 KCAL/MOL
REMARK 922        TOTAL FREE ENERGY PREDICTED BY IDOCK:   -4.55 KCAL/MOL
REMARK 923 INTER-LIGAND FREE ENERGY PREDICTED BY IDOCK:   -3.42 KCAL/MOL
REMARK 924 INTRA-LIGAND FREE ENERGY PREDICTED BY IDOCK:   -1.13 KCAL/MOL
REMARK 927      BINDING AFFINITY PREDICTED BY RF-SCORE:    0.00 PKD
ROOT
HETATM    1  C   UNL     1      -6.483   4.209  69.234  1.00  0.00    -0.033 C  
HETATM    2  C   UNL     1      -7.285   5.505  69.260  1.00  0.00    -0.065 C  
ENDROOT
BRANCH   2   3
HETATM    3  C   UNL     1      -6.456   6.726  69.719  1.00  0.00    -0.044 C  
HETATM    4  C   UNL     1      -5.765   6.473  71.061  1.00  0.00    -0.027 C  
HETATM    5  N   UNL     1      -6.789   6.788  72.031  1.00  0.00    -0.062 N  
HETATM    6  C   UNL     1      -7.280   8.016  70.019  1.00  0.00    -0.061 C  
HETATM    7  C   UNL     1      -7.643   7.849  71.521  1.00  0.00    -0.081 C  
BRANCH   5   8
HETATM    8  C   UNL     1      -6.972   6.001  73.141  1.00  0.00    -0.084 C  
HETATM    9  O   UNL     1      -6.613   6.334  74.265  1.00  0.00    -0.073 OA 
BRANCH   8  10
HETATM   10  N   UNL     1      -7.609   4.811  72.922  1.00  0.00    -0.090 N  
HETATM   11  H   UNL     1      -7.106   3.932  73.047  1.00  0.00     0.000 HD 
BRANCH  10  12
HETATM   12  C   UNL     1      -9.015   4.797  72.510  1.00  0.00    -0.125 C  
HETATM   13  F   UNL     1      -8.417   2.770  71.369  1.00  0.00    -0.061 F  
HETATM   14  C   UNL     1      -9.453   3.584  71.676  1.00  0.00    -0.147 C  
HETATM   15  F   UNL     1     -10.397   2.847  72.297  1.00  0.00    -0.230 F  
HETATM   16  F   UNL     1      -9.981   4.002  70.496  1.00  0.00    -0.258 F  
ENDBRANCH  10  12
ENDBRANCH   8  10
ENDBRANCH   5   8
BRANCH   6  17
HETATM   17  C   UNL     1      -8.481   8.252  69.143  1.00  0.00    -0.127 A  
HETATM   18  N   UNL     1     -10.510   8.011  68.094  1.00  0.00    -0.194 NA 
HETATM   19  C   UNL     1      -9.778   7.752  69.223  1.00  0.00    -0.165 A  
HETATM   20  C   UNL     1      -9.691   8.705  67.336  1.00  0.00    -0.175 A  
HETATM   21  C   UNL     1      -9.923   9.152  65.976  1.00  0.00    -0.223 A  
HETATM   22  N   UNL     1      -9.059   9.874  65.303  1.00  0.00    -0.193 NA 
HETATM   23  C   UNL     1      -7.945  10.191  66.017  1.00  0.00    -0.124 A  
HETATM   24  C   UNL     1      -7.603   9.844  67.312  1.00  0.00    -0.088 A  
HETATM   25  C   UNL     1      -6.405  10.481  67.663  1.00  0.00    -0.056 A  
HETATM   26  N   UNL     1      -8.505   8.995  67.979  1.00  0.00    -0.124 NA 
HETATM   27  C   UNL     1      -5.984  11.142  66.523  1.00  0.00    -0.143 A  
HETATM   28  N   UNL     1      -6.914  10.943  65.525  1.00  0.00    -0.368 NA 
HETATM   29  H   UNL     1      -6.844  11.300  64.572  1.00  0.00     0.000 HD 
ENDBRANCH   6  17
ENDBRANCH   2   3
TORSDOF 5
ENDMDL
MODEL      212
REMARK 921   NORMALIZED FREE ENERGY PREDICTED BY IDOCK:   -3.33 KCAL/MOL
REMARK 922        TOTAL FREE ENERGY PREDICTED BY IDOCK:   -4.52 KCAL/MOL
REMARK 923 INTER-LIGAND FREE ENERGY PREDICTED BY IDOCK:   -4.72 KCAL/MOL
REMARK 924 INTRA-LIGAND FREE ENERGY PREDICTED BY IDOCK:    0.19 KCAL/MOL
REMARK 927      BINDING AFFINITY PREDICTED BY RF-SCORE:    0.00 PKD
ROOT
HETATM    1  C   UNL     1     -11.534   6.454  69.317  1.00  0.00    -0.318 C  
HETATM    2  C   UNL     1     -10.174   5.882  68.934  1.00  0.00    -0.254 C  
ENDROOT
BRANCH   2   3
HETATM    3  C   UNL     1      -9.507   5.081  70.075  1.00  0.00    -0.231 C  
HETATM    4  C   UNL     1     -10.024   5.511  71.450  1.00  0.00    -0.186 C  
HETATM    5  N   UNL     1      -9.213   6.665  71.768  1.00  0.00    -0.148 N  
HETATM    6  C   UNL     1      -7.969   5.294  70.227  1.00  0.00    -0.084 C  
HETATM    7  C   UNL     1      -7.886   6.510  71.193  1.00  0.00    -0.103 C  
BRANCH   5   8
HETATM    8  C   UNL     1      -9.770   7.778  72.346  1.00  0.00    -0.192 C  
HETATM    9  O   UNL     1      -9.111   8.751  72.698  1.00  0.00    -0.354 OA 
BRANCH   8  10
HETATM   10  N   UNL     1     -11.129   7.752  72.490  1.00  0.00    -0.317 N  
HETATM   11  H   UNL     1     -11.593   6.897  72.798  1.00  0.00     0.000 HD 
BRANCH  10  12
HETATM   12  C   UNL     1     -11.921   8.951  72.202  1.00  0.00    -0.349 C  
HETATM   13  F   UNL     1     -13.725   7.397  71.883  1.00  0.00    -0.368 F  
HETATM   14  C   UNL     1     -13.412   8.713  71.921  1.00  0.00    -0.397 C  
HETATM   15  F   UNL     1     -14.208   9.309  72.833  1.00  0.00    -0.407 F  
HETATM   16  F   UNL     1     -13.740   9.226  70.706  1.00  0.00    -0.243 F  
ENDBRANCH  10  12
ENDBRANCH   8  10
ENDBRANCH   5   8
BRANCH   6  17
HETATM   17  C   UNL     1      -7.200   5.500  68.949  1.00  0.00    -0.066 A  
HETATM   18  N   UNL     1      -5.752   5.206  67.191  1.00  0.00    -0.013 NA 
HETATM   19  C   UNL     1      -6.540   4.590  68.128  1.00  0.00    -0.042 A  
HETATM   20  C   UNL     1      -5.955   6.488  67.398  1.00  0.00    -0.020 A  
HETATM   21  C   UNL     1      -5.284   7.596  66.747  1.00  0.00    -0.024 A  
HETATM   22  N   UNL     1      -5.576   8.852  66.992  1.00  0.00    -0.041 NA 
HETATM   23  C   UNL     1      -6.590   9.009  67.886  1.00  0.00    -0.060 A  
HETATM   24  C   UNL     1      -7.317   8.049  68.566  1.00  0.00    -0.097 A  
HETATM   25  C   UNL     1      -8.332   8.671  69.307  1.00  0.00    -0.118 A  
HETATM   26  N   UNL     1      -6.924   6.715  68.354  1.00  0.00    -0.078 NA 
HETATM   27  C   UNL     1      -8.142  10.031  69.132  1.00  0.00    -0.126 A  
HETATM   28  N   UNL     1      -7.072  10.225  68.285  1.00  0.00    -0.077 NA 
HETATM   29  H   UNL     1      -6.698  11.131  68.003  1.00  0.00     0.000 HD 
ENDBRANCH   6  17
ENDBRANCH   2   3
TORSDOF 5
ENDMDL
MODEL      213
REMARK 921   NORMALIZED FREE ENERGY PREDICTED BY IDOCK:   -3.32 KCAL/MOL
REMARK 922        TOTAL FREE ENERGY PREDICTED BY IDOCK:   -4.51 KCAL/MOL
REMARK 923 INTER-LIGAND FREE ENERGY PREDICTED BY IDOCK:   -3.97 KCAL/MOL
REMARK 924 INTRA-LIGAND FREE ENERGY PREDICTED BY IDOCK:   -0.54 KCAL/MOL
REMARK 927      BINDING AFFINITY PREDICTED BY RF-SCORE:    0.00 PKD
ROOT
HETATM    1  C   UNL     1     -11.458  10.564  68.370  1.00  0.00    -0.285 C  
HETATM    2  C   UNL     1     -10.505   9.495  68.893  1.00  0.00    -0.235 C  
ENDROOT
BRANCH   2   3
HETATM    3  C   UNL     1      -9.557  10.012  69.997  1.00  0.00    -0.205 C  
HETATM    4  C   UNL     1      -8.219  10.487  69.424  1.00  0.00    -0.119 C  
HETATM    5  N   UNL     1      -7.449   9.268  69.315  1.00  0.00    -0.073 N  
HETATM    6  C   UNL     1      -9.100   8.943  71.038  1.00  0.00    -0.303 C  
HETATM    7  C   UNL     1      -7.820   8.352  70.382  1.00  0.00    -0.090 C  
BRANCH   5   8
HETATM    8  C   UNL     1      -6.668   9.026  68.212  1.00  0.00    -0.061 C  
HETATM    9  O   UNL     1      -5.691   9.708  67.921  1.00  0.00    -0.040 OA 
BRANCH   8  10
HETATM   10  N   UNL     1      -7.034   7.948  67.455  1.00  0.00    -0.073 N  
HETATM   11  H   UNL     1      -6.463   7.103  67.462  1.00  0.00     0.000 HD 
BRANCH  10  12
HETATM   12  C   UNL     1      -8.245   8.006  66.632  1.00  0.00    -0.108 C  
HETATM   13  F   UNL     1      -8.229   5.615  66.856  1.00  0.00    -0.104 F  
HETATM   14  C   UNL     1      -8.934   6.661  66.364  1.00  0.00    -0.148 C  
HETATM   15  F   UNL     1     -10.179   6.609  66.880  1.00  0.00    -0.206 F  
HETATM   16  F   UNL     1      -9.045   6.458  65.025  1.00  0.00     0.030 F  
ENDBRANCH  10  12
ENDBRANCH   8  10
ENDBRANCH   5   8
BRANCH   6  17
HETATM   17  C   UNL     1     -10.118   7.894  71.398  1.00  0.00    -0.176 A  
HETATM   18  N   UNL     1     -11.221   5.890  71.606  1.00  0.00    -0.263 NA 
HETATM   19  C   UNL     1     -10.003   6.510  71.494  1.00  0.00    -0.175 A  
HETATM   20  C   UNL     1     -12.082   6.881  71.625  1.00  0.00    -0.353 A  
HETATM   21  C   UNL     1     -13.529   6.784  71.627  1.00  0.00    -0.097 A  
HETATM   22  N   UNL     1     -14.316   7.832  71.682  1.00  0.00    -0.458 NA 
HETATM   23  C   UNL     1     -13.643   9.012  71.773  1.00  0.00    -0.413 A  
HETATM   24  C   UNL     1     -12.280   9.245  71.792  1.00  0.00    -0.385 A  
HETATM   25  C   UNL     1     -12.046  10.612  71.999  1.00  0.00     0.585 A  
HETATM   26  N   UNL     1     -11.460   8.113  71.641  1.00  0.00    -0.262 NA 
HETATM   27  C   UNL     1     -13.294  11.209  72.010  1.00  0.00    -0.278 A  
HETATM   28  N   UNL     1     -14.254  10.233  71.852  1.00  0.00     0.327 NA 
HETATM   29  H   UNL     1     -15.260  10.395  71.802  1.00  0.00     0.000 HD 
ENDBRANCH   6  17
ENDBRANCH   2   3
TORSDOF 5
ENDMDL
MODEL      214
REMARK 921   NORMALIZED FREE ENERGY PREDICTED BY IDOCK:   -3.31 KCAL/MOL
REMARK 922        TOTAL FREE ENERGY PREDICTED BY IDOCK:   -4.49 KCAL/MOL
REMARK 923 INTER-LIGAND FREE ENERGY PREDICTED BY IDOCK:   -4.30 KCAL/MOL
REMARK 924 INTRA-LIGAND FREE ENERGY PREDICTED BY IDOCK:   -0.20 KCAL/MOL
REMARK 927      BINDING AFFINITY PREDICTED BY RF-SCORE:    0.00 PKD
ROOT
HETATM    1  C   UNL     1     -11.521  10.770  69.440  1.00  0.00    -0.366 C  
HETATM    2  C   UNL     1     -10.449  10.026  68.651  1.00  0.00    -0.228 C  
ENDROOT
BRANCH   2   3
HETATM    3  C   UNL     1      -9.092   9.956  69.385  1.00  0.00    -0.216 C  
HETATM    4  C   UNL     1      -7.938  10.425  68.495  1.00  0.00    -0.114 C  
HETATM    5  N   UNL     1      -7.601   9.244  67.732  1.00  0.00    -0.085 N  
HETATM    6  C   UNL     1      -8.626   8.523  69.788  1.00  0.00    -0.131 C  
HETATM    7  C   UNL     1      -7.836   8.054  68.534  1.00  0.00    -0.115 C  
BRANCH   5   8
HETATM    8  C   UNL     1      -7.316   9.331  66.392  1.00  0.00    -0.092 C  
HETATM    9  O   UNL     1      -6.184   9.515  65.959  1.00  0.00    -0.062 OA 
BRANCH   8  10
HETATM   10  N   UNL     1      -8.382   9.175  65.550  1.00  0.00    -0.125 N  
HETATM   11  H   UNL     1      -8.866   8.278  65.501  1.00  0.00     0.000 HD 
BRANCH  10  12
HETATM   12  C   UNL     1      -8.830  10.295  64.717  1.00  0.00    -0.196 C  
HETATM   13  F   UNL     1      -7.485   9.262  63.017  1.00  0.00    -0.105 F  
HETATM   14  C   UNL     1      -8.347  10.277  63.260  1.00  0.00    -0.168 C  
HETATM   15  F   UNL     1      -9.367  10.182  62.382  1.00  0.00    -0.243 F  
HETATM   16  F   UNL     1      -7.681  11.428  62.980  1.00  0.00     0.207 F  
ENDBRANCH  10  12
ENDBRANCH   8  10
ENDBRANCH   5   8
BRANCH   6  17
HETATM   17  C   UNL     1      -9.714   7.564  70.195  1.00  0.00    -0.172 A  
HETATM   18  N   UNL     1     -11.759   6.554  70.456  1.00  0.00    -0.395 NA 
HETATM   19  C   UNL     1     -10.972   7.331  69.647  1.00  0.00    -0.186 A  
HETATM   20  C   UNL     1     -10.983   6.269  71.477  1.00  0.00    -0.271 A  
HETATM   21  C   UNL     1     -11.350   5.554  72.683  1.00  0.00    -0.291 A  
HETATM   22  N   UNL     1     -10.496   5.282  73.642  1.00  0.00    -0.232 NA 
HETATM   23  C   UNL     1      -9.230   5.704  73.376  1.00  0.00    -0.135 A  
HETATM   24  C   UNL     1      -8.744   6.381  72.272  1.00  0.00    -0.131 A  
HETATM   25  C   UNL     1      -7.354   6.518  72.386  1.00  0.00    -0.090 A  
HETATM   26  N   UNL     1      -9.697   6.739  71.302  1.00  0.00    -0.173 NA 
HETATM   27  C   UNL     1      -7.026   5.995  73.625  1.00  0.00    -0.081 A  
HETATM   28  N   UNL     1      -8.173   5.522  74.225  1.00  0.00    -0.105 NA 
HETATM   29  H   UNL     1      -8.225   5.104  75.153  1.00  0.00     0.000 HD 
ENDBRANCH   6  17
ENDBRANCH   2   3
TORSDOF 5
ENDMDL
MODEL      215
REMARK 921   NORMALIZED FREE ENERGY PREDICTED BY IDOCK:   -3.27 KCAL/MOL
REMARK 922        TOTAL FREE ENERGY PREDICTED BY IDOCK:   -4.45 KCAL/MOL
REMARK 923 INTER-LIGAND FREE ENERGY PREDICTED BY IDOCK:   -4.92 KCAL/MOL
REMARK 924 INTRA-LIGAND FREE ENERGY PREDICTED BY IDOCK:    0.47 KCAL/MOL
REMARK 927      BINDING AFFINITY PREDICTED BY RF-SCORE:    0.00 PKD
ROOT
HETATM    1  C   UNL     1      -7.055   4.979  69.449  1.00  0.00    -0.056 C  
HETATM    2  C   UNL     1      -7.799   6.300  69.605  1.00  0.00    -0.107 C  
ENDROOT
BRANCH   2   3
HETATM    3  C   UNL     1      -6.957   7.395  70.298  1.00  0.00    -0.059 C  
HETATM    4  C   UNL     1      -6.705   7.072  71.773  1.00  0.00    -0.053 C  
HETATM    5  N   UNL     1      -7.897   7.555  72.431  1.00  0.00    -0.094 N  
HETATM    6  C   UNL     1      -7.632   8.799  70.386  1.00  0.00    -0.082 C  
HETATM    7  C   UNL     1      -8.413   8.719  71.728  1.00  0.00    -0.109 C  
BRANCH   5   8
HETATM    8  C   UNL     1      -8.491   6.827  73.432  1.00  0.00    -0.117 C  
HETATM    9  O   UNL     1      -8.862   7.323  74.491  1.00  0.00    -0.202 OA 
BRANCH   8  10
HETATM   10  N   UNL     1      -8.671   5.497  73.169  1.00  0.00    -0.121 N  
HETATM   11  H   UNL     1      -7.983   4.816  73.489  1.00  0.00     0.000 HD 
BRANCH  10  12
HETATM   12  C   UNL     1      -9.854   5.050  72.428  1.00  0.00    -0.169 C  
HETATM   13  F   UNL     1      -8.555   3.072  72.014  1.00  0.00    -0.069 F  
HETATM   14  C   UNL     1      -9.773   3.636  71.835  1.00  0.00    -0.166 C  
HETATM   15  F   UNL     1     -10.701   2.807  72.357  1.00  0.00    -0.202 F  
HETATM   16  F   UNL     1      -9.985   3.685  70.494  1.00  0.00    -0.255 F  
ENDBRANCH  10  12
ENDBRANCH   8  10
ENDBRANCH   5   8
BRANCH   6  17
HETATM   17  C   UNL     1      -8.499   9.190  69.219  1.00  0.00    -0.132 A  
HETATM   18  N   UNL     1      -9.203   9.939  67.165  1.00  0.00    -0.138 NA 
HETATM   19  C   UNL     1      -8.197   9.327  67.867  1.00  0.00    -0.115 A  
HETATM   20  C   UNL     1     -10.140  10.141  68.063  1.00  0.00    -0.157 A  
HETATM   21  C   UNL     1     -11.389  10.855  67.880  1.00  0.00    -0.308 A  
HETATM   22  N   UNL     1     -12.288  10.978  68.828  1.00  0.00    -0.450 NA 
HETATM   23  C   UNL     1     -11.949  10.343  69.983  1.00  0.00    -0.247 A  
HETATM   24  C   UNL     1     -10.807   9.625  70.287  1.00  0.00    -0.285 A  
HETATM   25  C   UNL     1     -10.938   9.063  71.565  1.00  0.00    -0.418 A  
HETATM   26  N   UNL     1      -9.821   9.584  69.285  1.00  0.00    -0.173 NA 
HETATM   27  C   UNL     1     -12.140   9.536  72.061  1.00  0.00    -0.262 A  
HETATM   28  N   UNL     1     -12.736  10.327  71.102  1.00  0.00    -0.370 NA 
HETATM   29  H   UNL     1     -13.621  10.821  71.210  1.00  0.00     0.000 HD 
ENDBRANCH   6  17
ENDBRANCH   2   3
TORSDOF 5
ENDMDL
MODEL      216
REMARK 921   NORMALIZED FREE ENERGY PREDICTED BY IDOCK:   -3.26 KCAL/MOL
REMARK 922        TOTAL FREE ENERGY PREDICTED BY IDOCK:   -4.44 KCAL/MOL
REMARK 923 INTER-LIGAND FREE ENERGY PREDICTED BY IDOCK:   -4.77 KCAL/MOL
REMARK 924 INTRA-LIGAND FREE ENERGY PREDICTED BY IDOCK:    0.34 KCAL/MOL
REMARK 927      BINDING AFFINITY PREDICTED BY RF-SCORE:    0.00 PKD
ROOT
HETATM    1  C   UNL     1      -9.948  11.349  63.437  1.00  0.00    -0.435 C  
HETATM    2  C   UNL     1      -9.786  10.988  64.909  1.00  0.00    -0.327 C  
ENDROOT
BRANCH   2   3
HETATM    3  C   UNL     1     -11.115  11.035  65.697  1.00  0.00    -0.008 C  
HETATM    4  C   UNL     1     -11.775  12.414  65.617  1.00  0.00    -0.414 C  
HETATM    5  N   UNL     1     -11.114  13.165  66.660  1.00  0.00    -0.286 N  
HETATM    6  C   UNL     1     -10.982  10.830  67.238  1.00  0.00    -0.359 C  
HETATM    7  C   UNL     1     -10.760  12.279  67.758  1.00  0.00    -0.217 C  
BRANCH   5   8
HETATM    8  C   UNL     1     -10.734  14.468  66.455  1.00  0.00    -0.312 C  
HETATM    9  O   UNL     1     -11.214  15.175  65.575  1.00  0.00    -0.345 OA 
BRANCH   8  10
HETATM   10  N   UNL     1      -9.790  14.951  67.319  1.00  0.00    -0.228 N  
HETATM   11  H   UNL     1      -8.867  15.210  66.972  1.00  0.00     0.000 HD 
BRANCH  10  12
HETATM   12  C   UNL     1     -10.104  15.096  68.743  1.00  0.00    -0.226 C  
HETATM   13  F   UNL     1      -7.828  15.838  68.929  1.00  0.00    -0.141 F  
HETATM   14  C   UNL     1      -8.978  15.663  69.619  1.00  0.00    -0.136 C  
HETATM   15  F   UNL     1      -9.313  16.842  70.185  1.00  0.00     0.496 F  
HETATM   16  F   UNL     1      -8.698  14.798  70.628  1.00  0.00     0.659 F  
ENDBRANCH  10  12
ENDBRANCH   8  10
ENDBRANCH   5   8
BRANCH   6  17
HETATM   17  C   UNL     1      -9.914   9.870  67.688  1.00  0.00    -0.171 A  
HETATM   18  N   UNL     1      -8.162   8.385  67.691  1.00  0.00    -0.124 NA 
HETATM   19  C   UNL     1      -8.740   9.457  67.063  1.00  0.00    -0.127 A  
HETATM   20  C   UNL     1      -8.944   8.160  68.723  1.00  0.00    -0.144 A  
HETATM   21  C   UNL     1      -8.852   7.067  69.670  1.00  0.00    -0.141 A  
HETATM   22  N   UNL     1      -9.659   6.939  70.696  1.00  0.00    -0.169 NA 
HETATM   23  C   UNL     1     -10.564   7.950  70.803  1.00  0.00    -0.214 A  
HETATM   24  C   UNL     1     -10.754   9.048  69.985  1.00  0.00    -0.229 A  
HETATM   25  C   UNL     1     -11.738   9.878  70.541  1.00  0.00    -0.373 A  
HETATM   26  N   UNL     1      -9.935   9.113  68.843  1.00  0.00    -0.175 NA 
HETATM   27  C   UNL     1     -12.202   9.210  71.660  1.00  0.00    -0.361 A  
HETATM   28  N   UNL     1     -11.498   8.033  71.799  1.00  0.00    -0.264 NA 
HETATM   29  H   UNL     1     -11.650   7.335  72.527  1.00  0.00     0.000 HD 
ENDBRANCH   6  17
ENDBRANCH   2   3
TORSDOF 5
ENDMDL
MODEL      217
REMARK 921   NORMALIZED FREE ENERGY PREDICTED BY IDOCK:   -3.23 KCAL/MOL
REMARK 922        TOTAL FREE ENERGY PREDICTED BY IDOCK:   -4.39 KCAL/MOL
REMARK 923 INTER-LIGAND FREE ENERGY PREDICTED BY IDOCK:   -6.24 KCAL/MOL
REMARK 924 INTRA-LIGAND FREE ENERGY PREDICTED BY IDOCK:    1.85 KCAL/MOL
REMARK 927      BINDING AFFINITY PREDICTED BY RF-SCORE:    0.00 PKD
ROOT
HETATM    1  C   UNL     1      -5.859  14.772  67.406  1.00  0.00     0.257 C  
HETATM    2  C   UNL     1      -5.973  15.014  68.908  1.00  0.00    -0.089 C  
ENDROOT
BRANCH   2   3
HETATM    3  C   UNL     1      -7.278  14.455  69.517  1.00  0.00    -0.051 C  
HETATM    4  C   UNL     1      -7.340  12.928  69.427  1.00  0.00     0.364 C  
HETATM    5  N   UNL     1      -7.845  12.690  68.093  1.00  0.00    -0.135 N  
HETATM    6  C   UNL     1      -8.589  14.875  68.781  1.00  0.00    -0.177 C  
HETATM    7  C   UNL     1      -8.752  13.760  67.710  1.00  0.00    -0.182 C  
BRANCH   5   8
HETATM    8  C   UNL     1      -7.320  11.691  67.311  1.00  0.00    -0.136 C  
HETATM    9  O   UNL     1      -6.546  10.842  67.740  1.00  0.00    -0.062 OA 
BRANCH   8  10
HETATM   10  N   UNL     1      -7.734  11.682  66.008  1.00  0.00    -0.348 N  
HETATM   11  H   UNL     1      -7.664  12.530  65.445  1.00  0.00     0.000 HD 
BRANCH  10  12
HETATM   12  C   UNL     1      -8.277  10.455  65.419  1.00  0.00    -0.159 C  
HETATM   13  F   UNL     1     -10.367  11.230  66.314  1.00  0.00    -0.251 F  
HETATM   14  C   UNL     1      -9.794  10.263  65.560  1.00  0.00    -0.282 C  
HETATM   15  F   UNL     1     -10.421  10.232  64.366  1.00  0.00    -0.393 F  
HETATM   16  F   UNL     1     -10.053   9.082  66.181  1.00  0.00    -0.337 F  
ENDBRANCH  10  12
ENDBRANCH   8  10
ENDBRANCH   5   8
BRANCH   6  17
HETATM   17  C   UNL     1      -8.604  16.262  68.198  1.00  0.00    -0.183 A  
HETATM   18  N   UNL     1      -8.505  18.546  67.972  1.00  0.00    -0.276 NA 
HETATM   19  C   UNL     1      -8.061  17.453  68.671  1.00  0.00    -0.264 A  
HETATM   20  C   UNL     1      -9.283  18.035  67.044  1.00  0.00    -0.265 A  
HETATM   21  C   UNL     1     -10.097  18.759  66.089  1.00  0.00    -0.384 A  
HETATM   22  N   UNL     1     -10.821  18.164  65.169  1.00  0.00    -0.577 NA 
HETATM   23  C   UNL     1     -10.703  16.809  65.180  1.00  0.00    -0.143 A  
HETATM   24  C   UNL     1      -9.961  15.998  66.020  1.00  0.00    -0.339 A  
HETATM   25  C   UNL     1     -10.065  14.667  65.593  1.00  0.00    -0.389 A  
HETATM   26  N   UNL     1      -9.267  16.655  67.052  1.00  0.00    -0.214 NA 
HETATM   27  C   UNL     1     -10.960  14.681  64.537  1.00  0.00    -0.231 A  
HETATM   28  N   UNL     1     -11.355  15.981  64.308  1.00  0.00    -0.994 NA 
HETATM   29  H   UNL     1     -12.028  16.278  63.601  1.00  0.00     0.000 HD 
ENDBRANCH   6  17
ENDBRANCH   2   3
TORSDOF 5
ENDMDL
MODEL      218
REMARK 921   NORMALIZED FREE ENERGY PREDICTED BY IDOCK:   -3.22 KCAL/MOL
REMARK 922        TOTAL FREE ENERGY PREDICTED BY IDOCK:   -4.37 KCAL/MOL
REMARK 923 INTER-LIGAND FREE ENERGY PREDICTED BY IDOCK:   -4.49 KCAL/MOL
REMARK 924 INTRA-LIGAND FREE ENERGY PREDICTED BY IDOCK:    0.11 KCAL/MOL
REMARK 927      BINDING AFFINITY PREDICTED BY RF-SCORE:    0.00 PKD
ROOT
HETATM    1  C   UNL     1      -6.423   8.021  67.433  1.00  0.00    -0.057 C  
HETATM    2  C   UNL     1      -6.926   7.820  68.858  1.00  0.00    -0.066 C  
ENDROOT
BRANCH   2   3
HETATM    3  C   UNL     1      -6.076   6.815  69.667  1.00  0.00    -0.033 C  
HETATM    4  C   UNL     1      -5.773   5.549  68.864  1.00  0.00    -0.015 C  
HETATM    5  N   UNL     1      -6.950   4.734  69.062  1.00  0.00    -0.051 N  
HETATM    6  C   UNL     1      -6.768   6.232  70.939  1.00  0.00    -0.058 C  
HETATM    7  C   UNL     1      -7.504   4.980  70.384  1.00  0.00    -0.062 C  
BRANCH   5   8
HETATM    8  C   UNL     1      -7.501   4.029  68.021  1.00  0.00    -0.067 C  
HETATM    9  O   UNL     1      -7.805   2.844  68.101  1.00  0.00    -0.056 OA 
BRANCH   8  10
HETATM   10  N   UNL     1      -7.719   4.743  66.874  1.00  0.00    -0.091 N  
HETATM   11  H   UNL     1      -7.737   5.762  66.904  1.00  0.00     0.000 HD 
BRANCH  10  12
HETATM   12  C   UNL     1      -7.924   4.044  65.603  1.00  0.00    -0.093 C  
HETATM   13  F   UNL     1     -10.256   4.228  66.149  1.00  0.00    -0.220 F  
HETATM   14  C   UNL     1      -9.387   3.823  65.193  1.00  0.00    -0.157 C  
HETATM   15  F   UNL     1      -9.700   4.458  64.044  1.00  0.00    -0.159 F  
HETATM   16  F   UNL     1      -9.617   2.498  64.996  1.00  0.00    -0.149 F  
ENDBRANCH  10  12
ENDBRANCH   8  10
ENDBRANCH   5   8
BRANCH   6  17
HETATM   17  C   UNL     1      -7.677   7.171  71.686  1.00  0.00    -0.088 A  
HETATM   18  N   UNL     1      -8.590   8.500  73.322  1.00  0.00    -0.373 NA 
HETATM   19  C   UNL     1      -7.436   7.985  72.789  1.00  0.00    -0.114 A  
HETATM   20  C   UNL     1      -9.536   8.046  72.531  1.00  0.00    -0.232 A  
HETATM   21  C   UNL     1     -10.967   8.204  72.699  1.00  0.00    -0.370 A  
HETATM   22  N   UNL     1     -11.843   7.745  71.837  1.00  0.00    -0.285 NA 
HETATM   23  C   UNL     1     -11.276   7.140  70.757  1.00  0.00    -0.279 A  
HETATM   24  C   UNL     1      -9.940   6.933  70.469  1.00  0.00    -0.183 A  
HETATM   25  C   UNL     1      -9.823   6.358  69.195  1.00  0.00    -0.158 A  
HETATM   26  N   UNL     1      -9.026   7.354  71.451  1.00  0.00    -0.137 NA 
HETATM   27  C   UNL     1     -11.119   6.137  68.764  1.00  0.00    -0.319 A  
HETATM   28  N   UNL     1     -11.992   6.596  69.727  1.00  0.00    -0.618 NA 
HETATM   29  H   UNL     1     -13.009   6.539  69.678  1.00  0.00     0.000 HD 
ENDBRANCH   6  17
ENDBRANCH   2   3
TORSDOF 5
ENDMDL
MODEL      219
REMARK 921   NORMALIZED FREE ENERGY PREDICTED BY IDOCK:   -3.17 KCAL/MOL
REMARK 922        TOTAL FREE ENERGY PREDICTED BY IDOCK:   -4.31 KCAL/MOL
REMARK 923 INTER-LIGAND FREE ENERGY PREDICTED BY IDOCK:   -4.45 KCAL/MOL
REMARK 924 INTRA-LIGAND FREE ENERGY PREDICTED BY IDOCK:    0.14 KCAL/MOL
REMARK 927      BINDING AFFINITY PREDICTED BY RF-SCORE:    0.00 PKD
ROOT
HETATM    1  C   UNL     1      -7.912   7.085  67.092  1.00  0.00    -0.113 C  
HETATM    2  C   UNL     1      -7.671   7.431  68.557  1.00  0.00    -0.120 C  
ENDROOT
BRANCH   2   3
HETATM    3  C   UNL     1      -7.059   6.266  69.365  1.00  0.00    -0.073 C  
HETATM    4  C   UNL     1      -5.998   5.510  68.561  1.00  0.00    -0.021 C  
HETATM    5  N   UNL     1      -6.773   4.576  67.776  1.00  0.00    -0.050 N  
HETATM    6  C   UNL     1      -8.052   5.123  69.742  1.00  0.00    -0.082 C  
HETATM    7  C   UNL     1      -7.955   4.168  68.519  1.00  0.00    -0.073 C  
BRANCH   5   8
HETATM    8  C   UNL     1      -6.466   4.341  66.459  1.00  0.00    -0.037 C  
HETATM    9  O   UNL     1      -5.446   4.760  65.924  1.00  0.00    -0.012 OA 
BRANCH   8  10
HETATM   10  N   UNL     1      -7.369   3.579  65.769  1.00  0.00    -0.074 N  
HETATM   11  H   UNL     1      -7.382   2.567  65.893  1.00  0.00     0.000 HD 
BRANCH  10  12
HETATM   12  C   UNL     1      -8.317   4.216  64.851  1.00  0.00    -0.106 C  
HETATM   13  F   UNL     1      -9.959   3.597  66.491  1.00  0.00    -0.196 F  
HETATM   14  C   UNL     1      -9.776   4.262  65.327  1.00  0.00    -0.197 C  
HETATM   15  F   UNL     1     -10.225   5.524  65.488  1.00  0.00    -0.018 F  
HETATM   16  F   UNL     1     -10.580   3.664  64.409  1.00  0.00    -0.214 F  
ENDBRANCH  10  12
ENDBRANCH   8  10
ENDBRANCH   5   8
BRANCH   6  17
HETATM   17  C   UNL     1      -9.463   5.548  70.050  1.00  0.00    -0.159 A  
HETATM   18  N   UNL     1     -11.631   6.274  69.830  1.00  0.00    -0.389 NA 
HETATM   19  C   UNL     1     -10.596   5.595  69.242  1.00  0.00    -0.288 A  
HETATM   20  C   UNL     1     -11.162   6.609  71.011  1.00  0.00    -0.300 A  
HETATM   21  C   UNL     1     -11.811   7.436  72.008  1.00  0.00    -0.298 A  
HETATM   22  N   UNL     1     -11.281   7.691  73.181  1.00  0.00    -0.352 NA 
HETATM   23  C   UNL     1     -10.084   7.075  73.381  1.00  0.00    -0.284 A  
HETATM   24  C   UNL     1      -9.364   6.259  72.528  1.00  0.00    -0.146 A  
HETATM   25  C   UNL     1      -8.233   5.770  73.197  1.00  0.00    -0.117 A  
HETATM   26  N   UNL     1      -9.910   6.075  71.245  1.00  0.00    -0.175 NA 
HETATM   27  C   UNL     1      -8.237   6.383  74.438  1.00  0.00    -0.126 A  
HETATM   28  N   UNL     1      -9.353   7.187  74.531  1.00  0.00    -0.429 NA 
HETATM   29  H   UNL     1      -9.594   7.773  75.331  1.00  0.00     0.000 HD 
ENDBRANCH   6  17
ENDBRANCH   2   3
TORSDOF 5
ENDMDL
MODEL      220
REMARK 921   NORMALIZED FREE ENERGY PREDICTED BY IDOCK:   -3.14 KCAL/MOL
REMARK 922        TOTAL FREE ENERGY PREDICTED BY IDOCK:   -4.28 KCAL/MOL
REMARK 923 INTER-LIGAND FREE ENERGY PREDICTED BY IDOCK:   -6.65 KCAL/MOL
REMARK 924 INTRA-LIGAND FREE ENERGY PREDICTED BY IDOCK:    2.37 KCAL/MOL
REMARK 927      BINDING AFFINITY PREDICTED BY RF-SCORE:    0.00 PKD
ROOT
HETATM    1  C   UNL     1     -11.644   6.587  70.281  1.00  0.00    -0.473 C  
HETATM    2  C   UNL     1     -12.796   7.018  71.182  1.00  0.00    -0.328 C  
ENDROOT
BRANCH   2   3
HETATM    3  C   UNL     1     -12.399   8.115  72.194  1.00  0.00    -0.383 C  
HETATM    4  C   UNL     1     -12.316   9.495  71.536  1.00  0.00    -0.380 C  
HETATM    5  N   UNL     1     -10.986   9.517  70.970  1.00  0.00    -0.326 N  
HETATM    6  C   UNL     1     -10.974   7.966  72.813  1.00  0.00    -0.456 C  
HETATM    7  C   UNL     1     -10.081   8.742  71.803  1.00  0.00    -0.333 C  
BRANCH   5   8
HETATM    8  C   UNL     1     -10.763  10.040  69.720  1.00  0.00    -0.271 C  
HETATM    9  O   UNL     1     -10.713   9.352  68.706  1.00  0.00    -0.220 OA 
BRANCH   8  10
HETATM   10  N   UNL     1     -10.620  11.399  69.665  1.00  0.00    -0.447 N  
HETATM   11  H   UNL     1     -10.721  11.957  70.512  1.00  0.00     0.000 HD 
BRANCH  10  12
HETATM   12  C   UNL     1     -10.321  12.053  68.388  1.00  0.00    -0.214 C  
HETATM   13  F   UNL     1     -12.380  13.227  68.776  1.00  0.00    -0.343 F  
HETATM   14  C   UNL     1     -11.317  13.135  67.945  1.00  0.00    -0.286 C  
HETATM   15  F   UNL     1     -10.745  14.354  67.857  1.00  0.00    -0.236 F  
HETATM   16  F   UNL     1     -11.810  12.832  66.715  1.00  0.00    -0.382 F  
ENDBRANCH  10  12
ENDBRANCH   8  10
ENDBRANCH   5   8
BRANCH   6  17
HETATM   17  C   UNL     1     -10.503   6.558  73.058  1.00  0.00    -0.234 A  
HETATM   18  N   UNL     1     -10.438   4.343  73.660  1.00  0.00    -0.187 NA 
HETATM   19  C   UNL     1     -11.219   5.372  73.203  1.00  0.00    -0.297 A  
HETATM   20  C   UNL     1      -9.239   4.871  73.757  1.00  0.00    -0.118 A  
HETATM   21  C   UNL     1      -8.047   4.244  74.294  1.00  0.00    -0.092 A  
HETATM   22  N   UNL     1      -6.877   4.837  74.319  1.00  0.00    -0.070 NA 
HETATM   23  C   UNL     1      -6.885   6.078  73.761  1.00  0.00    -0.080 A  
HETATM   24  C   UNL     1      -7.938   6.784  73.207  1.00  0.00    -0.102 A  
HETATM   25  C   UNL     1      -7.458   7.984  72.663  1.00  0.00    -0.141 A  
HETATM   26  N   UNL     1      -9.198   6.163  73.274  1.00  0.00    -0.132 NA 
HETATM   27  C   UNL     1      -6.112   8.028  72.984  1.00  0.00    -0.070 A  
HETATM   28  N   UNL     1      -5.780   6.878  73.666  1.00  0.00    -0.053 NA 
HETATM   29  H   UNL     1      -4.857   6.658  74.041  1.00  0.00     0.000 HD 
ENDBRANCH   6  17
ENDBRANCH   2   3
TORSDOF 5
ENDMDL
MODEL      221
REMARK 921   NORMALIZED FREE ENERGY PREDICTED BY IDOCK:   -3.12 KCAL/MOL
REMARK 922        TOTAL FREE ENERGY PREDICTED BY IDOCK:   -4.26 KCAL/MOL
REMARK 923 INTER-LIGAND FREE ENERGY PREDICTED BY IDOCK:   -3.34 KCAL/MOL
REMARK 924 INTRA-LIGAND FREE ENERGY PREDICTED BY IDOCK:   -0.92 KCAL/MOL
REMARK 927      BINDING AFFINITY PREDICTED BY RF-SCORE:    0.00 PKD
ROOT
HETATM    1  C   UNL     1     -10.641  12.298  68.613  1.00  0.00    -0.249 C  
HETATM    2  C   UNL     1      -9.263  11.668  68.446  1.00  0.00    -0.182 C  
ENDROOT
BRANCH   2   3
HETATM    3  C   UNL     1      -8.453  12.278  67.279  1.00  0.00    -0.181 C  
HETATM    4  C   UNL     1      -9.088  11.967  65.922  1.00  0.00    -0.083 C  
HETATM    5  N   UNL     1      -8.578  10.651  65.605  1.00  0.00    -0.178 N  
HETATM    6  C   UNL     1      -7.012  11.707  67.100  1.00  0.00    -0.144 C  
HETATM    7  C   UNL     1      -7.239  10.496  66.152  1.00  0.00    -0.136 C  
BRANCH   5   8
HETATM    8  C   UNL     1      -9.394   9.694  65.056  1.00  0.00    -0.255 C  
HETATM    9  O   UNL     1      -9.237   9.250  63.924  1.00  0.00    -0.080 OA 
BRANCH   8  10
HETATM   10  N   UNL     1     -10.398   9.238  65.865  1.00  0.00    -0.211 N  
HETATM   11  H   UNL     1     -11.366   9.271  65.545  1.00  0.00     0.000 HD 
BRANCH  10  12
HETATM   12  C   UNL     1     -10.084   8.702  67.192  1.00  0.00    -0.261 C  
HETATM   13  F   UNL     1      -9.425   6.734  65.983  1.00  0.00    -0.180 F  
HETATM   14  C   UNL     1      -9.473   7.293  67.214  1.00  0.00    -0.138 C  
HETATM   15  F   UNL     1      -8.226   7.283  67.730  1.00  0.00    -0.113 F  
HETATM   16  F   UNL     1     -10.234   6.472  67.984  1.00  0.00    -0.132 F  
ENDBRANCH  10  12
ENDBRANCH   8  10
ENDBRANCH   5   8
BRANCH   6  17
HETATM   17  C   UNL     1      -6.284  11.340  68.365  1.00  0.00    -0.045 A  
HETATM   18  N   UNL     1      -5.440  10.156  70.143  1.00  0.00    -0.043 NA 
HETATM   19  C   UNL     1      -5.838  10.107  68.832  1.00  0.00    -0.037 A  
HETATM   20  C   UNL     1      -5.595  11.418  70.476  1.00  0.00    -0.145 A  
HETATM   21  C   UNL     1      -5.418  12.005  71.789  1.00  0.00     0.362 A  
HETATM   22  N   UNL     1      -5.561  13.288  72.024  1.00  0.00    -0.396 NA 
HETATM   23  C   UNL     1      -5.855  14.014  70.911  1.00  0.00    -0.207 A  
HETATM   24  C   UNL     1      -6.040  13.587  69.609  1.00  0.00    -0.121 A  
HETATM   25  C   UNL     1      -6.227  14.700  68.777  1.00  0.00    -0.087 A  
HETATM   26  N   UNL     1      -5.970  12.198  69.401  1.00  0.00    -0.085 NA 
HETATM   27  C   UNL     1      -6.245  15.798  69.619  1.00  0.00    -0.169 A  
HETATM   28  N   UNL     1      -6.039  15.369  70.913  1.00  0.00     0.159 NA 
HETATM   29  H   UNL     1      -6.026  15.967  71.739  1.00  0.00     0.000 HD 
ENDBRANCH   6  17
ENDBRANCH   2   3
TORSDOF 5
ENDMDL
MODEL      222
REMARK 921   NORMALIZED FREE ENERGY PREDICTED BY IDOCK:   -3.02 KCAL/MOL
REMARK 922        TOTAL FREE ENERGY PREDICTED BY IDOCK:   -4.12 KCAL/MOL
REMARK 923 INTER-LIGAND FREE ENERGY PREDICTED BY IDOCK:   -5.04 KCAL/MOL
REMARK 924 INTRA-LIGAND FREE ENERGY PREDICTED BY IDOCK:    0.92 KCAL/MOL
REMARK 927      BINDING AFFINITY PREDICTED BY RF-SCORE:    0.00 PKD
ROOT
HETATM    1  C   UNL     1     -12.416  12.123  69.624  1.00  0.00     0.095 C  
HETATM    2  C   UNL     1     -11.514  11.111  68.927  1.00  0.00    -0.363 C  
ENDROOT
BRANCH   2   3
HETATM    3  C   UNL     1     -10.013  11.470  69.019  1.00  0.00    -0.040 C  
HETATM    4  C   UNL     1      -9.710  12.823  68.372  1.00  0.00    -0.186 C  
HETATM    5  N   UNL     1      -9.561  12.500  66.971  1.00  0.00    -0.211 N  
HETATM    6  C   UNL     1      -9.053  10.518  68.241  1.00  0.00    -0.146 C  
HETATM    7  C   UNL     1      -8.999  11.166  66.828  1.00  0.00    -0.165 C  
BRANCH   5   8
HETATM    8  C   UNL     1     -10.098  13.310  66.001  1.00  0.00    -0.299 C  
HETATM    9  O   UNL     1     -10.355  14.495  66.186  1.00  0.00    -0.279 OA 
BRANCH   8  10
HETATM   10  N   UNL     1     -10.312  12.718  64.788  1.00  0.00    -0.350 N  
HETATM   11  H   UNL     1      -9.654  12.869  64.023  1.00  0.00     0.000 HD 
BRANCH  10  12
HETATM   12  C   UNL     1     -11.486  11.864  64.585  1.00  0.00    -0.279 C  
HETATM   13  F   UNL     1     -12.577  13.913  63.969  1.00  0.00    -0.396 F  
HETATM   14  C   UNL     1     -12.742  12.572  64.058  1.00  0.00    -0.318 C  
HETATM   15  F   UNL     1     -13.121  12.114  62.847  1.00  0.00    -0.433 F  
HETATM   16  F   UNL     1     -13.780  12.365  64.910  1.00  0.00     0.171 F  
ENDBRANCH  10  12
ENDBRANCH   8  10
ENDBRANCH   5   8
BRANCH   6  17
HETATM   17  C   UNL     1      -9.444   9.064  68.210  1.00  0.00    -0.146 A  
HETATM   18  N   UNL     1      -9.946   6.916  68.847  1.00  0.00    -0.154 NA 
HETATM   19  C   UNL     1      -9.953   8.238  69.207  1.00  0.00    -0.192 A  
HETATM   20  C   UNL     1      -9.478   6.924  67.619  1.00  0.00    -0.123 A  
HETATM   21  C   UNL     1      -9.166   5.773  66.794  1.00  0.00    -0.131 A  
HETATM   22  N   UNL     1      -8.734   5.875  65.559  1.00  0.00    -0.150 NA 
HETATM   23  C   UNL     1      -8.643   7.159  65.120  1.00  0.00     0.068 A  
HETATM   24  C   UNL     1      -8.916   8.337  65.791  1.00  0.00    -0.138 A  
HETATM   25  C   UNL     1      -8.777   9.418  64.909  1.00  0.00    -0.220 A  
HETATM   26  N   UNL     1      -9.291   8.204  67.140  1.00  0.00    -0.139 NA 
HETATM   27  C   UNL     1      -8.323   8.875  63.720  1.00  0.00    -0.161 A  
HETATM   28  N   UNL     1      -8.226   7.507  63.865  1.00  0.00    -0.354 NA 
HETATM   29  H   UNL     1      -7.895   6.859  63.150  1.00  0.00     0.000 HD 
ENDBRANCH   6  17
ENDBRANCH   2   3
TORSDOF 5
ENDMDL
MODEL      223
REMARK 921   NORMALIZED FREE ENERGY PREDICTED BY IDOCK:   -2.99 KCAL/MOL
REMARK 922        TOTAL FREE ENERGY PREDICTED BY IDOCK:   -4.08 KCAL/MOL
REMARK 923 INTER-LIGAND FREE ENERGY PREDICTED BY IDOCK:   -5.20 KCAL/MOL
REMARK 924 INTRA-LIGAND FREE ENERGY PREDICTED BY IDOCK:    1.11 KCAL/MOL
REMARK 927      BINDING AFFINITY PREDICTED BY RF-SCORE:    0.00 PKD
ROOT
HETATM    1  C   UNL     1      -5.394  11.521  66.704  1.00  0.00    -0.127 C  
HETATM    2  C   UNL     1      -5.756  12.940  67.125  1.00  0.00     0.209 C  
ENDROOT
BRANCH   2   3
HETATM    3  C   UNL     1      -6.408  13.013  68.524  1.00  0.00    -0.081 C  
HETATM    4  C   UNL     1      -7.446  11.906  68.726  1.00  0.00    -0.100 C  
HETATM    5  N   UNL     1      -8.642  12.453  68.126  1.00  0.00    -0.180 N  
HETATM    6  C   UNL     1      -7.249  14.298  68.801  1.00  0.00    -0.129 C  
HETATM    7  C   UNL     1      -8.663  13.897  68.293  1.00  0.00    -0.183 C  
BRANCH   5   8
HETATM    8  C   UNL     1      -9.462  11.669  67.352  1.00  0.00    -0.167 C  
HETATM    9  O   UNL     1     -10.259  12.129  66.542  1.00  0.00    -0.203 OA 
BRANCH   8  10
HETATM   10  N   UNL     1      -9.321  10.319  67.522  1.00  0.00    -0.147 N  
HETATM   11  H   UNL     1      -8.417   9.931  67.791  1.00  0.00     0.000 HD 
BRANCH  10  12
HETATM   12  C   UNL     1     -10.468   9.430  67.318  1.00  0.00    -0.264 C  
HETATM   13  F   UNL     1      -8.839   7.674  67.488  1.00  0.00    -0.123 F  
HETATM   14  C   UNL     1     -10.163   7.926  67.367  1.00  0.00    -0.251 C  
HETATM   15  F   UNL     1     -10.804   7.305  68.379  1.00  0.00    -0.224 F  
HETATM   16  F   UNL     1     -10.567   7.336  66.212  1.00  0.00    -0.183 F  
ENDBRANCH  10  12
ENDBRANCH   8  10
ENDBRANCH   5   8
BRANCH   6  17
HETATM   17  C   UNL     1      -6.736  15.570  68.181  1.00  0.00    -0.127 A  
HETATM   18  N   UNL     1      -5.555  17.503  67.803  1.00  0.00    -0.134 NA 
HETATM   19  C   UNL     1      -5.538  16.254  68.366  1.00  0.00    -0.104 A  
HETATM   20  C   UNL     1      -6.737  17.579  67.233  1.00  0.00    -0.166 A  
HETATM   21  C   UNL     1      -7.320  18.733  66.578  1.00  0.00    -0.236 A  
HETATM   22  N   UNL     1      -8.499  18.708  66.002  1.00  0.00    -0.495 NA 
HETATM   23  C   UNL     1      -9.100  17.488  66.048  1.00  0.00    -0.027 A  
HETATM   24  C   UNL     1      -8.656  16.313  66.625  1.00  0.00    -0.267 A  
HETATM   25  C   UNL     1      -9.563  15.282  66.339  1.00  0.00    -0.317 A  
HETATM   26  N   UNL     1      -7.432  16.389  67.313  1.00  0.00    -0.152 NA 
HETATM   27  C   UNL     1     -10.608  15.882  65.659  1.00  0.00    -0.378 A  
HETATM   28  N   UNL     1     -10.327  17.223  65.506  1.00  0.00    -0.642 NA 
HETATM   29  H   UNL     1     -10.937  17.908  65.059  1.00  0.00     0.000 HD 
ENDBRANCH   6  17
ENDBRANCH   2   3
TORSDOF 5
ENDMDL
MODEL      224
REMARK 921   NORMALIZED FREE ENERGY PREDICTED BY IDOCK:   -2.96 KCAL/MOL
REMARK 922        TOTAL FREE ENERGY PREDICTED BY IDOCK:   -4.04 KCAL/MOL
REMARK 923 INTER-LIGAND FREE ENERGY PREDICTED BY IDOCK:   -6.08 KCAL/MOL
REMARK 924 INTRA-LIGAND FREE ENERGY PREDICTED BY IDOCK:    2.04 KCAL/MOL
REMARK 927      BINDING AFFINITY PREDICTED BY RF-SCORE:    0.00 PKD
ROOT
HETATM    1  C   UNL     1      -5.944  13.775  67.240  1.00  0.00     0.427 C  
HETATM    2  C   UNL     1      -5.945  13.192  68.649  1.00  0.00    -0.075 C  
ENDROOT
BRANCH   2   3
HETATM    3  C   UNL     1      -7.364  13.012  69.232  1.00  0.00     0.241 C  
HETATM    4  C   UNL     1      -8.081  11.804  68.625  1.00  0.00    -0.104 C  
HETATM    5  N   UNL     1      -8.637  12.324  67.397  1.00  0.00    -0.169 N  
HETATM    6  C   UNL     1      -8.364  14.170  68.921  1.00  0.00    -0.003 C  
HETATM    7  C   UNL     1      -8.992  13.724  67.570  1.00  0.00    -0.201 C  
BRANCH   5   8
HETATM    8  C   UNL     1      -8.595  11.589  66.238  1.00  0.00    -0.133 C  
HETATM    9  O   UNL     1      -7.849  10.628  66.082  1.00  0.00    -0.142 OA 
BRANCH   8  10
HETATM   10  N   UNL     1      -9.463  11.981  65.257  1.00  0.00    -0.428 N  
HETATM   11  H   UNL     1      -9.149  12.613  64.521  1.00  0.00     0.000 HD 
BRANCH  10  12
HETATM   12  C   UNL     1     -10.845  11.494  65.263  1.00  0.00    -0.259 C  
HETATM   13  F   UNL     1     -11.287  13.433  63.917  1.00  0.00    -0.393 F  
HETATM   14  C   UNL     1     -11.845  12.315  64.436  1.00  0.00    -0.388 C  
HETATM   15  F   UNL     1     -12.381  11.602  63.424  1.00  0.00    -0.601 F  
HETATM   16  F   UNL     1     -12.871  12.725  65.227  1.00  0.00    -0.547 F  
ENDBRANCH  10  12
ENDBRANCH   8  10
ENDBRANCH   5   8
BRANCH   6  17
HETATM   17  C   UNL     1      -7.777  15.555  68.872  1.00  0.00    -0.175 A  
HETATM   18  N   UNL     1      -6.706  17.503  69.449  1.00  0.00    -0.223 NA 
HETATM   19  C   UNL     1      -6.780  16.148  69.642  1.00  0.00    -0.165 A  
HETATM   20  C   UNL     1      -7.619  17.745  68.535  1.00  0.00    -0.276 A  
HETATM   21  C   UNL     1      -8.034  19.040  68.035  1.00  0.00    -0.289 A  
HETATM   22  N   UNL     1      -8.933  19.187  67.090  1.00  0.00    -0.283 NA 
HETATM   23  C   UNL     1      -9.408  18.008  66.605  1.00  0.00    -0.291 A  
HETATM   24  C   UNL     1      -9.094  16.714  66.981  1.00  0.00    -0.216 A  
HETATM   25  C   UNL     1      -9.755  15.811  66.136  1.00  0.00    -0.351 A  
HETATM   26  N   UNL     1      -8.196  16.587  68.055  1.00  0.00    -0.169 NA 
HETATM   27  C   UNL     1     -10.546  16.586  65.306  1.00  0.00    -0.253 A  
HETATM   28  N   UNL     1     -10.344  17.915  65.612  1.00  0.00    -0.617 NA 
HETATM   29  H   UNL     1     -10.817  18.702  65.169  1.00  0.00     0.000 HD 
ENDBRANCH   6  17
ENDBRANCH   2   3
TORSDOF 5
ENDMDL
MODEL      225
REMARK 921   NORMALIZED FREE ENERGY PREDICTED BY IDOCK:   -2.93 KCAL/MOL
REMARK 922        TOTAL FREE ENERGY PREDICTED BY IDOCK:   -4.00 KCAL/MOL
REMARK 923 INTER-LIGAND FREE ENERGY PREDICTED BY IDOCK:   -3.85 KCAL/MOL
REMARK 924 INTRA-LIGAND FREE ENERGY PREDICTED BY IDOCK:   -0.15 KCAL/MOL
REMARK 927      BINDING AFFINITY PREDICTED BY RF-SCORE:    0.00 PKD
ROOT
HETATM    1  C   UNL     1     -11.406   6.381  69.289  1.00  0.00    -0.405 C  
HETATM    2  C   UNL     1     -10.354   5.445  68.704  1.00  0.00    -0.229 C  
ENDROOT
BRANCH   2   3
HETATM    3  C   UNL     1      -9.173   5.182  69.664  1.00  0.00    -0.164 C  
HETATM    4  C   UNL     1      -8.726   6.458  70.381  1.00  0.00    -0.147 C  
HETATM    5  N   UNL     1      -7.832   7.082  69.432  1.00  0.00    -0.111 N  
HETATM    6  C   UNL     1      -7.850   4.716  68.979  1.00  0.00    -0.071 C  
HETATM    7  C   UNL     1      -7.137   6.062  68.663  1.00  0.00    -0.082 C  
BRANCH   5   8
HETATM    8  C   UNL     1      -7.868   8.438  69.219  1.00  0.00    -0.104 C  
HETATM    9  O   UNL     1      -6.861   9.138  69.192  1.00  0.00    -0.050 OA 
BRANCH   8  10
HETATM   10  N   UNL     1      -9.110   8.971  69.014  1.00  0.00    -0.142 N  
HETATM   11  H   UNL     1      -9.930   8.530  69.431  1.00  0.00     0.000 HD 
BRANCH  10  12
HETATM   12  C   UNL     1      -9.265  10.176  68.194  1.00  0.00    -0.135 C  
HETATM   13  F   UNL     1     -11.078   8.970  67.181  1.00  0.00    -0.270 F  
HETATM   14  C   UNL     1     -10.437  10.162  67.203  1.00  0.00    -0.246 C  
HETATM   15  F   UNL     1     -11.346  11.123  67.468  1.00  0.00    -0.310 F  
HETATM   16  F   UNL     1      -9.978  10.379  65.942  1.00  0.00    -0.253 F  
ENDBRANCH  10  12
ENDBRANCH   8  10
ENDBRANCH   5   8
BRANCH   6  17
HETATM   17  C   UNL     1      -8.006   3.832  67.771  1.00  0.00    -0.085 A  
HETATM   18  N   UNL     1      -7.966   2.018  66.363  1.00  0.00    -0.075 NA 
HETATM   19  C   UNL     1      -8.070   2.445  67.662  1.00  0.00    -0.064 A  
HETATM   20  C   UNL     1      -7.884   3.129  65.668  1.00  0.00    -0.085 A  
HETATM   21  C   UNL     1      -7.654   3.254  64.242  1.00  0.00    -0.076 A  
HETATM   22  N   UNL     1      -7.621   4.410  63.621  1.00  0.00    -0.065 NA 
HETATM   23  C   UNL     1      -7.860   5.471  64.439  1.00  0.00    -0.110 A  
HETATM   24  C   UNL     1      -8.102   5.494  65.800  1.00  0.00    -0.112 A  
HETATM   25  C   UNL     1      -8.393   6.806  66.199  1.00  0.00    -0.130 A  
HETATM   26  N   UNL     1      -8.042   4.251  66.456  1.00  0.00    -0.102 NA 
HETATM   27  C   UNL     1      -8.228   7.586  65.069  1.00  0.00    -0.103 A  
HETATM   28  N   UNL     1      -7.885   6.770  64.012  1.00  0.00    -0.126 NA 
HETATM   29  H   UNL     1      -7.682   7.086  63.063  1.00  0.00     0.000 HD 
ENDBRANCH   6  17
ENDBRANCH   2   3
TORSDOF 5
ENDMDL
MODEL      226
REMARK 921   NORMALIZED FREE ENERGY PREDICTED BY IDOCK:   -2.91 KCAL/MOL
REMARK 922        TOTAL FREE ENERGY PREDICTED BY IDOCK:   -3.98 KCAL/MOL
REMARK 923 INTER-LIGAND FREE ENERGY PREDICTED BY IDOCK:   -5.36 KCAL/MOL
REMARK 924 INTRA-LIGAND FREE ENERGY PREDICTED BY IDOCK:    1.38 KCAL/MOL
REMARK 927      BINDING AFFINITY PREDICTED BY RF-SCORE:    0.00 PKD
ROOT
HETATM    1  C   UNL     1      -6.517  14.683  70.141  1.00  0.00    -0.166 C  
HETATM    2  C   UNL     1      -5.923  13.279  70.161  1.00  0.00    -0.139 C  
ENDROOT
BRANCH   2   3
HETATM    3  C   UNL     1      -5.761  12.666  68.751  1.00  0.00    -0.066 C  
HETATM    4  C   UNL     1      -5.963  13.710  67.650  1.00  0.00    -0.075 C  
HETATM    5  N   UNL     1      -7.398  13.749  67.483  1.00  0.00    -0.174 N  
HETATM    6  C   UNL     1      -6.821  11.586  68.370  1.00  0.00    -0.070 C  
HETATM    7  C   UNL     1      -7.962  12.433  67.740  1.00  0.00    -0.156 C  
BRANCH   5   8
HETATM    8  C   UNL     1      -8.054  14.944  67.317  1.00  0.00    -0.208 C  
HETATM    9  O   UNL     1      -7.474  16.001  67.095  1.00  0.00    -0.175 OA 
BRANCH   8  10
HETATM   10  N   UNL     1      -9.419  14.884  67.390  1.00  0.00    -0.203 N  
HETATM   11  H   UNL     1      -9.965  14.663  66.558  1.00  0.00     0.000 HD 
BRANCH  10  12
HETATM   12  C   UNL     1     -10.097  15.137  68.665  1.00  0.00    -0.222 C  
HETATM   13  F   UNL     1     -12.101  14.703  67.416  1.00  0.00    -0.400 F  
HETATM   14  C   UNL     1     -11.622  14.964  68.654  1.00  0.00    -0.318 C  
HETATM   15  F   UNL     1     -12.033  13.979  69.480  1.00  0.00    -0.296 F  
HETATM   16  F   UNL     1     -12.220  16.111  69.069  1.00  0.00    -0.320 F  
ENDBRANCH  10  12
ENDBRANCH   8  10
ENDBRANCH   5   8
BRANCH   6  17
HETATM   17  C   UNL     1      -7.292  10.697  69.490  1.00  0.00    -0.141 A  
HETATM   18  N   UNL     1      -7.343   9.157  71.192  1.00  0.00    -0.232 NA 
HETATM   19  C   UNL     1      -6.588  10.085  70.523  1.00  0.00    -0.122 A  
HETATM   20  C   UNL     1      -8.519   9.223  70.610  1.00  0.00    -0.217 A  
HETATM   21  C   UNL     1      -9.668   8.376  70.861  1.00  0.00    -0.174 A  
HETATM   22  N   UNL     1     -10.821   8.537  70.255  1.00  0.00    -0.238 NA 
HETATM   23  C   UNL     1     -10.840   9.594  69.399  1.00  0.00    -0.217 A  
HETATM   24  C   UNL     1      -9.830  10.481  69.076  1.00  0.00    -0.212 A  
HETATM   25  C   UNL     1     -10.335  11.472  68.223  1.00  0.00    -0.211 A  
HETATM   26  N   UNL     1      -8.580  10.232  69.671  1.00  0.00    -0.149 NA 
HETATM   27  C   UNL     1     -11.646  11.110  67.963  1.00  0.00    -0.263 A  
HETATM   28  N   UNL     1     -11.935   9.959  68.665  1.00  0.00    -0.192 NA 
HETATM   29  H   UNL     1     -12.825   9.460  68.640  1.00  0.00     0.000 HD 
ENDBRANCH   6  17
ENDBRANCH   2   3
TORSDOF 5
ENDMDL
MODEL      227
REMARK 921   NORMALIZED FREE ENERGY PREDICTED BY IDOCK:   -2.86 KCAL/MOL
REMARK 922        TOTAL FREE ENERGY PREDICTED BY IDOCK:   -3.92 KCAL/MOL
REMARK 923 INTER-LIGAND FREE ENERGY PREDICTED BY IDOCK:   -6.02 KCAL/MOL
REMARK 924 INTRA-LIGAND FREE ENERGY PREDICTED BY IDOCK:    2.10 KCAL/MOL
REMARK 927      BINDING AFFINITY PREDICTED BY RF-SCORE:    0.00 PKD
ROOT
HETATM    1  C   UNL     1     -10.974  14.691  65.146  1.00  0.00    -0.395 C  
HETATM    2  C   UNL     1     -12.307  14.167  65.668  1.00  0.00    -0.473 C  
ENDROOT
BRANCH   2   3
HETATM    3  C   UNL     1     -12.208  13.557  67.085  1.00  0.00    -0.328 C  
HETATM    4  C   UNL     1     -12.099  14.636  68.164  1.00  0.00    -0.164 C  
HETATM    5  N   UNL     1     -10.688  14.950  68.185  1.00  0.00    -0.246 N  
HETATM    6  C   UNL     1     -10.930  12.702  67.353  1.00  0.00    -0.289 C  
HETATM    7  C   UNL     1      -9.913  13.761  67.867  1.00  0.00    -0.240 C  
BRANCH   5   8
HETATM    8  C   UNL     1     -10.258  16.249  68.289  1.00  0.00    -0.253 C  
HETATM    9  O   UNL     1     -11.017  17.192  68.484  1.00  0.00    -0.317 OA 
BRANCH   8  10
HETATM   10  N   UNL     1      -8.907  16.435  68.184  1.00  0.00    -0.188 N  
HETATM   11  H   UNL     1      -8.312  16.330  69.006  1.00  0.00     0.000 HD 
BRANCH  10  12
HETATM   12  C   UNL     1      -8.313  16.783  66.890  1.00  0.00    -0.209 C  
HETATM   13  F   UNL     1      -7.287  18.579  68.110  1.00  0.00    -0.235 F  
HETATM   14  C   UNL     1      -7.346  17.975  66.900  1.00  0.00    -0.204 C  
HETATM   15  F   UNL     1      -6.093  17.623  66.545  1.00  0.00    -0.164 F  
HETATM   16  F   UNL     1      -7.765  18.917  66.016  1.00  0.00    -0.275 F  
ENDBRANCH  10  12
ENDBRANCH   8  10
ENDBRANCH   5   8
BRANCH   6  17
HETATM   17  C   UNL     1     -10.412  11.903  66.187  1.00  0.00    -0.237 A  
HETATM   18  N   UNL     1     -10.282  10.753  64.204  1.00  0.00    -0.353 NA 
HETATM   19  C   UNL     1     -10.899  11.766  64.890  1.00  0.00    -0.298 A  
HETATM   20  C   UNL     1      -9.389  10.292  65.050  1.00  0.00    -0.237 A  
HETATM   21  C   UNL     1      -8.526   9.141  64.872  1.00  0.00    -0.175 A  
HETATM   22  N   UNL     1      -7.634   8.772  65.760  1.00  0.00    -0.085 NA 
HETATM   23  C   UNL     1      -7.575   9.593  66.844  1.00  0.00    -0.095 A  
HETATM   24  C   UNL     1      -8.324  10.719  67.133  1.00  0.00    -0.126 A  
HETATM   25  C   UNL     1      -7.846  11.304  68.315  1.00  0.00    -0.130 A  
HETATM   26  N   UNL     1      -9.333  11.041  66.208  1.00  0.00    -0.178 NA 
HETATM   27  C   UNL     1      -6.857  10.456  68.780  1.00  0.00    -0.059 A  
HETATM   28  N   UNL     1      -6.714   9.411  67.891  1.00  0.00    -0.066 NA 
HETATM   29  H   UNL     1      -6.070   8.628  67.998  1.00  0.00     0.000 HD 
ENDBRANCH   6  17
ENDBRANCH   2   3
TORSDOF 5
ENDMDL
MODEL      228
REMARK 921   NORMALIZED FREE ENERGY PREDICTED BY IDOCK:   -2.83 KCAL/MOL
REMARK 922        TOTAL FREE ENERGY PREDICTED BY IDOCK:   -3.88 KCAL/MOL
REMARK 923 INTER-LIGAND FREE ENERGY PREDICTED BY IDOCK:   -3.93 KCAL/MOL
REMARK 924 INTRA-LIGAND FREE ENERGY PREDICTED BY IDOCK:    0.05 KCAL/MOL
REMARK 927      BINDING AFFINITY PREDICTED BY RF-SCORE:    0.00 PKD
ROOT
HETATM    1  C   UNL     1      -6.463  10.690  66.839  1.00  0.00    -0.084 C  
HETATM    2  C   UNL     1      -6.997   9.560  67.712  1.00  0.00    -0.080 C  
ENDROOT
BRANCH   2   3
HETATM    3  C   UNL     1      -8.447   9.157  67.365  1.00  0.00    -0.115 C  
HETATM    4  C   UNL     1      -9.377   9.282  68.574  1.00  0.00    -0.142 C  
HETATM    5  N   UNL     1      -9.184   8.033  69.277  1.00  0.00    -0.152 N  
HETATM    6  C   UNL     1      -8.644   7.663  66.960  1.00  0.00    -0.122 C  
HETATM    7  C   UNL     1      -8.905   6.969  68.327  1.00  0.00    -0.126 C  
BRANCH   5   8
HETATM    8  C   UNL     1      -9.088   8.005  70.646  1.00  0.00    -0.153 C  
HETATM    9  O   UNL     1      -8.390   7.198  71.252  1.00  0.00    -0.112 OA 
BRANCH   8  10
HETATM   10  N   UNL     1      -9.808   8.960  71.310  1.00  0.00    -0.263 N  
HETATM   11  H   UNL     1      -9.765   9.933  71.006  1.00  0.00     0.000 HD 
BRANCH  10  12
HETATM   12  C   UNL     1     -10.640   8.587  72.456  1.00  0.00    -0.238 C  
HETATM   13  F   UNL     1     -12.360   8.280  70.809  1.00  0.00    -0.245 F  
HETATM   14  C   UNL     1     -12.073   8.145  72.124  1.00  0.00    -0.357 C  
HETATM   15  F   UNL     1     -12.310   6.865  72.478  1.00  0.00    -0.206 F  
HETATM   16  F   UNL     1     -12.962   8.920  72.797  1.00  0.00    -0.467 F  
ENDBRANCH  10  12
ENDBRANCH   8  10
ENDBRANCH   5   8
BRANCH   6  17
HETATM   17  C   UNL     1      -7.519   7.035  66.182  1.00  0.00    -0.080 A  
HETATM   18  N   UNL     1      -5.537   6.715  65.067  1.00  0.00    -0.029 NA 
HETATM   19  C   UNL     1      -6.180   7.399  66.066  1.00  0.00    -0.041 A  
HETATM   20  C   UNL     1      -6.455   5.902  64.595  1.00  0.00    -0.037 A  
HETATM   21  C   UNL     1      -6.338   5.020  63.451  1.00  0.00    -0.026 A  
HETATM   22  N   UNL     1      -7.299   4.212  63.070  1.00  0.00    -0.048 NA 
HETATM   23  C   UNL     1      -8.397   4.258  63.873  1.00  0.00    -0.100 A  
HETATM   24  C   UNL     1      -8.635   5.037  64.990  1.00  0.00    -0.149 A  
HETATM   25  C   UNL     1      -9.865   4.675  65.557  1.00  0.00    -0.198 A  
HETATM   26  N   UNL     1      -7.625   5.958  65.324  1.00  0.00    -0.082 NA 
HETATM   27  C   UNL     1     -10.405   3.728  64.704  1.00  0.00    -0.163 A  
HETATM   28  N   UNL     1      -9.516   3.498  63.676  1.00  0.00    -0.119 NA 
HETATM   29  H   UNL     1      -9.670   2.862  62.893  1.00  0.00     0.000 HD 
ENDBRANCH   6  17
ENDBRANCH   2   3
TORSDOF 5
ENDMDL
MODEL      229
REMARK 921   NORMALIZED FREE ENERGY PREDICTED BY IDOCK:   -2.78 KCAL/MOL
REMARK 922        TOTAL FREE ENERGY PREDICTED BY IDOCK:   -3.82 KCAL/MOL
REMARK 923 INTER-LIGAND FREE ENERGY PREDICTED BY IDOCK:   -4.57 KCAL/MOL
REMARK 924 INTRA-LIGAND FREE ENERGY PREDICTED BY IDOCK:    0.75 KCAL/MOL
REMARK 927      BINDING AFFINITY PREDICTED BY RF-SCORE:    0.00 PKD
ROOT
HETATM    1  C   UNL     1     -11.429   6.461  69.361  1.00  0.00    -0.374 C  
HETATM    2  C   UNL     1     -10.388   5.723  68.526  1.00  0.00    -0.274 C  
ENDROOT
BRANCH   2   3
HETATM    3  C   UNL     1      -9.064   5.477  69.283  1.00  0.00    -0.132 C  
HETATM    4  C   UNL     1      -8.877   6.463  70.439  1.00  0.00    -0.151 C  
HETATM    5  N   UNL     1      -8.309   7.628  69.799  1.00  0.00    -0.131 N  
HETATM    6  C   UNL     1      -7.767   5.709  68.448  1.00  0.00    -0.092 C  
HETATM    7  C   UNL     1      -7.478   7.220  68.677  1.00  0.00    -0.102 C  
BRANCH   5   8
HETATM    8  C   UNL     1      -8.726   8.891  70.140  1.00  0.00    -0.161 C  
HETATM    9  O   UNL     1      -7.978   9.735  70.622  1.00  0.00    -0.272 OA 
BRANCH   8  10
HETATM   10  N   UNL     1     -10.041   9.168  69.887  1.00  0.00    -0.192 N  
HETATM   11  H   UNL     1     -10.674   8.420  69.604  1.00  0.00     0.000 HD 
BRANCH  10  12
HETATM   12  C   UNL     1     -10.541  10.539  70.023  1.00  0.00    -0.169 C  
HETATM   13  F   UNL     1     -11.234  10.263  67.740  1.00  0.00    -0.323 F  
HETATM   14  C   UNL     1     -11.270  11.107  68.797  1.00  0.00    -0.253 C  
HETATM   15  F   UNL     1     -12.561  11.399  69.058  1.00  0.00    -0.261 F  
HETATM   16  F   UNL     1     -10.671  12.258  68.396  1.00  0.00    -0.206 F  
ENDBRANCH  10  12
ENDBRANCH   8  10
ENDBRANCH   5   8
BRANCH   6  17
HETATM   17  C   UNL     1      -7.842   5.336  66.992  1.00  0.00    -0.100 A  
HETATM   18  N   UNL     1      -7.563   4.240  64.993  1.00  0.00    -0.077 NA 
HETATM   19  C   UNL     1      -7.647   4.114  66.355  1.00  0.00    -0.089 A  
HETATM   20  C   UNL     1      -7.749   5.524  64.780  1.00  0.00    -0.092 A  
HETATM   21  C   UNL     1      -7.656   6.224  63.514  1.00  0.00    -0.087 A  
HETATM   22  N   UNL     1      -7.894   7.508  63.389  1.00  0.00    -0.134 NA 
HETATM   23  C   UNL     1      -8.268   8.107  64.552  1.00  0.00    -0.115 A  
HETATM   24  C   UNL     1      -8.406   7.562  65.815  1.00  0.00    -0.142 A  
HETATM   25  C   UNL     1      -8.912   8.535  66.689  1.00  0.00    -0.178 A  
HETATM   26  N   UNL     1      -8.059   6.205  65.940  1.00  0.00    -0.115 NA 
HETATM   27  C   UNL     1      -8.986   9.701  65.948  1.00  0.00    -0.167 A  
HETATM   28  N   UNL     1      -8.575   9.435  64.659  1.00  0.00    -0.177 NA 
HETATM   29  H   UNL     1      -8.510  10.121  63.907  1.00  0.00     0.000 HD 
ENDBRANCH   6  17
ENDBRANCH   2   3
TORSDOF 5
ENDMDL
MODEL      230
REMARK 921   NORMALIZED FREE ENERGY PREDICTED BY IDOCK:   -2.54 KCAL/MOL
REMARK 922        TOTAL FREE ENERGY PREDICTED BY IDOCK:   -3.51 KCAL/MOL
REMARK 923 INTER-LIGAND FREE ENERGY PREDICTED BY IDOCK:   -4.64 KCAL/MOL
REMARK 924 INTRA-LIGAND FREE ENERGY PREDICTED BY IDOCK:    1.13 KCAL/MOL
REMARK 927      BINDING AFFINITY PREDICTED BY RF-SCORE:    0.00 PKD
ROOT
HETATM    1  C   UNL     1     -10.812  18.675  65.346  1.00  0.00     0.299 C  
HETATM    2  C   UNL     1     -10.113  18.053  66.550  1.00  0.00    -0.379 C  
ENDROOT
BRANCH   2   3
HETATM    3  C   UNL     1      -9.798  16.552  66.362  1.00  0.00    -0.311 C  
HETATM    4  C   UNL     1     -10.853  15.661  67.022  1.00  0.00    -0.294 C  
HETATM    5  N   UNL     1     -10.421  15.593  68.400  1.00  0.00    -0.237 N  
HETATM    6  C   UNL     1      -8.485  16.057  67.044  1.00  0.00    -0.245 C  
HETATM    7  C   UNL     1      -8.969  15.654  68.466  1.00  0.00    -0.192 C  
BRANCH   5   8
HETATM    8  C   UNL     1     -11.329  15.676  69.426  1.00  0.00    -0.330 C  
HETATM    9  O   UNL     1     -12.427  16.208  69.307  1.00  0.00     0.016 OA 
BRANCH   8  10
HETATM   10  N   UNL     1     -10.942  15.100  70.605  1.00  0.00    -0.477 N  
HETATM   11  H   UNL     1      -9.950  15.018  70.831  1.00  0.00     0.000 HD 
BRANCH  10  12
HETATM   12  C   UNL     1     -11.951  14.602  71.544  1.00  0.00    -0.334 C  
HETATM   13  F   UNL     1     -11.712  16.757  72.579  1.00  0.00    -0.574 F  
HETATM   14  C   UNL     1     -12.410  15.598  72.619  1.00  0.00    -0.427 C  
HETATM   15  F   UNL     1     -13.722  15.894  72.518  1.00  0.00    -0.540 F  
HETATM   16  F   UNL     1     -12.211  15.068  73.854  1.00  0.00    -0.547 F  
ENDBRANCH  10  12
ENDBRANCH   8  10
ENDBRANCH   5   8
BRANCH   6  17
HETATM   17  C   UNL     1      -7.340  17.034  67.064  1.00  0.00    -0.185 A  
HETATM   18  N   UNL     1      -5.253  17.969  66.859  1.00  0.00    -0.129 NA 
HETATM   19  C   UNL     1      -6.128  17.029  66.380  1.00  0.00    -0.071 A  
HETATM   20  C   UNL     1      -5.930  18.584  67.802  1.00  0.00    -0.184 A  
HETATM   21  C   UNL     1      -5.441  19.604  68.708  1.00  0.00    -0.200 A  
HETATM   22  N   UNL     1      -6.201  20.191  69.602  1.00  0.00    -0.340 NA 
HETATM   23  C   UNL     1      -7.497  19.776  69.568  1.00  0.00    -0.024 A  
HETATM   24  C   UNL     1      -8.094  18.829  68.757  1.00  0.00    -0.295 A  
HETATM   25  C   UNL     1      -9.474  18.804  69.009  1.00  0.00    -0.260 A  
HETATM   26  N   UNL     1      -7.239  18.151  67.871  1.00  0.00    -0.219 NA 
HETATM   27  C   UNL     1      -9.679  19.688  70.054  1.00  0.00     0.545 A  
HETATM   28  N   UNL     1      -8.472  20.256  70.399  1.00  0.00     1.296 NA 
HETATM   29  H   UNL     1      -8.329  20.928  71.153  1.00  0.00     0.000 HD 
ENDBRANCH   6  17
ENDBRANCH   2   3
TORSDOF 5
ENDMDL
MODEL      231
REMARK 921   NORMALIZED FREE ENERGY PREDICTED BY IDOCK:   -2.50 KCAL/MOL
REMARK 922        TOTAL FREE ENERGY PREDICTED BY IDOCK:   -3.45 KCAL/MOL
REMARK 923 INTER-LIGAND FREE ENERGY PREDICTED BY IDOCK:   -4.21 KCAL/MOL
REMARK 924 INTRA-LIGAND FREE ENERGY PREDICTED BY IDOCK:    0.76 KCAL/MOL
REMARK 927      BINDING AFFINITY PREDICTED BY RF-SCORE:    0.00 PKD
ROOT
HETATM    1  C   UNL     1     -10.479  19.558  65.444  1.00  0.00    -0.026 C  
HETATM    2  C   UNL     1     -10.300  18.607  66.622  1.00  0.00    -0.456 C  
ENDROOT
BRANCH   2   3
HETATM    3  C   UNL     1      -9.940  17.167  66.193  1.00  0.00    -0.296 C  
HETATM    4  C   UNL     1     -10.709  16.121  67.003  1.00  0.00    -0.254 C  
HETATM    5  N   UNL     1      -9.916  15.976  68.203  1.00  0.00    -0.225 N  
HETATM    6  C   UNL     1      -8.458  16.747  66.448  1.00  0.00    -0.338 C  
HETATM    7  C   UNL     1      -8.509  16.176  67.894  1.00  0.00    -0.163 C  
BRANCH   5   8
HETATM    8  C   UNL     1     -10.516  15.878  69.434  1.00  0.00    -0.265 C  
HETATM    9  O   UNL     1     -11.013  16.836  70.016  1.00  0.00    -0.275 OA 
BRANCH   8  10
HETATM   10  N   UNL     1     -10.549  14.623  69.977  1.00  0.00    -0.465 N  
HETATM   11  H   UNL     1      -9.761  14.285  70.529  1.00  0.00     0.000 HD 
BRANCH  10  12
HETATM   12  C   UNL     1     -11.717  13.763  69.765  1.00  0.00    -0.302 C  
HETATM   13  F   UNL     1     -10.169  12.345  68.599  1.00  0.00    -0.215 F  
HETATM   14  C   UNL     1     -11.448  12.443  69.029  1.00  0.00    -0.300 C  
HETATM   15  F   UNL     1     -11.719  11.364  69.793  1.00  0.00    -0.298 F  
HETATM   16  F   UNL     1     -12.236  12.362  67.925  1.00  0.00    -0.383 F  
ENDBRANCH  10  12
ENDBRANCH   8  10
ENDBRANCH   5   8
BRANCH   6  17
HETATM   17  C   UNL     1      -7.426  17.829  66.276  1.00  0.00    -0.293 A  
HETATM   18  N   UNL     1      -5.581  19.007  65.581  1.00  0.00    -0.157 NA 
HETATM   19  C   UNL     1      -6.518  18.064  65.247  1.00  0.00     0.086 A  
HETATM   20  C   UNL     1      -5.928  19.387  66.789  1.00  0.00    -0.165 A  
HETATM   21  C   UNL     1      -5.212  20.298  67.660  1.00  0.00    -0.181 A  
HETATM   22  N   UNL     1      -5.652  20.650  68.845  1.00  0.00    -0.312 NA 
HETATM   23  C   UNL     1      -6.860  20.107  69.158  1.00  0.00    -0.199 A  
HETATM   24  C   UNL     1      -7.649  19.240  68.424  1.00  0.00    -0.316 A  
HETATM   25  C   UNL     1      -8.858  19.025  69.102  1.00  0.00    -0.102 A  
HETATM   26  N   UNL     1      -7.112  18.808  67.198  1.00  0.00    -0.204 NA 
HETATM   27  C   UNL     1      -8.740  19.704  70.302  1.00  0.00     1.420 A  
HETATM   28  N   UNL     1      -7.518  20.340  70.334  1.00  0.00     0.479 NA 
HETATM   29  H   UNL     1      -7.161  20.895  71.112  1.00  0.00     0.000 HD 
ENDBRANCH   6  17
ENDBRANCH   2   3
TORSDOF 5
ENDMDL
MODEL      232
REMARK 921   NORMALIZED FREE ENERGY PREDICTED BY IDOCK:   -2.44 KCAL/MOL
REMARK 922        TOTAL FREE ENERGY PREDICTED BY IDOCK:   -3.37 KCAL/MOL
REMARK 923 INTER-LIGAND FREE ENERGY PREDICTED BY IDOCK:   -5.06 KCAL/MOL
REMARK 924 INTRA-LIGAND FREE ENERGY PREDICTED BY IDOCK:    1.68 KCAL/MOL
REMARK 927      BINDING AFFINITY PREDICTED BY RF-SCORE:    0.00 PKD
ROOT
HETATM    1  C   UNL     1      -8.342  15.639  69.638  1.00  0.00    -0.070 C  
HETATM    2  C   UNL     1      -8.704  15.293  68.198  1.00  0.00    -0.162 C  
ENDROOT
BRANCH   2   3
HETATM    3  C   UNL     1      -9.685  14.104  68.087  1.00  0.00    -0.225 C  
HETATM    4  C   UNL     1      -9.860  13.644  66.638  1.00  0.00    -0.284 C  
HETATM    5  N   UNL     1     -10.869  14.541  66.120  1.00  0.00    -0.310 N  
HETATM    6  C   UNL     1     -11.155  14.412  68.508  1.00  0.00    -0.270 C  
HETATM    7  C   UNL     1     -11.794  14.909  67.180  1.00  0.00    -0.211 C  
BRANCH   5   8
HETATM    8  C   UNL     1     -10.756  15.074  64.860  1.00  0.00    -0.397 C  
HETATM    9  O   UNL     1     -10.428  16.237  64.652  1.00  0.00    -0.538 OA 
BRANCH   8  10
HETATM   10  N   UNL     1     -11.012  14.213  63.829  1.00  0.00     0.003 N  
HETATM   11  H   UNL     1     -11.172  14.575  62.889  1.00  0.00     0.000 HD 
BRANCH  10  12
HETATM   12  C   UNL     1     -11.057  12.768  64.074  1.00  0.00    -0.414 C  
HETATM   13  F   UNL     1     -13.057  12.843  62.747  1.00  0.00     0.114 F  
HETATM   14  C   UNL     1     -12.203  12.011  63.389  1.00  0.00    -0.519 C  
HETATM   15  F   UNL     1     -11.758  11.099  62.501  1.00  0.00     0.338 F  
HETATM   16  F   UNL     1     -12.936  11.344  64.318  1.00  0.00    -0.025 F  
ENDBRANCH  10  12
ENDBRANCH   8  10
ENDBRANCH   5   8
BRANCH   6  17
HETATM   17  C   UNL     1     -11.328  15.382  69.647  1.00  0.00    -0.307 A  
HETATM   18  N   UNL     1     -11.045  17.159  71.074  1.00  0.00     0.690 NA 
HETATM   19  C   UNL     1     -10.907  16.701  69.789  1.00  0.00    -0.237 A  
HETATM   20  C   UNL     1     -11.588  16.149  71.715  1.00  0.00    -0.419 A  
HETATM   21  C   UNL     1     -11.855  16.056  73.137  1.00  0.00    -0.379 A  
HETATM   22  N   UNL     1     -12.435  15.017  73.689  1.00  0.00    -0.532 NA 
HETATM   23  C   UNL     1     -12.792  14.056  72.795  1.00  0.00    -0.304 A  
HETATM   24  C   UNL     1     -12.609  14.020  71.425  1.00  0.00    -0.372 A  
HETATM   25  C   UNL     1     -13.228  12.876  70.902  1.00  0.00     0.151 A  
HETATM   26  N   UNL     1     -11.905  15.104  70.870  1.00  0.00    -0.297 NA 
HETATM   27  C   UNL     1     -13.706  12.176  71.996  1.00  0.00    -0.006 A  
HETATM   28  N   UNL     1     -13.418  12.890  73.140  1.00  0.00    -0.075 NA 
HETATM   29  H   UNL     1     -13.637  12.595  74.091  1.00  0.00     0.000 HD 
ENDBRANCH   6  17
ENDBRANCH   2   3
TORSDOF 5
ENDMDL
MODEL      233
REMARK 921   NORMALIZED FREE ENERGY PREDICTED BY IDOCK:   -2.43 KCAL/MOL
REMARK 922        TOTAL FREE ENERGY PREDICTED BY IDOCK:   -3.36 KCAL/MOL
REMARK 923 INTER-LIGAND FREE ENERGY PREDICTED BY IDOCK:   -5.47 KCAL/MOL
REMARK 924 INTRA-LIGAND FREE ENERGY PREDICTED BY IDOCK:    2.11 KCAL/MOL
REMARK 927      BINDING AFFINITY PREDICTED BY RF-SCORE:    0.00 PKD
ROOT
HETATM    1  C   UNL     1      -5.878  15.504  67.048  1.00  0.00     0.562 C  
HETATM    2  C   UNL     1      -5.207  15.153  68.371  1.00  0.00    -0.108 C  
ENDROOT
BRANCH   2   3
HETATM    3  C   UNL     1      -6.165  15.235  69.580  1.00  0.00    -0.147 C  
HETATM    4  C   UNL     1      -7.185  14.093  69.577  1.00  0.00     0.042 C  
HETATM    5  N   UNL     1      -8.228  14.576  68.701  1.00  0.00    -0.149 N  
HETATM    6  C   UNL     1      -7.089  16.492  69.614  1.00  0.00     0.038 C  
HETATM    7  C   UNL     1      -8.335  16.023  68.810  1.00  0.00    -0.216 C  
BRANCH   5   8
HETATM    8  C   UNL     1      -8.822  13.741  67.787  1.00  0.00    -0.188 C  
HETATM    9  O   UNL     1      -9.205  12.610  68.064  1.00  0.00    -0.195 OA 
BRANCH   8  10
HETATM   10  N   UNL     1      -8.986  14.259  66.532  1.00  0.00    -0.450 N  
HETATM   11  H   UNL     1      -8.171  14.482  65.961  1.00  0.00     0.000 HD 
BRANCH  10  12
HETATM   12  C   UNL     1     -10.334  14.495  66.007  1.00  0.00    -0.309 C  
HETATM   13  F   UNL     1      -9.925  12.509  64.720  1.00  0.00    -0.271 F  
HETATM   14  C   UNL     1     -10.859  13.441  65.022  1.00  0.00    -0.328 C  
HETATM   15  F   UNL     1     -11.954  12.805  65.486  1.00  0.00    -0.385 F  
HETATM   16  F   UNL     1     -11.206  14.036  63.850  1.00  0.00    -0.263 F  
ENDBRANCH  10  12
ENDBRANCH   8  10
ENDBRANCH   5   8
BRANCH   6  17
HETATM   17  C   UNL     1      -6.489  17.767  69.085  1.00  0.00    -0.240 A  
HETATM   18  N   UNL     1      -5.129  19.595  68.796  1.00  0.00    -0.190 NA 
HETATM   19  C   UNL     1      -5.207  18.293  69.217  1.00  0.00    -0.192 A  
HETATM   20  C   UNL     1      -6.341  19.864  68.366  1.00  0.00    -0.273 A  
HETATM   21  C   UNL     1      -6.842  21.143  67.904  1.00  0.00    -0.096 A  
HETATM   22  N   UNL     1      -8.064  21.313  67.456  1.00  0.00    -0.072 NA 
HETATM   23  C   UNL     1      -8.798  20.168  67.433  1.00  0.00    -0.349 A  
HETATM   24  C   UNL     1      -8.444  18.891  67.830  1.00  0.00    -0.284 A  
HETATM   25  C   UNL     1      -9.488  18.004  67.530  1.00  0.00    -0.262 A  
HETATM   26  N   UNL     1      -7.161  18.754  68.389  1.00  0.00    -0.270 NA 
HETATM   27  C   UNL     1     -10.514  18.789  67.032  1.00  0.00    -0.416 A  
HETATM   28  N   UNL     1     -10.092  20.101  66.997  1.00  0.00    -0.453 NA 
HETATM   29  H   UNL     1     -10.656  20.895  66.694  1.00  0.00     0.000 HD 
ENDBRANCH   6  17
ENDBRANCH   2   3
TORSDOF 5
ENDMDL
MODEL      234
REMARK 921   NORMALIZED FREE ENERGY PREDICTED BY IDOCK:   -2.28 KCAL/MOL
REMARK 922        TOTAL FREE ENERGY PREDICTED BY IDOCK:   -3.16 KCAL/MOL
REMARK 923 INTER-LIGAND FREE ENERGY PREDICTED BY IDOCK:   -4.00 KCAL/MOL
REMARK 924 INTRA-LIGAND FREE ENERGY PREDICTED BY IDOCK:    0.84 KCAL/MOL
REMARK 927      BINDING AFFINITY PREDICTED BY RF-SCORE:    0.00 PKD
ROOT
HETATM    1  C   UNL     1     -11.025  18.274  66.725  1.00  0.00     0.082 C  
HETATM    2  C   UNL     1     -10.696  16.806  66.975  1.00  0.00    -0.161 C  
ENDROOT
BRANCH   2   3
HETATM    3  C   UNL     1      -9.938  16.144  65.802  1.00  0.00    -0.370 C  
HETATM    4  C   UNL     1     -10.449  14.730  65.518  1.00  0.00    -0.359 C  
HETATM    5  N   UNL     1      -9.724  13.914  66.465  1.00  0.00    -0.286 N  
HETATM    6  C   UNL     1      -8.417  15.894  66.050  1.00  0.00    -0.012 C  
HETATM    7  C   UNL     1      -8.405  14.480  66.698  1.00  0.00     0.129 C  
BRANCH   5   8
HETATM    8  C   UNL     1     -10.353  12.900  67.145  1.00  0.00    -0.238 C  
HETATM    9  O   UNL     1     -11.531  12.950  67.482  1.00  0.00    -0.295 OA 
BRANCH   8  10
HETATM   10  N   UNL     1      -9.583  11.801  67.410  1.00  0.00    -0.168 N  
HETATM   11  H   UNL     1      -8.816  11.865  68.080  1.00  0.00     0.000 HD 
BRANCH  10  12
HETATM   12  C   UNL     1      -9.860  10.531  66.734  1.00  0.00    -0.193 C  
HETATM   13  F   UNL     1      -7.951  11.099  65.392  1.00  0.00    -0.079 F  
HETATM   14  C   UNL     1      -8.871  10.135  65.629  1.00  0.00    -0.165 C  
HETATM   15  F   UNL     1      -8.216   8.989  65.912  1.00  0.00    -0.106 F  
HETATM   16  F   UNL     1      -9.537   9.939  64.461  1.00  0.00    -0.317 F  
ENDBRANCH  10  12
ENDBRANCH   8  10
ENDBRANCH   5   8
BRANCH   6  17
HETATM   17  C   UNL     1      -7.702  16.929  66.876  1.00  0.00    -0.217 A  
HETATM   18  N   UNL     1      -6.553  18.813  67.513  1.00  0.00    -0.198 NA 
HETATM   19  C   UNL     1      -7.449  18.275  66.626  1.00  0.00    -0.226 A  
HETATM   20  C   UNL     1      -6.286  17.823  68.335  1.00  0.00    -0.179 A  
HETATM   21  C   UNL     1      -5.312  17.815  69.408  1.00  0.00    -0.194 A  
HETATM   22  N   UNL     1      -5.135  16.788  70.206  1.00  0.00    -0.184 NA 
HETATM   23  C   UNL     1      -5.976  15.750  69.949  1.00  0.00    -0.166 A  
HETATM   24  C   UNL     1      -6.949  15.630  68.973  1.00  0.00    -0.145 A  
HETATM   25  C   UNL     1      -7.639  14.422  69.151  1.00  0.00    -0.072 A  
HETATM   26  N   UNL     1      -7.057  16.708  68.076  1.00  0.00    -0.144 NA 
HETATM   27  C   UNL     1      -7.000  13.776  70.194  1.00  0.00     0.441 A  
HETATM   28  N   UNL     1      -5.981  14.581  70.658  1.00  0.00    -0.181 NA 
HETATM   29  H   UNL     1      -5.334  14.341  71.409  1.00  0.00     0.000 HD 
ENDBRANCH   6  17
ENDBRANCH   2   3
TORSDOF 5
ENDMDL
MODEL      235
REMARK 921   NORMALIZED FREE ENERGY PREDICTED BY IDOCK:   -2.13 KCAL/MOL
REMARK 922        TOTAL FREE ENERGY PREDICTED BY IDOCK:   -2.98 KCAL/MOL
REMARK 923 INTER-LIGAND FREE ENERGY PREDICTED BY IDOCK:   -3.21 KCAL/MOL
REMARK 924 INTRA-LIGAND FREE ENERGY PREDICTED BY IDOCK:    0.23 KCAL/MOL
REMARK 927      BINDING AFFINITY PREDICTED BY RF-SCORE:    0.00 PKD
ROOT
HETATM    1  C   UNL     1      -7.821  14.951  69.466  1.00  0.00    -0.102 C  
HETATM    2  C   UNL     1      -8.917  14.386  68.568  1.00  0.00    -0.187 C  
ENDROOT
BRANCH   2   3
HETATM    3  C   UNL     1      -9.403  12.987  69.009  1.00  0.00     0.446 C  
HETATM    4  C   UNL     1      -9.130  11.926  67.940  1.00  0.00    -0.183 C  
HETATM    5  N   UNL     1     -10.258  12.051  67.045  1.00  0.00    -0.203 N  
HETATM    6  C   UNL     1     -10.945  12.852  69.210  1.00  0.00    -0.119 C  
HETATM    7  C   UNL     1     -11.441  12.447  67.793  1.00  0.00    -0.324 C  
BRANCH   5   8
HETATM    8  C   UNL     1     -10.086  11.994  65.685  1.00  0.00    -0.243 C  
HETATM    9  O   UNL     1      -9.840  10.954  65.084  1.00  0.00    -0.236 OA 
BRANCH   8  10
HETATM   10  N   UNL     1     -10.228  13.181  65.020  1.00  0.00    -0.432 N  
HETATM   11  H   UNL     1      -9.798  13.308  64.104  1.00  0.00     0.000 HD 
BRANCH  10  12
HETATM   12  C   UNL     1     -10.999  14.272  65.624  1.00  0.00    -0.309 C  
HETATM   13  F   UNL     1     -12.441  13.990  63.724  1.00  0.00    -0.478 F  
HETATM   14  C   UNL     1     -12.288  14.663  64.888  1.00  0.00    -0.315 C  
HETATM   15  F   UNL     1     -13.390  14.460  65.639  1.00  0.00    -0.480 F  
HETATM   16  F   UNL     1     -12.256  15.984  64.571  1.00  0.00    -0.151 F  
ENDBRANCH  10  12
ENDBRANCH   8  10
ENDBRANCH   5   8
BRANCH   6  17
HETATM   17  C   UNL     1     -11.649  14.064  69.759  1.00  0.00    -0.281 A  
HETATM   18  N   UNL     1     -12.158  16.227  70.341  1.00  0.00     0.013 NA 
HETATM   19  C   UNL     1     -11.517  15.413  69.443  1.00  0.00    -0.324 A  
HETATM   20  C   UNL     1     -12.721  15.389  71.183  1.00  0.00    -0.439 A  
HETATM   21  C   UNL     1     -13.443  15.721  72.396  1.00  0.00    -0.463 A  
HETATM   22  N   UNL     1     -14.006  14.817  73.163  1.00  0.00    -0.179 NA 
HETATM   23  C   UNL     1     -13.877  13.548  72.689  1.00  0.00    -0.361 A  
HETATM   24  C   UNL     1     -13.231  13.096  71.553  1.00  0.00    -0.282 A  
HETATM   25  C   UNL     1     -13.444  11.717  71.414  1.00  0.00     0.200 A  
HETATM   26  N   UNL     1     -12.560  14.074  70.798  1.00  0.00    -0.349 NA 
HETATM   27  C   UNL     1     -14.151  11.332  72.539  1.00  0.00     1.144 A  
HETATM   28  N   UNL     1     -14.391  12.446  73.316  1.00  0.00     1.430 NA 
HETATM   29  H   UNL     1     -14.874  12.447  74.214  1.00  0.00     0.000 HD 
ENDBRANCH   6  17
ENDBRANCH   2   3
TORSDOF 5
ENDMDL
MODEL      236
REMARK 921   NORMALIZED FREE ENERGY PREDICTED BY IDOCK:   -2.13 KCAL/MOL
REMARK 922        TOTAL FREE ENERGY PREDICTED BY IDOCK:   -2.97 KCAL/MOL
REMARK 923 INTER-LIGAND FREE ENERGY PREDICTED BY IDOCK:   -5.24 KCAL/MOL
REMARK 924 INTRA-LIGAND FREE ENERGY PREDICTED BY IDOCK:    2.27 KCAL/MOL
REMARK 927      BINDING AFFINITY PREDICTED BY RF-SCORE:    0.00 PKD
ROOT
HETATM    1  C   UNL     1      -9.463   6.715  69.550  1.00  0.00    -0.148 C  
HETATM    2  C   UNL     1     -10.798   5.979  69.572  1.00  0.00    -0.439 C  
ENDROOT
BRANCH   2   3
HETATM    3  C   UNL     1     -11.546   6.116  70.917  1.00  0.00    -0.259 C  
HETATM    4  C   UNL     1     -12.283   7.453  71.026  1.00  0.00    -0.282 C  
HETATM    5  N   UNL     1     -11.260   8.364  71.487  1.00  0.00    -0.253 N  
HETATM    6  C   UNL     1     -10.637   6.144  72.184  1.00  0.00    -0.248 C  
HETATM    7  C   UNL     1     -10.320   7.658  72.344  1.00  0.00    -0.238 C  
BRANCH   5   8
HETATM    8  C   UNL     1     -11.159   9.630  70.966  1.00  0.00    -0.368 C  
HETATM    9  O   UNL     1     -11.952  10.527  71.229  1.00  0.00    -0.345 OA 
BRANCH   8  10
HETATM   10  N   UNL     1     -10.091   9.845  70.140  1.00  0.00    -0.287 N  
HETATM   11  H   UNL     1      -9.240   9.293  70.251  1.00  0.00     0.000 HD 
BRANCH  10  12
HETATM   12  C   UNL     1     -10.167  10.869  69.094  1.00  0.00    -0.195 C  
HETATM   13  F   UNL     1     -10.856   9.048  67.689  1.00  0.00    -0.314 F  
HETATM   14  C   UNL     1     -10.667  10.387  67.725  1.00  0.00    -0.279 C  
HETATM   15  F   UNL     1     -11.820  10.985  67.360  1.00  0.00    -0.294 F  
HETATM   16  F   UNL     1      -9.745  10.675  66.769  1.00  0.00    -0.189 F  
ENDBRANCH  10  12
ENDBRANCH   8  10
ENDBRANCH   5   8
BRANCH   6  17
HETATM   17  C   UNL     1      -9.403   5.284  72.132  1.00  0.00    -0.139 A  
HETATM   18  N   UNL     1      -7.999   3.471  71.996  1.00  0.00    -0.062 NA 
HETATM   19  C   UNL     1      -9.210   3.999  71.632  1.00  0.00    -0.126 A  
HETATM   20  C   UNL     1      -7.424   4.435  72.679  1.00  0.00    -0.079 A  
HETATM   21  C   UNL     1      -6.161   4.373  73.388  1.00  0.00    -0.029 A  
HETATM   22  N   UNL     1      -5.643   5.401  74.019  1.00  0.00    -0.027 NA 
HETATM   23  C   UNL     1      -6.388   6.534  73.911  1.00  0.00    -0.065 A  
HETATM   24  C   UNL     1      -7.593   6.735  73.263  1.00  0.00    -0.089 A  
HETATM   25  C   UNL     1      -7.939   8.092  73.332  1.00  0.00    -0.236 A  
HETATM   26  N   UNL     1      -8.171   5.596  72.673  1.00  0.00    -0.113 NA 
HETATM   27  C   UNL     1      -6.965   8.687  74.115  1.00  0.00    -0.048 A  
HETATM   28  N   UNL     1      -6.041   7.730  74.477  1.00  0.00    -0.088 NA 
HETATM   29  H   UNL     1      -5.228   7.889  75.073  1.00  0.00     0.000 HD 
ENDBRANCH   6  17
ENDBRANCH   2   3
TORSDOF 5
ENDMDL
MODEL      237
REMARK 921   NORMALIZED FREE ENERGY PREDICTED BY IDOCK:   -2.12 KCAL/MOL
REMARK 922        TOTAL FREE ENERGY PREDICTED BY IDOCK:   -2.96 KCAL/MOL
REMARK 923 INTER-LIGAND FREE ENERGY PREDICTED BY IDOCK:   -4.08 KCAL/MOL
REMARK 924 INTRA-LIGAND FREE ENERGY PREDICTED BY IDOCK:    1.12 KCAL/MOL
REMARK 927      BINDING AFFINITY PREDICTED BY RF-SCORE:    0.00 PKD
ROOT
HETATM    1  C   UNL     1      -8.153   8.685  71.755  1.00  0.00    -0.170 C  
HETATM    2  C   UNL     1      -8.037   9.346  70.386  1.00  0.00    -0.197 C  
ENDROOT
BRANCH   2   3
HETATM    3  C   UNL     1      -6.590   9.754  70.028  1.00  0.00    -0.081 C  
HETATM    4  C   UNL     1      -6.482  11.246  69.706  1.00  0.00    -0.140 C  
HETATM    5  N   UNL     1      -6.861  11.318  68.312  1.00  0.00    -0.062 N  
HETATM    6  C   UNL     1      -6.016   9.101  68.732  1.00  0.00    -0.044 C  
HETATM    7  C   UNL     1      -6.446  10.105  67.624  1.00  0.00    -0.063 C  
BRANCH   5   8
HETATM    8  C   UNL     1      -7.675  12.324  67.856  1.00  0.00    -0.133 C  
HETATM    9  O   UNL     1      -7.605  13.479  68.264  1.00  0.00    -0.115 OA 
BRANCH   8  10
HETATM   10  N   UNL     1      -8.570  11.967  66.886  1.00  0.00    -0.182 N  
HETATM   11  H   UNL     1      -8.562  11.018  66.510  1.00  0.00     0.000 HD 
BRANCH  10  12
HETATM   12  C   UNL     1      -9.541  12.944  66.387  1.00  0.00    -0.252 C  
HETATM   13  F   UNL     1     -10.942  11.025  66.038  1.00  0.00    -0.311 F  
HETATM   14  C   UNL     1     -10.905  12.376  65.970  1.00  0.00    -0.273 C  
HETATM   15  F   UNL     1     -11.915  12.863  66.721  1.00  0.00    -0.401 F  
HETATM   16  F   UNL     1     -11.168  12.707  64.679  1.00  0.00    -0.307 F  
ENDBRANCH  10  12
ENDBRANCH   8  10
ENDBRANCH   5   8
BRANCH   6  17
HETATM   17  C   UNL     1      -6.455   7.689  68.452  1.00  0.00    -0.052 A  
HETATM   18  N   UNL     1      -6.592   5.396  68.451  1.00  0.00    -0.047 NA 
HETATM   19  C   UNL     1      -6.242   6.512  69.165  1.00  0.00    -0.034 A  
HETATM   20  C   UNL     1      -7.061   5.876  67.321  1.00  0.00    -0.074 A  
HETATM   21  C   UNL     1      -7.479   5.121  66.156  1.00  0.00    -0.086 A  
HETATM   22  N   UNL     1      -7.970   5.684  65.077  1.00  0.00    -0.109 NA 
HETATM   23  C   UNL     1      -8.081   7.037  65.174  1.00  0.00    -0.124 A  
HETATM   24  C   UNL     1      -7.735   7.873  66.220  1.00  0.00    -0.092 A  
HETATM   25  C   UNL     1      -8.123   9.186  65.914  1.00  0.00    -0.111 A  
HETATM   26  N   UNL     1      -7.128   7.254  67.327  1.00  0.00    -0.088 NA 
HETATM   27  C   UNL     1      -8.624   9.137  64.625  1.00  0.00    -0.182 A  
HETATM   28  N   UNL     1      -8.576   7.833  64.178  1.00  0.00    -0.354 NA 
HETATM   29  H   UNL     1      -8.863   7.515  63.253  1.00  0.00     0.000 HD 
ENDBRANCH   6  17
ENDBRANCH   2   3
TORSDOF 5
ENDMDL
MODEL      238
REMARK 921   NORMALIZED FREE ENERGY PREDICTED BY IDOCK:   -2.05 KCAL/MOL
REMARK 922        TOTAL FREE ENERGY PREDICTED BY IDOCK:   -2.86 KCAL/MOL
REMARK 923 INTER-LIGAND FREE ENERGY PREDICTED BY IDOCK:   -5.14 KCAL/MOL
REMARK 924 INTRA-LIGAND FREE ENERGY PREDICTED BY IDOCK:    2.28 KCAL/MOL
REMARK 927      BINDING AFFINITY PREDICTED BY RF-SCORE:    0.00 PKD
ROOT
HETATM    1  C   UNL     1     -11.452   6.824  70.259  1.00  0.00    -0.414 C  
HETATM    2  C   UNL     1     -12.493   7.288  71.272  1.00  0.00    -0.402 C  
ENDROOT
BRANCH   2   3
HETATM    3  C   UNL     1     -11.949   8.337  72.268  1.00  0.00    -0.448 C  
HETATM    4  C   UNL     1     -11.787   9.711  71.615  1.00  0.00    -0.384 C  
HETATM    5  N   UNL     1     -10.495   9.630  70.974  1.00  0.00    -0.297 N  
HETATM    6  C   UNL     1     -10.509   8.062  72.802  1.00  0.00    -0.415 C  
HETATM    7  C   UNL     1      -9.612   8.772  71.749  1.00  0.00    -0.301 C  
BRANCH   5   8
HETATM    8  C   UNL     1     -10.299  10.146  69.717  1.00  0.00    -0.259 C  
HETATM    9  O   UNL     1     -11.002   9.852  68.756  1.00  0.00    -0.223 OA 
BRANCH   8  10
HETATM   10  N   UNL     1      -9.272  11.041  69.599  1.00  0.00    -0.222 N  
HETATM   11  H   UNL     1      -8.846  11.442  70.435  1.00  0.00     0.000 HD 
BRANCH  10  12
HETATM   12  C   UNL     1      -8.783  11.425  68.272  1.00  0.00    -0.160 C  
HETATM   13  F   UNL     1      -6.820  12.135  69.460  1.00  0.00    -0.107 F  
HETATM   14  C   UNL     1      -7.355  11.989  68.225  1.00  0.00    -0.095 C  
HETATM   15  F   UNL     1      -6.523  11.218  67.494  1.00  0.00    -0.059 F  
HETATM   16  F   UNL     1      -7.364  13.223  67.657  1.00  0.00    -0.106 F  
ENDBRANCH  10  12
ENDBRANCH   8  10
ENDBRANCH   5   8
BRANCH   6  17
HETATM   17  C   UNL     1     -10.145   6.617  73.011  1.00  0.00    -0.186 A  
HETATM   18  N   UNL     1     -10.132   4.446  73.762  1.00  0.00    -0.144 NA 
HETATM   19  C   UNL     1     -10.899   5.549  73.488  1.00  0.00    -0.276 A  
HETATM   20  C   UNL     1      -8.918   4.810  73.415  1.00  0.00    -0.108 A  
HETATM   21  C   UNL     1      -7.694   4.054  73.593  1.00  0.00    -0.080 A  
HETATM   22  N   UNL     1      -6.523   4.482  73.183  1.00  0.00    -0.044 NA 
HETATM   23  C   UNL     1      -6.577   5.683  72.546  1.00  0.00    -0.066 A  
HETATM   24  C   UNL     1      -7.667   6.498  72.300  1.00  0.00    -0.097 A  
HETATM   25  C   UNL     1      -7.264   7.592  71.522  1.00  0.00    -0.063 A  
HETATM   26  N   UNL     1      -8.894   6.059  72.829  1.00  0.00    -0.124 NA 
HETATM   27  C   UNL     1      -5.893   7.468  71.384  1.00  0.00    -0.035 A  
HETATM   28  N   UNL     1      -5.484   6.319  72.026  1.00  0.00    -0.030 NA 
HETATM   29  H   UNL     1      -4.520   5.995  72.100  1.00  0.00     0.000 HD 
ENDBRANCH   6  17
ENDBRANCH   2   3
TORSDOF 5
ENDMDL
MODEL      239
REMARK 921   NORMALIZED FREE ENERGY PREDICTED BY IDOCK:   -2.04 KCAL/MOL
REMARK 922        TOTAL FREE ENERGY PREDICTED BY IDOCK:   -2.86 KCAL/MOL
REMARK 923 INTER-LIGAND FREE ENERGY PREDICTED BY IDOCK:   -3.14 KCAL/MOL
REMARK 924 INTRA-LIGAND FREE ENERGY PREDICTED BY IDOCK:    0.29 KCAL/MOL
REMARK 927      BINDING AFFINITY PREDICTED BY RF-SCORE:    0.00 PKD
ROOT
HETATM    1  C   UNL     1      -8.127   8.921  72.417  1.00  0.00     0.220 C  
HETATM    2  C   UNL     1      -8.236   9.138  70.911  1.00  0.00    -0.220 C  
ENDROOT
BRANCH   2   3
HETATM    3  C   UNL     1      -6.869   9.374  70.230  1.00  0.00    -0.080 C  
HETATM    4  C   UNL     1      -6.920  10.540  69.239  1.00  0.00    -0.086 C  
HETATM    5  N   UNL     1      -7.432   9.932  68.032  1.00  0.00    -0.085 N  
HETATM    6  C   UNL     1      -6.365   8.205  69.327  1.00  0.00    -0.039 C  
HETATM    7  C   UNL     1      -6.981   8.553  67.942  1.00  0.00    -0.074 C  
BRANCH   5   8
HETATM    8  C   UNL     1      -8.369  10.578  67.263  1.00  0.00    -0.122 C  
HETATM    9  O   UNL     1      -8.509  10.368  66.063  1.00  0.00    -0.136 OA 
BRANCH   8  10
HETATM   10  N   UNL     1      -9.167  11.468  67.927  1.00  0.00    -0.162 N  
HETATM   11  H   UNL     1      -8.890  11.814  68.846  1.00  0.00     0.000 HD 
BRANCH  10  12
HETATM   12  C   UNL     1     -10.420  11.925  67.320  1.00  0.00    -0.222 C  
HETATM   13  F   UNL     1     -11.129  12.249  69.591  1.00  0.00    -0.250 F  
HETATM   14  C   UNL     1     -11.493  12.421  68.299  1.00  0.00    -0.310 C  
HETATM   15  F   UNL     1     -11.792  13.724  68.116  1.00  0.00    -0.333 F  
HETATM   16  F   UNL     1     -12.641  11.716  68.122  1.00  0.00     0.088 F  
ENDBRANCH  10  12
ENDBRANCH   8  10
ENDBRANCH   5   8
BRANCH   6  17
HETATM   17  C   UNL     1      -6.705   6.815  69.794  1.00  0.00    -0.050 A  
HETATM   18  N   UNL     1      -6.533   4.657  70.562  1.00  0.00    -0.029 NA 
HETATM   19  C   UNL     1      -5.979   5.911  70.564  1.00  0.00    -0.029 A  
HETATM   20  C   UNL     1      -7.618   4.791  69.833  1.00  0.00    -0.055 A  
HETATM   21  C   UNL     1      -8.529   3.741  69.420  1.00  0.00    -0.064 A  
HETATM   22  N   UNL     1      -9.613   3.971  68.718  1.00  0.00    -0.156 NA 
HETATM   23  C   UNL     1      -9.816   5.290  68.450  1.00  0.00    -0.153 A  
HETATM   24  C   UNL     1      -9.042   6.384  68.789  1.00  0.00    -0.125 A  
HETATM   25  C   UNL     1      -9.695   7.559  68.389  1.00  0.00    -0.161 A  
HETATM   26  N   UNL     1      -7.840   6.101  69.463  1.00  0.00    -0.098 NA 
HETATM   27  C   UNL     1     -10.832   7.144  67.717  1.00  0.00    -0.178 A  
HETATM   28  N   UNL     1     -10.885   5.767  67.743  1.00  0.00    -0.235 NA 
HETATM   29  H   UNL     1     -11.607   5.196  67.304  1.00  0.00     0.000 HD 
ENDBRANCH   6  17
ENDBRANCH   2   3
TORSDOF 5
ENDMDL
MODEL      240
REMARK 921   NORMALIZED FREE ENERGY PREDICTED BY IDOCK:   -2.01 KCAL/MOL
REMARK 922        TOTAL FREE ENERGY PREDICTED BY IDOCK:   -2.82 KCAL/MOL
REMARK 923 INTER-LIGAND FREE ENERGY PREDICTED BY IDOCK:   -5.40 KCAL/MOL
REMARK 924 INTRA-LIGAND FREE ENERGY PREDICTED BY IDOCK:    2.58 KCAL/MOL
REMARK 927      BINDING AFFINITY PREDICTED BY RF-SCORE:    0.00 PKD
ROOT
HETATM    1  C   UNL     1      -6.508  16.615  66.464  1.00  0.00     0.018 C  
HETATM    2  C   UNL     1      -5.127  16.614  67.110  1.00  0.00    -0.139 C  
ENDROOT
BRANCH   2   3
HETATM    3  C   UNL     1      -5.179  16.637  68.655  1.00  0.00    -0.121 C  
HETATM    4  C   UNL     1      -5.183  15.225  69.245  1.00  0.00    -0.095 C  
HETATM    5  N   UNL     1      -6.575  14.842  69.192  1.00  0.00    -0.106 N  
HETATM    6  C   UNL     1      -6.477  17.247  69.268  1.00  0.00    -0.243 C  
HETATM    7  C   UNL     1      -7.418  16.013  69.374  1.00  0.00    -0.201 C  
BRANCH   5   8
HETATM    8  C   UNL     1      -6.942  13.576  68.807  1.00  0.00    -0.102 C  
HETATM    9  O   UNL     1      -6.457  12.561  69.296  1.00  0.00    -0.098 OA 
BRANCH   8  10
HETATM   10  N   UNL     1      -7.913  13.508  67.847  1.00  0.00    -0.146 N  
HETATM   11  H   UNL     1      -7.951  14.211  67.109  1.00  0.00     0.000 HD 
BRANCH  10  12
HETATM   12  C   UNL     1      -8.900  12.425  67.877  1.00  0.00    -0.180 C  
HETATM   13  F   UNL     1      -9.876  13.580  66.011  1.00  0.00    -0.273 F  
HETATM   14  C   UNL     1      -9.969  12.467  66.775  1.00  0.00    -0.225 C  
HETATM   15  F   UNL     1      -9.910  11.392  65.962  1.00  0.00    -0.217 F  
HETATM   16  F   UNL     1     -11.207  12.481  67.334  1.00  0.00    -0.263 F  
ENDBRANCH  10  12
ENDBRANCH   8  10
ENDBRANCH   5   8
BRANCH   6  17
HETATM   17  C   UNL     1      -7.090  18.395  68.512  1.00  0.00    -0.273 A  
HETATM   18  N   UNL     1      -7.516  20.492  67.678  1.00  0.00    -0.303 NA 
HETATM   19  C   UNL     1      -6.559  19.627  68.141  1.00  0.00    -0.260 A  
HETATM   20  C   UNL     1      -8.626  19.790  67.719  1.00  0.00    -0.324 A  
HETATM   21  C   UNL     1      -9.968  20.258  67.434  1.00  0.00    -0.427 A  
HETATM   22  N   UNL     1     -11.020  19.475  67.466  1.00  0.00    -0.387 NA 
HETATM   23  C   UNL     1     -10.723  18.179  67.756  1.00  0.00    -0.335 A  
HETATM   24  C   UNL     1      -9.498  17.601  68.035  1.00  0.00    -0.282 A  
HETATM   25  C   UNL     1      -9.659  16.215  68.174  1.00  0.00    -0.217 A  
HETATM   26  N   UNL     1      -8.400  18.478  68.083  1.00  0.00    -0.287 NA 
HETATM   27  C   UNL     1     -11.019  15.983  68.067  1.00  0.00    -0.341 A  
HETATM   28  N   UNL     1     -11.657  17.183  67.833  1.00  0.00     0.431 NA 
HETATM   29  H   UNL     1     -12.664  17.307  67.735  1.00  0.00     0.000 HD 
ENDBRANCH   6  17
ENDBRANCH   2   3
TORSDOF 5
ENDMDL
MODEL      241
REMARK 921   NORMALIZED FREE ENERGY PREDICTED BY IDOCK:   -1.63 KCAL/MOL
REMARK 922        TOTAL FREE ENERGY PREDICTED BY IDOCK:   -2.33 KCAL/MOL
REMARK 923 INTER-LIGAND FREE ENERGY PREDICTED BY IDOCK:   -2.88 KCAL/MOL
REMARK 924 INTRA-LIGAND FREE ENERGY PREDICTED BY IDOCK:    0.55 KCAL/MOL
REMARK 927      BINDING AFFINITY PREDICTED BY RF-SCORE:    0.00 PKD
ROOT
HETATM    1  C   UNL     1      -8.169   8.693  72.269  1.00  0.00    -0.107 C  
HETATM    2  C   UNL     1      -7.989   9.357  70.908  1.00  0.00    -0.096 C  
ENDROOT
BRANCH   2   3
HETATM    3  C   UNL     1      -6.524   9.752  70.613  1.00  0.00    -0.109 C  
HETATM    4  C   UNL     1      -6.390  11.240  70.285  1.00  0.00    -0.072 C  
HETATM    5  N   UNL     1      -6.705  11.303  68.875  1.00  0.00    -0.073 N  
HETATM    6  C   UNL     1      -5.896   9.085  69.350  1.00  0.00    -0.034 C  
HETATM    7  C   UNL     1      -6.268  10.083  68.216  1.00  0.00    -0.049 C  
BRANCH   5   8
HETATM    8  C   UNL     1      -7.489  12.312  68.374  1.00  0.00    -0.122 C  
HETATM    9  O   UNL     1      -7.379  12.742  67.231  1.00  0.00    -0.147 OA 
BRANCH   8  10
HETATM   10  N   UNL     1      -8.435  12.805  69.230  1.00  0.00     0.112 N  
HETATM   11  H   UNL     1      -8.473  12.474  70.194  1.00  0.00     0.000 HD 
BRANCH  10  12
HETATM   12  C   UNL     1      -9.394  13.811  68.763  1.00  0.00     0.003 C  
HETATM   13  F   UNL     1      -7.632  15.372  69.239  1.00  0.00    -0.149 F  
HETATM   14  C   UNL     1      -8.879  15.256  68.725  1.00  0.00    -0.192 C  
HETATM   15  F   UNL     1      -8.866  15.763  67.475  1.00  0.00    -0.176 F  
HETATM   16  F   UNL     1      -9.684  16.053  69.474  1.00  0.00    -0.229 F  
ENDBRANCH  10  12
ENDBRANCH   8  10
ENDBRANCH   5   8
BRANCH   6  17
HETATM   17  C   UNL     1      -6.333   7.673  69.061  1.00  0.00    -0.036 A  
HETATM   18  N   UNL     1      -6.379   5.382  68.904  1.00  0.00    -0.033 NA 
HETATM   19  C   UNL     1      -5.917   6.463  69.610  1.00  0.00    -0.018 A  
HETATM   20  C   UNL     1      -7.111   5.914  67.951  1.00  0.00    -0.071 A  
HETATM   21  C   UNL     1      -7.754   5.221  66.852  1.00  0.00    -0.096 A  
HETATM   22  N   UNL     1      -8.499   5.830  65.961  1.00  0.00    -0.129 NA 
HETATM   23  C   UNL     1      -8.638   7.164  66.190  1.00  0.00    -0.146 A  
HETATM   24  C   UNL     1      -8.094   7.943  67.196  1.00  0.00    -0.117 A  
HETATM   25  C   UNL     1      -8.592   9.250  67.093  1.00  0.00    -0.130 A  
HETATM   26  N   UNL     1      -7.227   7.282  68.084  1.00  0.00    -0.088 NA 
HETATM   27  C   UNL     1      -9.372   9.264  65.950  1.00  0.00    -0.236 A  
HETATM   28  N   UNL     1      -9.376   8.000  65.399  1.00  0.00    -0.340 NA 
HETATM   29  H   UNL     1      -9.854   7.732  64.539  1.00  0.00     0.000 HD 
ENDBRANCH   6  17
ENDBRANCH   2   3
TORSDOF 5
ENDMDL
MODEL      242
REMARK 921   NORMALIZED FREE ENERGY PREDICTED BY IDOCK:   -1.59 KCAL/MOL
REMARK 922        TOTAL FREE ENERGY PREDICTED BY IDOCK:   -2.27 KCAL/MOL
REMARK 923 INTER-LIGAND FREE ENERGY PREDICTED BY IDOCK:   -4.47 KCAL/MOL
REMARK 924 INTRA-LIGAND FREE ENERGY PREDICTED BY IDOCK:    2.20 KCAL/MOL
REMARK 927      BINDING AFFINITY PREDICTED BY RF-SCORE:    0.00 PKD
ROOT
HETATM    1  C   UNL     1      -9.574  10.187  65.752  1.00  0.00    -0.288 C  
HETATM    2  C   UNL     1     -11.023  10.189  66.228  1.00  0.00     0.182 C  
ENDROOT
BRANCH   2   3
HETATM    3  C   UNL     1     -11.158  10.147  67.766  1.00  0.00    -0.293 C  
HETATM    4  C   UNL     1     -10.791  11.487  68.407  1.00  0.00    -0.211 C  
HETATM    5  N   UNL     1      -9.351  11.423  68.519  1.00  0.00    -0.186 N  
HETATM    6  C   UNL     1     -10.188   9.164  68.493  1.00  0.00    -0.223 C  
HETATM    7  C   UNL     1      -8.934  10.048  68.748  1.00  0.00    -0.145 C  
BRANCH   5   8
HETATM    8  C   UNL     1      -8.574  12.515  68.225  1.00  0.00    -0.173 C  
HETATM    9  O   UNL     1      -7.351  12.514  68.325  1.00  0.00    -0.098 OA 
BRANCH   8  10
HETATM   10  N   UNL     1      -9.249  13.620  67.785  1.00  0.00    -0.205 N  
HETATM   11  H   UNL     1      -9.682  14.254  68.456  1.00  0.00     0.000 HD 
BRANCH  10  12
HETATM   12  C   UNL     1      -9.351  13.893  66.348  1.00  0.00    -0.205 C  
HETATM   13  F   UNL     1     -11.233  15.246  66.978  1.00  0.00    -0.324 F  
HETATM   14  C   UNL     1     -10.457  14.874  65.933  1.00  0.00    -0.315 C  
HETATM   15  F   UNL     1      -9.963  15.990  65.358  1.00  0.00    -0.339 F  
HETATM   16  F   UNL     1     -11.281  14.284  65.028  1.00  0.00    -0.310 F  
ENDBRANCH  10  12
ENDBRANCH   8  10
ENDBRANCH   5   8
BRANCH   6  17
HETATM   17  C   UNL     1      -9.872   7.886  67.764  1.00  0.00    -0.163 A  
HETATM   18  N   UNL     1     -10.060   5.813  66.794  1.00  0.00    -0.177 NA 
HETATM   19  C   UNL     1     -10.707   6.976  67.121  1.00  0.00    -0.363 A  
HETATM   20  C   UNL     1      -8.824   6.014  67.190  1.00  0.00    -0.108 A  
HETATM   21  C   UNL     1      -7.734   5.058  67.178  1.00  0.00    -0.092 A  
HETATM   22  N   UNL     1      -6.515   5.357  67.562  1.00  0.00    -0.050 NA 
HETATM   23  C   UNL     1      -6.369   6.657  67.937  1.00  0.00    -0.047 A  
HETATM   24  C   UNL     1      -7.311   7.668  67.986  1.00  0.00    -0.099 A  
HETATM   25  C   UNL     1      -6.684   8.872  68.337  1.00  0.00    -0.060 A  
HETATM   26  N   UNL     1      -8.627   7.298  67.655  1.00  0.00    -0.126 NA 
HETATM   27  C   UNL     1      -5.363   8.546  68.590  1.00  0.00    -0.036 A  
HETATM   28  N   UNL     1      -5.187   7.197  68.364  1.00  0.00    -0.019 NA 
HETATM   29  H   UNL     1      -4.315   6.685  68.495  1.00  0.00     0.000 HD 
ENDBRANCH   6  17
ENDBRANCH   2   3
TORSDOF 5
ENDMDL
MODEL      243
REMARK 921   NORMALIZED FREE ENERGY PREDICTED BY IDOCK:   -1.28 KCAL/MOL
REMARK 922        TOTAL FREE ENERGY PREDICTED BY IDOCK:   -1.88 KCAL/MOL
REMARK 923 INTER-LIGAND FREE ENERGY PREDICTED BY IDOCK:   -4.26 KCAL/MOL
REMARK 924 INTRA-LIGAND FREE ENERGY PREDICTED BY IDOCK:    2.38 KCAL/MOL
REMARK 927      BINDING AFFINITY PREDICTED BY RF-SCORE:    0.00 PKD
ROOT
HETATM    1  C   UNL     1     -11.147  10.069  67.099  1.00  0.00    -0.065 C  
HETATM    2  C   UNL     1     -11.735  10.435  68.457  1.00  0.00    -0.039 C  
ENDROOT
BRANCH   2   3
HETATM    3  C   UNL     1     -10.720  11.127  69.394  1.00  0.00    -0.220 C  
HETATM    4  C   UNL     1     -10.311  12.506  68.872  1.00  0.00    -0.038 C  
HETATM    5  N   UNL     1      -9.258  12.210  67.927  1.00  0.00    -0.182 N  
HETATM    6  C   UNL     1      -9.340  10.410  69.525  1.00  0.00    -0.150 C  
HETATM    7  C   UNL     1      -8.516  11.038  68.365  1.00  0.00    -0.144 C  
BRANCH   5   8
HETATM    8  C   UNL     1      -9.189  12.866  66.723  1.00  0.00    -0.230 C  
HETATM    9  O   UNL     1      -9.706  12.438  65.697  1.00  0.00    -0.240 OA 
BRANCH   8  10
HETATM   10  N   UNL     1      -8.517  14.058  66.737  1.00  0.00    -0.438 N  
HETATM   11  H   UNL     1      -7.612  14.128  67.202  1.00  0.00     0.000 HD 
BRANCH  10  12
HETATM   12  C   UNL     1      -9.098  15.234  66.084  1.00  0.00    -0.279 C  
HETATM   13  F   UNL     1      -9.336  16.068  68.324  1.00  0.00    -0.190 F  
HETATM   14  C   UNL     1      -9.496  16.386  67.018  1.00  0.00    -0.230 C  
HETATM   15  F   UNL     1      -8.797  17.513  66.771  1.00  0.00    -0.229 F  
HETATM   16  F   UNL     1     -10.811  16.684  66.849  1.00  0.00    -0.295 F  
ENDBRANCH  10  12
ENDBRANCH   8  10
ENDBRANCH   5   8
BRANCH   6  17
HETATM   17  C   UNL     1      -9.369   8.906  69.483  1.00  0.00    -0.155 A  
HETATM   18  N   UNL     1      -9.642   6.702  70.068  1.00  0.00    -0.157 NA 
HETATM   19  C   UNL     1     -10.078   7.988  70.253  1.00  0.00    -0.192 A  
HETATM   20  C   UNL     1      -8.701   6.813  69.158  1.00  0.00    -0.131 A  
HETATM   21  C   UNL     1      -7.831   5.763  68.665  1.00  0.00    -0.097 A  
HETATM   22  N   UNL     1      -6.938   5.957  67.724  1.00  0.00    -0.067 NA 
HETATM   23  C   UNL     1      -6.933   7.226  67.234  1.00  0.00    -0.079 A  
HETATM   24  C   UNL     1      -7.707   8.311  67.601  1.00  0.00    -0.099 A  
HETATM   25  C   UNL     1      -7.426   9.392  66.753  1.00  0.00    -0.094 A  
HETATM   26  N   UNL     1      -8.593   8.100  68.673  1.00  0.00    -0.127 NA 
HETATM   27  C   UNL     1      -6.399   8.964  65.929  1.00  0.00    -0.056 A  
HETATM   28  N   UNL     1      -6.095   7.656  66.243  1.00  0.00    -0.040 NA 
HETATM   29  H   UNL     1      -5.361   7.099  65.805  1.00  0.00     0.000 HD 
ENDBRANCH   6  17
ENDBRANCH   2   3
TORSDOF 5
ENDMDL
MODEL      244
REMARK 921   NORMALIZED FREE ENERGY PREDICTED BY IDOCK:   -1.12 KCAL/MOL
REMARK 922        TOTAL FREE ENERGY PREDICTED BY IDOCK:   -1.67 KCAL/MOL
REMARK 923 INTER-LIGAND FREE ENERGY PREDICTED BY IDOCK:   -6.58 KCAL/MOL
REMARK 924 INTRA-LIGAND FREE ENERGY PREDICTED BY IDOCK:    4.91 KCAL/MOL
REMARK 927      BINDING AFFINITY PREDICTED BY RF-SCORE:    0.00 PKD
ROOT
HETATM    1  C   UNL     1     -10.076  14.524  69.447  1.00  0.00    -0.011 C  
HETATM    2  C   UNL     1     -11.118  14.746  68.357  1.00  0.00    -0.274 C  
ENDROOT
BRANCH   2   3
HETATM    3  C   UNL     1     -11.303  13.522  67.433  1.00  0.00    -0.338 C  
HETATM    4  C   UNL     1     -12.221  12.469  68.059  1.00  0.00     0.170 C  
HETATM    5  N   UNL     1     -11.332  11.710  68.910  1.00  0.00    -0.241 N  
HETATM    6  C   UNL     1     -10.009  12.696  67.155  1.00  0.00    -0.217 C  
HETATM    7  C   UNL     1     -10.003  11.666  68.320  1.00  0.00    -0.201 C  
BRANCH   5   8
HETATM    8  C   UNL     1     -11.726  11.316  70.164  1.00  0.00    -0.343 C  
HETATM    9  O   UNL     1     -11.887  10.142  70.477  1.00  0.00    -0.281 OA 
BRANCH   8  10
HETATM   10  N   UNL     1     -11.908  12.325  71.070  1.00  0.00    -0.140 N  
HETATM   11  H   UNL     1     -11.622  12.196  72.041  1.00  0.00     0.000 HD 
BRANCH  10  12
HETATM   12  C   UNL     1     -12.515  13.590  70.647  1.00  0.00    -0.333 C  
HETATM   13  F   UNL     1     -13.004  13.865  72.983  1.00  0.00    -0.525 F  
HETATM   14  C   UNL     1     -13.074  14.470  71.774  1.00  0.00    -0.346 C  
HETATM   15  F   UNL     1     -12.440  15.658  71.861  1.00  0.00    -0.355 F  
HETATM   16  F   UNL     1     -14.388  14.731  71.547  1.00  0.00    -0.448 F  
ENDBRANCH  10  12
ENDBRANCH   8  10
ENDBRANCH   5   8
BRANCH   6  17
HETATM   17  C   UNL     1      -8.730  13.484  67.056  1.00  0.00    -0.187 A  
HETATM   18  N   UNL     1      -6.582  14.226  67.386  1.00  0.00    -0.286 NA 
HETATM   19  C   UNL     1      -7.424  13.144  67.398  1.00  0.00    -0.124 A  
HETATM   20  C   UNL     1      -7.347  15.221  66.998  1.00  0.00    -0.037 A  
HETATM   21  C   UNL     1      -6.986  16.622  66.914  1.00  0.00    -0.227 A  
HETATM   22  N   UNL     1      -7.808  17.548  66.479  1.00  0.00    -0.253 NA 
HETATM   23  C   UNL     1      -9.014  17.060  66.083  1.00  0.00    -0.208 A  
HETATM   24  C   UNL     1      -9.483  15.759  66.100  1.00  0.00    -0.340 A  
HETATM   25  C   UNL     1     -10.750  15.713  65.502  1.00  0.00    -0.403 A  
HETATM   26  N   UNL     1      -8.616  14.800  66.654  1.00  0.00    -0.198 NA 
HETATM   27  C   UNL     1     -11.075  17.027  65.212  1.00  0.00     0.097 A  
HETATM   28  N   UNL     1     -10.024  17.837  65.587  1.00  0.00    -0.528 NA 
HETATM   29  H   UNL     1     -10.004  18.853  65.506  1.00  0.00     0.000 HD 
ENDBRANCH   6  17
ENDBRANCH   2   3
TORSDOF 5
ENDMDL
MODEL      245
REMARK 921   NORMALIZED FREE ENERGY PREDICTED BY IDOCK:   -0.82 KCAL/MOL
REMARK 922        TOTAL FREE ENERGY PREDICTED BY IDOCK:   -1.28 KCAL/MOL
REMARK 923 INTER-LIGAND FREE ENERGY PREDICTED BY IDOCK:   -4.24 KCAL/MOL
REMARK 924 INTRA-LIGAND FREE ENERGY PREDICTED BY IDOCK:    2.96 KCAL/MOL
REMARK 927      BINDING AFFINITY PREDICTED BY RF-SCORE:    0.00 PKD
ROOT
HETATM    1  C   UNL     1      -6.840   9.702  68.834  1.00  0.00    -0.054 C  
HETATM    2  C   UNL     1      -6.604   8.637  67.769  1.00  0.00    -0.062 C  
ENDROOT
BRANCH   2   3
HETATM    3  C   UNL     1      -7.913   8.066  67.178  1.00  0.00    -0.113 C  
HETATM    4  C   UNL     1      -8.949   9.163  66.923  1.00  0.00    -0.123 C  
HETATM    5  N   UNL     1      -9.586   9.330  68.209  1.00  0.00    -0.145 N  
HETATM    6  C   UNL     1      -8.697   7.094  68.114  1.00  0.00    -0.127 C  
HETATM    7  C   UNL     1      -9.618   8.058  68.914  1.00  0.00    -0.152 C  
BRANCH   5   8
HETATM    8  C   UNL     1      -9.887  10.581  68.688  1.00  0.00    -0.178 C  
HETATM    9  O   UNL     1      -9.079  11.503  68.705  1.00  0.00    -0.178 OA 
BRANCH   8  10
HETATM   10  N   UNL     1     -11.169  10.751  69.133  1.00  0.00    -0.241 N  
HETATM   11  H   UNL     1     -11.695  11.584  68.867  1.00  0.00     0.000 HD 
BRANCH  10  12
HETATM   12  C   UNL     1     -11.788   9.738  69.992  1.00  0.00    -0.008 C  
HETATM   13  F   UNL     1     -12.594  11.625  71.239  1.00  0.00    -0.442 F  
HETATM   14  C   UNL     1     -12.644  10.276  71.147  1.00  0.00    -0.400 C  
HETATM   15  F   UNL     1     -13.939   9.910  71.041  1.00  0.00    -0.319 F  
HETATM   16  F   UNL     1     -12.184   9.789  72.329  1.00  0.00    -0.389 F  
ENDBRANCH  10  12
ENDBRANCH   8  10
ENDBRANCH   5   8
BRANCH   6  17
HETATM   17  C   UNL     1      -7.860   6.208  68.997  1.00  0.00    -0.100 A  
HETATM   18  N   UNL     1      -6.617   4.444  69.786  1.00  0.00    -0.032 NA 
HETATM   19  C   UNL     1      -7.001   5.159  68.680  1.00  0.00    -0.056 A  
HETATM   20  C   UNL     1      -7.196   5.069  70.786  1.00  0.00    -0.060 A  
HETATM   21  C   UNL     1      -7.208   4.670  72.179  1.00  0.00    -0.071 A  
HETATM   22  N   UNL     1      -7.785   5.377  73.121  1.00  0.00    -0.100 NA 
HETATM   23  C   UNL     1      -8.338   6.535  72.668  1.00  0.00    -0.117 A  
HETATM   24  C   UNL     1      -8.390   7.039  71.381  1.00  0.00    -0.113 A  
HETATM   25  C   UNL     1      -8.971   8.314  71.404  1.00  0.00    -0.211 A  
HETATM   26  N   UNL     1      -7.843   6.219  70.378  1.00  0.00    -0.104 NA 
HETATM   27  C   UNL     1      -9.354   8.528  72.716  1.00  0.00    -0.168 A  
HETATM   28  N   UNL     1      -8.983   7.435  73.471  1.00  0.00    -0.176 NA 
HETATM   29  H   UNL     1      -9.163   7.317  74.468  1.00  0.00     0.000 HD 
ENDBRANCH   6  17
ENDBRANCH   2   3
TORSDOF 5
ENDMDL
MODEL      246
REMARK 921   NORMALIZED FREE ENERGY PREDICTED BY IDOCK:   -0.24 KCAL/MOL
REMARK 922        TOTAL FREE ENERGY PREDICTED BY IDOCK:   -0.53 KCAL/MOL
REMARK 923 INTER-LIGAND FREE ENERGY PREDICTED BY IDOCK:   -2.80 KCAL/MOL
REMARK 924 INTRA-LIGAND FREE ENERGY PREDICTED BY IDOCK:    2.27 KCAL/MOL
REMARK 927      BINDING AFFINITY PREDICTED BY RF-SCORE:    0.00 PKD
ROOT
HETATM    1  C   UNL     1     -11.008  11.673  65.357  1.00  0.00    -0.328 C  
HETATM    2  C   UNL     1      -9.820  10.721  65.279  1.00  0.00    -0.329 C  
ENDROOT
BRANCH   2   3
HETATM    3  C   UNL     1      -9.894   9.568  66.305  1.00  0.00    -0.334 C  
HETATM    4  C   UNL     1     -11.224   9.565  67.063  1.00  0.00     0.585 C  
HETATM    5  N   UNL     1     -11.007  10.518  68.128  1.00  0.00    -0.256 N  
HETATM    6  C   UNL     1      -8.859   9.648  67.471  1.00  0.00    -0.129 C  
HETATM    7  C   UNL     1      -9.612  10.489  68.540  1.00  0.00    -0.163 C  
BRANCH   5   8
HETATM    8  C   UNL     1     -11.984  11.416  68.478  1.00  0.00    -0.225 C  
HETATM    9  O   UNL     1     -12.794  11.870  67.676  1.00  0.00     1.407 OA 
BRANCH   8  10
HETATM   10  N   UNL     1     -12.021  11.765  69.800  1.00  0.00    -0.324 N  
HETATM   11  H   UNL     1     -11.990  11.042  70.519  1.00  0.00     0.000 HD 
BRANCH  10  12
HETATM   12  C   UNL     1     -12.102  13.176  70.184  1.00  0.00    -0.321 C  
HETATM   13  F   UNL     1     -13.181  12.334  72.157  1.00  0.00    -0.569 F  
HETATM   14  C   UNL     1     -12.715  13.457  71.563  1.00  0.00    -0.293 C  
HETATM   15  F   UNL     1     -11.838  14.045  72.404  1.00  0.00    -0.040 F  
HETATM   16  F   UNL     1     -13.775  14.298  71.435  1.00  0.00    -0.393 F  
ENDBRANCH  10  12
ENDBRANCH   8  10
ENDBRANCH   5   8
BRANCH   6  17
HETATM   17  C   UNL     1      -7.509  10.211  67.118  1.00  0.00    -0.091 A  
HETATM   18  N   UNL     1      -5.243  10.454  66.828  1.00  0.00    -0.040 NA 
HETATM   19  C   UNL     1      -6.295   9.576  66.871  1.00  0.00    -0.066 A  
HETATM   20  C   UNL     1      -5.804  11.630  67.003  1.00  0.00    -0.135 A  
HETATM   21  C   UNL     1      -5.132  12.907  67.147  1.00  0.00     0.250 A  
HETATM   22  N   UNL     1      -5.776  14.042  67.283  1.00  0.00    -0.227 NA 
HETATM   23  C   UNL     1      -7.129  13.906  67.240  1.00  0.00     0.086 A  
HETATM   24  C   UNL     1      -7.893  12.762  67.098  1.00  0.00    -0.092 A  
HETATM   25  C   UNL     1      -9.247  13.115  67.006  1.00  0.00    -0.233 A  
HETATM   26  N   UNL     1      -7.181  11.551  67.044  1.00  0.00    -0.138 NA 
HETATM   27  C   UNL     1      -9.290  14.486  67.190  1.00  0.00    -0.218 A  
HETATM   28  N   UNL     1      -8.003  14.953  67.351  1.00  0.00    -0.185 NA 
HETATM   29  H   UNL     1      -7.744  15.924  67.525  1.00  0.00     0.000 HD 
ENDBRANCH   6  17
ENDBRANCH   2   3
TORSDOF 5
ENDMDL
MODEL      247
REMARK 921   NORMALIZED FREE ENERGY PREDICTED BY IDOCK:    1.67 KCAL/MOL
REMARK 922        TOTAL FREE ENERGY PREDICTED BY IDOCK:    1.93 KCAL/MOL
REMARK 923 INTER-LIGAND FREE ENERGY PREDICTED BY IDOCK:   -3.62 KCAL/MOL
REMARK 924 INTRA-LIGAND FREE ENERGY PREDICTED BY IDOCK:    5.55 KCAL/MOL
REMARK 927      BINDING AFFINITY PREDICTED BY RF-SCORE:    0.00 PKD
ROOT
HETATM    1  C   UNL     1     -11.559   7.194  69.734  1.00  0.00    -0.038 C  
HETATM    2  C   UNL     1     -11.595   5.777  70.296  1.00  0.00     0.337 C  
ENDROOT
BRANCH   2   3
HETATM    3  C   UNL     1     -10.193   5.217  70.627  1.00  0.00    -0.327 C  
HETATM    4  C   UNL     1      -9.648   5.787  71.938  1.00  0.00    -0.151 C  
HETATM    5  N   UNL     1      -9.064   7.048  71.540  1.00  0.00    -0.140 N  
HETATM    6  C   UNL     1      -9.068   5.600  69.616  1.00  0.00    -0.148 C  
HETATM    7  C   UNL     1      -8.536   6.944  70.189  1.00  0.00    -0.140 C  
BRANCH   5   8
HETATM    8  C   UNL     1      -9.228   8.173  72.310  1.00  0.00    -0.201 C  
HETATM    9  O   UNL     1      -9.072   8.180  73.526  1.00  0.00    -0.260 OA 
BRANCH   8  10
HETATM   10  N   UNL     1      -9.557   9.312  71.629  1.00  0.00    -0.144 N  
HETATM   11  H   UNL     1      -8.930  10.117  71.647  1.00  0.00     0.000 HD 
BRANCH  10  12
HETATM   12  C   UNL     1     -10.811   9.379  70.874  1.00  0.00    -0.322 C  
HETATM   13  F   UNL     1     -11.843   8.961  73.002  1.00  0.00    -0.155 F  
HETATM   14  C   UNL     1     -12.096   9.236  71.701  1.00  0.00    -0.379 C  
HETATM   15  F   UNL     1     -12.868  10.342  71.648  1.00  0.00    -0.414 F  
HETATM   16  F   UNL     1     -12.840   8.203  71.224  1.00  0.00    -0.313 F  
ENDBRANCH  10  12
ENDBRANCH   8  10
ENDBRANCH   5   8
BRANCH   6  17
HETATM   17  C   UNL     1      -9.481   5.695  68.171  1.00  0.00    -0.110 A  
HETATM   18  N   UNL     1     -10.597   5.395  66.187  1.00  0.00    -0.196 NA 
HETATM   19  C   UNL     1     -10.698   5.420  67.553  1.00  0.00    -0.058 A  
HETATM   20  C   UNL     1      -9.339   5.695  65.955  1.00  0.00    -0.103 A  
HETATM   21  C   UNL     1      -8.665   5.707  64.672  1.00  0.00     0.033 A  
HETATM   22  N   UNL     1      -7.408   6.056  64.528  1.00  0.00    -0.064 NA 
HETATM   23  C   UNL     1      -6.815   6.438  65.691  1.00  0.00    -0.052 A  
HETATM   24  C   UNL     1      -7.339   6.485  66.970  1.00  0.00    -0.079 A  
HETATM   25  C   UNL     1      -6.391   7.040  67.842  1.00  0.00    -0.043 A  
HETATM   26  N   UNL     1      -8.659   6.020  67.111  1.00  0.00    -0.107 NA 
HETATM   27  C   UNL     1      -5.253   7.238  67.080  1.00  0.00    -0.022 A  
HETATM   28  N   UNL     1      -5.514   6.852  65.782  1.00  0.00    -0.026 NA 
HETATM   29  H   UNL     1      -4.844   6.871  65.014  1.00  0.00     0.000 HD 
ENDBRANCH   6  17
ENDBRANCH   2   3
TORSDOF 5
ENDMDL
MODEL      248
REMARK 921   NORMALIZED FREE ENERGY PREDICTED BY IDOCK:    2.48 KCAL/MOL
REMARK 922        TOTAL FREE ENERGY PREDICTED BY IDOCK:    2.99 KCAL/MOL
REMARK 923 INTER-LIGAND FREE ENERGY PREDICTED BY IDOCK:    0.98 KCAL/MOL
REMARK 924 INTRA-LIGAND FREE ENERGY PREDICTED BY IDOCK:    2.01 KCAL/MOL
REMARK 927      BINDING AFFINITY PREDICTED BY RF-SCORE:    0.00 PKD
ROOT
HETATM    1  C   UNL     1      -8.065  15.808  68.413  1.00  0.00    -0.143 C  
HETATM    2  C   UNL     1      -8.161  15.026  67.107  1.00  0.00    -0.245 C  
ENDROOT
BRANCH   2   3
HETATM    3  C   UNL     1      -8.730  15.860  65.938  1.00  0.00    -0.055 C  
HETATM    4  C   UNL     1      -7.866  17.088  65.640  1.00  0.00     0.740 C  
HETATM    5  N   UNL     1      -8.338  18.070  66.589  1.00  0.00    -0.253 N  
HETATM    6  C   UNL     1     -10.127  16.505  66.200  1.00  0.00    -0.365 C  
HETATM    7  C   UNL     1      -9.757  17.874  66.839  1.00  0.00    -0.309 C  
BRANCH   5   8
HETATM    8  C   UNL     1      -7.456  18.884  67.257  1.00  0.00    -0.225 C  
HETATM    9  O   UNL     1      -6.390  19.251  66.777  1.00  0.00    -0.185 OA 
BRANCH   8  10
HETATM   10  N   UNL     1      -7.852  19.288  68.502  1.00  0.00    -0.336 N  
HETATM   11  H   UNL     1      -7.207  19.808  69.098  1.00  0.00     0.000 HD 
BRANCH  10  12
HETATM   12  C   UNL     1      -9.201  18.975  68.981  1.00  0.00    -0.219 C  
HETATM   13  F   UNL     1      -8.391  19.800  71.086  1.00  0.00     1.235 F  
HETATM   14  C   UNL     1      -9.490  19.339  70.444  1.00  0.00     1.473 C  
HETATM   15  F   UNL     1     -10.465  20.265  70.560  1.00  0.00    -0.070 F  
HETATM   16  F   UNL     1      -9.901  18.235  71.122  1.00  0.00     2.582 F  
ENDBRANCH  10  12
ENDBRANCH   8  10
ENDBRANCH   5   8
BRANCH   6  17
HETATM   17  C   UNL     1     -11.081  15.699  67.039  1.00  0.00    -0.200 A  
HETATM   18  N   UNL     1     -12.338  14.927  68.800  1.00  0.00    -0.061 NA 
HETATM   19  C   UNL     1     -11.756  16.021  68.213  1.00  0.00    -0.135 A  
HETATM   20  C   UNL     1     -12.066  13.941  67.975  1.00  0.00    -0.283 A  
HETATM   21  C   UNL     1     -12.360  12.535  68.165  1.00  0.00     0.451 A  
HETATM   22  N   UNL     1     -12.082  11.618  67.268  1.00  0.00    -0.436 NA 
HETATM   23  C   UNL     1     -11.527  12.122  66.132  1.00  0.00    -0.371 A  
HETATM   24  C   UNL     1     -11.206  13.429  65.817  1.00  0.00    -0.290 A  
HETATM   25  C   UNL     1     -10.747  13.490  64.494  1.00  0.00    -0.431 A  
HETATM   26  N   UNL     1     -11.430  14.379  66.830  1.00  0.00    -0.351 NA 
HETATM   27  C   UNL     1     -10.709  12.179  64.051  1.00  0.00    -0.384 A  
HETATM   28  N   UNL     1     -11.165  11.356  65.058  1.00  0.00    -0.154 NA 
HETATM   29  H   UNL     1     -11.222  10.339  65.010  1.00  0.00     0.000 HD 
ENDBRANCH   6  17
ENDBRANCH   2   3
TORSDOF 5
ENDMDL
MODEL      249
REMARK 921   NORMALIZED FREE ENERGY PREDICTED BY IDOCK:    3.33 KCAL/MOL
REMARK 922        TOTAL FREE ENERGY PREDICTED BY IDOCK:    4.08 KCAL/MOL
REMARK 923 INTER-LIGAND FREE ENERGY PREDICTED BY IDOCK:    2.98 KCAL/MOL
REMARK 924 INTRA-LIGAND FREE ENERGY PREDICTED BY IDOCK:    1.10 KCAL/MOL
REMARK 927      BINDING AFFINITY PREDICTED BY RF-SCORE:    0.00 PKD
ROOT
HETATM    1  C   UNL     1     -11.251   8.364  70.609  1.00  0.00    -0.275 C  
HETATM    2  C   UNL     1      -9.739   8.217  70.484  1.00  0.00    -0.185 C  
ENDROOT
BRANCH   2   3
HETATM    3  C   UNL     1      -9.311   7.293  69.322  1.00  0.00    -0.154 C  
HETATM    4  C   UNL     1      -7.862   6.823  69.472  1.00  0.00    -0.113 C  
HETATM    5  N   UNL     1      -7.095   7.910  68.907  1.00  0.00    -0.072 N  
HETATM    6  C   UNL     1      -9.289   7.963  67.912  1.00  0.00    -0.150 C  
HETATM    7  C   UNL     1      -7.845   8.537  67.829  1.00  0.00    -0.103 C  
BRANCH   5   8
HETATM    8  C   UNL     1      -5.940   8.342  69.508  1.00  0.00    -0.033 C  
HETATM    9  O   UNL     1      -5.207   9.194  69.017  1.00  0.00    -0.036 OA 
BRANCH   8  10
HETATM   10  N   UNL     1      -5.657   7.775  70.720  1.00  0.00    -0.030 N  
HETATM   11  H   UNL     1      -5.060   6.950  70.771  1.00  0.00     0.000 HD 
BRANCH  10  12
HETATM   12  C   UNL     1      -6.211   8.353  71.948  1.00  0.00    -0.061 C  
HETATM   13  F   UNL     1      -6.780   6.081  72.481  1.00  0.00    -0.062 F  
HETATM   14  C   UNL     1      -6.788   7.349  72.956  1.00  0.00    -0.065 C  
HETATM   15  F   UNL     1      -6.124   7.362  74.130  1.00  0.00    -0.072 F  
HETATM   16  F   UNL     1      -8.084   7.655  73.223  1.00  0.00    -0.122 F  
ENDBRANCH  10  12
ENDBRANCH   8  10
ENDBRANCH   5   8
BRANCH   6  17
HETATM   17  C   UNL     1     -10.352   8.997  67.655  1.00  0.00    -0.257 A  
HETATM   18  N   UNL     1     -12.284  10.029  66.965  1.00  0.00     3.448 NA 
HETATM   19  C   UNL     1     -11.710   8.857  67.385  1.00  0.00     2.888 A  
HETATM   20  C   UNL     1     -11.302  10.900  67.016  1.00  0.00    -0.024 A  
HETATM   21  C   UNL     1     -11.334  12.282  66.576  1.00  0.00    -0.351 A  
HETATM   22  N   UNL     1     -10.311  13.094  66.697  1.00  0.00    -0.262 NA 
HETATM   23  C   UNL     1      -9.235  12.525  67.306  1.00  0.00    -0.190 A  
HETATM   24  C   UNL     1      -9.075  11.236  67.779  1.00  0.00    -0.152 A  
HETATM   25  C   UNL     1      -7.833  11.127  68.422  1.00  0.00    -0.133 A  
HETATM   26  N   UNL     1     -10.153  10.360  67.556  1.00  0.00    -0.183 NA 
HETATM   27  C   UNL     1      -7.211  12.350  68.244  1.00  0.00    -0.103 A  
HETATM   28  N   UNL     1      -8.061  13.184  67.549  1.00  0.00    -0.170 NA 
HETATM   29  H   UNL     1      -7.848  14.139  67.261  1.00  0.00     0.000 HD 
ENDBRANCH   6  17
ENDBRANCH   2   3
TORSDOF 5
ENDMDL
MODEL      250
REMARK 921   NORMALIZED FREE ENERGY PREDICTED BY IDOCK:    6.81 KCAL/MOL
REMARK 922        TOTAL FREE ENERGY PREDICTED BY IDOCK:    8.59 KCAL/MOL
REMARK 923 INTER-LIGAND FREE ENERGY PREDICTED BY IDOCK:    7.34 KCAL/MOL
REMARK 924 INTRA-LIGAND FREE ENERGY PREDICTED BY IDOCK:    1.24 KCAL/MOL
REMARK 927      BINDING AFFINITY PREDICTED BY RF-SCORE:    0.00 PKD
ROOT
HETATM    1  C   UNL     1      -8.215  12.671  67.971  1.00  0.00    -0.167 C  
HETATM    2  C   UNL     1      -8.834  13.801  68.786  1.00  0.00     0.044 C  
ENDROOT
BRANCH   2   3
HETATM    3  C   UNL     1      -7.991  14.194  70.020  1.00  0.00     1.053 C  
HETATM    4  C   UNL     1      -8.863  14.421  71.257  1.00  0.00     4.919 C  
HETATM    5  N   UNL     1      -9.308  15.788  71.109  1.00  0.00     2.482 N  
HETATM    6  C   UNL     1      -7.236  15.555  69.904  1.00  0.00    -0.028 C  
HETATM    7  C   UNL     1      -8.281  16.573  70.442  1.00  0.00     2.639 C  
BRANCH   5   8
HETATM    8  C   UNL     1     -10.604  16.140  71.393  1.00  0.00     1.084 C  
HETATM    9  O   UNL     1     -11.186  17.061  70.830  1.00  0.00     0.190 OA 
BRANCH   8  10
HETATM   10  N   UNL     1     -11.229  15.377  72.341  1.00  0.00    -0.304 N  
HETATM   11  H   UNL     1     -11.189  15.650  73.323  1.00  0.00     0.000 HD 
BRANCH  10  12
HETATM   12  C   UNL     1     -11.958  14.169  71.946  1.00  0.00     0.172 C  
HETATM   13  F   UNL     1     -13.915  15.489  72.384  1.00  0.00    -0.501 F  
HETATM   14  C   UNL     1     -13.488  14.290  71.924  1.00  0.00    -0.401 C  
HETATM   15  F   UNL     1     -14.000  14.107  70.689  1.00  0.00    -0.111 F  
HETATM   16  F   UNL     1     -14.038  13.346  72.731  1.00  0.00    -0.585 F  
ENDBRANCH  10  12
ENDBRANCH   8  10
ENDBRANCH   5   8
BRANCH   6  17
HETATM   17  C   UNL     1      -6.716  15.908  68.536  1.00  0.00    -0.123 A  
HETATM   18  N   UNL     1      -5.334  16.207  66.726  1.00  0.00    -0.248 NA 
HETATM   19  C   UNL     1      -5.594  15.460  67.845  1.00  0.00    -0.134 A  
HETATM   20  C   UNL     1      -6.311  17.085  66.696  1.00  0.00    -0.212 A  
HETATM   21  C   UNL     1      -6.467  18.191  65.771  1.00  0.00    -0.276 A  
HETATM   22  N   UNL     1      -7.498  19.002  65.793  1.00  0.00    -0.462 NA 
HETATM   23  C   UNL     1      -8.420  18.681  66.741  1.00  0.00    -0.286 A  
HETATM   24  C   UNL     1      -8.403  17.659  67.671  1.00  0.00    -0.226 A  
HETATM   25  C   UNL     1      -9.615  17.653  68.378  1.00  0.00    -0.310 A  
HETATM   26  N   UNL     1      -7.246  16.860  67.686  1.00  0.00    -0.139 NA 
HETATM   27  C   UNL     1     -10.321  18.750  67.919  1.00  0.00    -0.406 A  
HETATM   28  N   UNL     1      -9.580  19.379  66.941  1.00  0.00    -0.322 NA 
HETATM   29  H   UNL     1      -9.853  20.228  66.447  1.00  0.00     0.000 HD 
ENDBRANCH   6  17
ENDBRANCH   2   3
TORSDOF 5
ENDMDL
MODEL      251
REMARK 921   NORMALIZED FREE ENERGY PREDICTED BY IDOCK:   10.79 KCAL/MOL
REMARK 922        TOTAL FREE ENERGY PREDICTED BY IDOCK:   13.72 KCAL/MOL
REMARK 923 INTER-LIGAND FREE ENERGY PREDICTED BY IDOCK:   13.52 KCAL/MOL
REMARK 924 INTRA-LIGAND FREE ENERGY PREDICTED BY IDOCK:    0.20 KCAL/MOL
REMARK 927      BINDING AFFINITY PREDICTED BY RF-SCORE:    0.00 PKD
ROOT
HETATM    1  C   UNL     1      -8.075  17.800  71.317  1.00  0.00     8.284 C  
HETATM    2  C   UNL     1      -7.435  17.098  70.124  1.00  0.00     1.712 C  
ENDROOT
BRANCH   2   3
HETATM    3  C   UNL     1      -8.434  16.242  69.314  1.00  0.00    -0.148 C  
HETATM    4  C   UNL     1      -8.347  14.760  69.687  1.00  0.00     0.149 C  
HETATM    5  N   UNL     1      -7.253  14.273  68.877  1.00  0.00    -0.122 N  
HETATM    6  C   UNL     1      -8.182  16.203  67.775  1.00  0.00    -0.162 C  
HETATM    7  C   UNL     1      -7.208  15.000  67.618  1.00  0.00    -0.186 C  
BRANCH   5   8
HETATM    8  C   UNL     1      -6.325  13.405  69.397  1.00  0.00    -0.111 C  
HETATM    9  O   UNL     1      -5.202  13.754  69.744  1.00  0.00    -0.085 OA 
BRANCH   8  10
HETATM   10  N   UNL     1      -6.739  12.108  69.530  1.00  0.00    -0.292 N  
HETATM   11  H   UNL     1      -6.094  11.400  69.881  1.00  0.00     0.000 HD 
BRANCH  10  12
HETATM   12  C   UNL     1      -8.110  11.735  69.169  1.00  0.00     0.249 C  
HETATM   13  F   UNL     1      -7.336  11.997  66.910  1.00  0.00    -0.139 F  
HETATM   14  C   UNL     1      -8.395  11.622  67.665  1.00  0.00    -0.142 C  
HETATM   15  F   UNL     1      -8.748  10.371  67.302  1.00  0.00    -0.125 F  
HETATM   16  F   UNL     1      -9.423  12.444  67.327  1.00  0.00    -0.178 F  
ENDBRANCH  10  12
ENDBRANCH   8  10
ENDBRANCH   5   8
BRANCH   6  17
HETATM   17  C   UNL     1      -7.658  17.472  67.158  1.00  0.00    -0.200 A  
HETATM   18  N   UNL     1      -6.432  19.373  66.763  1.00  0.00    -0.189 NA 
HETATM   19  C   UNL     1      -6.428  18.110  67.295  1.00  0.00    -0.177 A  
HETATM   20  C   UNL     1      -7.639  19.504  66.261  1.00  0.00    -0.291 A  
HETATM   21  C   UNL     1      -8.215  20.694  65.668  1.00  0.00     0.598 A  
HETATM   22  N   UNL     1      -9.424  20.725  65.157  1.00  0.00     0.970 NA 
HETATM   23  C   UNL     1     -10.065  19.526  65.207  1.00  0.00     0.730 A  
HETATM   24  C   UNL     1      -9.632  18.321  65.730  1.00  0.00     0.311 A  
HETATM   25  C   UNL     1     -10.589  17.330  65.469  1.00  0.00    -0.136 A  
HETATM   26  N   UNL     1      -8.371  18.338  66.351  1.00  0.00    -0.351 NA 
HETATM   27  C   UNL     1     -11.648  17.983  64.862  1.00  0.00     2.823 A  
HETATM   28  N   UNL     1     -11.328  19.317  64.727  1.00  0.00     0.724 NA 
HETATM   29  H   UNL     1     -11.937  20.034  64.331  1.00  0.00     0.000 HD 
ENDBRANCH   6  17
ENDBRANCH   2   3
TORSDOF 5
ENDMDL
MODEL      252
REMARK 921   NORMALIZED FREE ENERGY PREDICTED BY IDOCK:   24.21 KCAL/MOL
REMARK 922        TOTAL FREE ENERGY PREDICTED BY IDOCK:   31.07 KCAL/MOL
REMARK 923 INTER-LIGAND FREE ENERGY PREDICTED BY IDOCK:   13.39 KCAL/MOL
REMARK 924 INTRA-LIGAND FREE ENERGY PREDICTED BY IDOCK:   17.68 KCAL/MOL
REMARK 927      BINDING AFFINITY PREDICTED BY RF-SCORE:    0.00 PKD
ROOT
HETATM    1  C   UNL     1      -8.580  15.272  69.156  1.00  0.00    -0.235 C  
HETATM    2  C   UNL     1      -8.766  14.413  70.401  1.00  0.00     2.047 C  
ENDROOT
BRANCH   2   3
HETATM    3  C   UNL     1     -10.190  13.826  70.528  1.00  0.00     2.565 C  
HETATM    4  C   UNL     1     -10.185  12.298  70.442  1.00  0.00     3.509 C  
HETATM    5  N   UNL     1     -10.192  12.041  69.020  1.00  0.00    -0.042 N  
HETATM    6  C   UNL     1     -11.173  14.211  69.380  1.00  0.00    -0.298 C  
HETATM    7  C   UNL     1     -10.932  13.087  68.332  1.00  0.00    -0.262 C  
BRANCH   5   8
HETATM    8  C   UNL     1      -9.408  11.052  68.480  1.00  0.00    -0.188 C  
HETATM    9  O   UNL     1      -8.476  10.532  69.084  1.00  0.00    -0.146 OA 
BRANCH   8  10
HETATM   10  N   UNL     1      -9.745  10.654  67.216  1.00  0.00    -0.166 N  
HETATM   11  H   UNL     1      -9.035  10.259  66.599  1.00  0.00     0.000 HD 
BRANCH  10  12
HETATM   12  C   UNL     1     -11.126  10.794  66.746  1.00  0.00    -0.082 C  
HETATM   13  F   UNL     1     -10.907  13.061  67.508  1.00  0.00    -0.236 F  
HETATM   14  C   UNL     1     -11.734  12.198  66.873  1.00  0.00    -0.301 C  
HETATM   15  F   UNL     1     -12.056  12.729  65.675  1.00  0.00    -0.416 F  
HETATM   16  F   UNL     1     -12.876  12.142  67.608  1.00  0.00     0.867 F  
ENDBRANCH  10  12
ENDBRANCH   8  10
ENDBRANCH   5   8
BRANCH   6  17
HETATM   17  C   UNL     1     -11.015  15.595  68.810  1.00  0.00    -0.281 A  
HETATM   18  N   UNL     1     -10.439  17.351  67.446  1.00  0.00    -0.345 NA 
HETATM   19  C   UNL     1     -10.757  16.019  67.509  1.00  0.00    -0.314 A  
HETATM   20  C   UNL     1     -10.543  17.762  68.690  1.00  0.00    -0.195 A  
HETATM   21  C   UNL     1     -10.214  19.076  69.207  1.00  0.00     0.066 A  
HETATM   22  N   UNL     1     -10.382  19.411  70.464  1.00  0.00     1.128 NA 
HETATM   23  C   UNL     1     -10.927  18.421  71.222  1.00  0.00     3.308 A  
HETATM   24  C   UNL     1     -11.295  17.139  70.858  1.00  0.00     1.167 A  
HETATM   25  C   UNL     1     -11.907  16.503  71.947  1.00  0.00    -0.279 A  
HETATM   26  N   UNL     1     -11.020  16.775  69.527  1.00  0.00    -0.245 NA 
HETATM   27  C   UNL     1     -11.815  17.395  73.001  1.00  0.00     1.085 A  
HETATM   28  N   UNL     1     -11.202  18.547  72.556  1.00  0.00     1.676 NA 
HETATM   29  H   UNL     1     -10.987  19.362  73.130  1.00  0.00     0.000 HD 
ENDBRANCH   6  17
ENDBRANCH   2   3
TORSDOF 5
ENDMDL
MODEL      253
REMARK 921   NORMALIZED FREE ENERGY PREDICTED BY IDOCK:   44.87 KCAL/MOL
REMARK 922        TOTAL FREE ENERGY PREDICTED BY IDOCK:   57.77 KCAL/MOL
REMARK 923 INTER-LIGAND FREE ENERGY PREDICTED BY IDOCK:   55.15 KCAL/MOL
REMARK 924 INTRA-LIGAND FREE ENERGY PREDICTED BY IDOCK:    2.62 KCAL/MOL
REMARK 927      BINDING AFFINITY PREDICTED BY RF-SCORE:    0.00 PKD
ROOT
HETATM    1  C   UNL     1     -11.440  11.693  64.979  1.00  0.00    -0.189 C  
HETATM    2  C   UNL     1     -10.326  11.349  63.997  1.00  0.00    -0.418 C  
ENDROOT
BRANCH   2   3
HETATM    3  C   UNL     1      -9.500  10.114  64.421  1.00  0.00    -0.368 C  
HETATM    4  C   UNL     1     -10.273   9.218  65.391  1.00  0.00     0.620 C  
HETATM    5  N   UNL     1     -10.037   9.834  66.678  1.00  0.00    -0.228 N  
HETATM    6  C   UNL     1      -8.204  10.426  65.232  1.00  0.00    -0.162 C  
HETATM    7  C   UNL     1      -8.715  10.440  66.701  1.00  0.00    -0.135 C  
BRANCH   5   8
HETATM    8  C   UNL     1     -11.052   9.959  67.594  1.00  0.00    -0.101 C  
HETATM    9  O   UNL     1     -11.202   9.188  68.536  1.00  0.00     0.089 OA 
BRANCH   8  10
HETATM   10  N   UNL     1     -11.889  11.024  67.407  1.00  0.00     0.128 N  
HETATM   11  H   UNL     1     -12.085  11.359  66.464  1.00  0.00     0.000 HD 
BRANCH  10  12
HETATM   12  C   UNL     1     -12.504  11.685  68.561  1.00  0.00     0.739 C  
HETATM   13  F   UNL     1     -12.758  13.545  67.064  1.00  0.00    -0.254 F  
HETATM   14  C   UNL     1     -13.044  13.100  68.310  1.00  0.00     2.962 C  
HETATM   15  F   UNL     1     -14.379  13.180  68.489  1.00  0.00     7.966 F  
HETATM   16  F   UNL     1     -12.468  13.974  69.176  1.00  0.00    -0.373 F  
ENDBRANCH  10  12
ENDBRANCH   8  10
ENDBRANCH   5   8
BRANCH   6  17
HETATM   17  C   UNL     1      -7.471  11.684  64.849  1.00  0.00     1.973 A  
HETATM   18  N   UNL     1      -5.938  13.140  63.954  1.00  0.00    12.672 NA 
HETATM   19  C   UNL     1      -6.574  11.934  63.815  1.00  0.00     4.330 A  
HETATM   20  C   UNL     1      -6.467  13.655  65.041  1.00  0.00    14.294 A  
HETATM   21  C   UNL     1      -6.079  14.884  65.705  1.00  0.00     8.202 A  
HETATM   22  N   UNL     1      -6.689  15.343  66.772  1.00  0.00     0.038 NA 
HETATM   23  C   UNL     1      -7.739  14.575  67.170  1.00  0.00    -0.062 A  
HETATM   24  C   UNL     1      -8.220  13.397  66.627  1.00  0.00     0.354 A  
HETATM   25  C   UNL     1      -9.384  13.012  67.307  1.00  0.00    -0.220 A  
HETATM   26  N   UNL     1      -7.493  12.879  65.540  1.00  0.00     3.647 NA 
HETATM   27  C   UNL     1      -9.541  13.931  68.330  1.00  0.00    -0.215 A  
HETATM   28  N   UNL     1      -8.527  14.862  68.250  1.00  0.00    -0.145 NA 
HETATM   29  H   UNL     1      -8.388  15.641  68.894  1.00  0.00     0.000 HD 
ENDBRANCH   6  17
ENDBRANCH   2   3
TORSDOF 5
ENDMDL
