MODEL        1
REMARK 921   NORMALIZED FREE ENERGY PREDICTED BY IDOCK:   -5.82 KCAL/MOL
REMARK 922        TOTAL FREE ENERGY PREDICTED BY IDOCK:   -7.28 KCAL/MOL
REMARK 923 INTER-LIGAND FREE ENERGY PREDICTED BY IDOCK:   -6.84 KCAL/MOL
REMARK 924 INTRA-LIGAND FREE ENERGY PREDICTED BY IDOCK:   -0.45 KCAL/MOL
REMARK 927      BINDING AFFINITY PREDICTED BY RF-SCORE:    0.00 PKD
ROOT
HETATM    1 CL   UNL     1     -10.652  19.194  65.928  1.00  0.00    -0.544 Cl 
HETATM    2  C   UNL     1     -10.364  18.396  67.494  1.00  0.00    -0.393 C  
HETATM    3  C   UNL     1     -10.747  16.912  67.498  1.00  0.00    -0.270 C  
ENDROOT
BRANCH   3   4
HETATM    4  N   UNL     1     -10.123  16.101  66.423  1.00  0.00    -0.291 NA 
BRANCH   4   5
HETATM    5  C   UNL     1      -8.638  16.164  66.239  1.00  0.00    -0.338 C  
HETATM    6 CL   UNL     1      -7.559  13.976  67.573  1.00  0.00    -0.190 Cl 
HETATM    7  C   UNL     1      -7.682  15.738  67.354  1.00  0.00    -0.183 C  
ENDBRANCH   4   5
BRANCH   4   8
HETATM    8  C   UNL     1     -10.868  15.080  65.743  1.00  0.00    -0.350 C  
HETATM    9  C   UNL     1     -10.961  13.792  66.127  1.00  0.00    -0.292 C  
HETATM   10  N   UNL     1     -11.674  12.838  65.454  1.00  0.00    -0.365 N  
HETATM   11  C   UNL     1     -12.399  13.083  64.333  1.00  0.00    -0.376 C  
HETATM   12  H   UNL     1     -11.661  11.885  65.818  1.00  0.00     0.000 HD 
HETATM   13  O   UNL     1     -13.023  12.201  63.752  1.00  0.00    -0.753 OA 
HETATM   14  N   UNL     1     -12.381  14.370  63.901  1.00  0.00    -1.023 N  
HETATM   15  C   UNL     1     -11.653  15.389  64.457  1.00  0.00    -0.296 C  
HETATM   16  H   UNL     1     -12.959  14.598  63.092  1.00  0.00     0.000 HD 
HETATM   17  O   UNL     1     -11.654  16.484  63.897  1.00  0.00    -1.175 OA 
ENDBRANCH   4   8
ENDBRANCH   3   4
TORSDOF 3
ENDMDL
MODEL        2
REMARK 921   NORMALIZED FREE ENERGY PREDICTED BY IDOCK:   -5.70 KCAL/MOL
REMARK 922        TOTAL FREE ENERGY PREDICTED BY IDOCK:   -7.15 KCAL/MOL
REMARK 923 INTER-LIGAND FREE ENERGY PREDICTED BY IDOCK:   -6.79 KCAL/MOL
REMARK 924 INTRA-LIGAND FREE ENERGY PREDICTED BY IDOCK:   -0.35 KCAL/MOL
REMARK 927      BINDING AFFINITY PREDICTED BY RF-SCORE:    0.00 PKD
ROOT
HETATM    1 CL   UNL     1      -7.705  14.040  67.377  1.00  0.00    -0.193 Cl 
HETATM    2  C   UNL     1      -7.494  15.790  67.124  1.00  0.00    -0.224 C  
HETATM    3  C   UNL     1      -8.571  16.406  66.223  1.00  0.00    -0.340 C  
ENDROOT
BRANCH   3   4
HETATM    4  N   UNL     1      -9.970  16.146  66.650  1.00  0.00    -0.249 NA 
BRANCH   4   5
HETATM    5  C   UNL     1     -10.608  17.074  67.635  1.00  0.00    -0.333 C  
HETATM    6 CL   UNL     1     -10.615  19.605  66.483  1.00  0.00    -0.579 Cl 
HETATM    7  C   UNL     1     -10.120  18.514  67.800  1.00  0.00    -0.364 C  
ENDBRANCH   4   5
BRANCH   4   8
HETATM    8  C   UNL     1     -10.788  15.196  65.953  1.00  0.00    -0.339 C  
HETATM    9  C   UNL     1     -11.007  13.922  66.334  1.00  0.00    -0.303 C  
HETATM   10  N   UNL     1     -11.788  13.036  65.644  1.00  0.00    -0.375 N  
HETATM   11  C   UNL     1     -12.460  13.344  64.505  1.00  0.00    -0.301 C  
HETATM   12  H   UNL     1     -11.870  12.087  66.007  1.00  0.00     0.000 HD 
HETATM   13  O   UNL     1     -13.147  12.521  63.909  1.00  0.00    -0.728 OA 
HETATM   14  N   UNL     1     -12.314  14.623  64.074  1.00  0.00    -0.999 N  
HETATM   15  C   UNL     1     -11.510  15.572  64.648  1.00  0.00    -0.324 C  
HETATM   16  H   UNL     1     -12.849  14.901  63.251  1.00  0.00     0.000 HD 
HETATM   17  O   UNL     1     -11.398  16.662  64.088  1.00  0.00    -1.141 OA 
ENDBRANCH   4   8
ENDBRANCH   3   4
TORSDOF 3
ENDMDL
MODEL        3
REMARK 921   NORMALIZED FREE ENERGY PREDICTED BY IDOCK:   -5.47 KCAL/MOL
REMARK 922        TOTAL FREE ENERGY PREDICTED BY IDOCK:   -6.87 KCAL/MOL
REMARK 923 INTER-LIGAND FREE ENERGY PREDICTED BY IDOCK:   -6.62 KCAL/MOL
REMARK 924 INTRA-LIGAND FREE ENERGY PREDICTED BY IDOCK:   -0.25 KCAL/MOL
REMARK 927      BINDING AFFINITY PREDICTED BY RF-SCORE:    0.00 PKD
ROOT
HETATM    1 CL   UNL     1     -10.445  14.747  69.379  1.00  0.00    -0.235 Cl 
HETATM    2  C   UNL     1     -11.497  15.945  68.584  1.00  0.00    -0.391 C  
HETATM    3  C   UNL     1     -10.785  16.741  67.486  1.00  0.00    -0.275 C  
ENDROOT
BRANCH   3   4
HETATM    4  N   UNL     1     -10.121  15.918  66.444  1.00  0.00    -0.276 NA 
BRANCH   4   5
HETATM    5  C   UNL     1      -8.625  15.875  66.402  1.00  0.00    -0.328 C  
HETATM    6 CL   UNL     1      -7.706  17.623  68.360  1.00  0.00    -0.260 Cl 
HETATM    7  C   UNL     1      -7.788  17.131  66.651  1.00  0.00    -0.262 C  
ENDBRANCH   4   5
BRANCH   4   8
HETATM    8  C   UNL     1     -10.869  14.978  65.660  1.00  0.00    -0.349 C  
HETATM    9  C   UNL     1     -11.013  13.667  65.937  1.00  0.00    -0.282 C  
HETATM   10  N   UNL     1     -11.728  12.792  65.166  1.00  0.00    -0.341 N  
HETATM   11  C   UNL     1     -12.403  13.146  64.043  1.00  0.00    -0.352 C  
HETATM   12  H   UNL     1     -11.756  11.814  65.454  1.00  0.00     0.000 HD 
HETATM   13  O   UNL     1     -13.030  12.332  63.373  1.00  0.00    -0.753 OA 
HETATM   14  N   UNL     1     -12.332  14.462  63.715  1.00  0.00    -1.079 N  
HETATM   15  C   UNL     1     -11.596  15.411  64.375  1.00  0.00    -0.264 C  
HETATM   16  H   UNL     1     -12.872  14.770  62.907  1.00  0.00     0.000 HD 
HETATM   17  O   UNL     1     -11.545  16.545  63.904  1.00  0.00    -1.175 OA 
ENDBRANCH   4   8
ENDBRANCH   3   4
TORSDOF 3
ENDMDL
MODEL        4
REMARK 921   NORMALIZED FREE ENERGY PREDICTED BY IDOCK:   -5.39 KCAL/MOL
REMARK 922        TOTAL FREE ENERGY PREDICTED BY IDOCK:   -6.79 KCAL/MOL
REMARK 923 INTER-LIGAND FREE ENERGY PREDICTED BY IDOCK:   -6.43 KCAL/MOL
REMARK 924 INTRA-LIGAND FREE ENERGY PREDICTED BY IDOCK:   -0.36 KCAL/MOL
REMARK 927      BINDING AFFINITY PREDICTED BY RF-SCORE:    0.00 PKD
ROOT
HETATM    1 CL   UNL     1      -8.391  11.784  67.098  1.00  0.00    -0.161 Cl 
HETATM    2  C   UNL     1      -9.543  10.979  66.005  1.00  0.00    -0.215 C  
HETATM    3  C   UNL     1     -10.953  10.859  66.594  1.00  0.00    -0.148 C  
ENDROOT
BRANCH   3   4
HETATM    4  N   UNL     1     -11.548  12.136  67.064  1.00  0.00    -0.467 NA 
BRANCH   4   5
HETATM    5  C   UNL     1     -11.886  12.284  68.515  1.00  0.00    -0.307 C  
HETATM    6 CL   UNL     1     -10.414  10.369  69.894  1.00  0.00    -0.291 Cl 
HETATM    7  C   UNL     1     -11.987  11.066  69.435  1.00  0.00    -0.337 C  
ENDBRANCH   4   5
BRANCH   4   8
HETATM    8  C   UNL     1     -11.561  13.296  66.221  1.00  0.00    -0.346 C  
HETATM    9  C   UNL     1     -10.869  14.431  66.442  1.00  0.00    -0.314 C  
HETATM   10  N   UNL     1     -10.906  15.527  65.623  1.00  0.00    -0.346 N  
HETATM   11  C   UNL     1     -11.624  15.590  64.472  1.00  0.00    -0.283 C  
HETATM   12  H   UNL     1     -10.362  16.345  65.893  1.00  0.00     0.000 HD 
HETATM   13  O   UNL     1     -11.639  16.591  63.764  1.00  0.00    -1.109 OA 
HETATM   14  N   UNL     1     -12.324  14.468  64.164  1.00  0.00    -0.858 N  
HETATM   15  C   UNL     1     -12.411  13.342  64.940  1.00  0.00    -0.425 C  
HETATM   16  H   UNL     1     -12.831  14.463  63.279  1.00  0.00     0.000 HD 
HETATM   17  O   UNL     1     -13.166  12.440  64.582  1.00  0.00    -0.822 OA 
ENDBRANCH   4   8
ENDBRANCH   3   4
TORSDOF 3
ENDMDL
MODEL        5
REMARK 921   NORMALIZED FREE ENERGY PREDICTED BY IDOCK:   -5.27 KCAL/MOL
REMARK 922        TOTAL FREE ENERGY PREDICTED BY IDOCK:   -6.64 KCAL/MOL
REMARK 923 INTER-LIGAND FREE ENERGY PREDICTED BY IDOCK:   -6.59 KCAL/MOL
REMARK 924 INTRA-LIGAND FREE ENERGY PREDICTED BY IDOCK:   -0.05 KCAL/MOL
REMARK 927      BINDING AFFINITY PREDICTED BY RF-SCORE:    0.00 PKD
ROOT
HETATM    1 CL   UNL     1     -10.799  19.330  65.846  1.00  0.00    -0.453 Cl 
HETATM    2  C   UNL     1     -10.604  18.807  67.537  1.00  0.00    -0.435 C  
HETATM    3  C   UNL     1     -10.880  17.313  67.745  1.00  0.00    -0.261 C  
ENDROOT
BRANCH   3   4
HETATM    4  N   UNL     1     -10.101  16.404  66.866  1.00  0.00    -0.274 NA 
BRANCH   4   5
HETATM    5  C   UNL     1      -8.620  16.308  67.058  1.00  0.00    -0.200 C  
HETATM    6 CL   UNL     1      -7.546  18.777  66.365  1.00  0.00    -0.267 Cl 
HETATM    7  C   UNL     1      -7.649  17.018  66.114  1.00  0.00    -0.245 C  
ENDBRANCH   4   5
BRANCH   4   8
HETATM    8  C   UNL     1     -10.761  15.442  66.032  1.00  0.00    -0.322 C  
HETATM    9  C   UNL     1     -10.910  14.132  66.314  1.00  0.00    -0.300 C  
HETATM   10  N   UNL     1     -11.540  13.236  65.494  1.00  0.00    -0.316 N  
HETATM   11  C   UNL     1     -12.117  13.565  64.310  1.00  0.00    -0.431 C  
HETATM   12  H   UNL     1     -11.578  12.261  65.791  1.00  0.00     0.000 HD 
HETATM   13  O   UNL     1     -12.668  12.733  63.598  1.00  0.00    -0.707 OA 
HETATM   14  N   UNL     1     -12.036  14.878  63.972  1.00  0.00    -0.895 N  
HETATM   15  C   UNL     1     -11.378  15.847  64.682  1.00  0.00    -0.322 C  
HETATM   16  H   UNL     1     -12.507  15.167  63.115  1.00  0.00     0.000 HD 
HETATM   17  O   UNL     1     -11.302  16.976  64.202  1.00  0.00    -1.164 OA 
ENDBRANCH   4   8
ENDBRANCH   3   4
TORSDOF 3
ENDMDL
MODEL        6
REMARK 921   NORMALIZED FREE ENERGY PREDICTED BY IDOCK:   -5.07 KCAL/MOL
REMARK 922        TOTAL FREE ENERGY PREDICTED BY IDOCK:   -6.41 KCAL/MOL
REMARK 923 INTER-LIGAND FREE ENERGY PREDICTED BY IDOCK:   -6.14 KCAL/MOL
REMARK 924 INTRA-LIGAND FREE ENERGY PREDICTED BY IDOCK:   -0.27 KCAL/MOL
REMARK 927      BINDING AFFINITY PREDICTED BY RF-SCORE:    0.00 PKD
ROOT
HETATM    1 CL   UNL     1      -7.418  17.017  66.307  1.00  0.00    -0.331 Cl 
HETATM    2  C   UNL     1      -7.723  15.469  67.132  1.00  0.00    -0.222 C  
HETATM    3  C   UNL     1      -8.826  15.555  68.193  1.00  0.00    -0.169 C  
ENDROOT
BRANCH   3   4
HETATM    4  N   UNL     1     -10.118  16.106  67.711  1.00  0.00    -0.245 NA 
BRANCH   4   5
HETATM    5  C   UNL     1     -10.582  17.427  68.241  1.00  0.00    -0.366 C  
HETATM    6 CL   UNL     1     -10.524  19.223  66.119  1.00  0.00    -0.556 Cl 
HETATM    7  C   UNL     1      -9.976  18.740  67.742  1.00  0.00    -0.350 C  
ENDBRANCH   4   5
BRANCH   4   8
HETATM    8  C   UNL     1     -10.786  15.535  66.578  1.00  0.00    -0.304 C  
HETATM    9  C   UNL     1     -10.607  15.905  65.295  1.00  0.00    -0.419 C  
HETATM   10  N   UNL     1     -11.264  15.346  64.233  1.00  0.00    -0.711 N  
HETATM   11  C   UNL     1     -12.155  14.328  64.344  1.00  0.00    -0.468 C  
HETATM   12  H   UNL     1     -11.072  15.716  63.302  1.00  0.00     0.000 HD 
HETATM   13  O   UNL     1     -12.731  13.854  63.370  1.00  0.00    -0.806 OA 
HETATM   14  N   UNL     1     -12.365  13.877  65.607  1.00  0.00    -0.452 N  
HETATM   15  C   UNL     1     -11.813  14.402  66.745  1.00  0.00    -0.410 C  
HETATM   16  H   UNL     1     -12.989  13.077  65.718  1.00  0.00     0.000 HD 
HETATM   17  O   UNL     1     -12.175  13.956  67.833  1.00  0.00    -0.325 OA 
ENDBRANCH   4   8
ENDBRANCH   3   4
TORSDOF 3
ENDMDL
MODEL        7
REMARK 921   NORMALIZED FREE ENERGY PREDICTED BY IDOCK:   -5.05 KCAL/MOL
REMARK 922        TOTAL FREE ENERGY PREDICTED BY IDOCK:   -6.39 KCAL/MOL
REMARK 923 INTER-LIGAND FREE ENERGY PREDICTED BY IDOCK:   -5.96 KCAL/MOL
REMARK 924 INTRA-LIGAND FREE ENERGY PREDICTED BY IDOCK:   -0.43 KCAL/MOL
REMARK 927      BINDING AFFINITY PREDICTED BY RF-SCORE:    0.00 PKD
ROOT
HETATM    1 CL   UNL     1      -7.327  13.780  67.775  1.00  0.00    -0.150 Cl 
HETATM    2  C   UNL     1      -7.254  15.502  67.327  1.00  0.00    -0.207 C  
HETATM    3  C   UNL     1      -8.343  15.915  66.331  1.00  0.00    -0.275 C  
ENDROOT
BRANCH   3   4
HETATM    4  N   UNL     1      -9.730  15.584  66.744  1.00  0.00    -0.231 NA 
BRANCH   4   5
HETATM    5  C   UNL     1     -10.361  16.372  67.850  1.00  0.00    -0.286 C  
HETATM    6 CL   UNL     1     -11.434  14.541  69.646  1.00  0.00    -0.312 Cl 
HETATM    7  C   UNL     1     -11.653  15.903  68.521  1.00  0.00    -0.349 C  
ENDBRANCH   4   5
BRANCH   4   8
HETATM    8  C   UNL     1     -10.550  14.719  65.947  1.00  0.00    -0.314 C  
HETATM    9  C   UNL     1     -10.724  13.398  66.151  1.00  0.00    -0.284 C  
HETATM   10  N   UNL     1     -11.508  12.596  65.368  1.00  0.00    -0.323 N  
HETATM   11  C   UNL     1     -12.228  13.040  64.307  1.00  0.00    -0.396 C  
HETATM   12  H   UNL     1     -11.554  11.603  65.596  1.00  0.00     0.000 HD 
HETATM   13  O   UNL     1     -12.916  12.290  63.622  1.00  0.00    -0.777 OA 
HETATM   14  N   UNL     1     -12.128  14.371  64.056  1.00  0.00    -0.803 N  
HETATM   15  C   UNL     1     -11.327  15.254  64.732  1.00  0.00    -0.391 C  
HETATM   16  H   UNL     1     -12.700  14.746  63.299  1.00  0.00     0.000 HD 
HETATM   17  O   UNL     1     -11.262  16.414  64.328  1.00  0.00    -0.861 OA 
ENDBRANCH   4   8
ENDBRANCH   3   4
TORSDOF 3
ENDMDL
MODEL        8
REMARK 921   NORMALIZED FREE ENERGY PREDICTED BY IDOCK:   -5.01 KCAL/MOL
REMARK 922        TOTAL FREE ENERGY PREDICTED BY IDOCK:   -6.33 KCAL/MOL
REMARK 923 INTER-LIGAND FREE ENERGY PREDICTED BY IDOCK:   -5.94 KCAL/MOL
REMARK 924 INTRA-LIGAND FREE ENERGY PREDICTED BY IDOCK:   -0.39 KCAL/MOL
REMARK 927      BINDING AFFINITY PREDICTED BY RF-SCORE:    0.00 PKD
ROOT
HETATM    1 CL   UNL     1     -10.824  19.628  65.706  1.00  0.00    -0.512 Cl 
HETATM    2  C   UNL     1     -10.277  19.538  67.398  1.00  0.00    -0.429 C  
HETATM    3  C   UNL     1     -10.452  18.147  68.018  1.00  0.00    -0.371 C  
ENDROOT
BRANCH   3   4
HETATM    4  N   UNL     1      -9.833  17.036  67.252  1.00  0.00    -0.254 NA 
BRANCH   4   5
HETATM    5  C   UNL     1      -8.362  16.795  67.392  1.00  0.00    -0.181 C  
HETATM    6 CL   UNL     1      -7.068  18.862  66.055  1.00  0.00    -0.282 Cl 
HETATM    7  C   UNL     1      -7.393  17.123  66.255  1.00  0.00    -0.291 C  
ENDBRANCH   4   5
BRANCH   4   8
HETATM    8  C   UNL     1     -10.644  16.048  66.601  1.00  0.00    -0.297 C  
HETATM    9  C   UNL     1     -10.741  15.870  65.269  1.00  0.00    -0.424 C  
HETATM   10  N   UNL     1     -11.530  14.923  64.675  1.00  0.00    -0.551 N  
HETATM   11  C   UNL     1     -12.288  14.029  65.359  1.00  0.00    -0.478 C  
HETATM   12  H   UNL     1     -11.549  14.887  63.656  1.00  0.00     0.000 HD 
HETATM   13  O   UNL     1     -12.988  13.196  64.793  1.00  0.00    -0.725 OA 
HETATM   14  N   UNL     1     -12.217  14.125  66.712  1.00  0.00    -0.515 N  
HETATM   15  C   UNL     1     -11.513  15.071  67.410  1.00  0.00    -0.317 C  
HETATM   16  H   UNL     1     -12.732  13.432  67.255  1.00  0.00     0.000 HD 
HETATM   17  O   UNL     1     -11.624  15.099  68.634  1.00  0.00    -0.309 OA 
ENDBRANCH   4   8
ENDBRANCH   3   4
TORSDOF 3
ENDMDL
MODEL        9
REMARK 921   NORMALIZED FREE ENERGY PREDICTED BY IDOCK:   -4.95 KCAL/MOL
REMARK 922        TOTAL FREE ENERGY PREDICTED BY IDOCK:   -6.26 KCAL/MOL
REMARK 923 INTER-LIGAND FREE ENERGY PREDICTED BY IDOCK:   -6.01 KCAL/MOL
REMARK 924 INTRA-LIGAND FREE ENERGY PREDICTED BY IDOCK:   -0.25 KCAL/MOL
REMARK 927      BINDING AFFINITY PREDICTED BY RF-SCORE:    0.00 PKD
ROOT
HETATM    1 CL   UNL     1     -10.795  13.475  69.046  1.00  0.00    -0.256 Cl 
HETATM    2  C   UNL     1     -11.070  11.753  68.683  1.00  0.00    -0.238 C  
HETATM    3  C   UNL     1     -11.463  11.497  67.224  1.00  0.00    -0.263 C  
ENDROOT
BRANCH   3   4
HETATM    4  N   UNL     1     -10.530  12.059  66.214  1.00  0.00    -0.232 NA 
BRANCH   4   5
HETATM    5  C   UNL     1      -9.515  11.155  65.587  1.00  0.00    -0.224 C  
HETATM    6 CL   UNL     1     -10.034  11.119  62.855  1.00  0.00    -0.307 Cl 
HETATM    7  C   UNL     1      -9.877  10.255  64.404  1.00  0.00    -0.305 C  
ENDBRANCH   4   5
BRANCH   4   8
HETATM    8  C   UNL     1     -10.751  13.359  65.650  1.00  0.00    -0.277 C  
HETATM    9  C   UNL     1      -9.985  14.446  65.866  1.00  0.00    -0.328 C  
HETATM   10  N   UNL     1     -10.224  15.677  65.319  1.00  0.00    -0.356 N  
HETATM   11  C   UNL     1     -11.249  15.944  64.469  1.00  0.00    -0.312 C  
HETATM   12  H   UNL     1      -9.595  16.441  65.565  1.00  0.00     0.000 HD 
HETATM   13  O   UNL     1     -11.437  17.062  64.002  1.00  0.00    -0.983 OA 
HETATM   14  N   UNL     1     -12.049  14.886  64.177  1.00  0.00    -0.831 N  
HETATM   15  C   UNL     1     -11.941  13.631  64.715  1.00  0.00    -0.396 C  
HETATM   16  H   UNL     1     -12.795  15.041  63.499  1.00  0.00     0.000 HD 
HETATM   17  O   UNL     1     -12.801  12.797  64.434  1.00  0.00    -0.700 OA 
ENDBRANCH   4   8
ENDBRANCH   3   4
TORSDOF 3
ENDMDL
MODEL       10
REMARK 921   NORMALIZED FREE ENERGY PREDICTED BY IDOCK:   -4.92 KCAL/MOL
REMARK 922        TOTAL FREE ENERGY PREDICTED BY IDOCK:   -6.23 KCAL/MOL
REMARK 923 INTER-LIGAND FREE ENERGY PREDICTED BY IDOCK:   -5.71 KCAL/MOL
REMARK 924 INTRA-LIGAND FREE ENERGY PREDICTED BY IDOCK:   -0.52 KCAL/MOL
REMARK 927      BINDING AFFINITY PREDICTED BY RF-SCORE:    0.00 PKD
ROOT
HETATM    1 CL   UNL     1      -8.871  15.908  66.179  1.00  0.00    -0.376 Cl 
HETATM    2  C   UNL     1     -10.481  16.535  65.748  1.00  0.00    -0.329 C  
HETATM    3  C   UNL     1     -11.284  15.581  64.856  1.00  0.00    -0.389 C  
ENDROOT
BRANCH   3   4
HETATM    4  N   UNL     1     -11.431  14.202  65.386  1.00  0.00    -0.317 NA 
BRANCH   4   5
HETATM    5  C   UNL     1     -12.361  13.964  66.534  1.00  0.00    -0.404 C  
HETATM    6 CL   UNL     1     -10.986  14.646  68.852  1.00  0.00    -0.250 Cl 
HETATM    7  C   UNL     1     -11.849  13.435  67.874  1.00  0.00    -0.357 C  
ENDBRANCH   4   5
BRANCH   4   8
HETATM    8  C   UNL     1     -10.909  13.077  64.665  1.00  0.00    -0.354 C  
HETATM    9  C   UNL     1      -9.677  12.552  64.817  1.00  0.00     0.049 C  
HETATM   10  N   UNL     1      -9.203  11.481  64.109  1.00  0.00    -0.425 N  
HETATM   11  C   UNL     1      -9.930  10.800  63.187  1.00  0.00    -0.290 C  
HETATM   12  H   UNL     1      -8.246  11.177  64.286  1.00  0.00     0.000 HD 
HETATM   13  O   UNL     1      -9.471   9.848  62.566  1.00  0.00    -0.277 OA 
HETATM   14  N   UNL     1     -11.197  11.251  63.000  1.00  0.00    -0.835 N  
HETATM   15  C   UNL     1     -11.752  12.349  63.604  1.00  0.00    -0.514 C  
HETATM   16  H   UNL     1     -11.787  10.728  62.353  1.00  0.00     0.000 HD 
HETATM   17  O   UNL     1     -12.879  12.700  63.261  1.00  0.00    -0.643 OA 
ENDBRANCH   4   8
ENDBRANCH   3   4
TORSDOF 3
ENDMDL
MODEL       11
REMARK 921   NORMALIZED FREE ENERGY PREDICTED BY IDOCK:   -4.91 KCAL/MOL
REMARK 922        TOTAL FREE ENERGY PREDICTED BY IDOCK:   -6.21 KCAL/MOL
REMARK 923 INTER-LIGAND FREE ENERGY PREDICTED BY IDOCK:   -5.80 KCAL/MOL
REMARK 924 INTRA-LIGAND FREE ENERGY PREDICTED BY IDOCK:   -0.41 KCAL/MOL
REMARK 927      BINDING AFFINITY PREDICTED BY RF-SCORE:    0.00 PKD
ROOT
HETATM    1 CL   UNL     1      -8.175  11.785  67.005  1.00  0.00    -0.168 Cl 
HETATM    2  C   UNL     1      -9.138  10.314  66.723  1.00  0.00    -0.143 C  
HETATM    3  C   UNL     1     -10.431  10.577  65.943  1.00  0.00    -0.153 C  
ENDROOT
BRANCH   3   4
HETATM    4  N   UNL     1     -10.251  11.289  64.652  1.00  0.00    -0.279 NA 
BRANCH   4   5
HETATM    5  C   UNL     1      -9.739  10.524  63.471  1.00  0.00    -0.319 C  
HETATM    6 CL   UNL     1      -7.052   9.993  63.949  1.00  0.00    -0.128 Cl 
HETATM    7  C   UNL     1      -8.319  10.737  62.944  1.00  0.00    -0.114 C  
ENDBRANCH   4   5
BRANCH   4   8
HETATM    8  C   UNL     1     -10.796  12.601  64.453  1.00  0.00    -0.356 C  
HETATM    9  C   UNL     1     -10.247  13.751  64.891  1.00  0.00    -0.348 C  
HETATM   10  N   UNL     1     -10.793  14.989  64.691  1.00  0.00    -0.625 N  
HETATM   11  C   UNL     1     -11.942  15.210  64.002  1.00  0.00    -0.027 C  
HETATM   12  H   UNL     1     -10.308  15.795  65.085  1.00  0.00     0.000 HD 
HETATM   13  O   UNL     1     -12.406  16.334  63.847  1.00  0.00    -0.874 OA 
HETATM   14  N   UNL     1     -12.538  14.098  63.500  1.00  0.00    -1.018 N  
HETATM   15  C   UNL     1     -12.116  12.809  63.692  1.00  0.00    -0.543 C  
HETATM   16  H   UNL     1     -13.374  14.235  62.931  1.00  0.00     0.000 HD 
HETATM   17  O   UNL     1     -12.815  11.893  63.262  1.00  0.00    -0.702 OA 
ENDBRANCH   4   8
ENDBRANCH   3   4
TORSDOF 3
ENDMDL
MODEL       12
REMARK 921   NORMALIZED FREE ENERGY PREDICTED BY IDOCK:   -4.87 KCAL/MOL
REMARK 922        TOTAL FREE ENERGY PREDICTED BY IDOCK:   -6.17 KCAL/MOL
REMARK 923 INTER-LIGAND FREE ENERGY PREDICTED BY IDOCK:   -5.77 KCAL/MOL
REMARK 924 INTRA-LIGAND FREE ENERGY PREDICTED BY IDOCK:   -0.40 KCAL/MOL
REMARK 927      BINDING AFFINITY PREDICTED BY RF-SCORE:    0.00 PKD
ROOT
HETATM    1 CL   UNL     1     -10.855  16.720  68.110  1.00  0.00    -0.360 Cl 
HETATM    2  C   UNL     1     -10.211  15.945  66.641  1.00  0.00    -0.288 C  
HETATM    3  C   UNL     1     -10.252  14.414  66.697  1.00  0.00    -0.277 C  
ENDROOT
BRANCH   3   4
HETATM    4  N   UNL     1     -11.583  13.832  67.004  1.00  0.00    -0.345 NA 
BRANCH   4   5
HETATM    5  C   UNL     1     -12.642  13.853  65.946  1.00  0.00    -0.456 C  
HETATM    6 CL   UNL     1     -11.823  12.110  63.941  1.00  0.00    -0.518 Cl 
HETATM    7  C   UNL     1     -12.284  13.748  64.463  1.00  0.00    -0.403 C  
ENDBRANCH   4   5
BRANCH   4   8
HETATM    8  C   UNL     1     -11.785  13.035  68.179  1.00  0.00    -0.351 C  
HETATM    9  C   UNL     1     -11.974  13.510  69.426  1.00  0.00    -0.330 C  
HETATM   10  N   UNL     1     -12.157  12.724  70.530  1.00  0.00    -0.508 N  
HETATM   11  C   UNL     1     -12.200  11.367  70.497  1.00  0.00    -0.386 C  
HETATM   12  H   UNL     1     -12.269  13.185  71.433  1.00  0.00     0.000 HD 
HETATM   13  O   UNL     1     -12.360  10.693  71.509  1.00  0.00    -0.360 OA 
HETATM   14  N   UNL     1     -12.049  10.813  69.267  1.00  0.00    -0.517 N  
HETATM   15  C   UNL     1     -11.797  11.498  68.107  1.00  0.00    -0.236 C  
HETATM   16  H   UNL     1     -12.131   9.798  69.200  1.00  0.00     0.000 HD 
HETATM   17  O   UNL     1     -11.582  10.855  67.081  1.00  0.00    -0.431 OA 
ENDBRANCH   4   8
ENDBRANCH   3   4
TORSDOF 3
ENDMDL
MODEL       13
REMARK 921   NORMALIZED FREE ENERGY PREDICTED BY IDOCK:   -4.85 KCAL/MOL
REMARK 922        TOTAL FREE ENERGY PREDICTED BY IDOCK:   -6.15 KCAL/MOL
REMARK 923 INTER-LIGAND FREE ENERGY PREDICTED BY IDOCK:   -5.86 KCAL/MOL
REMARK 924 INTRA-LIGAND FREE ENERGY PREDICTED BY IDOCK:   -0.29 KCAL/MOL
REMARK 927      BINDING AFFINITY PREDICTED BY RF-SCORE:    0.00 PKD
ROOT
HETATM    1 CL   UNL     1      -8.963  10.330  68.270  1.00  0.00    -0.130 Cl 
HETATM    2  C   UNL     1     -10.737  10.183  68.234  1.00  0.00    -0.238 C  
HETATM    3  C   UNL     1     -11.427  11.350  67.520  1.00  0.00    -0.260 C  
ENDROOT
BRANCH   3   4
HETATM    4  N   UNL     1     -10.938  11.622  66.144  1.00  0.00    -0.293 NA 
BRANCH   4   5
HETATM    5  C   UNL     1     -10.525  10.468  65.284  1.00  0.00    -0.162 C  
HETATM    6 CL   UNL     1      -7.750  10.524  65.125  1.00  0.00    -0.108 Cl 
HETATM    7  C   UNL     1      -9.339  10.578  64.325  1.00  0.00    -0.267 C  
ENDBRANCH   4   5
BRANCH   4   8
HETATM    8  C   UNL     1     -11.100  12.916  65.547  1.00  0.00    -0.278 C  
HETATM    9  C   UNL     1     -10.273  13.966  65.719  1.00  0.00    -0.318 C  
HETATM   10  N   UNL     1     -10.456  15.192  65.141  1.00  0.00    -0.401 N  
HETATM   11  C   UNL     1     -11.480  15.490  64.301  1.00  0.00    -0.180 C  
HETATM   12  H   UNL     1      -9.782  15.927  65.354  1.00  0.00     0.000 HD 
HETATM   13  O   UNL     1     -11.617  16.603  63.805  1.00  0.00    -1.045 OA 
HETATM   14  N   UNL     1     -12.341  14.470  64.053  1.00  0.00    -0.974 N  
HETATM   15  C   UNL     1     -12.291  13.225  64.624  1.00  0.00    -0.391 C  
HETATM   16  H   UNL     1     -13.090  14.645  63.383  1.00  0.00     0.000 HD 
HETATM   17  O   UNL     1     -13.199  12.432  64.382  1.00  0.00    -0.816 OA 
ENDBRANCH   4   8
ENDBRANCH   3   4
TORSDOF 3
ENDMDL
MODEL       14
REMARK 921   NORMALIZED FREE ENERGY PREDICTED BY IDOCK:   -4.85 KCAL/MOL
REMARK 922        TOTAL FREE ENERGY PREDICTED BY IDOCK:   -6.14 KCAL/MOL
REMARK 923 INTER-LIGAND FREE ENERGY PREDICTED BY IDOCK:   -5.85 KCAL/MOL
REMARK 924 INTRA-LIGAND FREE ENERGY PREDICTED BY IDOCK:   -0.29 KCAL/MOL
REMARK 927      BINDING AFFINITY PREDICTED BY RF-SCORE:    0.00 PKD
ROOT
HETATM    1 CL   UNL     1     -10.749  18.998  66.476  1.00  0.00    -0.457 Cl 
HETATM    2  C   UNL     1     -10.490  17.904  67.858  1.00  0.00    -0.396 C  
HETATM    3  C   UNL     1     -10.904  16.457  67.570  1.00  0.00    -0.249 C  
ENDROOT
BRANCH   3   4
HETATM    4  N   UNL     1     -10.288  15.857  66.360  1.00  0.00    -0.296 NA 
BRANCH   4   5
HETATM    5  C   UNL     1      -8.828  16.074  66.109  1.00  0.00    -0.331 C  
HETATM    6 CL   UNL     1      -7.465  14.025  67.404  1.00  0.00    -0.181 Cl 
HETATM    7  C   UNL     1      -7.784  15.763  67.182  1.00  0.00    -0.219 C  
ENDBRANCH   4   5
BRANCH   4   8
HETATM    8  C   UNL     1     -10.992  14.877  65.584  1.00  0.00    -0.344 C  
HETATM    9  C   UNL     1     -11.605  15.105  64.406  1.00  0.00    -0.271 C  
HETATM   10  N   UNL     1     -12.276  14.150  63.690  1.00  0.00    -1.049 N  
HETATM   11  C   UNL     1     -12.380  12.851  64.070  1.00  0.00    -0.380 C  
HETATM   12  H   UNL     1     -12.725  14.433  62.820  1.00  0.00     0.000 HD 
HETATM   13  O   UNL     1     -12.995  12.023  63.406  1.00  0.00    -0.772 OA 
HETATM   14  N   UNL     1     -11.758  12.536  65.235  1.00  0.00    -0.368 N  
HETATM   15  C   UNL     1     -11.115  13.420  66.061  1.00  0.00    -0.283 C  
HETATM   16  H   UNL     1     -11.771  11.557  65.519  1.00  0.00     0.000 HD 
HETATM   17  O   UNL     1     -10.685  13.009  67.138  1.00  0.00    -0.251 OA 
ENDBRANCH   4   8
ENDBRANCH   3   4
TORSDOF 3
ENDMDL
MODEL       15
REMARK 921   NORMALIZED FREE ENERGY PREDICTED BY IDOCK:   -4.83 KCAL/MOL
REMARK 922        TOTAL FREE ENERGY PREDICTED BY IDOCK:   -6.12 KCAL/MOL
REMARK 923 INTER-LIGAND FREE ENERGY PREDICTED BY IDOCK:   -5.78 KCAL/MOL
REMARK 924 INTRA-LIGAND FREE ENERGY PREDICTED BY IDOCK:   -0.34 KCAL/MOL
REMARK 927      BINDING AFFINITY PREDICTED BY RF-SCORE:    0.00 PKD
ROOT
HETATM    1 CL   UNL     1     -10.608  16.717  67.207  1.00  0.00    -0.310 Cl 
HETATM    2  C   UNL     1      -9.936  15.662  65.939  1.00  0.00    -0.351 C  
HETATM    3  C   UNL     1     -10.023  14.171  66.282  1.00  0.00    -0.303 C  
ENDROOT
BRANCH   3   4
HETATM    4  N   UNL     1     -11.381  13.688  66.640  1.00  0.00    -0.316 NA 
BRANCH   4   5
HETATM    5  C   UNL     1     -12.493  13.863  65.654  1.00  0.00    -0.505 C  
HETATM    6 CL   UNL     1     -12.144  11.933  63.682  1.00  0.00    -0.596 Cl 
HETATM    7  C   UNL     1     -12.268  13.645  64.157  1.00  0.00    -0.399 C  
ENDBRANCH   4   5
BRANCH   4   8
HETATM    8  C   UNL     1     -11.584  12.842  67.780  1.00  0.00    -0.353 C  
HETATM    9  C   UNL     1     -11.641  11.495  67.756  1.00  0.00    -0.267 C  
HETATM   10  N   UNL     1     -11.843  10.713  68.860  1.00  0.00    -0.506 N  
HETATM   11  C   UNL     1     -11.982  11.200  70.119  1.00  0.00    -0.365 C  
HETATM   12  H   UNL     1     -11.891   9.703  68.729  1.00  0.00     0.000 HD 
HETATM   13  O   UNL     1     -12.168  10.469  71.086  1.00  0.00    -0.346 OA 
HETATM   14  N   UNL     1     -11.905  12.551  70.230  1.00  0.00    -0.538 N  
HETATM   15  C   UNL     1     -11.769  13.432  69.189  1.00  0.00    -0.326 C  
HETATM   16  H   UNL     1     -11.951  12.945  71.170  1.00  0.00     0.000 HD 
HETATM   17  O   UNL     1     -11.816  14.637  69.430  1.00  0.00    -0.296 OA 
ENDBRANCH   4   8
ENDBRANCH   3   4
TORSDOF 3
ENDMDL
MODEL       16
REMARK 921   NORMALIZED FREE ENERGY PREDICTED BY IDOCK:   -4.74 KCAL/MOL
REMARK 922        TOTAL FREE ENERGY PREDICTED BY IDOCK:   -6.02 KCAL/MOL
REMARK 923 INTER-LIGAND FREE ENERGY PREDICTED BY IDOCK:   -5.60 KCAL/MOL
REMARK 924 INTRA-LIGAND FREE ENERGY PREDICTED BY IDOCK:   -0.41 KCAL/MOL
REMARK 927      BINDING AFFINITY PREDICTED BY RF-SCORE:    0.00 PKD
ROOT
HETATM    1 CL   UNL     1     -11.027  12.242  64.071  1.00  0.00    -0.394 Cl 
HETATM    2  C   UNL     1     -12.062  13.659  64.372  1.00  0.00    -0.427 C  
HETATM    3  C   UNL     1     -12.571  13.742  65.816  1.00  0.00    -0.480 C  
ENDROOT
BRANCH   3   4
HETATM    4  N   UNL     1     -11.514  13.689  66.857  1.00  0.00    -0.330 NA 
BRANCH   4   5
HETATM    5  C   UNL     1     -10.344  14.616  66.747  1.00  0.00    -0.268 C  
HETATM    6 CL   UNL     1     -10.937  16.862  68.275  1.00  0.00    -0.349 Cl 
HETATM    7  C   UNL     1     -10.534  16.132  66.702  1.00  0.00    -0.300 C  
ENDBRANCH   4   5
BRANCH   4   8
HETATM    8  C   UNL     1     -11.720  12.965  68.079  1.00  0.00    -0.356 C  
HETATM    9  C   UNL     1     -11.895  13.517  69.295  1.00  0.00    -0.341 C  
HETATM   10  N   UNL     1     -12.083  12.801  70.446  1.00  0.00    -0.472 N  
HETATM   11  C   UNL     1     -12.144  11.446  70.494  1.00  0.00    -0.394 C  
HETATM   12  H   UNL     1     -12.184  13.317  71.320  1.00  0.00     0.000 HD 
HETATM   13  O   UNL     1     -12.307  10.835  71.545  1.00  0.00    -0.344 OA 
HETATM   14  N   UNL     1     -12.007  10.817  69.299  1.00  0.00    -0.480 N  
HETATM   15  C   UNL     1     -11.752  11.427  68.099  1.00  0.00    -0.284 C  
HETATM   16  H   UNL     1     -12.102   9.801  69.293  1.00  0.00     0.000 HD 
HETATM   17  O   UNL     1     -11.551  10.721  67.112  1.00  0.00    -0.385 OA 
ENDBRANCH   4   8
ENDBRANCH   3   4
TORSDOF 3
ENDMDL
MODEL       17
REMARK 921   NORMALIZED FREE ENERGY PREDICTED BY IDOCK:   -4.72 KCAL/MOL
REMARK 922        TOTAL FREE ENERGY PREDICTED BY IDOCK:   -6.00 KCAL/MOL
REMARK 923 INTER-LIGAND FREE ENERGY PREDICTED BY IDOCK:   -5.61 KCAL/MOL
REMARK 924 INTRA-LIGAND FREE ENERGY PREDICTED BY IDOCK:   -0.38 KCAL/MOL
REMARK 927      BINDING AFFINITY PREDICTED BY RF-SCORE:    0.00 PKD
ROOT
HETATM    1 CL   UNL     1     -11.777  11.844  63.670  1.00  0.00    -0.566 Cl 
HETATM    2  C   UNL     1     -12.269  13.530  63.967  1.00  0.00    -0.402 C  
HETATM    3  C   UNL     1     -12.488  13.844  65.450  1.00  0.00    -0.501 C  
ENDROOT
BRANCH   3   4
HETATM    4  N   UNL     1     -11.343  13.514  66.337  1.00  0.00    -0.308 NA 
BRANCH   4   5
HETATM    5  C   UNL     1     -10.046  14.236  66.141  1.00  0.00    -0.313 C  
HETATM    6 CL   UNL     1     -10.365  16.786  67.204  1.00  0.00    -0.296 Cl 
HETATM    7  C   UNL     1     -10.011  15.730  65.815  1.00  0.00    -0.358 C  
ENDBRANCH   4   5
BRANCH   4   8
HETATM    8  C   UNL     1     -11.531  12.723  67.519  1.00  0.00    -0.336 C  
HETATM    9  C   UNL     1     -11.514  11.377  67.571  1.00  0.00    -0.260 C  
HETATM   10  N   UNL     1     -11.704  10.649  68.714  1.00  0.00    -0.488 N  
HETATM   11  C   UNL     1     -11.904  11.198  69.939  1.00  0.00    -0.363 C  
HETATM   12  H   UNL     1     -11.694   9.632  68.640  1.00  0.00     0.000 HD 
HETATM   13  O   UNL     1     -12.076  10.513  70.942  1.00  0.00    -0.320 OA 
HETATM   14  N   UNL     1     -11.902  12.555  69.973  1.00  0.00    -0.478 N  
HETATM   15  C   UNL     1     -11.786  13.381  68.886  1.00  0.00    -0.328 C  
HETATM   16  H   UNL     1     -11.995  12.998  70.887  1.00  0.00     0.000 HD 
HETATM   17  O   UNL     1     -11.904  14.593  69.056  1.00  0.00    -0.299 OA 
ENDBRANCH   4   8
ENDBRANCH   3   4
TORSDOF 3
ENDMDL
MODEL       18
REMARK 921   NORMALIZED FREE ENERGY PREDICTED BY IDOCK:   -4.70 KCAL/MOL
REMARK 922        TOTAL FREE ENERGY PREDICTED BY IDOCK:   -5.97 KCAL/MOL
REMARK 923 INTER-LIGAND FREE ENERGY PREDICTED BY IDOCK:   -5.81 KCAL/MOL
REMARK 924 INTRA-LIGAND FREE ENERGY PREDICTED BY IDOCK:   -0.17 KCAL/MOL
REMARK 927      BINDING AFFINITY PREDICTED BY RF-SCORE:    0.00 PKD
ROOT
HETATM    1 CL   UNL     1     -12.229  15.400  70.349  1.00  0.00    -0.394 Cl 
HETATM    2  C   UNL     1     -10.462  15.539  70.171  1.00  0.00    -0.301 C  
HETATM    3  C   UNL     1      -9.973  15.254  68.747  1.00  0.00    -0.215 C  
ENDROOT
BRANCH   3   4
HETATM    4  N   UNL     1     -10.628  16.059  67.685  1.00  0.00    -0.304 NA 
BRANCH   4   5
HETATM    5  C   UNL     1     -10.525  17.551  67.744  1.00  0.00    -0.381 C  
HETATM    6 CL   UNL     1      -8.086  18.245  66.603  1.00  0.00    -0.269 Cl 
HETATM    7  C   UNL     1      -9.188  18.245  68.002  1.00  0.00    -0.290 C  
ENDBRANCH   4   5
BRANCH   4   8
HETATM    8  C   UNL     1     -11.122  15.438  66.490  1.00  0.00    -0.227 C  
HETATM    9  C   UNL     1     -10.960  15.910  65.239  1.00  0.00    -0.324 C  
HETATM   10  N   UNL     1     -11.449  15.299  64.116  1.00  0.00    -0.702 N  
HETATM   11  C   UNL     1     -12.133  14.126  64.128  1.00  0.00    -0.406 C  
HETATM   12  H   UNL     1     -11.290  15.752  63.217  1.00  0.00     0.000 HD 
HETATM   13  O   UNL     1     -12.562  13.610  63.102  1.00  0.00    -0.792 OA 
HETATM   14  N   UNL     1     -12.308  13.570  65.354  1.00  0.00    -0.448 N  
HETATM   15  C   UNL     1     -11.919  14.124  66.545  1.00  0.00    -0.442 C  
HETATM   16  H   UNL     1     -12.771  12.662  65.391  1.00  0.00     0.000 HD 
HETATM   17  O   UNL     1     -12.236  13.554  67.588  1.00  0.00    -0.312 OA 
ENDBRANCH   4   8
ENDBRANCH   3   4
TORSDOF 3
ENDMDL
MODEL       19
REMARK 921   NORMALIZED FREE ENERGY PREDICTED BY IDOCK:   -4.70 KCAL/MOL
REMARK 922        TOTAL FREE ENERGY PREDICTED BY IDOCK:   -5.97 KCAL/MOL
REMARK 923 INTER-LIGAND FREE ENERGY PREDICTED BY IDOCK:   -5.65 KCAL/MOL
REMARK 924 INTRA-LIGAND FREE ENERGY PREDICTED BY IDOCK:   -0.32 KCAL/MOL
REMARK 927      BINDING AFFINITY PREDICTED BY RF-SCORE:    0.00 PKD
ROOT
HETATM    1 CL   UNL     1      -7.740  16.037  66.966  1.00  0.00    -0.241 Cl 
HETATM    2  C   UNL     1      -7.956  14.308  67.333  1.00  0.00    -0.192 C  
HETATM    3  C   UNL     1      -9.091  14.036  68.326  1.00  0.00    -0.191 C  
ENDROOT
BRANCH   3   4
HETATM    4  N   UNL     1     -10.405  14.617  67.952  1.00  0.00    -0.236 NA 
BRANCH   4   5
HETATM    5  C   UNL     1     -11.007  15.670  68.830  1.00  0.00    -0.281 C  
HETATM    6 CL   UNL     1     -11.860  14.403  71.153  1.00  0.00    -0.360 Cl 
HETATM    7  C   UNL     1     -12.225  15.373  69.705  1.00  0.00    -0.306 C  
ENDBRANCH   4   5
BRANCH   4   8
HETATM    8  C   UNL     1     -10.972  14.381  66.655  1.00  0.00    -0.318 C  
HETATM    9  C   UNL     1     -10.872  15.207  65.595  1.00  0.00    -0.360 C  
HETATM   10  N   UNL     1     -11.430  14.958  64.371  1.00  0.00    -0.649 N  
HETATM   11  C   UNL     1     -12.127  13.834  64.069  1.00  0.00    -0.403 C  
HETATM   12  H   UNL     1     -11.314  15.661  63.641  1.00  0.00     0.000 HD 
HETATM   13  O   UNL     1     -12.619  13.646  62.961  1.00  0.00    -0.729 OA 
HETATM   14  N   UNL     1     -12.243  12.935  65.080  1.00  0.00    -0.444 N  
HETATM   15  C   UNL     1     -11.782  13.108  66.359  1.00  0.00    -0.379 C  
HETATM   16  H   UNL     1     -12.715  12.056  64.869  1.00  0.00     0.000 HD 
HETATM   17  O   UNL     1     -12.050  12.250  67.199  1.00  0.00    -0.560 OA 
ENDBRANCH   4   8
ENDBRANCH   3   4
TORSDOF 3
ENDMDL
MODEL       20
REMARK 921   NORMALIZED FREE ENERGY PREDICTED BY IDOCK:   -4.70 KCAL/MOL
REMARK 922        TOTAL FREE ENERGY PREDICTED BY IDOCK:   -5.97 KCAL/MOL
REMARK 923 INTER-LIGAND FREE ENERGY PREDICTED BY IDOCK:   -5.54 KCAL/MOL
REMARK 924 INTRA-LIGAND FREE ENERGY PREDICTED BY IDOCK:   -0.43 KCAL/MOL
REMARK 927      BINDING AFFINITY PREDICTED BY RF-SCORE:    0.00 PKD
ROOT
HETATM    1 CL   UNL     1     -10.765  13.350  64.504  1.00  0.00    -0.410 Cl 
HETATM    2  C   UNL     1      -9.924  12.876  66.001  1.00  0.00    -0.272 C  
HETATM    3  C   UNL     1      -9.590  14.064  66.909  1.00  0.00    -0.271 C  
ENDROOT
BRANCH   3   4
HETATM    4  N   UNL     1     -10.743  14.931  67.259  1.00  0.00    -0.287 NA 
BRANCH   4   5
HETATM    5  C   UNL     1     -11.987  14.295  67.798  1.00  0.00    -0.349 C  
HETATM    6 CL   UNL     1     -11.858  14.474  70.570  1.00  0.00    -0.356 Cl 
HETATM    7  C   UNL     1     -11.966  13.484  69.094  1.00  0.00    -0.333 C  
ENDBRANCH   4   5
BRANCH   4   8
HETATM    8  C   UNL     1     -10.597  16.356  67.336  1.00  0.00    -0.306 C  
HETATM    9  C   UNL     1     -10.513  17.074  68.473  1.00  0.00    -0.373 C  
HETATM   10  N   UNL     1     -10.381  18.435  68.516  1.00  0.00    -0.366 N  
HETATM   11  C   UNL     1     -10.289  19.223  67.414  1.00  0.00    -0.438 C  
HETATM   12  H   UNL     1     -10.348  18.885  69.431  1.00  0.00     0.000 HD 
HETATM   13  O   UNL     1     -10.177  20.442  67.490  1.00  0.00    -0.377 OA 
HETATM   14  N   UNL     1     -10.334  18.567  66.227  1.00  0.00    -0.416 N  
HETATM   15  C   UNL     1     -10.527  17.220  66.065  1.00  0.00    -0.282 C  
HETATM   16  H   UNL     1     -10.213  19.125  65.382  1.00  0.00     0.000 HD 
HETATM   17  O   UNL     1     -10.648  16.778  64.924  1.00  0.00    -0.702 OA 
ENDBRANCH   4   8
ENDBRANCH   3   4
TORSDOF 3
ENDMDL
MODEL       21
REMARK 921   NORMALIZED FREE ENERGY PREDICTED BY IDOCK:   -4.67 KCAL/MOL
REMARK 922        TOTAL FREE ENERGY PREDICTED BY IDOCK:   -5.93 KCAL/MOL
REMARK 923 INTER-LIGAND FREE ENERGY PREDICTED BY IDOCK:   -5.59 KCAL/MOL
REMARK 924 INTRA-LIGAND FREE ENERGY PREDICTED BY IDOCK:   -0.34 KCAL/MOL
REMARK 927      BINDING AFFINITY PREDICTED BY RF-SCORE:    0.00 PKD
ROOT
HETATM    1 CL   UNL     1      -9.974  19.405  68.935  1.00  0.00    -0.520 Cl 
HETATM    2  C   UNL     1     -10.779  19.558  67.354  1.00  0.00    -0.467 C  
HETATM    3  C   UNL     1      -9.820  19.405  66.168  1.00  0.00    -0.390 C  
ENDROOT
BRANCH   3   4
HETATM    4  N   UNL     1      -9.007  18.162  66.176  1.00  0.00    -0.498 NA 
BRANCH   4   5
HETATM    5  C   UNL     1      -7.516  18.274  66.112  1.00  0.00    -0.256 C  
HETATM    6 CL   UNL     1      -6.824  20.659  67.363  1.00  0.00    -0.359 Cl 
HETATM    7  C   UNL     1      -6.830  19.626  65.913  1.00  0.00    -0.268 C  
ENDBRANCH   4   5
BRANCH   4   8
HETATM    8  C   UNL     1      -9.600  16.897  66.500  1.00  0.00    -0.278 C  
HETATM    9  C   UNL     1      -9.370  16.190  67.625  1.00  0.00    -0.214 C  
HETATM   10  N   UNL     1      -9.945  14.981  67.904  1.00  0.00    -0.221 N  
HETATM   11  C   UNL     1     -10.840  14.360  67.094  1.00  0.00    -0.292 C  
HETATM   12  H   UNL     1      -9.686  14.518  68.775  1.00  0.00     0.000 HD 
HETATM   13  O   UNL     1     -11.332  13.272  67.374  1.00  0.00    -0.277 OA 
HETATM   14  N   UNL     1     -11.148  15.028  65.952  1.00  0.00    -0.339 N  
HETATM   15  C   UNL     1     -10.587  16.209  65.542  1.00  0.00    -0.377 C  
HETATM   16  H   UNL     1     -11.858  14.615  65.348  1.00  0.00     0.000 HD 
HETATM   17  O   UNL     1     -10.889  16.648  64.433  1.00  0.00    -0.833 OA 
ENDBRANCH   4   8
ENDBRANCH   3   4
TORSDOF 3
ENDMDL
MODEL       22
REMARK 921   NORMALIZED FREE ENERGY PREDICTED BY IDOCK:   -4.63 KCAL/MOL
REMARK 922        TOTAL FREE ENERGY PREDICTED BY IDOCK:   -5.89 KCAL/MOL
REMARK 923 INTER-LIGAND FREE ENERGY PREDICTED BY IDOCK:   -5.67 KCAL/MOL
REMARK 924 INTRA-LIGAND FREE ENERGY PREDICTED BY IDOCK:   -0.22 KCAL/MOL
REMARK 927      BINDING AFFINITY PREDICTED BY RF-SCORE:    0.00 PKD
ROOT
HETATM    1 CL   UNL     1      -9.812  11.113  62.977  1.00  0.00    -0.361 Cl 
HETATM    2  C   UNL     1      -9.161  10.291  64.417  1.00  0.00    -0.252 C  
HETATM    3  C   UNL     1      -9.066  11.204  65.644  1.00  0.00    -0.205 C  
ENDROOT
BRANCH   3   4
HETATM    4  N   UNL     1     -10.329  11.893  66.013  1.00  0.00    -0.225 NA 
BRANCH   4   5
HETATM    5  C   UNL     1     -11.182  11.306  67.094  1.00  0.00    -0.275 C  
HETATM    6 CL   UNL     1     -11.758  13.357  68.882  1.00  0.00    -0.344 Cl 
HETATM    7  C   UNL     1     -11.045  11.760  68.548  1.00  0.00    -0.239 C  
ENDBRANCH   4   5
BRANCH   4   8
HETATM    8  C   UNL     1     -10.608  13.220  65.546  1.00  0.00    -0.287 C  
HETATM    9  C   UNL     1     -11.486  13.540  64.576  1.00  0.00    -0.381 C  
HETATM   10  N   UNL     1     -11.726  14.817  64.146  1.00  0.00    -0.667 N  
HETATM   11  C   UNL     1     -11.128  15.918  64.667  1.00  0.00    -0.354 C  
HETATM   12  H   UNL     1     -12.396  14.949  63.388  1.00  0.00     0.000 HD 
HETATM   13  O   UNL     1     -11.363  17.048  64.253  1.00  0.00    -1.191 OA 
HETATM   14  N   UNL     1     -10.250  15.679  65.675  1.00  0.00    -0.348 N  
HETATM   15  C   UNL     1      -9.887  14.442  66.141  1.00  0.00    -0.320 C  
HETATM   16  H   UNL     1      -9.825  16.489  66.124  1.00  0.00     0.000 HD 
HETATM   17  O   UNL     1      -9.002  14.373  66.992  1.00  0.00    -0.218 OA 
ENDBRANCH   4   8
ENDBRANCH   3   4
TORSDOF 3
ENDMDL
MODEL       23
REMARK 921   NORMALIZED FREE ENERGY PREDICTED BY IDOCK:   -4.60 KCAL/MOL
REMARK 922        TOTAL FREE ENERGY PREDICTED BY IDOCK:   -5.85 KCAL/MOL
REMARK 923 INTER-LIGAND FREE ENERGY PREDICTED BY IDOCK:   -5.36 KCAL/MOL
REMARK 924 INTRA-LIGAND FREE ENERGY PREDICTED BY IDOCK:   -0.49 KCAL/MOL
REMARK 927      BINDING AFFINITY PREDICTED BY RF-SCORE:    0.00 PKD
ROOT
HETATM    1 CL   UNL     1     -12.297  12.141  64.461  1.00  0.00    -0.432 Cl 
HETATM    2  C   UNL     1     -12.234  13.877  64.851  1.00  0.00    -0.422 C  
HETATM    3  C   UNL     1     -12.283  14.163  66.356  1.00  0.00    -0.446 C  
ENDROOT
BRANCH   3   4
HETATM    4  N   UNL     1     -11.260  13.451  67.164  1.00  0.00    -0.293 NA 
BRANCH   4   5
HETATM    5  C   UNL     1      -9.812  13.686  66.865  1.00  0.00    -0.261 C  
HETATM    6 CL   UNL     1      -8.756  11.267  65.993  1.00  0.00    -0.185 Cl 
HETATM    7  C   UNL     1      -8.758  12.617  67.154  1.00  0.00    -0.201 C  
ENDBRANCH   4   5
BRANCH   4   8
HETATM    8  C   UNL     1     -11.622  12.760  68.368  1.00  0.00    -0.325 C  
HETATM    9  C   UNL     1     -11.805  13.332  69.574  1.00  0.00    -0.327 C  
HETATM   10  N   UNL     1     -12.144  12.646  70.708  1.00  0.00    -0.484 N  
HETATM   11  C   UNL     1     -12.365  11.307  70.747  1.00  0.00    -0.398 C  
HETATM   12  H   UNL     1     -12.237  13.172  71.576  1.00  0.00     0.000 HD 
HETATM   13  O   UNL     1     -12.662  10.723  71.784  1.00  0.00    -0.413 OA 
HETATM   14  N   UNL     1     -12.230  10.663  69.559  1.00  0.00    -0.530 N  
HETATM   15  C   UNL     1     -11.834  11.236  68.380  1.00  0.00    -0.261 C  
HETATM   16  H   UNL     1     -12.442   9.665  69.544  1.00  0.00     0.000 HD 
HETATM   17  O   UNL     1     -11.657  10.509  67.404  1.00  0.00    -0.383 OA 
ENDBRANCH   4   8
ENDBRANCH   3   4
TORSDOF 3
ENDMDL
MODEL       24
REMARK 921   NORMALIZED FREE ENERGY PREDICTED BY IDOCK:   -4.51 KCAL/MOL
REMARK 922        TOTAL FREE ENERGY PREDICTED BY IDOCK:   -5.75 KCAL/MOL
REMARK 923 INTER-LIGAND FREE ENERGY PREDICTED BY IDOCK:   -5.23 KCAL/MOL
REMARK 924 INTRA-LIGAND FREE ENERGY PREDICTED BY IDOCK:   -0.51 KCAL/MOL
REMARK 927      BINDING AFFINITY PREDICTED BY RF-SCORE:    0.00 PKD
ROOT
HETATM    1 CL   UNL     1     -12.026  15.730  69.082  1.00  0.00    -0.373 Cl 
HETATM    2  C   UNL     1     -10.431  15.051  69.489  1.00  0.00    -0.235 C  
HETATM    3  C   UNL     1      -9.960  13.977  68.502  1.00  0.00    -0.230 C  
ENDROOT
BRANCH   3   4
HETATM    4  N   UNL     1      -9.957  14.392  67.077  1.00  0.00    -0.253 NA 
BRANCH   4   5
HETATM    5  C   UNL     1      -8.854  15.277  66.585  1.00  0.00    -0.293 C  
HETATM    6 CL   UNL     1      -9.449  17.861  67.421  1.00  0.00    -0.256 Cl 
HETATM    7  C   UNL     1      -9.133  16.702  66.107  1.00  0.00    -0.283 C  
ENDBRANCH   4   5
BRANCH   4   8
HETATM    8  C   UNL     1     -10.825  13.762  66.124  1.00  0.00    -0.279 C  
HETATM    9  C   UNL     1     -12.032  14.222  65.742  1.00  0.00    -0.393 C  
HETATM   10  N   UNL     1     -12.843  13.595  64.834  1.00  0.00    -0.720 N  
HETATM   11  C   UNL     1     -12.513  12.448  64.188  1.00  0.00    -0.442 C  
HETATM   12  H   UNL     1     -13.749  14.016  64.631  1.00  0.00     0.000 HD 
HETATM   13  O   UNL     1     -13.267  11.910  63.385  1.00  0.00    -0.649 OA 
HETATM   14  N   UNL     1     -11.293  11.939  64.498  1.00  0.00    -0.329 N  
HETATM   15  C   UNL     1     -10.430  12.446  65.434  1.00  0.00    -0.277 C  
HETATM   16  H   UNL     1     -10.993  11.107  63.989  1.00  0.00     0.000 HD 
HETATM   17  O   UNL     1      -9.401  11.820  65.682  1.00  0.00    -0.221 OA 
ENDBRANCH   4   8
ENDBRANCH   3   4
TORSDOF 3
ENDMDL
MODEL       25
REMARK 921   NORMALIZED FREE ENERGY PREDICTED BY IDOCK:   -4.50 KCAL/MOL
REMARK 922        TOTAL FREE ENERGY PREDICTED BY IDOCK:   -5.74 KCAL/MOL
REMARK 923 INTER-LIGAND FREE ENERGY PREDICTED BY IDOCK:   -5.50 KCAL/MOL
REMARK 924 INTRA-LIGAND FREE ENERGY PREDICTED BY IDOCK:   -0.24 KCAL/MOL
REMARK 927      BINDING AFFINITY PREDICTED BY RF-SCORE:    0.00 PKD
ROOT
HETATM    1 CL   UNL     1     -11.841  13.533  64.149  1.00  0.00    -0.467 Cl 
HETATM    2  C   UNL     1     -12.764  14.081  65.570  1.00  0.00    -0.486 C  
HETATM    3  C   UNL     1     -11.978  13.972  66.881  1.00  0.00    -0.447 C  
ENDROOT
BRANCH   3   4
HETATM    4  N   UNL     1     -10.654  14.646  66.877  1.00  0.00    -0.277 NA 
BRANCH   4   5
HETATM    5  C   UNL     1      -9.469  13.906  66.341  1.00  0.00    -0.250 C  
HETATM    6 CL   UNL     1      -9.585  11.326  67.373  1.00  0.00    -0.178 Cl 
HETATM    7  C   UNL     1      -8.726  12.875  67.193  1.00  0.00    -0.205 C  
ENDBRANCH   4   5
BRANCH   4   8
HETATM    8  C   UNL     1     -10.544  16.054  67.129  1.00  0.00    -0.305 C  
HETATM    9  C   UNL     1     -10.454  16.627  68.345  1.00  0.00    -0.323 C  
HETATM   10  N   UNL     1     -10.357  17.976  68.554  1.00  0.00    -0.372 N  
HETATM   11  C   UNL     1     -10.310  18.897  67.558  1.00  0.00    -0.426 C  
HETATM   12  H   UNL     1     -10.317  18.309  69.517  1.00  0.00     0.000 HD 
HETATM   13  O   UNL     1     -10.228  20.100  67.783  1.00  0.00    -0.407 OA 
HETATM   14  N   UNL     1     -10.363  18.392  66.299  1.00  0.00    -0.410 N  
HETATM   15  C   UNL     1     -10.525  17.071  65.975  1.00  0.00    -0.274 C  
HETATM   16  H   UNL     1     -10.275  19.054  65.528  1.00  0.00     0.000 HD 
HETATM   17  O   UNL     1     -10.658  16.770  64.790  1.00  0.00    -0.674 OA 
ENDBRANCH   4   8
ENDBRANCH   3   4
TORSDOF 3
ENDMDL
MODEL       26
REMARK 921   NORMALIZED FREE ENERGY PREDICTED BY IDOCK:   -4.49 KCAL/MOL
REMARK 922        TOTAL FREE ENERGY PREDICTED BY IDOCK:   -5.73 KCAL/MOL
REMARK 923 INTER-LIGAND FREE ENERGY PREDICTED BY IDOCK:   -5.28 KCAL/MOL
REMARK 924 INTRA-LIGAND FREE ENERGY PREDICTED BY IDOCK:   -0.45 KCAL/MOL
REMARK 927      BINDING AFFINITY PREDICTED BY RF-SCORE:    0.00 PKD
ROOT
HETATM    1 CL   UNL     1     -12.659  14.025  65.168  1.00  0.00    -0.461 Cl 
HETATM    2  C   UNL     1     -11.229  15.037  64.853  1.00  0.00    -0.416 C  
HETATM    3  C   UNL     1     -10.734  15.791  66.092  1.00  0.00    -0.290 C  
ENDROOT
BRANCH   3   4
HETATM    4  N   UNL     1     -10.469  14.939  67.279  1.00  0.00    -0.259 NA 
BRANCH   4   5
HETATM    5  C   UNL     1      -9.272  14.040  67.270  1.00  0.00    -0.230 C  
HETATM    6 CL   UNL     1      -9.856  11.923  65.564  1.00  0.00    -0.255 Cl 
HETATM    7  C   UNL     1      -9.421  12.521  67.184  1.00  0.00    -0.208 C  
ENDBRANCH   4   5
BRANCH   4   8
HETATM    8  C   UNL     1     -11.174  15.151  68.511  1.00  0.00    -0.293 C  
HETATM    9  C   UNL     1     -12.160  14.370  68.992  1.00  0.00    -0.263 C  
HETATM   10  N   UNL     1     -12.820  14.601  70.169  1.00  0.00    -0.567 N  
HETATM   11  C   UNL     1     -12.539  15.632  71.006  1.00  0.00    -0.459 C  
HETATM   12  H   UNL     1     -13.568  13.960  70.432  1.00  0.00     0.000 HD 
HETATM   13  O   UNL     1     -13.156  15.813  72.051  1.00  0.00    -0.445 OA 
HETATM   14  N   UNL     1     -11.531  16.448  70.603  1.00  0.00    -0.531 N  
HETATM   15  C   UNL     1     -10.848  16.349  69.420  1.00  0.00    -0.327 C  
HETATM   16  H   UNL     1     -11.260  17.200  71.236  1.00  0.00     0.000 HD 
HETATM   17  O   UNL     1     -10.027  17.221  69.142  1.00  0.00    -0.275 OA 
ENDBRANCH   4   8
ENDBRANCH   3   4
TORSDOF 3
ENDMDL
MODEL       27
REMARK 921   NORMALIZED FREE ENERGY PREDICTED BY IDOCK:   -4.48 KCAL/MOL
REMARK 922        TOTAL FREE ENERGY PREDICTED BY IDOCK:   -5.71 KCAL/MOL
REMARK 923 INTER-LIGAND FREE ENERGY PREDICTED BY IDOCK:   -5.15 KCAL/MOL
REMARK 924 INTRA-LIGAND FREE ENERGY PREDICTED BY IDOCK:   -0.56 KCAL/MOL
REMARK 927      BINDING AFFINITY PREDICTED BY RF-SCORE:    0.00 PKD
ROOT
HETATM    1 CL   UNL     1     -12.122  13.133  70.487  1.00  0.00    -0.421 Cl 
HETATM    2  C   UNL     1     -11.732  11.430  70.144  1.00  0.00    -0.328 C  
HETATM    3  C   UNL     1     -11.740  11.096  68.648  1.00  0.00    -0.320 C  
ENDROOT
BRANCH   3   4
HETATM    4  N   UNL     1     -10.880  11.966  67.806  1.00  0.00    -0.202 NA 
BRANCH   4   5
HETATM    5  C   UNL     1      -9.442  12.140  68.181  1.00  0.00    -0.205 C  
HETATM    6 CL   UNL     1      -9.104  14.805  68.900  1.00  0.00    -0.186 Cl 
HETATM    7  C   UNL     1      -8.686  13.428  67.852  1.00  0.00    -0.187 C  
ENDBRANCH   4   5
BRANCH   4   8
HETATM    8  C   UNL     1     -11.327  12.421  66.521  1.00  0.00    -0.340 C  
HETATM    9  C   UNL     1     -11.159  11.766  65.356  1.00  0.00    -0.279 C  
HETATM   10  N   UNL     1     -11.591  12.229  64.143  1.00  0.00    -0.360 N  
HETATM   11  C   UNL     1     -12.268  13.393  63.973  1.00  0.00    -0.405 C  
HETATM   12  H   UNL     1     -11.392  11.665  63.317  1.00  0.00     0.000 HD 
HETATM   13  O   UNL     1     -12.635  13.781  62.869  1.00  0.00    -0.611 OA 
HETATM   14  N   UNL     1     -12.505  14.097  65.110  1.00  0.00    -0.517 N  
HETATM   15  C   UNL     1     -12.065  13.762  66.363  1.00  0.00    -0.444 C  
HETATM   16  H   UNL     1     -13.059  14.949  65.022  1.00  0.00     0.000 HD 
HETATM   17  O   UNL     1     -12.269  14.549  67.286  1.00  0.00    -0.347 OA 
ENDBRANCH   4   8
ENDBRANCH   3   4
TORSDOF 3
ENDMDL
MODEL       28
REMARK 921   NORMALIZED FREE ENERGY PREDICTED BY IDOCK:   -4.46 KCAL/MOL
REMARK 922        TOTAL FREE ENERGY PREDICTED BY IDOCK:   -5.69 KCAL/MOL
REMARK 923 INTER-LIGAND FREE ENERGY PREDICTED BY IDOCK:   -5.37 KCAL/MOL
REMARK 924 INTRA-LIGAND FREE ENERGY PREDICTED BY IDOCK:   -0.33 KCAL/MOL
REMARK 927      BINDING AFFINITY PREDICTED BY RF-SCORE:    0.00 PKD
ROOT
HETATM    1 CL   UNL     1      -7.273  14.626  67.484  1.00  0.00    -0.211 Cl 
HETATM    2  C   UNL     1      -7.952  12.981  67.420  1.00  0.00    -0.172 C  
HETATM    3  C   UNL     1      -9.234  12.823  68.245  1.00  0.00    -0.186 C  
ENDROOT
BRANCH   3   4
HETATM    4  N   UNL     1     -10.307  13.799  67.931  1.00  0.00    -0.240 NA 
BRANCH   4   5
HETATM    5  C   UNL     1     -10.519  14.960  68.852  1.00  0.00    -0.242 C  
HETATM    6 CL   UNL     1     -12.289  14.122  70.826  1.00  0.00    -0.416 Cl 
HETATM    7  C   UNL     1     -11.883  15.228  69.491  1.00  0.00    -0.345 C  
ENDBRANCH   4   5
BRANCH   4   8
HETATM    8  C   UNL     1     -10.956  13.795  66.651  1.00  0.00    -0.296 C  
HETATM    9  C   UNL     1     -11.867  12.892  66.239  1.00  0.00    -0.416 C  
HETATM   10  N   UNL     1     -12.465  12.909  65.008  1.00  0.00    -0.506 N  
HETATM   11  C   UNL     1     -12.231  13.856  64.064  1.00  0.00    -0.369 C  
HETATM   12  H   UNL     1     -13.126  12.165  64.787  1.00  0.00     0.000 HD 
HETATM   13  O   UNL     1     -12.781  13.837  62.968  1.00  0.00    -0.671 OA 
HETATM   14  N   UNL     1     -11.345  14.822  64.419  1.00  0.00    -0.638 N  
HETATM   15  C   UNL     1     -10.643  14.868  65.595  1.00  0.00    -0.344 C  
HETATM   16  H   UNL     1     -11.189  15.578  63.753  1.00  0.00     0.000 HD 
HETATM   17  O   UNL     1      -9.796  15.749  65.738  1.00  0.00    -0.316 OA 
ENDBRANCH   4   8
ENDBRANCH   3   4
TORSDOF 3
ENDMDL
MODEL       29
REMARK 921   NORMALIZED FREE ENERGY PREDICTED BY IDOCK:   -4.44 KCAL/MOL
REMARK 922        TOTAL FREE ENERGY PREDICTED BY IDOCK:   -5.67 KCAL/MOL
REMARK 923 INTER-LIGAND FREE ENERGY PREDICTED BY IDOCK:   -5.49 KCAL/MOL
REMARK 924 INTRA-LIGAND FREE ENERGY PREDICTED BY IDOCK:   -0.18 KCAL/MOL
REMARK 927      BINDING AFFINITY PREDICTED BY RF-SCORE:    0.00 PKD
ROOT
HETATM    1 CL   UNL     1      -9.755  10.813  65.665  1.00  0.00    -0.269 Cl 
HETATM    2  C   UNL     1      -9.000  12.194  66.499  1.00  0.00    -0.179 C  
HETATM    3  C   UNL     1      -9.823  13.483  66.402  1.00  0.00    -0.295 C  
ENDROOT
BRANCH   3   4
HETATM    4  N   UNL     1     -11.233  13.362  66.850  1.00  0.00    -0.300 NA 
BRANCH   4   5
HETATM    5  C   UNL     1     -12.328  13.740  65.901  1.00  0.00    -0.476 C  
HETATM    6 CL   UNL     1     -11.801  12.449  63.495  1.00  0.00    -0.578 Cl 
HETATM    7  C   UNL     1     -12.048  13.955  64.413  1.00  0.00    -0.443 C  
ENDBRANCH   4   5
BRANCH   4   8
HETATM    8  C   UNL     1     -11.566  12.659  68.055  1.00  0.00    -0.343 C  
HETATM    9  C   UNL     1     -11.888  11.353  68.136  1.00  0.00    -0.218 C  
HETATM   10  N   UNL     1     -12.207  10.709  69.300  1.00  0.00    -0.538 N  
HETATM   11  C   UNL     1     -12.210  11.304  70.520  1.00  0.00    -0.383 C  
HETATM   12  H   UNL     1     -12.458   9.722  69.248  1.00  0.00     0.000 HD 
HETATM   13  O   UNL     1     -12.508  10.697  71.543  1.00  0.00    -0.377 OA 
HETATM   14  N   UNL     1     -11.864  12.617  70.525  1.00  0.00    -0.531 N  
HETATM   15  C   UNL     1     -11.588  13.375  69.417  1.00  0.00    -0.307 C  
HETATM   16  H   UNL     1     -11.803  13.079  71.432  1.00  0.00     0.000 HD 
HETATM   17  O   UNL     1     -11.388  14.579  69.564  1.00  0.00    -0.254 OA 
ENDBRANCH   4   8
ENDBRANCH   3   4
TORSDOF 3
ENDMDL
MODEL       30
REMARK 921   NORMALIZED FREE ENERGY PREDICTED BY IDOCK:   -4.44 KCAL/MOL
REMARK 922        TOTAL FREE ENERGY PREDICTED BY IDOCK:   -5.66 KCAL/MOL
REMARK 923 INTER-LIGAND FREE ENERGY PREDICTED BY IDOCK:   -5.31 KCAL/MOL
REMARK 924 INTRA-LIGAND FREE ENERGY PREDICTED BY IDOCK:   -0.35 KCAL/MOL
REMARK 927      BINDING AFFINITY PREDICTED BY RF-SCORE:    0.00 PKD
ROOT
HETATM    1 CL   UNL     1     -12.183  10.910  69.295  1.00  0.00    -0.339 Cl 
HETATM    2  C   UNL     1     -10.436  11.208  69.476  1.00  0.00    -0.037 C  
HETATM    3  C   UNL     1      -9.818  11.935  68.276  1.00  0.00    -0.199 C  
ENDROOT
BRANCH   3   4
HETATM    4  N   UNL     1     -10.487  13.206  67.900  1.00  0.00    -0.234 NA 
BRANCH   4   5
HETATM    5  C   UNL     1     -10.328  14.397  68.792  1.00  0.00    -0.241 C  
HETATM    6 CL   UNL     1     -12.641  14.581  70.325  1.00  0.00    -0.394 Cl 
HETATM    7  C   UNL     1     -11.519  15.292  69.140  1.00  0.00    -0.316 C  
ENDBRANCH   4   5
BRANCH   4   8
HETATM    8  C   UNL     1     -11.052  13.382  66.593  1.00  0.00    -0.295 C  
HETATM    9  C   UNL     1     -12.124  12.724  66.109  1.00  0.00    -0.364 C  
HETATM   10  N   UNL     1     -12.638  12.908  64.854  1.00  0.00    -0.635 N  
HETATM   11  C   UNL     1     -12.144  13.798  63.955  1.00  0.00    -0.403 C  
HETATM   12  H   UNL     1     -13.440  12.343  64.577  1.00  0.00     0.000 HD 
HETATM   13  O   UNL     1     -12.626  13.932  62.835  1.00  0.00    -0.580 OA 
HETATM   14  N   UNL     1     -11.079  14.523  64.383  1.00  0.00    -0.621 N  
HETATM   15  C   UNL     1     -10.447  14.378  65.590  1.00  0.00    -0.334 C  
HETATM   16  H   UNL     1     -10.719  15.239  63.751  1.00  0.00     0.000 HD 
HETATM   17  O   UNL     1      -9.429  15.035  65.801  1.00  0.00    -0.319 OA 
ENDBRANCH   4   8
ENDBRANCH   3   4
TORSDOF 3
ENDMDL
MODEL       31
REMARK 921   NORMALIZED FREE ENERGY PREDICTED BY IDOCK:   -4.44 KCAL/MOL
REMARK 922        TOTAL FREE ENERGY PREDICTED BY IDOCK:   -5.66 KCAL/MOL
REMARK 923 INTER-LIGAND FREE ENERGY PREDICTED BY IDOCK:   -5.30 KCAL/MOL
REMARK 924 INTRA-LIGAND FREE ENERGY PREDICTED BY IDOCK:   -0.36 KCAL/MOL
REMARK 927      BINDING AFFINITY PREDICTED BY RF-SCORE:    0.00 PKD
ROOT
HETATM    1 CL   UNL     1     -10.625  10.879  66.779  1.00  0.00    -0.305 Cl 
HETATM    2  C   UNL     1      -9.475  12.238  66.739  1.00  0.00    -0.222 C  
HETATM    3  C   UNL     1      -9.957  13.413  65.881  1.00  0.00    -0.277 C  
ENDROOT
BRANCH   3   4
HETATM    4  N   UNL     1     -11.304  13.933  66.228  1.00  0.00    -0.317 NA 
BRANCH   4   5
HETATM    5  C   UNL     1     -12.443  13.666  65.295  1.00  0.00    -0.479 C  
HETATM    6 CL   UNL     1     -11.604  11.688  63.530  1.00  0.00    -0.488 Cl 
HETATM    7  C   UNL     1     -12.201  13.340  63.821  1.00  0.00    -0.439 C  
ENDBRANCH   4   5
BRANCH   4   8
HETATM    8  C   UNL     1     -11.579  14.447  67.539  1.00  0.00    -0.373 C  
HETATM    9  C   UNL     1     -12.241  13.792  68.513  1.00  0.00    -0.159 C  
HETATM   10  N   UNL     1     -12.495  14.312  69.754  1.00  0.00    -0.480 N  
HETATM   11  C   UNL     1     -12.086  15.541  70.160  1.00  0.00    -0.378 C  
HETATM   12  H   UNL     1     -13.024  13.741  70.412  1.00  0.00     0.000 HD 
HETATM   13  O   UNL     1     -12.337  15.977  71.278  1.00  0.00    -0.437 OA 
HETATM   14  N   UNL     1     -11.383  16.251  69.241  1.00  0.00    -0.314 N  
HETATM   15  C   UNL     1     -11.126  15.857  67.954  1.00  0.00    -0.317 C  
HETATM   16  H   UNL     1     -11.014  17.155  69.534  1.00  0.00     0.000 HD 
HETATM   17  O   UNL     1     -10.563  16.649  67.200  1.00  0.00    -0.316 OA 
ENDBRANCH   4   8
ENDBRANCH   3   4
TORSDOF 3
ENDMDL
MODEL       32
REMARK 921   NORMALIZED FREE ENERGY PREDICTED BY IDOCK:   -4.43 KCAL/MOL
REMARK 922        TOTAL FREE ENERGY PREDICTED BY IDOCK:   -5.66 KCAL/MOL
REMARK 923 INTER-LIGAND FREE ENERGY PREDICTED BY IDOCK:   -5.24 KCAL/MOL
REMARK 924 INTRA-LIGAND FREE ENERGY PREDICTED BY IDOCK:   -0.41 KCAL/MOL
REMARK 927      BINDING AFFINITY PREDICTED BY RF-SCORE:    0.00 PKD
ROOT
HETATM    1 CL   UNL     1     -11.492  11.559  67.316  1.00  0.00    -0.363 Cl 
HETATM    2  C   UNL     1     -11.632  13.086  66.411  1.00  0.00    -0.363 C  
HETATM    3  C   UNL     1     -11.937  14.294  67.304  1.00  0.00    -0.405 C  
ENDROOT
BRANCH   3   4
HETATM    4  N   UNL     1     -10.997  14.490  68.437  1.00  0.00    -0.237 NA 
BRANCH   4   5
HETATM    5  C   UNL     1      -9.531  14.580  68.151  1.00  0.00    -0.208 C  
HETATM    6 CL   UNL     1      -8.955  17.258  67.674  1.00  0.00    -0.223 Cl 
HETATM    7  C   UNL     1      -8.982  15.566  67.120  1.00  0.00    -0.214 C  
ENDBRANCH   4   5
BRANCH   4   8
HETATM    8  C   UNL     1     -11.479  14.850  69.739  1.00  0.00    -0.295 C  
HETATM    9  C   UNL     1     -11.384  16.073  70.298  1.00  0.00    -0.382 C  
HETATM   10  N   UNL     1     -11.847  16.386  71.547  1.00  0.00    -0.663 N  
HETATM   11  C   UNL     1     -12.484  15.507  72.362  1.00  0.00    -0.401 C  
HETATM   12  H   UNL     1     -11.705  17.337  71.886  1.00  0.00     0.000 HD 
HETATM   13  O   UNL     1     -12.881  15.821  73.480  1.00  0.00    -0.483 OA 
HETATM   14  N   UNL     1     -12.647  14.258  71.854  1.00  0.00    -0.331 N  
HETATM   15  C   UNL     1     -12.169  13.819  70.648  1.00  0.00    -0.363 C  
HETATM   16  H   UNL     1     -13.169  13.590  72.420  1.00  0.00     0.000 HD 
HETATM   17  O   UNL     1     -12.303  12.630  70.362  1.00  0.00    -0.312 OA 
ENDBRANCH   4   8
ENDBRANCH   3   4
TORSDOF 3
ENDMDL
MODEL       33
REMARK 921   NORMALIZED FREE ENERGY PREDICTED BY IDOCK:   -4.41 KCAL/MOL
REMARK 922        TOTAL FREE ENERGY PREDICTED BY IDOCK:   -5.63 KCAL/MOL
REMARK 923 INTER-LIGAND FREE ENERGY PREDICTED BY IDOCK:   -5.15 KCAL/MOL
REMARK 924 INTRA-LIGAND FREE ENERGY PREDICTED BY IDOCK:   -0.48 KCAL/MOL
REMARK 927      BINDING AFFINITY PREDICTED BY RF-SCORE:    0.00 PKD
ROOT
HETATM    1 CL   UNL     1     -12.637  12.746  65.074  1.00  0.00    -0.569 Cl 
HETATM    2  C   UNL     1     -11.609  14.024  64.381  1.00  0.00    -0.369 C  
HETATM    3  C   UNL     1     -11.249  15.123  65.386  1.00  0.00    -0.338 C  
ENDROOT
BRANCH   3   4
HETATM    4  N   UNL     1     -10.632  14.642  66.648  1.00  0.00    -0.284 NA 
BRANCH   4   5
HETATM    5  C   UNL     1      -9.233  14.112  66.612  1.00  0.00    -0.252 C  
HETATM    6 CL   UNL     1      -9.346  11.591  65.443  1.00  0.00    -0.211 Cl 
HETATM    7  C   UNL     1      -8.941  12.627  66.833  1.00  0.00    -0.213 C  
ENDBRANCH   4   5
BRANCH   4   8
HETATM    8  C   UNL     1     -11.245  14.913  67.917  1.00  0.00    -0.315 C  
HETATM    9  C   UNL     1     -11.209  16.092  68.567  1.00  0.00    -0.365 C  
HETATM   10  N   UNL     1     -11.798  16.319  69.781  1.00  0.00    -0.292 N  
HETATM   11  C   UNL     1     -12.514  15.389  70.463  1.00  0.00    -0.422 C  
HETATM   12  H   UNL     1     -11.693  17.244  70.198  1.00  0.00     0.000 HD 
HETATM   13  O   UNL     1     -13.023  15.627  71.553  1.00  0.00    -0.442 OA 
HETATM   14  N   UNL     1     -12.622  14.181  69.854  1.00  0.00    -0.435 N  
HETATM   15  C   UNL     1     -12.023  13.824  68.675  1.00  0.00    -0.366 C  
HETATM   16  H   UNL     1     -13.199  13.477  70.316  1.00  0.00     0.000 HD 
HETATM   17  O   UNL     1     -12.126  12.659  68.294  1.00  0.00    -0.279 OA 
ENDBRANCH   4   8
ENDBRANCH   3   4
TORSDOF 3
ENDMDL
MODEL       34
REMARK 921   NORMALIZED FREE ENERGY PREDICTED BY IDOCK:   -4.41 KCAL/MOL
REMARK 922        TOTAL FREE ENERGY PREDICTED BY IDOCK:   -5.63 KCAL/MOL
REMARK 923 INTER-LIGAND FREE ENERGY PREDICTED BY IDOCK:   -5.38 KCAL/MOL
REMARK 924 INTRA-LIGAND FREE ENERGY PREDICTED BY IDOCK:   -0.25 KCAL/MOL
REMARK 927      BINDING AFFINITY PREDICTED BY RF-SCORE:    0.00 PKD
ROOT
HETATM    1 CL   UNL     1     -10.140  11.450  66.615  1.00  0.00    -0.238 Cl 
HETATM    2  C   UNL     1      -9.161  12.909  66.907  1.00  0.00    -0.224 C  
HETATM    3  C   UNL     1      -9.861  14.203  66.480  1.00  0.00    -0.290 C  
ENDROOT
BRANCH   3   4
HETATM    4  N   UNL     1     -11.213  14.407  67.060  1.00  0.00    -0.317 NA 
BRANCH   4   5
HETATM    5  C   UNL     1     -12.408  13.946  66.285  1.00  0.00    -0.449 C  
HETATM    6 CL   UNL     1     -11.476  12.975  63.851  1.00  0.00    -0.469 Cl 
HETATM    7  C   UNL     1     -12.485  14.121  64.768  1.00  0.00    -0.373 C  
ENDBRANCH   4   5
BRANCH   4   8
HETATM    8  C   UNL     1     -11.375  14.789  68.433  1.00  0.00    -0.299 C  
HETATM    9  C   UNL     1     -11.288  16.045  68.911  1.00  0.00    -0.370 C  
HETATM   10  N   UNL     1     -11.441  16.379  70.230  1.00  0.00    -0.455 N  
HETATM   11  C   UNL     1     -11.727  15.485  71.210  1.00  0.00    -0.401 C  
HETATM   12  H   UNL     1     -11.334  17.359  70.490  1.00  0.00     0.000 HD 
HETATM   13  O   UNL     1     -11.852  15.820  72.384  1.00  0.00    -0.418 OA 
HETATM   14  N   UNL     1     -11.862  14.198  70.800  1.00  0.00    -0.466 N  
HETATM   15  C   UNL     1     -11.669  13.743  69.522  1.00  0.00    -0.323 C  
HETATM   16  H   UNL     1     -12.130  13.511  71.504  1.00  0.00     0.000 HD 
HETATM   17  O   UNL     1     -11.726  12.532  69.316  1.00  0.00    -0.291 OA 
ENDBRANCH   4   8
ENDBRANCH   3   4
TORSDOF 3
ENDMDL
MODEL       35
REMARK 921   NORMALIZED FREE ENERGY PREDICTED BY IDOCK:   -4.41 KCAL/MOL
REMARK 922        TOTAL FREE ENERGY PREDICTED BY IDOCK:   -5.63 KCAL/MOL
REMARK 923 INTER-LIGAND FREE ENERGY PREDICTED BY IDOCK:   -5.17 KCAL/MOL
REMARK 924 INTRA-LIGAND FREE ENERGY PREDICTED BY IDOCK:   -0.46 KCAL/MOL
REMARK 927      BINDING AFFINITY PREDICTED BY RF-SCORE:    0.00 PKD
ROOT
HETATM    1 CL   UNL     1     -11.750  14.308  70.270  1.00  0.00    -0.348 Cl 
HETATM    2  C   UNL     1     -12.032  13.472  68.723  1.00  0.00    -0.339 C  
HETATM    3  C   UNL     1     -11.814  14.371  67.500  1.00  0.00    -0.386 C  
ENDROOT
BRANCH   3   4
HETATM    4  N   UNL     1     -10.494  15.050  67.448  1.00  0.00    -0.254 NA 
BRANCH   4   5
HETATM    5  C   UNL     1      -9.274  14.234  67.151  1.00  0.00    -0.223 C  
HETATM    6 CL   UNL     1      -7.455  14.715  69.198  1.00  0.00    -0.140 Cl 
HETATM    7  C   UNL     1      -7.873  14.758  67.468  1.00  0.00    -0.188 C  
ENDBRANCH   4   5
BRANCH   4   8
HETATM    8  C   UNL     1     -10.403  16.481  67.417  1.00  0.00    -0.290 C  
HETATM    9  C   UNL     1     -10.326  17.284  68.496  1.00  0.00    -0.371 C  
HETATM   10  N   UNL     1     -10.246  18.648  68.436  1.00  0.00    -0.382 N  
HETATM   11  C   UNL     1     -10.207  19.356  67.278  1.00  0.00    -0.415 C  
HETATM   12  H   UNL     1     -10.215  19.165  69.315  1.00  0.00     0.000 HD 
HETATM   13  O   UNL     1     -10.141  20.580  67.262  1.00  0.00    -0.421 OA 
HETATM   14  N   UNL     1     -10.247  18.612  66.143  1.00  0.00    -0.421 N  
HETATM   15  C   UNL     1     -10.391  17.250  66.085  1.00  0.00    -0.317 C  
HETATM   16  H   UNL     1     -10.165  19.110  65.257  1.00  0.00     0.000 HD 
HETATM   17  O   UNL     1     -10.515  16.720  64.982  1.00  0.00    -0.675 OA 
ENDBRANCH   4   8
ENDBRANCH   3   4
TORSDOF 3
ENDMDL
MODEL       36
REMARK 921   NORMALIZED FREE ENERGY PREDICTED BY IDOCK:   -4.41 KCAL/MOL
REMARK 922        TOTAL FREE ENERGY PREDICTED BY IDOCK:   -5.63 KCAL/MOL
REMARK 923 INTER-LIGAND FREE ENERGY PREDICTED BY IDOCK:   -5.38 KCAL/MOL
REMARK 924 INTRA-LIGAND FREE ENERGY PREDICTED BY IDOCK:   -0.25 KCAL/MOL
REMARK 927      BINDING AFFINITY PREDICTED BY RF-SCORE:    0.00 PKD
ROOT
HETATM    1 CL   UNL     1      -8.773  12.785  66.836  1.00  0.00    -0.197 Cl 
HETATM    2  C   UNL     1     -10.214  11.770  66.579  1.00  0.00    -0.208 C  
HETATM    3  C   UNL     1     -11.512  12.429  67.058  1.00  0.00    -0.358 C  
ENDROOT
BRANCH   3   4
HETATM    4  N   UNL     1     -11.771  13.782  66.504  1.00  0.00    -0.364 NA 
BRANCH   4   5
HETATM    5  C   UNL     1     -12.705  13.919  65.342  1.00  0.00    -0.490 C  
HETATM    6 CL   UNL     1     -12.017  11.947  63.506  1.00  0.00    -0.598 Cl 
HETATM    7  C   UNL     1     -12.232  13.668  63.909  1.00  0.00    -0.374 C  
ENDBRANCH   4   5
BRANCH   4   8
HETATM    8  C   UNL     1     -11.357  14.959  67.211  1.00  0.00    -0.349 C  
HETATM    9  C   UNL     1     -11.633  15.235  68.501  1.00  0.00    -0.352 C  
HETATM   10  N   UNL     1     -11.231  16.372  69.148  1.00  0.00    -0.303 N  
HETATM   11  C   UNL     1     -10.479  17.345  68.574  1.00  0.00    -0.370 C  
HETATM   12  H   UNL     1     -11.512  16.494  70.120  1.00  0.00     0.000 HD 
HETATM   13  O   UNL     1     -10.140  18.355  69.183  1.00  0.00    -0.346 OA 
HETATM   14  N   UNL     1     -10.132  17.123  67.280  1.00  0.00    -0.286 N  
HETATM   15  C   UNL     1     -10.531  16.056  66.518  1.00  0.00    -0.302 C  
HETATM   16  H   UNL     1      -9.522  17.810  66.837  1.00  0.00     0.000 HD 
HETATM   17  O   UNL     1     -10.223  16.038  65.328  1.00  0.00    -0.481 OA 
ENDBRANCH   4   8
ENDBRANCH   3   4
TORSDOF 3
ENDMDL
MODEL       37
REMARK 921   NORMALIZED FREE ENERGY PREDICTED BY IDOCK:   -4.41 KCAL/MOL
REMARK 922        TOTAL FREE ENERGY PREDICTED BY IDOCK:   -5.62 KCAL/MOL
REMARK 923 INTER-LIGAND FREE ENERGY PREDICTED BY IDOCK:   -5.29 KCAL/MOL
REMARK 924 INTRA-LIGAND FREE ENERGY PREDICTED BY IDOCK:   -0.34 KCAL/MOL
REMARK 927      BINDING AFFINITY PREDICTED BY RF-SCORE:    0.00 PKD
ROOT
HETATM    1 CL   UNL     1      -7.944  15.789  66.863  1.00  0.00    -0.272 Cl 
HETATM    2  C   UNL     1      -9.213  16.604  67.810  1.00  0.00    -0.214 C  
HETATM    3  C   UNL     1     -10.627  16.122  67.469  1.00  0.00    -0.314 C  
ENDROOT
BRANCH   3   4
HETATM    4  N   UNL     1     -10.828  14.653  67.560  1.00  0.00    -0.279 NA 
BRANCH   4   5
HETATM    5  C   UNL     1     -10.714  13.991  68.898  1.00  0.00    -0.248 C  
HETATM    6 CL   UNL     1     -11.901  11.486  68.670  1.00  0.00    -0.392 Cl 
HETATM    7  C   UNL     1     -11.828  13.092  69.436  1.00  0.00    -0.322 C  
ENDBRANCH   4   5
BRANCH   4   8
HETATM    8  C   UNL     1     -11.376  13.915  66.459  1.00  0.00    -0.331 C  
HETATM    9  C   UNL     1     -12.648  13.991  66.022  1.00  0.00    -0.414 C  
HETATM   10  N   UNL     1     -13.145  13.268  64.971  1.00  0.00    -0.695 N  
HETATM   11  C   UNL     1     -12.406  12.409  64.225  1.00  0.00    -0.455 C  
HETATM   12  H   UNL     1     -14.130  13.383  64.735  1.00  0.00     0.000 HD 
HETATM   13  O   UNL     1     -12.886  11.772  63.293  1.00  0.00    -0.627 OA 
HETATM   14  N   UNL     1     -11.101  12.303  64.585  1.00  0.00    -0.302 N  
HETATM   15  C   UNL     1     -10.515  12.927  65.655  1.00  0.00    -0.277 C  
HETATM   16  H   UNL     1     -10.506  11.706  64.010  1.00  0.00     0.000 HD 
HETATM   17  O   UNL     1      -9.345  12.657  65.922  1.00  0.00    -0.147 OA 
ENDBRANCH   4   8
ENDBRANCH   3   4
TORSDOF 3
ENDMDL
MODEL       38
REMARK 921   NORMALIZED FREE ENERGY PREDICTED BY IDOCK:   -4.40 KCAL/MOL
REMARK 922        TOTAL FREE ENERGY PREDICTED BY IDOCK:   -5.62 KCAL/MOL
REMARK 923 INTER-LIGAND FREE ENERGY PREDICTED BY IDOCK:   -5.36 KCAL/MOL
REMARK 924 INTRA-LIGAND FREE ENERGY PREDICTED BY IDOCK:   -0.25 KCAL/MOL
REMARK 927      BINDING AFFINITY PREDICTED BY RF-SCORE:    0.00 PKD
ROOT
HETATM    1 CL   UNL     1     -11.426  13.206  68.949  1.00  0.00    -0.319 Cl 
HETATM    2  C   UNL     1     -11.209  11.475  68.591  1.00  0.00    -0.248 C  
HETATM    3  C   UNL     1     -11.256  11.156  67.093  1.00  0.00    -0.249 C  
ENDROOT
BRANCH   3   4
HETATM    4  N   UNL     1     -10.317  11.943  66.254  1.00  0.00    -0.218 NA 
BRANCH   4   5
HETATM    5  C   UNL     1      -9.019  11.320  65.845  1.00  0.00    -0.197 C  
HETATM    6 CL   UNL     1      -9.334  10.421  63.232  1.00  0.00    -0.303 Cl 
HETATM    7  C   UNL     1      -8.980  10.085  64.944  1.00  0.00    -0.205 C  
ENDBRANCH   4   5
BRANCH   4   8
HETATM    8  C   UNL     1     -10.736  13.162  65.625  1.00  0.00    -0.280 C  
HETATM    9  C   UNL     1     -11.777  13.289  64.779  1.00  0.00    -0.355 C  
HETATM   10  N   UNL     1     -12.150  14.465  64.188  1.00  0.00    -0.698 N  
HETATM   11  C   UNL     1     -11.531  15.653  64.406  1.00  0.00    -0.262 C  
HETATM   12  H   UNL     1     -12.940  14.448  63.545  1.00  0.00     0.000 HD 
HETATM   13  O   UNL     1     -11.888  16.688  63.854  1.00  0.00    -1.047 OA 
HETATM   14  N   UNL     1     -10.488  15.612  65.275  1.00  0.00    -0.405 N  
HETATM   15  C   UNL     1      -9.990  14.484  65.873  1.00  0.00    -0.329 C  
HETATM   16  H   UNL     1     -10.036  16.498  65.502  1.00  0.00     0.000 HD 
HETATM   17  O   UNL     1      -8.975  14.584  66.560  1.00  0.00    -0.246 OA 
ENDBRANCH   4   8
ENDBRANCH   3   4
TORSDOF 3
ENDMDL
MODEL       39
REMARK 921   NORMALIZED FREE ENERGY PREDICTED BY IDOCK:   -4.39 KCAL/MOL
REMARK 922        TOTAL FREE ENERGY PREDICTED BY IDOCK:   -5.60 KCAL/MOL
REMARK 923 INTER-LIGAND FREE ENERGY PREDICTED BY IDOCK:   -5.50 KCAL/MOL
REMARK 924 INTRA-LIGAND FREE ENERGY PREDICTED BY IDOCK:   -0.10 KCAL/MOL
REMARK 927      BINDING AFFINITY PREDICTED BY RF-SCORE:    0.00 PKD
ROOT
HETATM    1 CL   UNL     1     -12.167  13.998  70.790  1.00  0.00    -0.420 Cl 
HETATM    2  C   UNL     1     -12.280  15.562  69.945  1.00  0.00    -0.325 C  
HETATM    3  C   UNL     1     -10.988  15.953  69.220  1.00  0.00    -0.293 C  
ENDROOT
BRANCH   3   4
HETATM    4  N   UNL     1     -10.464  14.933  68.277  1.00  0.00    -0.235 NA 
BRANCH   4   5
HETATM    5  C   UNL     1      -9.483  13.920  68.779  1.00  0.00    -0.043 C  
HETATM    6 CL   UNL     1      -8.667  12.418  66.586  1.00  0.00    -0.165 Cl 
HETATM    7  C   UNL     1      -9.428  12.509  68.193  1.00  0.00    -0.214 C  
ENDBRANCH   4   5
BRANCH   4   8
HETATM    8  C   UNL     1     -11.066  14.743  66.989  1.00  0.00    -0.333 C  
HETATM    9  C   UNL     1     -12.249  14.138  66.759  1.00  0.00    -0.394 C  
HETATM   10  N   UNL     1     -12.796  13.965  65.517  1.00  0.00    -0.669 N  
HETATM   11  C   UNL     1     -12.225  14.408  64.368  1.00  0.00    -0.458 C  
HETATM   12  H   UNL     1     -13.686  13.473  65.451  1.00  0.00     0.000 HD 
HETATM   13  O   UNL     1     -12.742  14.230  63.270  1.00  0.00    -0.665 OA 
HETATM   14  N   UNL     1     -11.043  15.059  64.522  1.00  0.00    -0.643 N  
HETATM   15  C   UNL     1     -10.375  15.233  65.705  1.00  0.00    -0.366 C  
HETATM   16  H   UNL     1     -10.616  15.452  63.683  1.00  0.00     0.000 HD 
HETATM   17  O   UNL     1      -9.261  15.754  65.678  1.00  0.00    -0.279 OA 
ENDBRANCH   4   8
ENDBRANCH   3   4
TORSDOF 3
ENDMDL
MODEL       40
REMARK 921   NORMALIZED FREE ENERGY PREDICTED BY IDOCK:   -4.37 KCAL/MOL
REMARK 922        TOTAL FREE ENERGY PREDICTED BY IDOCK:   -5.59 KCAL/MOL
REMARK 923 INTER-LIGAND FREE ENERGY PREDICTED BY IDOCK:   -5.16 KCAL/MOL
REMARK 924 INTRA-LIGAND FREE ENERGY PREDICTED BY IDOCK:   -0.42 KCAL/MOL
REMARK 927      BINDING AFFINITY PREDICTED BY RF-SCORE:    0.00 PKD
ROOT
HETATM    1 CL   UNL     1      -9.379  11.613  66.129  1.00  0.00    -0.231 Cl 
HETATM    2  C   UNL     1     -10.985  11.410  66.871  1.00  0.00    -0.299 C  
HETATM    3  C   UNL     1     -11.558  12.711  67.443  1.00  0.00    -0.360 C  
ENDROOT
BRANCH   3   4
HETATM    4  N   UNL     1     -11.609  13.847  66.489  1.00  0.00    -0.352 NA 
BRANCH   4   5
HETATM    5  C   UNL     1     -12.698  13.880  65.463  1.00  0.00    -0.499 C  
HETATM    6 CL   UNL     1     -12.026  12.027  63.502  1.00  0.00    -0.600 Cl 
HETATM    7  C   UNL     1     -12.392  13.703  63.975  1.00  0.00    -0.325 C  
ENDBRANCH   4   5
BRANCH   4   8
HETATM    8  C   UNL     1     -10.808  15.020  66.696  1.00  0.00    -0.318 C  
HETATM    9  C   UNL     1      -9.763  15.399  65.935  1.00  0.00    -0.357 C  
HETATM   10  N   UNL     1      -9.013  16.520  66.161  1.00  0.00    -0.317 N  
HETATM   11  C   UNL     1      -9.250  17.402  67.165  1.00  0.00    -0.237 C  
HETATM   12  H   UNL     1      -8.228  16.704  65.537  1.00  0.00     0.000 HD 
HETATM   13  O   UNL     1      -8.553  18.395  67.342  1.00  0.00    -0.253 OA 
HETATM   14  N   UNL     1     -10.311  17.105  67.959  1.00  0.00    -0.336 N  
HETATM   15  C   UNL     1     -11.089  15.981  67.864  1.00  0.00    -0.307 C  
HETATM   16  H   UNL     1     -10.549  17.776  68.689  1.00  0.00     0.000 HD 
HETATM   17  O   UNL     1     -11.955  15.793  68.717  1.00  0.00    -0.374 OA 
ENDBRANCH   4   8
ENDBRANCH   3   4
TORSDOF 3
ENDMDL
MODEL       41
REMARK 921   NORMALIZED FREE ENERGY PREDICTED BY IDOCK:   -4.37 KCAL/MOL
REMARK 922        TOTAL FREE ENERGY PREDICTED BY IDOCK:   -5.58 KCAL/MOL
REMARK 923 INTER-LIGAND FREE ENERGY PREDICTED BY IDOCK:   -5.08 KCAL/MOL
REMARK 924 INTRA-LIGAND FREE ENERGY PREDICTED BY IDOCK:   -0.51 KCAL/MOL
REMARK 927      BINDING AFFINITY PREDICTED BY RF-SCORE:    0.00 PKD
ROOT
HETATM    1 CL   UNL     1      -8.699  14.895  66.937  1.00  0.00    -0.264 Cl 
HETATM    2  C   UNL     1      -8.692  13.135  67.209  1.00  0.00    -0.210 C  
HETATM    3  C   UNL     1      -9.651  12.690  68.319  1.00  0.00    -0.208 C  
ENDROOT
BRANCH   3   4
HETATM    4  N   UNL     1     -11.055  13.146  68.156  1.00  0.00    -0.243 NA 
BRANCH   4   5
HETATM    5  C   UNL     1     -11.836  12.669  66.971  1.00  0.00    -0.345 C  
HETATM    6 CL   UNL     1     -11.346  14.456  64.898  1.00  0.00    -0.361 Cl 
HETATM    7  C   UNL     1     -12.490  13.655  66.003  1.00  0.00    -0.426 C  
ENDBRANCH   4   5
BRANCH   4   8
HETATM    8  C   UNL     1     -11.742  13.809  69.225  1.00  0.00    -0.327 C  
HETATM    9  C   UNL     1     -12.288  13.205  70.299  1.00  0.00    -0.249 C  
HETATM   10  N   UNL     1     -12.945  13.864  71.302  1.00  0.00    -0.342 N  
HETATM   11  C   UNL     1     -13.101  15.212  71.350  1.00  0.00    -0.423 C  
HETATM   12  H   UNL     1     -13.342  13.309  72.059  1.00  0.00     0.000 HD 
HETATM   13  O   UNL     1     -13.701  15.769  72.262  1.00  0.00    -0.479 OA 
HETATM   14  N   UNL     1     -12.547  15.896  70.315  1.00  0.00    -0.563 N  
HETATM   15  C   UNL     1     -11.925  15.337  69.230  1.00  0.00    -0.299 C  
HETATM   16  H   UNL     1     -12.599  16.914  70.349  1.00  0.00     0.000 HD 
HETATM   17  O   UNL     1     -11.561  16.076  68.317  1.00  0.00    -0.338 OA 
ENDBRANCH   4   8
ENDBRANCH   3   4
TORSDOF 3
ENDMDL
MODEL       42
REMARK 921   NORMALIZED FREE ENERGY PREDICTED BY IDOCK:   -4.34 KCAL/MOL
REMARK 922        TOTAL FREE ENERGY PREDICTED BY IDOCK:   -5.55 KCAL/MOL
REMARK 923 INTER-LIGAND FREE ENERGY PREDICTED BY IDOCK:   -5.12 KCAL/MOL
REMARK 924 INTRA-LIGAND FREE ENERGY PREDICTED BY IDOCK:   -0.43 KCAL/MOL
REMARK 927      BINDING AFFINITY PREDICTED BY RF-SCORE:    0.00 PKD
ROOT
HETATM    1 CL   UNL     1      -9.822  16.428  67.923  1.00  0.00    -0.235 Cl 
HETATM    2  C   UNL     1      -9.005  14.933  67.406  1.00  0.00    -0.189 C  
HETATM    3  C   UNL     1      -9.491  13.687  68.155  1.00  0.00    -0.217 C  
ENDROOT
BRANCH   3   4
HETATM    4  N   UNL     1     -10.959  13.468  68.122  1.00  0.00    -0.246 NA 
BRANCH   4   5
HETATM    5  C   UNL     1     -11.580  12.915  66.877  1.00  0.00    -0.368 C  
HETATM    6 CL   UNL     1     -11.370  14.881  64.921  1.00  0.00    -0.400 Cl 
HETATM    7  C   UNL     1     -12.376  13.807  65.923  1.00  0.00    -0.476 C  
ENDBRANCH   4   5
BRANCH   4   8
HETATM    8  C   UNL     1     -11.740  13.529  69.324  1.00  0.00    -0.330 C  
HETATM    9  C   UNL     1     -12.240  14.651  69.876  1.00  0.00    -0.316 C  
HETATM   10  N   UNL     1     -12.977  14.679  71.029  1.00  0.00    -0.342 N  
HETATM   11  C   UNL     1     -13.316  13.574  71.740  1.00  0.00    -0.397 C  
HETATM   12  H   UNL     1     -13.289  15.586  71.375  1.00  0.00     0.000 HD 
HETATM   13  O   UNL     1     -13.973  13.637  72.773  1.00  0.00    -0.725 OA 
HETATM   14  N   UNL     1     -12.874  12.397  71.226  1.00  0.00    -0.313 N  
HETATM   15  C   UNL     1     -12.079  12.257  70.119  1.00  0.00    -0.287 C  
HETATM   16  H   UNL     1     -13.159  11.543  71.707  1.00  0.00     0.000 HD 
HETATM   17  O   UNL     1     -11.671  11.134  69.829  1.00  0.00    -0.281 OA 
ENDBRANCH   4   8
ENDBRANCH   3   4
TORSDOF 3
ENDMDL
MODEL       43
REMARK 921   NORMALIZED FREE ENERGY PREDICTED BY IDOCK:   -4.32 KCAL/MOL
REMARK 922        TOTAL FREE ENERGY PREDICTED BY IDOCK:   -5.52 KCAL/MOL
REMARK 923 INTER-LIGAND FREE ENERGY PREDICTED BY IDOCK:   -5.20 KCAL/MOL
REMARK 924 INTRA-LIGAND FREE ENERGY PREDICTED BY IDOCK:   -0.33 KCAL/MOL
REMARK 927      BINDING AFFINITY PREDICTED BY RF-SCORE:    0.00 PKD
ROOT
HETATM    1 CL   UNL     1      -9.327  16.709  67.607  1.00  0.00    -0.223 Cl 
HETATM    2  C   UNL     1      -8.915  14.986  67.428  1.00  0.00    -0.186 C  
HETATM    3  C   UNL     1      -9.536  14.099  68.514  1.00  0.00    -0.202 C  
ENDROOT
BRANCH   3   4
HETATM    4  N   UNL     1     -11.007  14.229  68.665  1.00  0.00    -0.243 NA 
BRANCH   4   5
HETATM    5  C   UNL     1     -11.897  13.609  67.633  1.00  0.00    -0.369 C  
HETATM    6 CL   UNL     1     -11.520  10.858  67.780  1.00  0.00    -0.367 Cl 
HETATM    7  C   UNL     1     -11.458  12.372  66.847  1.00  0.00    -0.360 C  
ENDBRANCH   4   5
BRANCH   4   8
HETATM    8  C   UNL     1     -11.583  14.700  69.891  1.00  0.00    -0.285 C  
HETATM    9  C   UNL     1     -11.531  15.969  70.344  1.00  0.00    -0.377 C  
HETATM   10  N   UNL     1     -12.085  16.388  71.523  1.00  0.00    -0.590 N  
HETATM   11  C   UNL     1     -12.778  15.581  72.365  1.00  0.00    -0.397 C  
HETATM   12  H   UNL     1     -11.969  17.367  71.784  1.00  0.00     0.000 HD 
HETATM   13  O   UNL     1     -13.256  15.990  73.418  1.00  0.00    -0.558 OA 
HETATM   14  N   UNL     1     -12.902  14.291  71.960  1.00  0.00    -0.340 N  
HETATM   15  C   UNL     1     -12.337  13.749  70.836  1.00  0.00    -0.380 C  
HETATM   16  H   UNL     1     -13.463  13.671  72.544  1.00  0.00     0.000 HD 
HETATM   17  O   UNL     1     -12.448  12.538  70.649  1.00  0.00    -0.319 OA 
ENDBRANCH   4   8
ENDBRANCH   3   4
TORSDOF 3
ENDMDL
MODEL       44
REMARK 921   NORMALIZED FREE ENERGY PREDICTED BY IDOCK:   -4.30 KCAL/MOL
REMARK 922        TOTAL FREE ENERGY PREDICTED BY IDOCK:   -5.50 KCAL/MOL
REMARK 923 INTER-LIGAND FREE ENERGY PREDICTED BY IDOCK:   -5.18 KCAL/MOL
REMARK 924 INTRA-LIGAND FREE ENERGY PREDICTED BY IDOCK:   -0.33 KCAL/MOL
REMARK 927      BINDING AFFINITY PREDICTED BY RF-SCORE:    0.00 PKD
ROOT
HETATM    1 CL   UNL     1     -10.294  15.970  67.101  1.00  0.00    -0.290 Cl 
HETATM    2  C   UNL     1      -9.125  14.869  66.331  1.00  0.00    -0.258 C  
HETATM    3  C   UNL     1      -9.148  13.454  66.920  1.00  0.00    -0.231 C  
ENDROOT
BRANCH   3   4
HETATM    4  N   UNL     1     -10.482  12.803  66.937  1.00  0.00    -0.240 NA 
BRANCH   4   5
HETATM    5  C   UNL     1     -11.092  12.371  65.640  1.00  0.00    -0.306 C  
HETATM    6 CL   UNL     1     -12.087  14.657  64.407  1.00  0.00    -0.498 Cl 
HETATM    7  C   UNL     1     -12.357  13.038  65.097  1.00  0.00    -0.484 C  
ENDBRANCH   4   5
BRANCH   4   8
HETATM    8  C   UNL     1     -11.067  12.353  68.168  1.00  0.00    -0.247 C  
HETATM    9  C   UNL     1     -11.468  13.147  69.180  1.00  0.00    -0.305 C  
HETATM   10  N   UNL     1     -12.017  12.689  70.346  1.00  0.00    -0.522 N  
HETATM   11  C   UNL     1     -12.249  11.378  70.612  1.00  0.00    -0.389 C  
HETATM   12  H   UNL     1     -12.266  13.374  71.059  1.00  0.00     0.000 HD 
HETATM   13  O   UNL     1     -12.737  11.003  71.672  1.00  0.00    -0.402 OA 
HETATM   14  N   UNL     1     -11.899  10.516  69.623  1.00  0.00    -0.411 N  
HETATM   15  C   UNL     1     -11.287  10.856  68.446  1.00  0.00    -0.304 C  
HETATM   16  H   UNL     1     -12.111   9.529  69.770  1.00  0.00     0.000 HD 
HETATM   17  O   UNL     1     -10.935   9.956  67.686  1.00  0.00    -0.289 OA 
ENDBRANCH   4   8
ENDBRANCH   3   4
TORSDOF 3
ENDMDL
MODEL       45
REMARK 921   NORMALIZED FREE ENERGY PREDICTED BY IDOCK:   -4.30 KCAL/MOL
REMARK 922        TOTAL FREE ENERGY PREDICTED BY IDOCK:   -5.50 KCAL/MOL
REMARK 923 INTER-LIGAND FREE ENERGY PREDICTED BY IDOCK:   -5.07 KCAL/MOL
REMARK 924 INTRA-LIGAND FREE ENERGY PREDICTED BY IDOCK:   -0.43 KCAL/MOL
REMARK 927      BINDING AFFINITY PREDICTED BY RF-SCORE:    0.00 PKD
ROOT
HETATM    1 CL   UNL     1     -11.656  16.006  64.475  1.00  0.00    -0.307 Cl 
HETATM    2  C   UNL     1     -10.351  15.014  65.171  1.00  0.00    -0.392 C  
HETATM    3  C   UNL     1      -9.325  15.832  65.963  1.00  0.00    -0.349 C  
ENDROOT
BRANCH   3   4
HETATM    4  N   UNL     1      -9.897  16.692  67.029  1.00  0.00    -0.252 NA 
BRANCH   4   5
HETATM    5  C   UNL     1     -10.026  18.163  66.779  1.00  0.00    -0.351 C  
HETATM    6 CL   UNL     1      -8.639  19.460  68.810  1.00  0.00    -0.399 Cl 
HETATM    7  C   UNL     1     -10.159  19.156  67.934  1.00  0.00    -0.386 C  
ENDBRANCH   4   5
BRANCH   4   8
HETATM    8  C   UNL     1     -10.554  16.117  68.167  1.00  0.00    -0.290 C  
HETATM    9  C   UNL     1     -11.877  15.884  68.272  1.00  0.00    -0.057 C  
HETATM   10  N   UNL     1     -12.477  15.339  69.374  1.00  0.00    -0.601 N  
HETATM   11  C   UNL     1     -11.806  14.940  70.485  1.00  0.00    -0.303 C  
HETATM   12  H   UNL     1     -13.490  15.226  69.360  1.00  0.00     0.000 HD 
HETATM   13  O   UNL     1     -12.378  14.461  71.458  1.00  0.00    -0.336 OA 
HETATM   14  N   UNL     1     -10.460  15.113  70.441  1.00  0.00    -0.520 N  
HETATM   15  C   UNL     1      -9.763  15.704  69.420  1.00  0.00    -0.292 C  
HETATM   16  H   UNL     1      -9.921  14.773  71.238  1.00  0.00     0.000 HD 
HETATM   17  O   UNL     1      -8.555  15.886  69.563  1.00  0.00    -0.237 OA 
ENDBRANCH   4   8
ENDBRANCH   3   4
TORSDOF 3
ENDMDL
MODEL       46
REMARK 921   NORMALIZED FREE ENERGY PREDICTED BY IDOCK:   -4.29 KCAL/MOL
REMARK 922        TOTAL FREE ENERGY PREDICTED BY IDOCK:   -5.49 KCAL/MOL
REMARK 923 INTER-LIGAND FREE ENERGY PREDICTED BY IDOCK:   -5.22 KCAL/MOL
REMARK 924 INTRA-LIGAND FREE ENERGY PREDICTED BY IDOCK:   -0.27 KCAL/MOL
REMARK 927      BINDING AFFINITY PREDICTED BY RF-SCORE:    0.00 PKD
ROOT
HETATM    1 CL   UNL     1     -10.671   8.091  67.156  1.00  0.00    -0.359 Cl 
HETATM    2  C   UNL     1      -9.242   8.330  66.121  1.00  0.00    -0.192 C  
HETATM    3  C   UNL     1      -9.314   9.605  65.273  1.00  0.00    -0.260 C  
ENDROOT
BRANCH   3   4
HETATM    4  N   UNL     1      -9.569  10.852  66.037  1.00  0.00    -0.200 NA 
BRANCH   4   5
HETATM    5  C   UNL     1      -8.726  11.148  67.238  1.00  0.00    -0.139 C  
HETATM    6 CL   UNL     1      -8.668  13.913  67.533  1.00  0.00    -0.181 Cl 
HETATM    7  C   UNL     1      -7.811  12.373  67.284  1.00  0.00    -0.166 C  
ENDBRANCH   4   5
BRANCH   4   8
HETATM    8  C   UNL     1     -10.412  11.883  65.504  1.00  0.00    -0.268 C  
HETATM    9  C   UNL     1     -10.218  12.528  64.337  1.00  0.00    -0.320 C  
HETATM   10  N   UNL     1     -11.038  13.513  63.857  1.00  0.00    -0.556 N  
HETATM   11  C   UNL     1     -12.162  13.939  64.488  1.00  0.00    -0.417 C  
HETATM   12  H   UNL     1     -10.788  13.954  62.972  1.00  0.00     0.000 HD 
HETATM   13  O   UNL     1     -12.870  14.830  64.031  1.00  0.00    -0.697 OA 
HETATM   14  N   UNL     1     -12.442  13.312  65.659  1.00  0.00    -0.463 N  
HETATM   15  C   UNL     1     -11.662  12.361  66.263  1.00  0.00    -0.395 C  
HETATM   16  H   UNL     1     -13.309  13.571  66.129  1.00  0.00     0.000 HD 
HETATM   17  O   UNL     1     -11.991  11.953  67.375  1.00  0.00    -0.603 OA 
ENDBRANCH   4   8
ENDBRANCH   3   4
TORSDOF 3
ENDMDL
MODEL       47
REMARK 921   NORMALIZED FREE ENERGY PREDICTED BY IDOCK:   -4.29 KCAL/MOL
REMARK 922        TOTAL FREE ENERGY PREDICTED BY IDOCK:   -5.48 KCAL/MOL
REMARK 923 INTER-LIGAND FREE ENERGY PREDICTED BY IDOCK:   -5.12 KCAL/MOL
REMARK 924 INTRA-LIGAND FREE ENERGY PREDICTED BY IDOCK:   -0.36 KCAL/MOL
REMARK 927      BINDING AFFINITY PREDICTED BY RF-SCORE:    0.00 PKD
ROOT
HETATM    1 CL   UNL     1      -7.017  17.839  68.428  1.00  0.00    -0.219 Cl 
HETATM    2  C   UNL     1      -7.151  17.128  66.801  1.00  0.00    -0.224 C  
HETATM    3  C   UNL     1      -8.225  16.039  66.702  1.00  0.00    -0.289 C  
ENDROOT
BRANCH   3   4
HETATM    4  N   UNL     1      -9.577  16.447  67.163  1.00  0.00    -0.231 NA 
BRANCH   4   5
HETATM    5  C   UNL     1     -10.285  17.548  66.437  1.00  0.00    -0.354 C  
HETATM    6 CL   UNL     1      -9.434  19.944  67.563  1.00  0.00    -0.451 Cl 
HETATM    7  C   UNL     1     -10.748  18.810  67.167  1.00  0.00    -0.403 C  
ENDBRANCH   4   5
BRANCH   4   8
HETATM    8  C   UNL     1     -10.307  15.647  68.103  1.00  0.00    -0.246 C  
HETATM    9  C   UNL     1     -10.041  15.548  69.420  1.00  0.00    -0.266 C  
HETATM   10  N   UNL     1     -10.752  14.769  70.292  1.00  0.00    -0.483 N  
HETATM   11  C   UNL     1     -11.831  14.025  69.939  1.00  0.00    -0.329 C  
HETATM   12  H   UNL     1     -10.453  14.748  71.267  1.00  0.00     0.000 HD 
HETATM   13  O   UNL     1     -12.441  13.334  70.747  1.00  0.00    -0.353 OA 
HETATM   14  N   UNL     1     -12.181  14.098  68.629  1.00  0.00    -0.554 N  
HETATM   15  C   UNL     1     -11.506  14.791  67.659  1.00  0.00    -0.347 C  
HETATM   16  H   UNL     1     -13.020  13.593  68.343  1.00  0.00     0.000 HD 
HETATM   17  O   UNL     1     -11.882  14.684  66.493  1.00  0.00    -0.373 OA 
ENDBRANCH   4   8
ENDBRANCH   3   4
TORSDOF 3
ENDMDL
MODEL       48
REMARK 921   NORMALIZED FREE ENERGY PREDICTED BY IDOCK:   -4.28 KCAL/MOL
REMARK 922        TOTAL FREE ENERGY PREDICTED BY IDOCK:   -5.48 KCAL/MOL
REMARK 923 INTER-LIGAND FREE ENERGY PREDICTED BY IDOCK:   -5.40 KCAL/MOL
REMARK 924 INTRA-LIGAND FREE ENERGY PREDICTED BY IDOCK:   -0.08 KCAL/MOL
REMARK 927      BINDING AFFINITY PREDICTED BY RF-SCORE:    0.00 PKD
ROOT
HETATM    1 CL   UNL     1     -14.199  15.395  71.759  1.00  0.00    -0.622 Cl 
HETATM    2  C   UNL     1     -12.528  15.829  71.322  1.00  0.00    -0.448 C  
HETATM    3  C   UNL     1     -11.604  14.614  71.178  1.00  0.00    -0.220 C  
ENDROOT
BRANCH   3   4
HETATM    4  N   UNL     1     -12.088  13.565  70.246  1.00  0.00    -0.353 NA 
BRANCH   4   5
HETATM    5  C   UNL     1     -12.035  13.827  68.773  1.00  0.00    -0.365 C  
HETATM    6 CL   UNL     1      -9.348  13.948  68.064  1.00  0.00    -0.197 Cl 
HETATM    7  C   UNL     1     -10.951  14.718  68.165  1.00  0.00    -0.268 C  
ENDBRANCH   4   5
BRANCH   4   8
HETATM    8  C   UNL     1     -12.355  12.234  70.709  1.00  0.00    -0.290 C  
HETATM    9  C   UNL     1     -13.108  11.914  71.780  1.00  0.00    -0.360 C  
HETATM   10  N   UNL     1     -13.339  10.633  72.203  1.00  0.00    -0.580 N  
HETATM   11  C   UNL     1     -12.862   9.529  71.575  1.00  0.00    -0.377 C  
HETATM   12  H   UNL     1     -13.906  10.501  73.041  1.00  0.00     0.000 HD 
HETATM   13  O   UNL     1     -13.085   8.395  71.986  1.00  0.00    -0.335 OA 
HETATM   14  N   UNL     1     -12.118   9.770  70.465  1.00  0.00    -0.428 N  
HETATM   15  C   UNL     1     -11.771  11.007  69.989  1.00  0.00    -0.355 C  
HETATM   16  H   UNL     1     -11.790   8.959  69.940  1.00  0.00     0.000 HD 
HETATM   17  O   UNL     1     -11.006  11.072  69.028  1.00  0.00    -0.201 OA 
ENDBRANCH   4   8
ENDBRANCH   3   4
TORSDOF 3
ENDMDL
MODEL       49
REMARK 921   NORMALIZED FREE ENERGY PREDICTED BY IDOCK:   -4.27 KCAL/MOL
REMARK 922        TOTAL FREE ENERGY PREDICTED BY IDOCK:   -5.46 KCAL/MOL
REMARK 923 INTER-LIGAND FREE ENERGY PREDICTED BY IDOCK:   -5.22 KCAL/MOL
REMARK 924 INTRA-LIGAND FREE ENERGY PREDICTED BY IDOCK:   -0.24 KCAL/MOL
REMARK 927      BINDING AFFINITY PREDICTED BY RF-SCORE:    0.00 PKD
ROOT
HETATM    1 CL   UNL     1      -8.697  11.952  67.095  1.00  0.00    -0.169 Cl 
HETATM    2  C   UNL     1      -8.892  13.575  67.801  1.00  0.00    -0.198 C  
HETATM    3  C   UNL     1     -10.109  14.331  67.257  1.00  0.00    -0.252 C  
ENDROOT
BRANCH   3   4
HETATM    4  N   UNL     1     -11.399  13.602  67.364  1.00  0.00    -0.302 NA 
BRANCH   4   5
HETATM    5  C   UNL     1     -12.233  13.429  66.133  1.00  0.00    -0.415 C  
HETATM    6 CL   UNL     1     -10.563  12.418  64.152  1.00  0.00    -0.378 Cl 
HETATM    7  C   UNL     1     -11.659  13.693  64.741  1.00  0.00    -0.355 C  
ENDBRANCH   4   5
BRANCH   4   8
HETATM    8  C   UNL     1     -11.726  12.852  68.542  1.00  0.00    -0.339 C  
HETATM    9  C   UNL     1     -11.901  13.368  69.774  1.00  0.00    -0.326 C  
HETATM   10  N   UNL     1     -12.207  12.625  70.882  1.00  0.00    -0.441 N  
HETATM   11  C   UNL     1     -12.398  11.282  70.866  1.00  0.00    -0.388 C  
HETATM   12  H   UNL     1     -12.296  13.112  71.774  1.00  0.00     0.000 HD 
HETATM   13  O   UNL     1     -12.665  10.647  71.881  1.00  0.00    -0.412 OA 
HETATM   14  N   UNL     1     -12.270  10.693  69.650  1.00  0.00    -0.514 N  
HETATM   15  C   UNL     1     -11.905  11.325  68.490  1.00  0.00    -0.285 C  
HETATM   16  H   UNL     1     -12.461   9.692  69.594  1.00  0.00     0.000 HD 
HETATM   17  O   UNL     1     -11.729  10.645  67.481  1.00  0.00    -0.445 OA 
ENDBRANCH   4   8
ENDBRANCH   3   4
TORSDOF 3
ENDMDL
MODEL       50
REMARK 921   NORMALIZED FREE ENERGY PREDICTED BY IDOCK:   -4.26 KCAL/MOL
REMARK 922        TOTAL FREE ENERGY PREDICTED BY IDOCK:   -5.46 KCAL/MOL
REMARK 923 INTER-LIGAND FREE ENERGY PREDICTED BY IDOCK:   -5.21 KCAL/MOL
REMARK 924 INTRA-LIGAND FREE ENERGY PREDICTED BY IDOCK:   -0.25 KCAL/MOL
REMARK 927      BINDING AFFINITY PREDICTED BY RF-SCORE:    0.00 PKD
ROOT
HETATM    1 CL   UNL     1     -11.871  14.177  69.419  1.00  0.00    -0.353 Cl 
HETATM    2  C   UNL     1     -11.742  12.403  69.500  1.00  0.00    -0.322 C  
HETATM    3  C   UNL     1     -11.729  11.732  68.122  1.00  0.00    -0.307 C  
ENDROOT
BRANCH   3   4
HETATM    4  N   UNL     1     -10.701  12.247  67.183  1.00  0.00    -0.228 NA 
BRANCH   4   5
HETATM    5  C   UNL     1      -9.453  11.448  66.970  1.00  0.00    -0.173 C  
HETATM    6 CL   UNL     1      -8.900  10.147  69.364  1.00  0.00    -0.189 Cl 
HETATM    7  C   UNL     1      -8.416  11.283  68.082  1.00  0.00    -0.145 C  
ENDBRANCH   4   5
BRANCH   4   8
HETATM    8  C   UNL     1     -10.991  13.339  66.299  1.00  0.00    -0.284 C  
HETATM    9  C   UNL     1     -12.002  13.379  65.410  1.00  0.00    -0.387 C  
HETATM   10  N   UNL     1     -12.251  14.433  64.573  1.00  0.00    -0.533 N  
HETATM   11  C   UNL     1     -11.523  15.579  64.560  1.00  0.00    -0.308 C  
HETATM   12  H   UNL     1     -13.030  14.352  63.921  1.00  0.00     0.000 HD 
HETATM   13  O   UNL     1     -11.771  16.502  63.792  1.00  0.00    -1.086 OA 
HETATM   14  N   UNL     1     -10.502  15.627  65.454  1.00  0.00    -0.387 N  
HETATM   15  C   UNL     1     -10.124  14.610  66.291  1.00  0.00    -0.294 C  
HETATM   16  H   UNL     1      -9.970  16.495  65.506  1.00  0.00     0.000 HD 
HETATM   17  O   UNL     1      -9.114  14.759  66.976  1.00  0.00    -0.214 OA 
ENDBRANCH   4   8
ENDBRANCH   3   4
TORSDOF 3
ENDMDL
MODEL       51
REMARK 921   NORMALIZED FREE ENERGY PREDICTED BY IDOCK:   -4.26 KCAL/MOL
REMARK 922        TOTAL FREE ENERGY PREDICTED BY IDOCK:   -5.46 KCAL/MOL
REMARK 923 INTER-LIGAND FREE ENERGY PREDICTED BY IDOCK:   -5.06 KCAL/MOL
REMARK 924 INTRA-LIGAND FREE ENERGY PREDICTED BY IDOCK:   -0.40 KCAL/MOL
REMARK 927      BINDING AFFINITY PREDICTED BY RF-SCORE:    0.00 PKD
ROOT
HETATM    1 CL   UNL     1     -11.398  10.611  69.065  1.00  0.00    -0.317 Cl 
HETATM    2  C   UNL     1     -10.501   9.193  68.469  1.00  0.00    -0.204 C  
HETATM    3  C   UNL     1     -10.352   9.168  66.944  1.00  0.00    -0.251 C  
ENDROOT
BRANCH   3   4
HETATM    4  N   UNL     1      -9.762  10.395  66.351  1.00  0.00    -0.192 NA 
BRANCH   4   5
HETATM    5  C   UNL     1      -8.275  10.570  66.384  1.00  0.00    -0.140 C  
HETATM    6 CL   UNL     1      -7.617  11.464  68.933  1.00  0.00    -0.127 Cl 
HETATM    7  C   UNL     1      -7.628  11.711  67.170  1.00  0.00    -0.152 C  
ENDBRANCH   4   5
BRANCH   4   8
HETATM    8  C   UNL     1     -10.551  11.270  65.533  1.00  0.00    -0.246 C  
HETATM    9  C   UNL     1     -11.431  12.184  65.987  1.00  0.00    -0.370 C  
HETATM   10  N   UNL     1     -12.175  13.002  65.181  1.00  0.00    -0.432 N  
HETATM   11  C   UNL     1     -12.095  13.010  63.826  1.00  0.00    -0.502 C  
HETATM   12  H   UNL     1     -12.830  13.644  65.626  1.00  0.00     0.000 HD 
HETATM   13  O   UNL     1     -12.783  13.753  63.134  1.00  0.00    -0.743 OA 
HETATM   14  N   UNL     1     -11.203  12.135  63.294  1.00  0.00    -0.692 N  
HETATM   15  C   UNL     1     -10.455  11.229  63.998  1.00  0.00    -0.378 C  
HETATM   16  H   UNL     1     -11.079  12.155  62.282  1.00  0.00     0.000 HD 
HETATM   17  O   UNL     1      -9.762  10.428  63.373  1.00  0.00    -0.309 OA 
ENDBRANCH   4   8
ENDBRANCH   3   4
TORSDOF 3
ENDMDL
MODEL       52
REMARK 921   NORMALIZED FREE ENERGY PREDICTED BY IDOCK:   -4.23 KCAL/MOL
REMARK 922        TOTAL FREE ENERGY PREDICTED BY IDOCK:   -5.42 KCAL/MOL
REMARK 923 INTER-LIGAND FREE ENERGY PREDICTED BY IDOCK:   -5.19 KCAL/MOL
REMARK 924 INTRA-LIGAND FREE ENERGY PREDICTED BY IDOCK:   -0.23 KCAL/MOL
REMARK 927      BINDING AFFINITY PREDICTED BY RF-SCORE:    0.00 PKD
ROOT
HETATM    1 CL   UNL     1     -12.540  12.085  63.502  1.00  0.00    -0.678 Cl 
HETATM    2  C   UNL     1     -10.761  12.147  63.551  1.00  0.00    -0.457 C  
HETATM    3  C   UNL     1     -10.208  12.617  64.900  1.00  0.00    -0.272 C  
ENDROOT
BRANCH   3   4
HETATM    4  N   UNL     1     -10.695  11.854  66.078  1.00  0.00    -0.275 NA 
BRANCH   4   5
HETATM    5  C   UNL     1     -10.505  10.370  66.105  1.00  0.00    -0.154 C  
HETATM    6 CL   UNL     1      -8.134   9.877  67.472  1.00  0.00    -0.110 Cl 
HETATM    7  C   UNL     1      -9.114   9.745  65.991  1.00  0.00    -0.162 C  
ENDBRANCH   4   5
BRANCH   4   8
HETATM    8  C   UNL     1     -11.098  12.530  67.277  1.00  0.00    -0.274 C  
HETATM    9  C   UNL     1     -10.735  12.186  68.529  1.00  0.00    -0.232 C  
HETATM   10  N   UNL     1     -11.141  12.846  69.656  1.00  0.00    -0.472 N  
HETATM   11  C   UNL     1     -11.937  13.946  69.647  1.00  0.00    -0.342 C  
HETATM   12  H   UNL     1     -10.827  12.490  70.559  1.00  0.00     0.000 HD 
HETATM   13  O   UNL     1     -12.287  14.509  70.678  1.00  0.00    -0.295 OA 
HETATM   14  N   UNL     1     -12.320  14.373  68.416  1.00  0.00    -0.599 N  
HETATM   15  C   UNL     1     -12.026  13.755  67.229  1.00  0.00    -0.401 C  
HETATM   16  H   UNL     1     -12.874  15.229  68.372  1.00  0.00     0.000 HD 
HETATM   17  O   UNL     1     -12.527  14.200  66.197  1.00  0.00    -0.466 OA 
ENDBRANCH   4   8
ENDBRANCH   3   4
TORSDOF 3
ENDMDL
MODEL       53
REMARK 921   NORMALIZED FREE ENERGY PREDICTED BY IDOCK:   -4.22 KCAL/MOL
REMARK 922        TOTAL FREE ENERGY PREDICTED BY IDOCK:   -5.41 KCAL/MOL
REMARK 923 INTER-LIGAND FREE ENERGY PREDICTED BY IDOCK:   -5.17 KCAL/MOL
REMARK 924 INTRA-LIGAND FREE ENERGY PREDICTED BY IDOCK:   -0.24 KCAL/MOL
REMARK 927      BINDING AFFINITY PREDICTED BY RF-SCORE:    0.00 PKD
ROOT
HETATM    1 CL   UNL     1      -8.939  14.650  68.576  1.00  0.00    -0.180 Cl 
HETATM    2  C   UNL     1      -8.375  13.151  67.796  1.00  0.00    -0.171 C  
HETATM    3  C   UNL     1      -9.220  11.925  68.159  1.00  0.00    -0.187 C  
ENDROOT
BRANCH   3   4
HETATM    4  N   UNL     1     -10.678  12.074  67.917  1.00  0.00    -0.203 NA 
BRANCH   4   5
HETATM    5  C   UNL     1     -11.607  12.079  69.091  1.00  0.00    -0.312 C  
HETATM    6 CL   UNL     1     -10.890   9.934  70.708  1.00  0.00    -0.393 Cl 
HETATM    7  C   UNL     1     -12.105  10.775  69.715  1.00  0.00    -0.318 C  
ENDBRANCH   4   5
BRANCH   4   8
HETATM    8  C   UNL     1     -11.175  12.466  66.631  1.00  0.00    -0.315 C  
HETATM    9  C   UNL     1     -11.046  11.757  65.492  1.00  0.00    -0.280 C  
HETATM   10  N   UNL     1     -11.526  12.161  64.276  1.00  0.00    -0.346 N  
HETATM   11  C   UNL     1     -12.215  13.313  64.076  1.00  0.00    -0.410 C  
HETATM   12  H   UNL     1     -11.355  11.559  63.470  1.00  0.00     0.000 HD 
HETATM   13  O   UNL     1     -12.626  13.647  62.970  1.00  0.00    -0.729 OA 
HETATM   14  N   UNL     1     -12.414  14.069  65.187  1.00  0.00    -0.526 N  
HETATM   15  C   UNL     1     -11.926  13.795  66.437  1.00  0.00    -0.438 C  
HETATM   16  H   UNL     1     -12.975  14.914  65.080  1.00  0.00     0.000 HD 
HETATM   17  O   UNL     1     -12.100  14.624  67.329  1.00  0.00    -0.358 OA 
ENDBRANCH   4   8
ENDBRANCH   3   4
TORSDOF 3
ENDMDL
MODEL       54
REMARK 921   NORMALIZED FREE ENERGY PREDICTED BY IDOCK:   -4.22 KCAL/MOL
REMARK 922        TOTAL FREE ENERGY PREDICTED BY IDOCK:   -5.40 KCAL/MOL
REMARK 923 INTER-LIGAND FREE ENERGY PREDICTED BY IDOCK:   -5.00 KCAL/MOL
REMARK 924 INTRA-LIGAND FREE ENERGY PREDICTED BY IDOCK:   -0.41 KCAL/MOL
REMARK 927      BINDING AFFINITY PREDICTED BY RF-SCORE:    0.00 PKD
ROOT
HETATM    1 CL   UNL     1      -8.431   8.352  72.322  1.00  0.00    -0.242 Cl 
HETATM    2  C   UNL     1      -9.521   7.151  73.058  1.00  0.00    -0.158 C  
HETATM    3  C   UNL     1     -10.997   7.558  73.001  1.00  0.00    -0.390 C  
ENDROOT
BRANCH   3   4
HETATM    4  N   UNL     1     -11.501   7.899  71.646  1.00  0.00    -0.255 NA 
BRANCH   4   5
HETATM    5  C   UNL     1     -12.042   6.805  70.780  1.00  0.00    -0.347 C  
HETATM    6 CL   UNL     1      -9.901   5.161  70.113  1.00  0.00    -0.278 Cl 
HETATM    7  C   UNL     1     -11.228   6.239  69.616  1.00  0.00    -0.437 C  
ENDBRANCH   4   5
BRANCH   4   8
HETATM    8  C   UNL     1     -11.717   9.265  71.264  1.00  0.00    -0.346 C  
HETATM    9  C   UNL     1     -10.927   9.981  70.440  1.00  0.00    -0.320 C  
HETATM   10  N   UNL     1     -11.155  11.287  70.098  1.00  0.00    -0.469 N  
HETATM   11  C   UNL     1     -12.222  12.008  70.526  1.00  0.00    -0.325 C  
HETATM   12  H   UNL     1     -10.481  11.745  69.485  1.00  0.00     0.000 HD 
HETATM   13  O   UNL     1     -12.391  13.179  70.203  1.00  0.00    -0.289 OA 
HETATM   14  N   UNL     1     -13.084  11.342  71.336  1.00  0.00    -0.357 N  
HETATM   15  C   UNL     1     -12.923  10.060  71.793  1.00  0.00    -0.458 C  
HETATM   16  H   UNL     1     -13.925  11.839  71.631  1.00  0.00     0.000 HD 
HETATM   17  O   UNL     1     -13.735   9.621  72.606  1.00  0.00    -0.328 OA 
ENDBRANCH   4   8
ENDBRANCH   3   4
TORSDOF 3
ENDMDL
MODEL       55
REMARK 921   NORMALIZED FREE ENERGY PREDICTED BY IDOCK:   -4.22 KCAL/MOL
REMARK 922        TOTAL FREE ENERGY PREDICTED BY IDOCK:   -5.40 KCAL/MOL
REMARK 923 INTER-LIGAND FREE ENERGY PREDICTED BY IDOCK:   -5.03 KCAL/MOL
REMARK 924 INTRA-LIGAND FREE ENERGY PREDICTED BY IDOCK:   -0.37 KCAL/MOL
REMARK 927      BINDING AFFINITY PREDICTED BY RF-SCORE:    0.00 PKD
ROOT
HETATM    1 CL   UNL     1     -10.830  13.073  68.665  1.00  0.00    -0.276 Cl 
HETATM    2  C   UNL     1     -12.266  13.065  67.613  1.00  0.00    -0.050 C  
HETATM    3  C   UNL     1     -12.282  14.215  66.599  1.00  0.00    -0.418 C  
ENDROOT
BRANCH   3   4
HETATM    4  N   UNL     1     -11.066  14.322  65.753  1.00  0.00    -0.304 NA 
BRANCH   4   5
HETATM    5  C   UNL     1     -10.127  15.465  65.980  1.00  0.00    -0.324 C  
HETATM    6 CL   UNL     1     -10.809  16.608  68.421  1.00  0.00    -0.351 Cl 
HETATM    7  C   UNL     1     -10.594  16.753  66.660  1.00  0.00    -0.198 C  
ENDBRANCH   4   5
BRANCH   4   8
HETATM    8  C   UNL     1     -10.651  13.231  64.920  1.00  0.00    -0.366 C  
HETATM    9  C   UNL     1      -9.594  12.427  65.151  1.00  0.00     0.046 C  
HETATM   10  N   UNL     1      -9.217  11.397  64.334  1.00  0.00    -0.400 N  
HETATM   11  C   UNL     1      -9.881  11.043  63.204  1.00  0.00    -0.363 C  
HETATM   12  H   UNL     1      -8.386  10.863  64.589  1.00  0.00     0.000 HD 
HETATM   13  O   UNL     1      -9.511  10.116  62.491  1.00  0.00    -0.301 OA 
HETATM   14  N   UNL     1     -10.980  11.788  62.921  1.00  0.00    -0.569 N  
HETATM   15  C   UNL     1     -11.411  12.878  63.630  1.00  0.00    -0.446 C  
HETATM   16  H   UNL     1     -11.532  11.513  62.108  1.00  0.00     0.000 HD 
HETATM   17  O   UNL     1     -12.367  13.519  63.197  1.00  0.00    -0.712 OA 
ENDBRANCH   4   8
ENDBRANCH   3   4
TORSDOF 3
ENDMDL
MODEL       56
REMARK 921   NORMALIZED FREE ENERGY PREDICTED BY IDOCK:   -4.20 KCAL/MOL
REMARK 922        TOTAL FREE ENERGY PREDICTED BY IDOCK:   -5.38 KCAL/MOL
REMARK 923 INTER-LIGAND FREE ENERGY PREDICTED BY IDOCK:   -5.08 KCAL/MOL
REMARK 924 INTRA-LIGAND FREE ENERGY PREDICTED BY IDOCK:   -0.31 KCAL/MOL
REMARK 927      BINDING AFFINITY PREDICTED BY RF-SCORE:    0.00 PKD
ROOT
HETATM    1 CL   UNL     1     -11.058  12.520  63.628  1.00  0.00    -0.497 Cl 
HETATM    2  C   UNL     1     -12.268  13.737  64.102  1.00  0.00    -0.396 C  
HETATM    3  C   UNL     1     -12.624  13.689  65.592  1.00  0.00    -0.484 C  
ENDROOT
BRANCH   3   4
HETATM    4  N   UNL     1     -11.466  13.776  66.517  1.00  0.00    -0.334 NA 
BRANCH   4   5
HETATM    5  C   UNL     1     -10.817  12.511  66.983  1.00  0.00    -0.254 C  
HETATM    6 CL   UNL     1     -11.712  12.042  69.574  1.00  0.00    -0.385 Cl 
HETATM    7  C   UNL     1     -10.374  12.334  68.437  1.00  0.00    -0.224 C  
ENDBRANCH   4   5
BRANCH   4   8
HETATM    8  C   UNL     1     -10.809  15.028  66.758  1.00  0.00    -0.318 C  
HETATM    9  C   UNL     1      -9.834  15.561  65.995  1.00  0.00    -0.335 C  
HETATM   10  N   UNL     1      -9.220  16.756  66.253  1.00  0.00    -0.279 N  
HETATM   11  C   UNL     1      -9.540  17.563  67.296  1.00  0.00    -0.273 C  
HETATM   12  H   UNL     1      -8.477  17.058  65.624  1.00  0.00     0.000 HD 
HETATM   13  O   UNL     1      -8.964  18.626  67.502  1.00  0.00    -0.273 OA 
HETATM   14  N   UNL     1     -10.540  17.109  68.095  1.00  0.00    -0.367 N  
HETATM   15  C   UNL     1     -11.178  15.903  67.969  1.00  0.00    -0.319 C  
HETATM   16  H   UNL     1     -10.841  17.717  68.856  1.00  0.00     0.000 HD 
HETATM   17  O   UNL     1     -11.995  15.579  68.828  1.00  0.00    -0.336 OA 
ENDBRANCH   4   8
ENDBRANCH   3   4
TORSDOF 3
ENDMDL
MODEL       57
REMARK 921   NORMALIZED FREE ENERGY PREDICTED BY IDOCK:   -4.20 KCAL/MOL
REMARK 922        TOTAL FREE ENERGY PREDICTED BY IDOCK:   -5.38 KCAL/MOL
REMARK 923 INTER-LIGAND FREE ENERGY PREDICTED BY IDOCK:   -5.00 KCAL/MOL
REMARK 924 INTRA-LIGAND FREE ENERGY PREDICTED BY IDOCK:   -0.38 KCAL/MOL
REMARK 927      BINDING AFFINITY PREDICTED BY RF-SCORE:    0.00 PKD
ROOT
HETATM    1 CL   UNL     1     -11.433  13.470  64.162  1.00  0.00    -0.405 Cl 
HETATM    2  C   UNL     1     -12.522  14.034  65.453  1.00  0.00    -0.498 C  
HETATM    3  C   UNL     1     -11.888  13.979  66.847  1.00  0.00    -0.430 C  
ENDROOT
BRANCH   3   4
HETATM    4  N   UNL     1     -10.587  14.683  66.973  1.00  0.00    -0.277 NA 
BRANCH   4   5
HETATM    5  C   UNL     1      -9.322  13.896  66.820  1.00  0.00    -0.275 C  
HETATM    6 CL   UNL     1      -7.730  14.476  69.025  1.00  0.00    -0.129 Cl 
HETATM    7  C   UNL     1      -7.974  14.467  67.261  1.00  0.00    -0.191 C  
ENDBRANCH   4   5
BRANCH   4   8
HETATM    8  C   UNL     1     -10.522  16.116  66.977  1.00  0.00    -0.306 C  
HETATM    9  C   UNL     1     -10.370  16.896  65.889  1.00  0.00    -0.315 C  
HETATM   10  N   UNL     1     -10.305  18.262  65.925  1.00  0.00    -0.353 N  
HETATM   11  C   UNL     1     -10.414  18.997  67.061  1.00  0.00    -0.434 C  
HETATM   12  H   UNL     1     -10.166  18.757  65.045  1.00  0.00     0.000 HD 
HETATM   13  O   UNL     1     -10.345  20.222  67.056  1.00  0.00    -0.410 OA 
HETATM   14  N   UNL     1     -10.602  18.281  68.199  1.00  0.00    -0.332 N  
HETATM   15  C   UNL     1     -10.619  16.914  68.289  1.00  0.00    -0.363 C  
HETATM   16  H   UNL     1     -10.742  18.807  69.062  1.00  0.00     0.000 HD 
HETATM   17  O   UNL     1     -10.696  16.401  69.404  1.00  0.00    -0.284 OA 
ENDBRANCH   4   8
ENDBRANCH   3   4
TORSDOF 3
ENDMDL
MODEL       58
REMARK 921   NORMALIZED FREE ENERGY PREDICTED BY IDOCK:   -4.19 KCAL/MOL
REMARK 922        TOTAL FREE ENERGY PREDICTED BY IDOCK:   -5.37 KCAL/MOL
REMARK 923 INTER-LIGAND FREE ENERGY PREDICTED BY IDOCK:   -5.17 KCAL/MOL
REMARK 924 INTRA-LIGAND FREE ENERGY PREDICTED BY IDOCK:   -0.20 KCAL/MOL
REMARK 927      BINDING AFFINITY PREDICTED BY RF-SCORE:    0.00 PKD
ROOT
HETATM    1 CL   UNL     1      -7.756  19.570  67.170  1.00  0.00    -0.274 Cl 
HETATM    2  C   UNL     1      -8.774  19.265  68.598  1.00  0.00    -0.365 C  
HETATM    3  C   UNL     1      -9.885  18.240  68.343  1.00  0.00    -0.369 C  
ENDROOT
BRANCH   3   4
HETATM    4  N   UNL     1      -9.424  16.939  67.793  1.00  0.00    -0.234 NA 
BRANCH   4   5
HETATM    5  C   UNL     1      -8.081  16.419  68.201  1.00  0.00    -0.165 C  
HETATM    6 CL   UNL     1      -8.300  13.652  68.381  1.00  0.00    -0.157 Cl 
HETATM    7  C   UNL     1      -7.947  15.221  69.144  1.00  0.00    -0.214 C  
ENDBRANCH   4   5
BRANCH   4   8
HETATM    8  C   UNL     1     -10.330  16.069  67.102  1.00  0.00    -0.295 C  
HETATM    9  C   UNL     1     -10.321  15.821  65.778  1.00  0.00    -0.369 C  
HETATM   10  N   UNL     1     -11.205  14.990  65.144  1.00  0.00    -0.373 N  
HETATM   11  C   UNL     1     -12.180  14.292  65.780  1.00  0.00    -0.403 C  
HETATM   12  H   UNL     1     -11.125  14.889  64.133  1.00  0.00     0.000 HD 
HETATM   13  O   UNL     1     -12.958  13.560  65.179  1.00  0.00    -0.721 OA 
HETATM   14  N   UNL     1     -12.232  14.465  67.126  1.00  0.00    -0.584 N  
HETATM   15  C   UNL     1     -11.443  15.317  67.853  1.00  0.00    -0.316 C  
HETATM   16  H   UNL     1     -12.918  13.913  67.640  1.00  0.00     0.000 HD 
HETATM   17  O   UNL     1     -11.671  15.447  69.055  1.00  0.00    -0.332 OA 
ENDBRANCH   4   8
ENDBRANCH   3   4
TORSDOF 3
ENDMDL
MODEL       59
REMARK 921   NORMALIZED FREE ENERGY PREDICTED BY IDOCK:   -4.19 KCAL/MOL
REMARK 922        TOTAL FREE ENERGY PREDICTED BY IDOCK:   -5.37 KCAL/MOL
REMARK 923 INTER-LIGAND FREE ENERGY PREDICTED BY IDOCK:   -5.01 KCAL/MOL
REMARK 924 INTRA-LIGAND FREE ENERGY PREDICTED BY IDOCK:   -0.37 KCAL/MOL
REMARK 927      BINDING AFFINITY PREDICTED BY RF-SCORE:    0.00 PKD
ROOT
HETATM    1 CL   UNL     1     -13.001  12.581  64.656  1.00  0.00    -0.364 Cl 
HETATM    2  C   UNL     1     -11.679  11.973  63.631  1.00  0.00    -0.493 C  
HETATM    3  C   UNL     1     -10.297  12.475  64.063  1.00  0.00    -0.404 C  
ENDROOT
BRANCH   3   4
HETATM    4  N   UNL     1      -9.956  12.225  65.487  1.00  0.00    -0.253 NA 
BRANCH   4   5
HETATM    5  C   UNL     1      -9.677  13.395  66.379  1.00  0.00    -0.277 C  
HETATM    6 CL   UNL     1     -12.077  14.070  67.610  1.00  0.00    -0.398 Cl 
HETATM    7  C   UNL     1     -10.704  14.512  66.566  1.00  0.00    -0.312 C  
ENDBRANCH   4   5
BRANCH   4   8
HETATM    8  C   UNL     1     -10.141  10.929  66.072  1.00  0.00    -0.249 C  
HETATM    9  C   UNL     1     -10.838  10.670  67.196  1.00  0.00    -0.270 C  
HETATM   10  N   UNL     1     -10.993   9.421  67.735  1.00  0.00    -0.499 N  
HETATM   11  C   UNL     1     -10.485   8.289  67.185  1.00  0.00    -0.316 C  
HETATM   12  H   UNL     1     -11.522   9.337  68.603  1.00  0.00     0.000 HD 
HETATM   13  O   UNL     1     -10.639   7.186  67.699  1.00  0.00    -0.215 OA 
HETATM   14  N   UNL     1      -9.795   8.466  66.029  1.00  0.00    -0.474 N  
HETATM   15  C   UNL     1      -9.525   9.671  65.436  1.00  0.00    -0.278 C  
HETATM   16  H   UNL     1      -9.448   7.628  65.562  1.00  0.00     0.000 HD 
HETATM   17  O   UNL     1      -8.799   9.686  64.443  1.00  0.00    -0.203 OA 
ENDBRANCH   4   8
ENDBRANCH   3   4
TORSDOF 3
ENDMDL
MODEL       60
REMARK 921   NORMALIZED FREE ENERGY PREDICTED BY IDOCK:   -4.19 KCAL/MOL
REMARK 922        TOTAL FREE ENERGY PREDICTED BY IDOCK:   -5.37 KCAL/MOL
REMARK 923 INTER-LIGAND FREE ENERGY PREDICTED BY IDOCK:   -5.18 KCAL/MOL
REMARK 924 INTRA-LIGAND FREE ENERGY PREDICTED BY IDOCK:   -0.18 KCAL/MOL
REMARK 927      BINDING AFFINITY PREDICTED BY RF-SCORE:    0.00 PKD
ROOT
HETATM    1 CL   UNL     1      -9.815  12.919  68.705  1.00  0.00    -0.134 Cl 
HETATM    2  C   UNL     1     -11.552  13.312  68.718  1.00  0.00    -0.312 C  
HETATM    3  C   UNL     1     -11.847  14.765  68.331  1.00  0.00    -0.286 C  
ENDROOT
BRANCH   3   4
HETATM    4  N   UNL     1     -11.265  15.200  67.036  1.00  0.00    -0.331 NA 
BRANCH   4   5
HETATM    5  C   UNL     1     -10.589  16.533  66.959  1.00  0.00    -0.255 C  
HETATM    6 CL   UNL     1      -8.676  16.594  68.976  1.00  0.00    -0.231 Cl 
HETATM    7  C   UNL     1     -10.140  17.269  68.222  1.00  0.00    -0.321 C  
ENDBRANCH   4   5
BRANCH   4   8
HETATM    8  C   UNL     1     -11.112  14.275  65.950  1.00  0.00    -0.310 C  
HETATM    9  C   UNL     1      -9.938  13.845  65.447  1.00  0.00    -0.247 C  
HETATM   10  N   UNL     1      -9.822  12.966  64.405  1.00  0.00    -0.601 N  
HETATM   11  C   UNL     1     -10.880  12.400  63.770  1.00  0.00    -0.454 C  
HETATM   12  H   UNL     1      -8.885  12.723  64.086  1.00  0.00     0.000 HD 
HETATM   13  O   UNL     1     -10.739  11.619  62.834  1.00  0.00    -0.162 OA 
HETATM   14  N   UNL     1     -12.101  12.760  64.242  1.00  0.00    -0.397 N  
HETATM   15  C   UNL     1     -12.335  13.676  65.234  1.00  0.00    -0.465 C  
HETATM   16  H   UNL     1     -12.914  12.310  63.822  1.00  0.00     0.000 HD 
HETATM   17  O   UNL     1     -13.499  13.980  65.489  1.00  0.00    -0.677 OA 
ENDBRANCH   4   8
ENDBRANCH   3   4
TORSDOF 3
ENDMDL
MODEL       61
REMARK 921   NORMALIZED FREE ENERGY PREDICTED BY IDOCK:   -4.19 KCAL/MOL
REMARK 922        TOTAL FREE ENERGY PREDICTED BY IDOCK:   -5.37 KCAL/MOL
REMARK 923 INTER-LIGAND FREE ENERGY PREDICTED BY IDOCK:   -5.27 KCAL/MOL
REMARK 924 INTRA-LIGAND FREE ENERGY PREDICTED BY IDOCK:   -0.10 KCAL/MOL
REMARK 927      BINDING AFFINITY PREDICTED BY RF-SCORE:    0.00 PKD
ROOT
HETATM    1 CL   UNL     1      -7.471  15.283  67.152  1.00  0.00    -0.234 Cl 
HETATM    2  C   UNL     1      -8.388  13.951  67.898  1.00  0.00    -0.167 C  
HETATM    3  C   UNL     1      -9.669  14.415  68.599  1.00  0.00    -0.216 C  
ENDROOT
BRANCH   3   4
HETATM    4  N   UNL     1     -10.590  15.220  67.755  1.00  0.00    -0.260 NA 
BRANCH   4   5
HETATM    5  C   UNL     1     -11.836  14.578  67.232  1.00  0.00    -0.392 C  
HETATM    6 CL   UNL     1     -11.720  11.888  67.926  1.00  0.00    -0.388 Cl 
HETATM    7  C   UNL     1     -11.823  13.153  66.677  1.00  0.00    -0.391 C  
ENDBRANCH   4   5
BRANCH   4   8
HETATM    8  C   UNL     1     -10.441  16.643  67.654  1.00  0.00    -0.320 C  
HETATM    9  C   UNL     1     -10.519  17.514  68.679  1.00  0.00    -0.338 C  
HETATM   10  N   UNL     1     -10.379  18.869  68.550  1.00  0.00    -0.418 N  
HETATM   11  C   UNL     1     -10.115  19.496  67.375  1.00  0.00    -0.406 C  
HETATM   12  H   UNL     1     -10.478  19.442  69.388  1.00  0.00     0.000 HD 
HETATM   13  O   UNL     1     -10.002  20.715  67.296  1.00  0.00    -0.448 OA 
HETATM   14  N   UNL     1      -9.990  18.679  66.298  1.00  0.00    -0.372 N  
HETATM   15  C   UNL     1     -10.172  17.322  66.299  1.00  0.00    -0.342 C  
HETATM   16  H   UNL     1      -9.738  19.115  65.411  1.00  0.00     0.000 HD 
HETATM   17  O   UNL     1     -10.127  16.723  65.226  1.00  0.00    -0.577 OA 
ENDBRANCH   4   8
ENDBRANCH   3   4
TORSDOF 3
ENDMDL
MODEL       62
REMARK 921   NORMALIZED FREE ENERGY PREDICTED BY IDOCK:   -4.18 KCAL/MOL
REMARK 922        TOTAL FREE ENERGY PREDICTED BY IDOCK:   -5.36 KCAL/MOL
REMARK 923 INTER-LIGAND FREE ENERGY PREDICTED BY IDOCK:   -5.13 KCAL/MOL
REMARK 924 INTRA-LIGAND FREE ENERGY PREDICTED BY IDOCK:   -0.22 KCAL/MOL
REMARK 927      BINDING AFFINITY PREDICTED BY RF-SCORE:    0.00 PKD
ROOT
HETATM    1 CL   UNL     1     -12.956  13.651  65.227  1.00  0.00    -0.412 Cl 
HETATM    2  C   UNL     1     -11.928  12.891  63.987  1.00  0.00    -0.451 C  
HETATM    3  C   UNL     1     -10.429  13.048  64.263  1.00  0.00    -0.402 C  
ENDROOT
BRANCH   3   4
HETATM    4  N   UNL     1      -9.986  12.586  65.603  1.00  0.00    -0.259 NA 
BRANCH   4   5
HETATM    5  C   UNL     1      -9.632  13.608  66.638  1.00  0.00    -0.283 C  
HETATM    6 CL   UNL     1     -10.533  16.065  65.699  1.00  0.00    -0.394 Cl 
HETATM    7  C   UNL     1      -9.198  15.020  66.244  1.00  0.00    -0.289 C  
ENDBRANCH   4   5
BRANCH   4   8
HETATM    8  C   UNL     1     -10.141  11.216  65.998  1.00  0.00    -0.244 C  
HETATM    9  C   UNL     1      -9.533  10.161  65.420  1.00  0.00    -0.239 C  
HETATM   10  N   UNL     1      -9.705   8.862  65.814  1.00  0.00    -0.459 N  
HETATM   11  C   UNL     1     -10.488   8.483  66.856  1.00  0.00    -0.275 C  
HETATM   12  H   UNL     1      -9.215   8.135  65.294  1.00  0.00     0.000 HD 
HETATM   13  O   UNL     1     -10.624   7.308  67.178  1.00  0.00    -0.288 OA 
HETATM   14  N   UNL     1     -11.111   9.496  67.511  1.00  0.00    -0.421 N  
HETATM   15  C   UNL     1     -11.062  10.821  67.165  1.00  0.00    -0.227 C  
HETATM   16  H   UNL     1     -11.664   9.249  68.332  1.00  0.00     0.000 HD 
HETATM   17  O   UNL     1     -11.760  11.617  67.791  1.00  0.00    -0.489 OA 
ENDBRANCH   4   8
ENDBRANCH   3   4
TORSDOF 3
ENDMDL
MODEL       63
REMARK 921   NORMALIZED FREE ENERGY PREDICTED BY IDOCK:   -4.16 KCAL/MOL
REMARK 922        TOTAL FREE ENERGY PREDICTED BY IDOCK:   -5.34 KCAL/MOL
REMARK 923 INTER-LIGAND FREE ENERGY PREDICTED BY IDOCK:   -5.19 KCAL/MOL
REMARK 924 INTRA-LIGAND FREE ENERGY PREDICTED BY IDOCK:   -0.14 KCAL/MOL
REMARK 927      BINDING AFFINITY PREDICTED BY RF-SCORE:    0.00 PKD
ROOT
HETATM    1 CL   UNL     1      -8.827  12.832  68.202  1.00  0.00    -0.192 Cl 
HETATM    2  C   UNL     1      -7.920  12.073  66.870  1.00  0.00    -0.112 C  
HETATM    3  C   UNL     1      -8.366  10.637  66.574  1.00  0.00    -0.143 C  
ENDROOT
BRANCH   3   4
HETATM    4  N   UNL     1      -9.820  10.472  66.322  1.00  0.00    -0.208 NA 
BRANCH   4   5
HETATM    5  C   UNL     1     -10.614   9.582  67.227  1.00  0.00    -0.248 C  
HETATM    6 CL   UNL     1     -10.928  10.939  69.633  1.00  0.00    -0.309 Cl 
HETATM    7  C   UNL     1     -10.333   9.525  68.729  1.00  0.00    -0.208 C  
ENDBRANCH   4   5
BRANCH   4   8
HETATM    8  C   UNL     1     -10.512  11.334  65.408  1.00  0.00    -0.268 C  
HETATM    9  C   UNL     1     -10.298  11.401  64.080  1.00  0.00    -0.362 C  
HETATM   10  N   UNL     1     -10.970  12.240  63.233  1.00  0.00    -0.655 N  
HETATM   11  C   UNL     1     -11.955  13.087  63.628  1.00  0.00    -0.539 C  
HETATM   12  H   UNL     1     -10.715  12.228  62.246  1.00  0.00     0.000 HD 
HETATM   13  O   UNL     1     -12.532  13.830  62.841  1.00  0.00    -0.601 OA 
HETATM   14  N   UNL     1     -12.251  13.054  64.952  1.00  0.00    -0.414 N  
HETATM   15  C   UNL     1     -11.603  12.303  65.897  1.00  0.00    -0.393 C  
HETATM   16  H   UNL     1     -13.023  13.639  65.271  1.00  0.00     0.000 HD 
HETATM   17  O   UNL     1     -11.913  12.452  67.078  1.00  0.00    -0.541 OA 
ENDBRANCH   4   8
ENDBRANCH   3   4
TORSDOF 3
ENDMDL
MODEL       64
REMARK 921   NORMALIZED FREE ENERGY PREDICTED BY IDOCK:   -4.16 KCAL/MOL
REMARK 922        TOTAL FREE ENERGY PREDICTED BY IDOCK:   -5.34 KCAL/MOL
REMARK 923 INTER-LIGAND FREE ENERGY PREDICTED BY IDOCK:   -5.09 KCAL/MOL
REMARK 924 INTRA-LIGAND FREE ENERGY PREDICTED BY IDOCK:   -0.24 KCAL/MOL
REMARK 927      BINDING AFFINITY PREDICTED BY RF-SCORE:    0.00 PKD
ROOT
HETATM    1 CL   UNL     1      -9.620   6.072  69.620  1.00  0.00    -0.168 Cl 
HETATM    2  C   UNL     1     -11.383   6.323  69.583  1.00  0.00    -0.422 C  
HETATM    3  C   UNL     1     -11.985   6.594  70.966  1.00  0.00    -0.359 C  
ENDROOT
BRANCH   3   4
HETATM    4  N   UNL     1     -11.356   7.710  71.716  1.00  0.00    -0.248 NA 
BRANCH   4   5
HETATM    5  C   UNL     1     -10.249   7.402  72.675  1.00  0.00    -0.227 C  
HETATM    6 CL   UNL     1     -10.714   4.844  73.661  1.00  0.00    -0.319 Cl 
HETATM    7  C   UNL     1     -10.503   6.588  73.945  1.00  0.00    -0.308 C  
ENDBRANCH   4   5
BRANCH   4   8
HETATM    8  C   UNL     1     -11.606   9.075  71.353  1.00  0.00    -0.326 C  
HETATM    9  C   UNL     1     -10.810   9.837  70.577  1.00  0.00    -0.323 C  
HETATM   10  N   UNL     1     -11.072  11.141  70.253  1.00  0.00    -0.455 N  
HETATM   11  C   UNL     1     -12.181  11.814  70.650  1.00  0.00    -0.349 C  
HETATM   12  H   UNL     1     -10.391  11.636  69.677  1.00  0.00     0.000 HD 
HETATM   13  O   UNL     1     -12.380  12.985  70.345  1.00  0.00    -0.334 OA 
HETATM   14  N   UNL     1     -13.050  11.100  71.411  1.00  0.00    -0.375 N  
HETATM   15  C   UNL     1     -12.861   9.815  71.848  1.00  0.00    -0.427 C  
HETATM   16  H   UNL     1     -13.919  11.560  71.681  1.00  0.00     0.000 HD 
HETATM   17  O   UNL     1     -13.688   9.329  72.617  1.00  0.00    -0.450 OA 
ENDBRANCH   4   8
ENDBRANCH   3   4
TORSDOF 3
ENDMDL
MODEL       65
REMARK 921   NORMALIZED FREE ENERGY PREDICTED BY IDOCK:   -4.16 KCAL/MOL
REMARK 922        TOTAL FREE ENERGY PREDICTED BY IDOCK:   -5.33 KCAL/MOL
REMARK 923 INTER-LIGAND FREE ENERGY PREDICTED BY IDOCK:   -4.99 KCAL/MOL
REMARK 924 INTRA-LIGAND FREE ENERGY PREDICTED BY IDOCK:   -0.34 KCAL/MOL
REMARK 927      BINDING AFFINITY PREDICTED BY RF-SCORE:    0.00 PKD
ROOT
HETATM    1 CL   UNL     1     -10.768  10.255  67.105  1.00  0.00    -0.316 Cl 
HETATM    2  C   UNL     1     -10.897  11.645  65.999  1.00  0.00    -0.289 C  
HETATM    3  C   UNL     1     -11.549  12.873  66.644  1.00  0.00    -0.372 C  
ENDROOT
BRANCH   3   4
HETATM    4  N   UNL     1     -10.921  13.324  67.912  1.00  0.00    -0.242 NA 
BRANCH   4   5
HETATM    5  C   UNL     1      -9.619  14.059  67.852  1.00  0.00    -0.221 C  
HETATM    6 CL   UNL     1     -10.086  16.431  66.477  1.00  0.00    -0.288 Cl 
HETATM    7  C   UNL     1      -9.226  14.879  66.622  1.00  0.00    -0.276 C  
ENDBRANCH   4   5
BRANCH   4   8
HETATM    8  C   UNL     1     -11.653  13.298  69.145  1.00  0.00    -0.319 C  
HETATM    9  C   UNL     1     -11.949  12.193  69.857  1.00  0.00    -0.309 C  
HETATM   10  N   UNL     1     -12.655  12.198  71.029  1.00  0.00    -0.330 N  
HETATM   11  C   UNL     1     -13.119  13.324  71.630  1.00  0.00    -0.363 C  
HETATM   12  H   UNL     1     -12.845  11.303  71.478  1.00  0.00     0.000 HD 
HETATM   13  O   UNL     1     -13.755  13.291  72.678  1.00  0.00    -0.674 OA 
HETATM   14  N   UNL     1     -12.831  14.485  70.987  1.00  0.00    -0.334 N  
HETATM   15  C   UNL     1     -12.189  14.592  69.781  1.00  0.00    -0.312 C  
HETATM   16  H   UNL     1     -13.119  15.352  71.441  1.00  0.00     0.000 HD 
HETATM   17  O   UNL     1     -12.088  15.705  69.268  1.00  0.00    -0.347 OA 
ENDBRANCH   4   8
ENDBRANCH   3   4
TORSDOF 3
ENDMDL
MODEL       66
REMARK 921   NORMALIZED FREE ENERGY PREDICTED BY IDOCK:   -4.16 KCAL/MOL
REMARK 922        TOTAL FREE ENERGY PREDICTED BY IDOCK:   -5.33 KCAL/MOL
REMARK 923 INTER-LIGAND FREE ENERGY PREDICTED BY IDOCK:   -5.09 KCAL/MOL
REMARK 924 INTRA-LIGAND FREE ENERGY PREDICTED BY IDOCK:   -0.24 KCAL/MOL
REMARK 927      BINDING AFFINITY PREDICTED BY RF-SCORE:    0.00 PKD
ROOT
HETATM    1 CL   UNL     1     -12.941  14.651  73.340  1.00  0.00    -0.590 Cl 
HETATM    2  C   UNL     1     -14.106  14.590  71.995  1.00  0.00    -0.516 C  
HETATM    3  C   UNL     1     -13.647  15.372  70.760  1.00  0.00    -0.199 C  
ENDROOT
BRANCH   3   4
HETATM    4  N   UNL     1     -12.302  15.003  70.248  1.00  0.00    -0.331 NA 
BRANCH   4   5
HETATM    5  C   UNL     1     -11.124  15.834  70.649  1.00  0.00    -0.354 C  
HETATM    6 CL   UNL     1     -10.613  17.588  68.553  1.00  0.00    -0.345 Cl 
HETATM    7  C   UNL     1     -10.076  16.272  69.625  1.00  0.00    -0.175 C  
ENDBRANCH   4   5
BRANCH   4   8
HETATM    8  C   UNL     1     -12.080  13.740  69.605  1.00  0.00    -0.336 C  
HETATM    9  C   UNL     1     -11.946  12.555  70.232  1.00  0.00    -0.283 C  
HETATM   10  N   UNL     1     -11.728  11.366  69.591  1.00  0.00    -0.314 N  
HETATM   11  C   UNL     1     -11.649  11.234  68.243  1.00  0.00    -0.300 C  
HETATM   12  H   UNL     1     -11.618  10.528  70.162  1.00  0.00     0.000 HD 
HETATM   13  O   UNL     1     -11.446  10.152  67.702  1.00  0.00    -0.271 OA 
HETATM   14  N   UNL     1     -11.807  12.383  67.538  1.00  0.00    -0.339 N  
HETATM   15  C   UNL     1     -11.966  13.634  68.074  1.00  0.00    -0.350 C  
HETATM   16  H   UNL     1     -11.807  12.309  66.520  1.00  0.00     0.000 HD 
HETATM   17  O   UNL     1     -11.995  14.599  67.313  1.00  0.00    -0.391 OA 
ENDBRANCH   4   8
ENDBRANCH   3   4
TORSDOF 3
ENDMDL
MODEL       67
REMARK 921   NORMALIZED FREE ENERGY PREDICTED BY IDOCK:   -4.15 KCAL/MOL
REMARK 922        TOTAL FREE ENERGY PREDICTED BY IDOCK:   -5.33 KCAL/MOL
REMARK 923 INTER-LIGAND FREE ENERGY PREDICTED BY IDOCK:   -4.92 KCAL/MOL
REMARK 924 INTRA-LIGAND FREE ENERGY PREDICTED BY IDOCK:   -0.41 KCAL/MOL
REMARK 927      BINDING AFFINITY PREDICTED BY RF-SCORE:    0.00 PKD
ROOT
HETATM    1 CL   UNL     1      -8.600   8.240  72.474  1.00  0.00    -0.258 Cl 
HETATM    2  C   UNL     1      -9.756   7.091  73.190  1.00  0.00    -0.184 C  
HETATM    3  C   UNL     1     -11.214   7.550  73.079  1.00  0.00    -0.322 C  
ENDROOT
BRANCH   3   4
HETATM    4  N   UNL     1     -11.662   7.890  71.705  1.00  0.00    -0.271 NA 
BRANCH   4   5
HETATM    5  C   UNL     1     -12.204   6.802  70.832  1.00  0.00    -0.331 C  
HETATM    6 CL   UNL     1     -10.059   5.180  70.124  1.00  0.00    -0.321 Cl 
HETATM    7  C   UNL     1     -11.399   6.254  69.653  1.00  0.00    -0.422 C  
ENDBRANCH   4   5
BRANCH   4   8
HETATM    8  C   UNL     1     -11.825   9.257  71.300  1.00  0.00    -0.343 C  
HETATM    9  C   UNL     1     -12.774  10.099  71.754  1.00  0.00    -0.434 C  
HETATM   10  N   UNL     1     -12.910  11.398  71.344  1.00  0.00    -0.422 N  
HETATM   11  C   UNL     1     -12.085  12.002  70.452  1.00  0.00    -0.321 C  
HETATM   12  H   UNL     1     -13.677  11.944  71.734  1.00  0.00     0.000 HD 
HETATM   13  O   UNL     1     -12.240  13.167  70.103  1.00  0.00    -0.329 OA 
HETATM   14  N   UNL     1     -11.081  11.224  69.972  1.00  0.00    -0.477 N  
HETATM   15  C   UNL     1     -10.889   9.899  70.263  1.00  0.00    -0.310 C  
HETATM   16  H   UNL     1     -10.411  11.664  69.341  1.00  0.00     0.000 HD 
HETATM   17  O   UNL     1      -9.995   9.293  69.674  1.00  0.00    -0.175 OA 
ENDBRANCH   4   8
ENDBRANCH   3   4
TORSDOF 3
ENDMDL
MODEL       68
REMARK 921   NORMALIZED FREE ENERGY PREDICTED BY IDOCK:   -4.15 KCAL/MOL
REMARK 922        TOTAL FREE ENERGY PREDICTED BY IDOCK:   -5.32 KCAL/MOL
REMARK 923 INTER-LIGAND FREE ENERGY PREDICTED BY IDOCK:   -5.01 KCAL/MOL
REMARK 924 INTRA-LIGAND FREE ENERGY PREDICTED BY IDOCK:   -0.32 KCAL/MOL
REMARK 927      BINDING AFFINITY PREDICTED BY RF-SCORE:    0.00 PKD
ROOT
HETATM    1 CL   UNL     1     -10.579  10.034  67.070  1.00  0.00    -0.296 Cl 
HETATM    2  C   UNL     1     -11.521  11.235  67.987  1.00  0.00    -0.298 C  
HETATM    3  C   UNL     1     -10.650  12.297  68.666  1.00  0.00    -0.224 C  
ENDROOT
BRANCH   3   4
HETATM    4  N   UNL     1      -9.711  13.010  67.763  1.00  0.00    -0.212 NA 
BRANCH   4   5
HETATM    5  C   UNL     1      -8.287  12.554  67.696  1.00  0.00    -0.172 C  
HETATM    6 CL   UNL     1      -6.781  14.365  69.174  1.00  0.00    -0.110 Cl 
HETATM    7  C   UNL     1      -7.134  13.557  67.627  1.00  0.00    -0.168 C  
ENDBRANCH   4   5
BRANCH   4   8
HETATM    8  C   UNL     1     -10.194  13.937  66.781  1.00  0.00    -0.268 C  
HETATM    9  C   UNL     1     -10.520  15.224  67.012  1.00  0.00    -0.292 C  
HETATM   10  N   UNL     1     -10.985  16.084  66.056  1.00  0.00    -0.172 N  
HETATM   11  C   UNL     1     -11.148  15.751  64.750  1.00  0.00    -0.400 C  
HETATM   12  H   UNL     1     -11.224  17.033  66.341  1.00  0.00     0.000 HD 
HETATM   13  O   UNL     1     -11.574  16.547  63.920  1.00  0.00    -1.175 OA 
HETATM   14  N   UNL     1     -10.810  14.475  64.431  1.00  0.00    -0.609 N  
HETATM   15  C   UNL     1     -10.395  13.514  65.316  1.00  0.00    -0.331 C  
HETATM   16  H   UNL     1     -10.869  14.209  63.448  1.00  0.00     0.000 HD 
HETATM   17  O   UNL     1     -10.220  12.370  64.899  1.00  0.00    -0.281 OA 
ENDBRANCH   4   8
ENDBRANCH   3   4
TORSDOF 3
ENDMDL
MODEL       69
REMARK 921   NORMALIZED FREE ENERGY PREDICTED BY IDOCK:   -4.14 KCAL/MOL
REMARK 922        TOTAL FREE ENERGY PREDICTED BY IDOCK:   -5.31 KCAL/MOL
REMARK 923 INTER-LIGAND FREE ENERGY PREDICTED BY IDOCK:   -5.25 KCAL/MOL
REMARK 924 INTRA-LIGAND FREE ENERGY PREDICTED BY IDOCK:   -0.05 KCAL/MOL
REMARK 927      BINDING AFFINITY PREDICTED BY RF-SCORE:    0.00 PKD
ROOT
HETATM    1 CL   UNL     1      -8.000  19.217  66.729  1.00  0.00    -0.267 Cl 
HETATM    2  C   UNL     1      -7.401  17.828  65.788  1.00  0.00    -0.090 C  
HETATM    3  C   UNL     1      -7.614  16.483  66.491  1.00  0.00    -0.269 C  
ENDROOT
BRANCH   3   4
HETATM    4  N   UNL     1      -9.010  16.211  66.915  1.00  0.00    -0.209 NA 
BRANCH   4   5
HETATM    5  C   UNL     1      -9.509  16.816  68.190  1.00  0.00    -0.234 C  
HETATM    6 CL   UNL     1     -11.767  15.379  68.946  1.00  0.00    -0.371 Cl 
HETATM    7  C   UNL     1     -11.006  16.921  68.486  1.00  0.00    -0.290 C  
ENDBRANCH   4   5
BRANCH   4   8
HETATM    8  C   UNL     1      -9.949  15.607  66.014  1.00  0.00    -0.333 C  
HETATM    9  C   UNL     1     -10.730  16.270  65.139  1.00  0.00    -0.331 C  
HETATM   10  N   UNL     1     -11.623  15.667  64.295  1.00  0.00    -0.760 N  
HETATM   11  C   UNL     1     -11.808  14.324  64.219  1.00  0.00    -0.379 C  
HETATM   12  H   UNL     1     -12.183  16.263  63.686  1.00  0.00     0.000 HD 
HETATM   13  O   UNL     1     -12.622  13.818  63.454  1.00  0.00    -0.842 OA 
HETATM   14  N   UNL     1     -11.030  13.584  65.051  1.00  0.00    -0.318 N  
HETATM   15  C   UNL     1     -10.153  14.083  65.978  1.00  0.00    -0.315 C  
HETATM   16  H   UNL     1     -11.106  12.570  64.979  1.00  0.00     0.000 HD 
HETATM   17  O   UNL     1      -9.589  13.295  66.735  1.00  0.00    -0.243 OA 
ENDBRANCH   4   8
ENDBRANCH   3   4
TORSDOF 3
ENDMDL
MODEL       70
REMARK 921   NORMALIZED FREE ENERGY PREDICTED BY IDOCK:   -4.12 KCAL/MOL
REMARK 922        TOTAL FREE ENERGY PREDICTED BY IDOCK:   -5.29 KCAL/MOL
REMARK 923 INTER-LIGAND FREE ENERGY PREDICTED BY IDOCK:   -5.06 KCAL/MOL
REMARK 924 INTRA-LIGAND FREE ENERGY PREDICTED BY IDOCK:   -0.23 KCAL/MOL
REMARK 927      BINDING AFFINITY PREDICTED BY RF-SCORE:    0.00 PKD
ROOT
HETATM    1 CL   UNL     1     -11.373  13.982  69.865  1.00  0.00    -0.251 Cl 
HETATM    2  C   UNL     1     -10.128  15.031  69.143  1.00  0.00    -0.245 C  
HETATM    3  C   UNL     1      -8.953  14.251  68.543  1.00  0.00    -0.185 C  
ENDROOT
BRANCH   3   4
HETATM    4  N   UNL     1      -9.330  13.205  67.559  1.00  0.00    -0.199 NA 
BRANCH   4   5
HETATM    5  C   UNL     1      -8.974  11.780  67.848  1.00  0.00    -0.180 C  
HETATM    6 CL   UNL     1      -6.520  11.291  66.635  1.00  0.00    -0.130 Cl 
HETATM    7  C   UNL     1      -8.252  10.917  66.813  1.00  0.00    -0.140 C  
ENDBRANCH   4   5
BRANCH   4   8
HETATM    8  C   UNL     1     -10.239  13.495  66.488  1.00  0.00    -0.283 C  
HETATM    9  C   UNL     1     -10.045  14.417  65.525  1.00  0.00    -0.356 C  
HETATM   10  N   UNL     1     -10.935  14.676  64.518  1.00  0.00    -0.621 N  
HETATM   11  C   UNL     1     -12.108  14.015  64.353  1.00  0.00    -0.458 C  
HETATM   12  H   UNL     1     -10.701  15.412  63.851  1.00  0.00     0.000 HD 
HETATM   13  O   UNL     1     -12.885  14.278  63.441  1.00  0.00    -0.557 OA 
HETATM   14  N   UNL     1     -12.361  13.045  65.270  1.00  0.00    -0.464 N  
HETATM   15  C   UNL     1     -11.575  12.745  66.351  1.00  0.00    -0.378 C  
HETATM   16  H   UNL     1     -13.209  12.493  65.142  1.00  0.00     0.000 HD 
HETATM   17  O   UNL     1     -11.981  11.909  67.157  1.00  0.00    -0.611 OA 
ENDBRANCH   4   8
ENDBRANCH   3   4
TORSDOF 3
ENDMDL
MODEL       71
REMARK 921   NORMALIZED FREE ENERGY PREDICTED BY IDOCK:   -4.12 KCAL/MOL
REMARK 922        TOTAL FREE ENERGY PREDICTED BY IDOCK:   -5.29 KCAL/MOL
REMARK 923 INTER-LIGAND FREE ENERGY PREDICTED BY IDOCK:   -4.86 KCAL/MOL
REMARK 924 INTRA-LIGAND FREE ENERGY PREDICTED BY IDOCK:   -0.43 KCAL/MOL
REMARK 927      BINDING AFFINITY PREDICTED BY RF-SCORE:    0.00 PKD
ROOT
HETATM    1 CL   UNL     1      -9.205  10.563  65.881  1.00  0.00    -0.195 Cl 
HETATM    2  C   UNL     1      -8.881  10.947  67.590  1.00  0.00    -0.133 C  
HETATM    3  C   UNL     1      -9.220  12.395  67.960  1.00  0.00    -0.203 C  
ENDROOT
BRANCH   3   4
HETATM    4  N   UNL     1     -10.603  12.821  67.625  1.00  0.00    -0.217 NA 
BRANCH   4   5
HETATM    5  C   UNL     1     -11.727  12.384  68.511  1.00  0.00    -0.326 C  
HETATM    6 CL   UNL     1     -12.749  14.671  69.719  1.00  0.00    -0.159 Cl 
HETATM    7  C   UNL     1     -11.990  13.066  69.855  1.00  0.00    -0.311 C  
ENDBRANCH   4   5
BRANCH   4   8
HETATM    8  C   UNL     1     -10.842  13.836  66.641  1.00  0.00    -0.288 C  
HETATM    9  C   UNL     1     -11.297  13.622  65.391  1.00  0.00    -0.301 C  
HETATM   10  N   UNL     1     -11.510  14.612  64.470  1.00  0.00    -0.580 N  
HETATM   11  C   UNL     1     -11.315  15.932  64.716  1.00  0.00    -0.309 C  
HETATM   12  H   UNL     1     -11.835  14.340  63.542  1.00  0.00     0.000 HD 
HETATM   13  O   UNL     1     -11.511  16.792  63.864  1.00  0.00    -1.116 OA 
HETATM   14  N   UNL     1     -10.887  16.231  65.969  1.00  0.00    -0.190 N  
HETATM   15  C   UNL     1     -10.581  15.321  66.947  1.00  0.00    -0.304 C  
HETATM   16  H   UNL     1     -10.783  17.218  66.203  1.00  0.00     0.000 HD 
HETATM   17  O   UNL     1     -10.105  15.733  68.004  1.00  0.00    -0.225 OA 
ENDBRANCH   4   8
ENDBRANCH   3   4
TORSDOF 3
ENDMDL
MODEL       72
REMARK 921   NORMALIZED FREE ENERGY PREDICTED BY IDOCK:   -4.11 KCAL/MOL
REMARK 922        TOTAL FREE ENERGY PREDICTED BY IDOCK:   -5.27 KCAL/MOL
REMARK 923 INTER-LIGAND FREE ENERGY PREDICTED BY IDOCK:   -4.83 KCAL/MOL
REMARK 924 INTRA-LIGAND FREE ENERGY PREDICTED BY IDOCK:   -0.44 KCAL/MOL
REMARK 927      BINDING AFFINITY PREDICTED BY RF-SCORE:    0.00 PKD
ROOT
HETATM    1 CL   UNL     1     -11.348  10.748  69.318  1.00  0.00    -0.318 Cl 
HETATM    2  C   UNL     1     -10.488   9.578  68.288  1.00  0.00    -0.223 C  
HETATM    3  C   UNL     1     -10.410  10.006  66.819  1.00  0.00    -0.217 C  
ENDROOT
BRANCH   3   4
HETATM    4  N   UNL     1      -9.841  11.359  66.589  1.00  0.00    -0.201 NA 
BRANCH   4   5
HETATM    5  C   UNL     1      -8.380  11.578  66.826  1.00  0.00    -0.165 C  
HETATM    6 CL   UNL     1      -7.014  10.183  64.846  1.00  0.00    -0.136 Cl 
HETATM    7  C   UNL     1      -7.359  10.468  66.569  1.00  0.00    -0.125 C  
ENDBRANCH   4   5
BRANCH   4   8
HETATM    8  C   UNL     1     -10.597  12.369  65.907  1.00  0.00    -0.258 C  
HETATM    9  C   UNL     1     -11.418  13.262  66.494  1.00  0.00    -0.337 C  
HETATM   10  N   UNL     1     -12.133  14.212  65.816  1.00  0.00    -0.404 N  
HETATM   11  C   UNL     1     -12.078  14.387  64.471  1.00  0.00    -0.481 C  
HETATM   12  H   UNL     1     -12.744  14.825  66.355  1.00  0.00     0.000 HD 
HETATM   13  O   UNL     1     -12.738  15.245  63.896  1.00  0.00    -0.732 OA 
HETATM   14  N   UNL     1     -11.244  13.542  63.811  1.00  0.00    -0.551 N  
HETATM   15  C   UNL     1     -10.533  12.518  64.377  1.00  0.00    -0.359 C  
HETATM   16  H   UNL     1     -11.139  13.683  62.806  1.00  0.00     0.000 HD 
HETATM   17  O   UNL     1      -9.896  11.768  63.639  1.00  0.00    -0.327 OA 
ENDBRANCH   4   8
ENDBRANCH   3   4
TORSDOF 3
ENDMDL
MODEL       73
REMARK 921   NORMALIZED FREE ENERGY PREDICTED BY IDOCK:   -4.08 KCAL/MOL
REMARK 922        TOTAL FREE ENERGY PREDICTED BY IDOCK:   -5.25 KCAL/MOL
REMARK 923 INTER-LIGAND FREE ENERGY PREDICTED BY IDOCK:   -4.98 KCAL/MOL
REMARK 924 INTRA-LIGAND FREE ENERGY PREDICTED BY IDOCK:   -0.27 KCAL/MOL
REMARK 927      BINDING AFFINITY PREDICTED BY RF-SCORE:    0.00 PKD
ROOT
HETATM    1 CL   UNL     1     -10.453  10.688  69.133  1.00  0.00    -0.226 Cl 
HETATM    2  C   UNL     1     -11.938  11.628  69.420  1.00  0.00    -0.316 C  
HETATM    3  C   UNL     1     -11.691  13.138  69.514  1.00  0.00    -0.319 C  
ENDROOT
BRANCH   3   4
HETATM    4  N   UNL     1     -10.963  13.728  68.362  1.00  0.00    -0.245 NA 
BRANCH   4   5
HETATM    5  C   UNL     1      -9.641  14.386  68.604  1.00  0.00    -0.208 C  
HETATM    6 CL   UNL     1     -10.003  17.114  68.203  1.00  0.00    -0.282 Cl 
HETATM    7  C   UNL     1      -9.190  15.589  67.774  1.00  0.00    -0.179 C  
ENDBRANCH   4   5
BRANCH   4   8
HETATM    8  C   UNL     1     -11.371  13.453  67.015  1.00  0.00    -0.317 C  
HETATM    9  C   UNL     1     -12.533  13.843  66.454  1.00  0.00    -0.370 C  
HETATM   10  N   UNL     1     -12.899  13.561  65.166  1.00  0.00    -0.728 N  
HETATM   11  C   UNL     1     -12.120  12.877  64.289  1.00  0.00    -0.419 C  
HETATM   12  H   UNL     1     -13.811  13.884  64.846  1.00  0.00     0.000 HD 
HETATM   13  O   UNL     1     -12.483  12.636  63.142  1.00  0.00    -0.586 OA 
HETATM   14  N   UNL     1     -10.916  12.477  64.772  1.00  0.00    -0.292 N  
HETATM   15  C   UNL     1     -10.475  12.648  66.058  1.00  0.00    -0.268 C  
HETATM   16  H   UNL     1     -10.286  12.008  64.122  1.00  0.00     0.000 HD 
HETATM   17  O   UNL     1      -9.402  12.143  66.382  1.00  0.00    -0.221 OA 
ENDBRANCH   4   8
ENDBRANCH   3   4
TORSDOF 3
ENDMDL
MODEL       74
REMARK 921   NORMALIZED FREE ENERGY PREDICTED BY IDOCK:   -4.07 KCAL/MOL
REMARK 922        TOTAL FREE ENERGY PREDICTED BY IDOCK:   -5.23 KCAL/MOL
REMARK 923 INTER-LIGAND FREE ENERGY PREDICTED BY IDOCK:   -4.92 KCAL/MOL
REMARK 924 INTRA-LIGAND FREE ENERGY PREDICTED BY IDOCK:   -0.31 KCAL/MOL
REMARK 927      BINDING AFFINITY PREDICTED BY RF-SCORE:    0.00 PKD
ROOT
HETATM    1 CL   UNL     1      -7.422  15.033  69.328  1.00  0.00    -0.175 Cl 
HETATM    2  C   UNL     1      -7.678  14.021  67.885  1.00  0.00    -0.159 C  
HETATM    3  C   UNL     1      -9.143  13.621  67.678  1.00  0.00    -0.207 C  
ENDROOT
BRANCH   3   4
HETATM    4  N   UNL     1     -10.104  14.752  67.650  1.00  0.00    -0.227 NA 
BRANCH   4   5
HETATM    5  C   UNL     1     -10.431  15.389  66.336  1.00  0.00    -0.303 C  
HETATM    6 CL   UNL     1     -12.346  13.790  65.108  1.00  0.00    -0.445 Cl 
HETATM    7  C   UNL     1     -10.734  14.545  65.097  1.00  0.00    -0.406 C  
ENDBRANCH   4   5
BRANCH   4   8
HETATM    8  C   UNL     1     -10.907  15.065  68.797  1.00  0.00    -0.249 C  
HETATM    9  C   UNL     1     -10.782  16.167  69.562  1.00  0.00    -0.313 C  
HETATM   10  N   UNL     1     -11.559  16.436  70.656  1.00  0.00    -0.517 N  
HETATM   11  C   UNL     1     -12.568  15.636  71.085  1.00  0.00    -0.453 C  
HETATM   12  H   UNL     1     -11.367  17.289  71.181  1.00  0.00     0.000 HD 
HETATM   13  O   UNL     1     -13.241  15.906  72.075  1.00  0.00    -0.449 OA 
HETATM   14  N   UNL     1     -12.777  14.518  70.343  1.00  0.00    -0.456 N  
HETATM   15  C   UNL     1     -12.023  14.119  69.272  1.00  0.00    -0.340 C  
HETATM   16  H   UNL     1     -13.563  13.925  70.608  1.00  0.00     0.000 HD 
HETATM   17  O   UNL     1     -12.266  13.028  68.758  1.00  0.00    -0.223 OA 
ENDBRANCH   4   8
ENDBRANCH   3   4
TORSDOF 3
ENDMDL
MODEL       75
REMARK 921   NORMALIZED FREE ENERGY PREDICTED BY IDOCK:   -4.06 KCAL/MOL
REMARK 922        TOTAL FREE ENERGY PREDICTED BY IDOCK:   -5.22 KCAL/MOL
REMARK 923 INTER-LIGAND FREE ENERGY PREDICTED BY IDOCK:   -4.79 KCAL/MOL
REMARK 924 INTRA-LIGAND FREE ENERGY PREDICTED BY IDOCK:   -0.43 KCAL/MOL
REMARK 927      BINDING AFFINITY PREDICTED BY RF-SCORE:    0.00 PKD
ROOT
HETATM    1 CL   UNL     1      -7.434   8.592  65.686  1.00  0.00    -0.084 Cl 
HETATM    2  C   UNL     1      -7.437   9.632  67.132  1.00  0.00    -0.088 C  
HETATM    3  C   UNL     1      -8.366  10.844  67.005  1.00  0.00    -0.132 C  
ENDROOT
BRANCH   3   4
HETATM    4  N   UNL     1      -9.769  10.524  66.639  1.00  0.00    -0.183 NA 
BRANCH   4   5
HETATM    5  C   UNL     1     -10.532   9.551  67.484  1.00  0.00    -0.275 C  
HETATM    6 CL   UNL     1     -11.824  11.024  69.457  1.00  0.00    -0.371 Cl 
HETATM    7  C   UNL     1     -10.670   9.750  68.994  1.00  0.00    -0.217 C  
ENDBRANCH   4   5
BRANCH   4   8
HETATM    8  C   UNL     1     -10.475  11.310  65.669  1.00  0.00    -0.261 C  
HETATM    9  C   UNL     1     -11.383  12.266  65.947  1.00  0.00    -0.360 C  
HETATM   10  N   UNL     1     -12.046  12.996  64.999  1.00  0.00    -0.399 N  
HETATM   11  C   UNL     1     -11.847  12.864  63.663  1.00  0.00    -0.532 C  
HETATM   12  H   UNL     1     -12.732  13.682  65.316  1.00  0.00     0.000 HD 
HETATM   13  O   UNL     1     -12.464  13.532  62.840  1.00  0.00    -0.601 OA 
HETATM   14  N   UNL     1     -10.920  11.939  63.304  1.00  0.00    -0.666 N  
HETATM   15  C   UNL     1     -10.245  11.111  64.161  1.00  0.00    -0.347 C  
HETATM   16  H   UNL     1     -10.708  11.854  62.310  1.00  0.00     0.000 HD 
HETATM   17  O   UNL     1      -9.507  10.249  63.685  1.00  0.00    -0.274 OA 
ENDBRANCH   4   8
ENDBRANCH   3   4
TORSDOF 3
ENDMDL
MODEL       76
REMARK 921   NORMALIZED FREE ENERGY PREDICTED BY IDOCK:   -4.05 KCAL/MOL
REMARK 922        TOTAL FREE ENERGY PREDICTED BY IDOCK:   -5.20 KCAL/MOL
REMARK 923 INTER-LIGAND FREE ENERGY PREDICTED BY IDOCK:   -4.96 KCAL/MOL
REMARK 924 INTRA-LIGAND FREE ENERGY PREDICTED BY IDOCK:   -0.24 KCAL/MOL
REMARK 927      BINDING AFFINITY PREDICTED BY RF-SCORE:    0.00 PKD
ROOT
HETATM    1 CL   UNL     1     -12.456  12.552  63.521  1.00  0.00    -0.587 Cl 
HETATM    2  C   UNL     1     -10.714  12.208  63.658  1.00  0.00    -0.467 C  
HETATM    3  C   UNL     1     -10.074  12.814  64.912  1.00  0.00    -0.213 C  
ENDROOT
BRANCH   3   4
HETATM    4  N   UNL     1     -10.737  12.455  66.191  1.00  0.00    -0.254 NA 
BRANCH   4   5
HETATM    5  C   UNL     1     -11.009  11.013  66.484  1.00  0.00    -0.166 C  
HETATM    6 CL   UNL     1     -12.043  10.886  69.062  1.00  0.00    -0.332 Cl 
HETATM    7  C   UNL     1     -10.790  10.432  67.881  1.00  0.00    -0.279 C  
ENDBRANCH   4   5
BRANCH   4   8
HETATM    8  C   UNL     1     -10.880  13.421  67.242  1.00  0.00    -0.269 C  
HETATM    9  C   UNL     1     -11.979  14.163  67.479  1.00  0.00    -0.384 C  
HETATM   10  N   UNL     1     -12.085  15.082  68.487  1.00  0.00    -0.584 N  
HETATM   11  C   UNL     1     -11.101  15.337  69.387  1.00  0.00    -0.280 C  
HETATM   12  H   UNL     1     -12.955  15.608  68.566  1.00  0.00     0.000 HD 
HETATM   13  O   UNL     1     -11.228  16.174  70.275  1.00  0.00    -0.356 OA 
HETATM   14  N   UNL     1      -9.970  14.603  69.233  1.00  0.00    -0.391 N  
HETATM   15  C   UNL     1      -9.732  13.704  68.226  1.00  0.00    -0.231 C  
HETATM   16  H   UNL     1      -9.233  14.732  69.926  1.00  0.00     0.000 HD 
HETATM   17  O   UNL     1      -8.619  13.186  68.153  1.00  0.00    -0.169 OA 
ENDBRANCH   4   8
ENDBRANCH   3   4
TORSDOF 3
ENDMDL
MODEL       77
REMARK 921   NORMALIZED FREE ENERGY PREDICTED BY IDOCK:   -3.99 KCAL/MOL
REMARK 922        TOTAL FREE ENERGY PREDICTED BY IDOCK:   -5.14 KCAL/MOL
REMARK 923 INTER-LIGAND FREE ENERGY PREDICTED BY IDOCK:   -5.33 KCAL/MOL
REMARK 924 INTRA-LIGAND FREE ENERGY PREDICTED BY IDOCK:    0.19 KCAL/MOL
REMARK 927      BINDING AFFINITY PREDICTED BY RF-SCORE:    0.00 PKD
ROOT
HETATM    1 CL   UNL     1      -8.295  13.659  68.226  1.00  0.00    -0.161 Cl 
HETATM    2  C   UNL     1      -8.946  12.256  67.344  1.00  0.00    -0.183 C  
HETATM    3  C   UNL     1     -10.350  11.848  67.806  1.00  0.00    -0.198 C  
ENDROOT
BRANCH   3   4
HETATM    4  N   UNL     1     -11.358  12.939  67.788  1.00  0.00    -0.280 NA 
BRANCH   4   5
HETATM    5  C   UNL     1     -12.199  13.166  69.005  1.00  0.00    -0.073 C  
HETATM    6 CL   UNL     1     -11.791  15.800  69.796  1.00  0.00    -0.359 Cl 
HETATM    7  C   UNL     1     -11.714  14.057  70.149  1.00  0.00    -0.261 C  
ENDBRANCH   4   5
BRANCH   4   8
HETATM    8  C   UNL     1     -11.358  13.923  66.744  1.00  0.00    -0.333 C  
HETATM    9  C   UNL     1     -10.658  15.074  66.753  1.00  0.00    -0.301 C  
HETATM   10  N   UNL     1     -10.684  15.999  65.745  1.00  0.00    -0.325 N  
HETATM   11  C   UNL     1     -11.397  15.853  64.600  1.00  0.00    -0.322 C  
HETATM   12  H   UNL     1     -10.133  16.849  65.861  1.00  0.00     0.000 HD 
HETATM   13  O   UNL     1     -11.402  16.705  63.718  1.00  0.00    -0.917 OA 
HETATM   14  N   UNL     1     -12.107  14.699  64.502  1.00  0.00    -0.486 N  
HETATM   15  C   UNL     1     -12.204  13.737  65.473  1.00  0.00    -0.442 C  
HETATM   16  H   UNL     1     -12.610  14.534  63.631  1.00  0.00     0.000 HD 
HETATM   17  O   UNL     1     -12.967  12.790  65.286  1.00  0.00    -0.690 OA 
ENDBRANCH   4   8
ENDBRANCH   3   4
TORSDOF 3
ENDMDL
MODEL       78
REMARK 921   NORMALIZED FREE ENERGY PREDICTED BY IDOCK:   -3.97 KCAL/MOL
REMARK 922        TOTAL FREE ENERGY PREDICTED BY IDOCK:   -5.11 KCAL/MOL
REMARK 923 INTER-LIGAND FREE ENERGY PREDICTED BY IDOCK:   -4.63 KCAL/MOL
REMARK 924 INTRA-LIGAND FREE ENERGY PREDICTED BY IDOCK:   -0.48 KCAL/MOL
REMARK 927      BINDING AFFINITY PREDICTED BY RF-SCORE:    0.00 PKD
ROOT
HETATM    1 CL   UNL     1      -6.875  19.221  69.359  1.00  0.00    -0.341 Cl 
HETATM    2  C   UNL     1      -6.047  18.474  67.971  1.00  0.00    -0.192 C  
HETATM    3  C   UNL     1      -6.861  17.356  67.310  1.00  0.00    -0.168 C  
ENDROOT
BRANCH   3   4
HETATM    4  N   UNL     1      -8.236  17.740  66.901  1.00  0.00    -0.224 NA 
BRANCH   4   5
HETATM    5  C   UNL     1      -8.450  19.068  66.244  1.00  0.00    -0.280 C  
HETATM    6 CL   UNL     1     -10.260  20.472  67.821  1.00  0.00    -0.406 Cl 
HETATM    7  C   UNL     1      -9.820  19.747  66.256  1.00  0.00    -0.455 C  
ENDBRANCH   4   5
BRANCH   4   8
HETATM    8  C   UNL     1      -9.295  16.773  66.885  1.00  0.00    -0.236 C  
HETATM    9  C   UNL     1      -9.605  15.967  65.850  1.00  0.00    -0.335 C  
HETATM   10  N   UNL     1     -10.627  15.058  65.861  1.00  0.00    -0.312 N  
HETATM   11  C   UNL     1     -11.436  14.839  66.929  1.00  0.00    -0.347 C  
HETATM   12  H   UNL     1     -10.791  14.512  65.016  1.00  0.00     0.000 HD 
HETATM   13  O   UNL     1     -12.348  14.020  66.902  1.00  0.00    -0.418 OA 
HETATM   14  N   UNL     1     -11.165  15.594  68.025  1.00  0.00    -0.341 N  
HETATM   15  C   UNL     1     -10.211  16.574  68.104  1.00  0.00    -0.271 C  
HETATM   16  H   UNL     1     -11.720  15.415  68.862  1.00  0.00     0.000 HD 
HETATM   17  O   UNL     1     -10.147  17.248  69.131  1.00  0.00    -0.302 OA 
ENDBRANCH   4   8
ENDBRANCH   3   4
TORSDOF 3
ENDMDL
MODEL       79
REMARK 921   NORMALIZED FREE ENERGY PREDICTED BY IDOCK:   -3.95 KCAL/MOL
REMARK 922        TOTAL FREE ENERGY PREDICTED BY IDOCK:   -5.09 KCAL/MOL
REMARK 923 INTER-LIGAND FREE ENERGY PREDICTED BY IDOCK:   -4.79 KCAL/MOL
REMARK 924 INTRA-LIGAND FREE ENERGY PREDICTED BY IDOCK:   -0.31 KCAL/MOL
REMARK 927      BINDING AFFINITY PREDICTED BY RF-SCORE:    0.00 PKD
ROOT
HETATM    1 CL   UNL     1      -7.640  11.915  67.037  1.00  0.00    -0.151 Cl 
HETATM    2  C   UNL     1      -8.492  10.770  65.972  1.00  0.00    -0.169 C  
HETATM    3  C   UNL     1     -10.005  11.005  65.916  1.00  0.00    -0.240 C  
ENDROOT
BRANCH   3   4
HETATM    4  N   UNL     1     -10.412  12.387  65.559  1.00  0.00    -0.268 NA 
BRANCH   4   5
HETATM    5  C   UNL     1     -10.670  12.716  64.122  1.00  0.00    -0.406 C  
HETATM    6 CL   UNL     1     -12.392  14.899  64.081  1.00  0.00    -0.393 Cl 
HETATM    7  C   UNL     1     -12.040  13.207  63.653  1.00  0.00    -0.513 C  
ENDBRANCH   4   5
BRANCH   4   8
HETATM    8  C   UNL     1     -10.809  13.323  66.572  1.00  0.00    -0.281 C  
HETATM    9  C   UNL     1     -11.843  13.165  67.422  1.00  0.00    -0.361 C  
HETATM   10  N   UNL     1     -12.203  14.078  68.375  1.00  0.00    -0.541 N  
HETATM   11  C   UNL     1     -11.541  15.243  68.597  1.00  0.00    -0.354 C  
HETATM   12  H   UNL     1     -13.017  13.872  68.952  1.00  0.00     0.000 HD 
HETATM   13  O   UNL     1     -11.896  16.042  69.457  1.00  0.00    -0.319 OA 
HETATM   14  N   UNL     1     -10.464  15.459  67.799  1.00  0.00    -0.260 N  
HETATM   15  C   UNL     1     -10.053  14.647  66.775  1.00  0.00    -0.265 C  
HETATM   16  H   UNL     1      -9.914  16.299  67.977  1.00  0.00     0.000 HD 
HETATM   17  O   UNL     1      -9.119  15.021  66.068  1.00  0.00    -0.264 OA 
ENDBRANCH   4   8
ENDBRANCH   3   4
TORSDOF 3
ENDMDL
MODEL       80
REMARK 921   NORMALIZED FREE ENERGY PREDICTED BY IDOCK:   -3.95 KCAL/MOL
REMARK 922        TOTAL FREE ENERGY PREDICTED BY IDOCK:   -5.09 KCAL/MOL
REMARK 923 INTER-LIGAND FREE ENERGY PREDICTED BY IDOCK:   -4.64 KCAL/MOL
REMARK 924 INTRA-LIGAND FREE ENERGY PREDICTED BY IDOCK:   -0.45 KCAL/MOL
REMARK 927      BINDING AFFINITY PREDICTED BY RF-SCORE:    0.00 PKD
ROOT
HETATM    1 CL   UNL     1      -6.414  11.853  66.913  1.00  0.00    -0.132 Cl 
HETATM    2  C   UNL     1      -7.056  12.662  68.364  1.00  0.00    -0.101 C  
HETATM    3  C   UNL     1      -8.374  13.402  68.111  1.00  0.00    -0.164 C  
ENDROOT
BRANCH   3   4
HETATM    4  N   UNL     1      -9.450  12.578  67.504  1.00  0.00    -0.180 NA 
BRANCH   4   5
HETATM    5  C   UNL     1      -9.785  11.258  68.124  1.00  0.00    -0.185 C  
HETATM    6 CL   UNL     1      -9.032   9.290  66.309  1.00  0.00    -0.178 Cl 
HETATM    7  C   UNL     1     -10.294  10.090  67.278  1.00  0.00    -0.237 C  
ENDBRANCH   4   5
BRANCH   4   8
HETATM    8  C   UNL     1     -10.330  13.130  66.515  1.00  0.00    -0.283 C  
HETATM    9  C   UNL     1     -10.070  13.215  65.196  1.00  0.00    -0.223 C  
HETATM   10  N   UNL     1     -10.928  13.754  64.276  1.00  0.00    -0.579 N  
HETATM   11  C   UNL     1     -12.158  14.241  64.579  1.00  0.00    -0.480 C  
HETATM   12  H   UNL     1     -10.624  13.791  63.303  1.00  0.00     0.000 HD 
HETATM   13  O   UNL     1     -12.899  14.722  63.729  1.00  0.00    -0.671 OA 
HETATM   14  N   UNL     1     -12.506  14.159  65.889  1.00  0.00    -0.478 N  
HETATM   15  C   UNL     1     -11.705  13.700  66.902  1.00  0.00    -0.389 C  
HETATM   16  H   UNL     1     -13.446  14.467  66.141  1.00  0.00     0.000 HD 
HETATM   17  O   UNL     1     -12.118  13.780  68.058  1.00  0.00    -0.362 OA 
ENDBRANCH   4   8
ENDBRANCH   3   4
TORSDOF 3
ENDMDL
MODEL       81
REMARK 921   NORMALIZED FREE ENERGY PREDICTED BY IDOCK:   -3.95 KCAL/MOL
REMARK 922        TOTAL FREE ENERGY PREDICTED BY IDOCK:   -5.09 KCAL/MOL
REMARK 923 INTER-LIGAND FREE ENERGY PREDICTED BY IDOCK:   -5.37 KCAL/MOL
REMARK 924 INTRA-LIGAND FREE ENERGY PREDICTED BY IDOCK:    0.28 KCAL/MOL
REMARK 927      BINDING AFFINITY PREDICTED BY RF-SCORE:    0.00 PKD
ROOT
HETATM    1 CL   UNL     1      -6.757  17.602  66.848  1.00  0.00    -0.196 Cl 
HETATM    2  C   UNL     1      -8.018  18.834  66.595  1.00  0.00    -0.266 C  
HETATM    3  C   UNL     1      -9.304  18.268  65.985  1.00  0.00    -0.001 C  
ENDROOT
BRANCH   3   4
HETATM    4  N   UNL     1      -9.895  17.120  66.719  1.00  0.00    -0.272 NA 
BRANCH   4   5
HETATM    5  C   UNL     1     -10.653  17.384  67.983  1.00  0.00    -0.389 C  
HETATM    6 CL   UNL     1      -9.972  19.946  68.821  1.00  0.00    -0.494 Cl 
HETATM    7  C   UNL     1     -10.036  18.193  69.124  1.00  0.00    -0.189 C  
ENDBRANCH   4   5
BRANCH   4   8
HETATM    8  C   UNL     1      -9.973  15.821  66.115  1.00  0.00    -0.311 C  
HETATM    9  C   UNL     1      -9.397  14.700  66.591  1.00  0.00    -0.271 C  
HETATM   10  N   UNL     1      -9.484  13.475  65.989  1.00  0.00    -0.488 N  
HETATM   11  C   UNL     1     -10.187  13.236  64.852  1.00  0.00    -0.296 C  
HETATM   12  H   UNL     1      -8.991  12.694  66.420  1.00  0.00     0.000 HD 
HETATM   13  O   UNL     1     -10.238  12.125  64.336  1.00  0.00    -0.288 OA 
HETATM   14  N   UNL     1     -10.824  14.315  64.328  1.00  0.00    -0.574 N  
HETATM   15  C   UNL     1     -10.754  15.596  64.809  1.00  0.00    -0.276 C  
HETATM   16  H   UNL     1     -11.405  14.157  63.504  1.00  0.00     0.000 HD 
HETATM   17  O   UNL     1     -11.303  16.492  64.171  1.00  0.00    -1.060 OA 
ENDBRANCH   4   8
ENDBRANCH   3   4
TORSDOF 3
ENDMDL
MODEL       82
REMARK 921   NORMALIZED FREE ENERGY PREDICTED BY IDOCK:   -3.92 KCAL/MOL
REMARK 922        TOTAL FREE ENERGY PREDICTED BY IDOCK:   -5.05 KCAL/MOL
REMARK 923 INTER-LIGAND FREE ENERGY PREDICTED BY IDOCK:   -4.72 KCAL/MOL
REMARK 924 INTRA-LIGAND FREE ENERGY PREDICTED BY IDOCK:   -0.33 KCAL/MOL
REMARK 927      BINDING AFFINITY PREDICTED BY RF-SCORE:    0.00 PKD
ROOT
HETATM    1 CL   UNL     1     -11.068   6.771  70.227  1.00  0.00    -0.333 Cl 
HETATM    2  C   UNL     1     -10.727   7.499  71.816  1.00  0.00    -0.211 C  
HETATM    3  C   UNL     1     -10.674   9.031  71.781  1.00  0.00    -0.367 C  
ENDROOT
BRANCH   3   4
HETATM    4  N   UNL     1     -11.872   9.687  71.198  1.00  0.00    -0.338 NA 
BRANCH   4   5
HETATM    5  C   UNL     1     -13.151   9.677  71.976  1.00  0.00    -0.445 C  
HETATM    6 CL   UNL     1     -14.309   7.176  71.607  1.00  0.00    -0.557 Cl 
HETATM    7  C   UNL     1     -14.390   8.948  71.455  1.00  0.00    -0.189 C  
ENDBRANCH   4   5
BRANCH   4   8
HETATM    8  C   UNL     1     -11.759  10.538  70.049  1.00  0.00    -0.312 C  
HETATM    9  C   UNL     1     -11.382  10.144  68.817  1.00  0.00    -0.115 C  
HETATM   10  N   UNL     1     -11.277  10.981  67.739  1.00  0.00    -0.296 N  
HETATM   11  C   UNL     1     -11.568  12.306  67.777  1.00  0.00    -0.351 C  
HETATM   12  H   UNL     1     -10.961  10.584  66.855  1.00  0.00     0.000 HD 
HETATM   13  O   UNL     1     -11.456  13.028  66.792  1.00  0.00    -0.312 OA 
HETATM   14  N   UNL     1     -11.987  12.773  68.981  1.00  0.00    -0.277 N  
HETATM   15  C   UNL     1     -12.068  12.042  70.138  1.00  0.00    -0.298 C  
HETATM   16  H   UNL     1     -12.265  13.753  69.029  1.00  0.00     0.000 HD 
HETATM   17  O   UNL     1     -12.367  12.624  71.179  1.00  0.00    -0.314 OA 
ENDBRANCH   4   8
ENDBRANCH   3   4
TORSDOF 3
ENDMDL
MODEL       83
REMARK 921   NORMALIZED FREE ENERGY PREDICTED BY IDOCK:   -3.91 KCAL/MOL
REMARK 922        TOTAL FREE ENERGY PREDICTED BY IDOCK:   -5.05 KCAL/MOL
REMARK 923 INTER-LIGAND FREE ENERGY PREDICTED BY IDOCK:   -4.58 KCAL/MOL
REMARK 924 INTRA-LIGAND FREE ENERGY PREDICTED BY IDOCK:   -0.46 KCAL/MOL
REMARK 927      BINDING AFFINITY PREDICTED BY RF-SCORE:    0.00 PKD
ROOT
HETATM    1 CL   UNL     1      -9.918  12.984  66.076  1.00  0.00    -0.277 Cl 
HETATM    2  C   UNL     1     -10.637  14.607  65.938  1.00  0.00    -0.311 C  
HETATM    3  C   UNL     1     -11.606  14.939  67.078  1.00  0.00    -0.304 C  
ENDROOT
BRANCH   3   4
HETATM    4  N   UNL     1     -11.047  14.775  68.444  1.00  0.00    -0.253 NA 
BRANCH   4   5
HETATM    5  C   UNL     1     -10.089  15.803  68.960  1.00  0.00    -0.225 C  
HETATM    6 CL   UNL     1      -7.578  15.149  67.961  1.00  0.00    -0.116 Cl 
HETATM    7  C   UNL     1      -8.658  15.429  69.348  1.00  0.00    -0.249 C  
ENDBRANCH   4   5
BRANCH   4   8
HETATM    8  C   UNL     1     -11.599  13.814  69.354  1.00  0.00    -0.310 C  
HETATM    9  C   UNL     1     -11.344  12.491  69.345  1.00  0.00    -0.210 C  
HETATM   10  N   UNL     1     -11.890  11.596  70.224  1.00  0.00    -0.442 N  
HETATM   11  C   UNL     1     -12.735  11.939  71.230  1.00  0.00    -0.298 C  
HETATM   12  H   UNL     1     -11.648  10.611  70.116  1.00  0.00     0.000 HD 
HETATM   13  O   UNL     1     -13.211  11.108  71.996  1.00  0.00    -0.493 OA 
HETATM   14  N   UNL     1     -13.016  13.264  71.324  1.00  0.00    -0.306 N  
HETATM   15  C   UNL     1     -12.577  14.236  70.464  1.00  0.00    -0.353 C  
HETATM   16  H   UNL     1     -13.604  13.561  72.102  1.00  0.00     0.000 HD 
HETATM   17  O   UNL     1     -12.996  15.383  70.613  1.00  0.00    -0.435 OA 
ENDBRANCH   4   8
ENDBRANCH   3   4
TORSDOF 3
ENDMDL
MODEL       84
REMARK 921   NORMALIZED FREE ENERGY PREDICTED BY IDOCK:   -3.91 KCAL/MOL
REMARK 922        TOTAL FREE ENERGY PREDICTED BY IDOCK:   -5.04 KCAL/MOL
REMARK 923 INTER-LIGAND FREE ENERGY PREDICTED BY IDOCK:   -4.50 KCAL/MOL
REMARK 924 INTRA-LIGAND FREE ENERGY PREDICTED BY IDOCK:   -0.54 KCAL/MOL
REMARK 927      BINDING AFFINITY PREDICTED BY RF-SCORE:    0.00 PKD
ROOT
HETATM    1 CL   UNL     1     -10.075  11.191  69.149  1.00  0.00    -0.181 Cl 
HETATM    2  C   UNL     1     -11.661  11.985  69.300  1.00  0.00    -0.330 C  
HETATM    3  C   UNL     1     -11.678  13.415  68.748  1.00  0.00    -0.340 C  
ENDROOT
BRANCH   3   4
HETATM    4  N   UNL     1     -11.202  13.553  67.348  1.00  0.00    -0.285 NA 
BRANCH   4   5
HETATM    5  C   UNL     1     -11.832  12.708  66.285  1.00  0.00    -0.410 C  
HETATM    6 CL   UNL     1      -9.976  10.758  65.588  1.00  0.00    -0.300 Cl 
HETATM    7  C   UNL     1     -11.005  12.137  65.132  1.00  0.00    -0.310 C  
ENDBRANCH   4   5
BRANCH   4   8
HETATM    8  C   UNL     1     -10.353  14.642  66.963  1.00  0.00    -0.263 C  
HETATM    9  C   UNL     1     -10.765  15.892  66.674  1.00  0.00    -0.270 C  
HETATM   10  N   UNL     1      -9.931  16.911  66.302  1.00  0.00    -0.296 N  
HETATM   11  C   UNL     1      -8.582  16.792  66.208  1.00  0.00    -0.305 C  
HETATM   12  H   UNL     1     -10.348  17.815  66.083  1.00  0.00     0.000 HD 
HETATM   13  O   UNL     1      -7.865  17.726  65.865  1.00  0.00    -0.515 OA 
HETATM   14  N   UNL     1      -8.086  15.566  66.516  1.00  0.00    -0.334 N  
HETATM   15  C   UNL     1      -8.830  14.461  66.837  1.00  0.00    -0.223 C  
HETATM   16  H   UNL     1      -7.072  15.458  66.507  1.00  0.00     0.000 HD 
HETATM   17  O   UNL     1      -8.249  13.388  66.993  1.00  0.00    -0.142 OA 
ENDBRANCH   4   8
ENDBRANCH   3   4
TORSDOF 3
ENDMDL
MODEL       85
REMARK 921   NORMALIZED FREE ENERGY PREDICTED BY IDOCK:   -3.90 KCAL/MOL
REMARK 922        TOTAL FREE ENERGY PREDICTED BY IDOCK:   -5.03 KCAL/MOL
REMARK 923 INTER-LIGAND FREE ENERGY PREDICTED BY IDOCK:   -5.10 KCAL/MOL
REMARK 924 INTRA-LIGAND FREE ENERGY PREDICTED BY IDOCK:    0.07 KCAL/MOL
REMARK 927      BINDING AFFINITY PREDICTED BY RF-SCORE:    0.00 PKD
ROOT
HETATM    1 CL   UNL     1      -7.640  12.174  67.273  1.00  0.00    -0.153 Cl 
HETATM    2  C   UNL     1      -8.471  11.170  66.060  1.00  0.00    -0.138 C  
HETATM    3  C   UNL     1      -9.990  11.369  66.047  1.00  0.00    -0.231 C  
ENDROOT
BRANCH   3   4
HETATM    4  N   UNL     1     -10.437  12.777  65.893  1.00  0.00    -0.271 NA 
BRANCH   4   5
HETATM    5  C   UNL     1     -10.651  13.321  64.515  1.00  0.00    -0.419 C  
HETATM    6 CL   UNL     1     -12.771  11.907  63.401  1.00  0.00    -0.655 Cl 
HETATM    7  C   UNL     1     -11.063  12.410  63.358  1.00  0.00    -0.402 C  
ENDBRANCH   4   5
BRANCH   4   8
HETATM    8  C   UNL     1     -10.909  13.527  67.021  1.00  0.00    -0.282 C  
HETATM    9  C   UNL     1     -10.708  14.844  67.224  1.00  0.00    -0.294 C  
HETATM   10  N   UNL     1     -11.165  15.533  68.315  1.00  0.00    -0.328 N  
HETATM   11  C   UNL     1     -11.901  14.976  69.310  1.00  0.00    -0.315 C  
HETATM   12  H   UNL     1     -10.939  16.524  68.384  1.00  0.00     0.000 HD 
HETATM   13  O   UNL     1     -12.290  15.622  70.277  1.00  0.00    -0.400 OA 
HETATM   14  N   UNL     1     -12.173  13.654  69.159  1.00  0.00    -0.307 N  
HETATM   15  C   UNL     1     -11.715  12.855  68.145  1.00  0.00    -0.352 C  
HETATM   16  H   UNL     1     -12.770  13.218  69.862  1.00  0.00     0.000 HD 
HETATM   17  O   UNL     1     -11.958  11.650  68.192  1.00  0.00    -0.550 OA 
ENDBRANCH   4   8
ENDBRANCH   3   4
TORSDOF 3
ENDMDL
MODEL       86
REMARK 921   NORMALIZED FREE ENERGY PREDICTED BY IDOCK:   -3.90 KCAL/MOL
REMARK 922        TOTAL FREE ENERGY PREDICTED BY IDOCK:   -5.03 KCAL/MOL
REMARK 923 INTER-LIGAND FREE ENERGY PREDICTED BY IDOCK:   -4.73 KCAL/MOL
REMARK 924 INTRA-LIGAND FREE ENERGY PREDICTED BY IDOCK:   -0.30 KCAL/MOL
REMARK 927      BINDING AFFINITY PREDICTED BY RF-SCORE:    0.00 PKD
ROOT
HETATM    1 CL   UNL     1      -8.564  16.001  67.435  1.00  0.00    -0.186 Cl 
HETATM    2  C   UNL     1      -8.193  14.262  67.539  1.00  0.00    -0.189 C  
HETATM    3  C   UNL     1      -9.156  13.490  68.446  1.00  0.00    -0.155 C  
ENDROOT
BRANCH   3   4
HETATM    4  N   UNL     1     -10.596  13.656  68.120  1.00  0.00    -0.241 NA 
BRANCH   4   5
HETATM    5  C   UNL     1     -11.115  13.086  66.837  1.00  0.00    -0.277 C  
HETATM    6 CL   UNL     1     -10.775  10.330  66.974  1.00  0.00    -0.304 Cl 
HETATM    7  C   UNL     1     -10.442  11.884  66.172  1.00  0.00    -0.237 C  
ENDBRANCH   4   5
BRANCH   4   8
HETATM    8  C   UNL     1     -11.527  14.113  69.110  1.00  0.00    -0.296 C  
HETATM    9  C   UNL     1     -12.101  13.346  70.058  1.00  0.00    -0.334 C  
HETATM   10  N   UNL     1     -12.993  13.809  70.986  1.00  0.00    -0.286 N  
HETATM   11  C   UNL     1     -13.386  15.105  71.081  1.00  0.00    -0.467 C  
HETATM   12  H   UNL     1     -13.386  13.139  71.647  1.00  0.00     0.000 HD 
HETATM   13  O   UNL     1     -14.193  15.483  71.923  1.00  0.00    -0.503 OA 
HETATM   14  N   UNL     1     -12.824  15.948  70.177  1.00  0.00    -0.659 N  
HETATM   15  C   UNL     1     -11.973  15.584  69.167  1.00  0.00    -0.309 C  
HETATM   16  H   UNL     1     -13.057  16.937  70.256  1.00  0.00     0.000 HD 
HETATM   17  O   UNL     1     -11.622  16.442  68.358  1.00  0.00    -0.286 OA 
ENDBRANCH   4   8
ENDBRANCH   3   4
TORSDOF 3
ENDMDL
MODEL       87
REMARK 921   NORMALIZED FREE ENERGY PREDICTED BY IDOCK:   -3.89 KCAL/MOL
REMARK 922        TOTAL FREE ENERGY PREDICTED BY IDOCK:   -5.01 KCAL/MOL
REMARK 923 INTER-LIGAND FREE ENERGY PREDICTED BY IDOCK:   -4.72 KCAL/MOL
REMARK 924 INTRA-LIGAND FREE ENERGY PREDICTED BY IDOCK:   -0.30 KCAL/MOL
REMARK 927      BINDING AFFINITY PREDICTED BY RF-SCORE:    0.00 PKD
ROOT
HETATM    1 CL   UNL     1     -12.720  12.905  63.843  1.00  0.00    -0.280 Cl 
HETATM    2  C   UNL     1     -11.235  12.029  64.288  1.00  0.00    -0.357 C  
HETATM    3  C   UNL     1     -10.045  12.955  64.564  1.00  0.00    -0.235 C  
ENDROOT
BRANCH   3   4
HETATM    4  N   UNL     1     -10.297  14.017  65.571  1.00  0.00    -0.322 NA 
BRANCH   4   5
HETATM    5  C   UNL     1     -10.354  15.443  65.118  1.00  0.00    -0.374 C  
HETATM    6 CL   UNL     1      -8.114  16.719  66.160  1.00  0.00    -0.352 Cl 
HETATM    7  C   UNL     1      -9.884  16.583  66.022  1.00  0.00    -0.322 C  
ENDBRANCH   4   5
BRANCH   4   8
HETATM    8  C   UNL     1     -10.738  13.687  66.895  1.00  0.00    -0.275 C  
HETATM    9  C   UNL     1     -11.912  14.056  67.445  1.00  0.00    -0.404 C  
HETATM   10  N   UNL     1     -12.303  13.731  68.715  1.00  0.00    -0.394 N  
HETATM   11  C   UNL     1     -11.565  12.973  69.566  1.00  0.00    -0.276 C  
HETATM   12  H   UNL     1     -13.203  14.081  69.042  1.00  0.00     0.000 HD 
HETATM   13  O   UNL     1     -11.945  12.707  70.701  1.00  0.00    -0.303 OA 
HETATM   14  N   UNL     1     -10.379  12.535  69.071  1.00  0.00    -0.433 N  
HETATM   15  C   UNL     1      -9.861  12.850  67.842  1.00  0.00    -0.227 C  
HETATM   16  H   UNL     1      -9.826  11.918  69.665  1.00  0.00     0.000 HD 
HETATM   17  O   UNL     1      -8.726  12.464  67.568  1.00  0.00    -0.161 OA 
ENDBRANCH   4   8
ENDBRANCH   3   4
TORSDOF 3
ENDMDL
MODEL       88
REMARK 921   NORMALIZED FREE ENERGY PREDICTED BY IDOCK:   -3.87 KCAL/MOL
REMARK 922        TOTAL FREE ENERGY PREDICTED BY IDOCK:   -4.99 KCAL/MOL
REMARK 923 INTER-LIGAND FREE ENERGY PREDICTED BY IDOCK:   -4.70 KCAL/MOL
REMARK 924 INTRA-LIGAND FREE ENERGY PREDICTED BY IDOCK:   -0.29 KCAL/MOL
REMARK 927      BINDING AFFINITY PREDICTED BY RF-SCORE:    0.00 PKD
ROOT
HETATM    1 CL   UNL     1     -10.698  14.783  65.013  1.00  0.00    -0.423 Cl 
HETATM    2  C   UNL     1     -12.140  13.919  65.601  1.00  0.00    -0.421 C  
HETATM    3  C   UNL     1     -11.822  12.541  66.191  1.00  0.00    -0.397 C  
ENDROOT
BRANCH   3   4
HETATM    4  N   UNL     1     -10.790  12.538  67.259  1.00  0.00    -0.239 NA 
BRANCH   4   5
HETATM    5  C   UNL     1      -9.409  12.064  66.928  1.00  0.00    -0.200 C  
HETATM    6 CL   UNL     1      -9.684   9.739  65.429  1.00  0.00    -0.372 Cl 
HETATM    7  C   UNL     1      -9.073  10.573  66.878  1.00  0.00    -0.147 C  
ENDBRANCH   4   5
BRANCH   4   8
HETATM    8  C   UNL     1     -11.018  13.213  68.504  1.00  0.00    -0.263 C  
HETATM    9  C   UNL     1     -11.844  12.793  69.482  1.00  0.00    -0.316 C  
HETATM   10  N   UNL     1     -12.047  13.463  70.659  1.00  0.00    -0.483 N  
HETATM   11  C   UNL     1     -11.415  14.617  70.993  1.00  0.00    -0.161 C  
HETATM   12  H   UNL     1     -12.712  13.070  71.324  1.00  0.00     0.000 HD 
HETATM   13  O   UNL     1     -11.626  15.193  72.055  1.00  0.00    -0.407 OA 
HETATM   14  N   UNL     1     -10.539  15.087  70.069  1.00  0.00    -0.437 N  
HETATM   15  C   UNL     1     -10.306  14.536  68.836  1.00  0.00    -0.237 C  
HETATM   16  H   UNL     1     -10.009  15.923  70.313  1.00  0.00     0.000 HD 
HETATM   17  O   UNL     1      -9.559  15.129  68.061  1.00  0.00    -0.201 OA 
ENDBRANCH   4   8
ENDBRANCH   3   4
TORSDOF 3
ENDMDL
MODEL       89
REMARK 921   NORMALIZED FREE ENERGY PREDICTED BY IDOCK:   -3.86 KCAL/MOL
REMARK 922        TOTAL FREE ENERGY PREDICTED BY IDOCK:   -4.98 KCAL/MOL
REMARK 923 INTER-LIGAND FREE ENERGY PREDICTED BY IDOCK:   -4.82 KCAL/MOL
REMARK 924 INTRA-LIGAND FREE ENERGY PREDICTED BY IDOCK:   -0.17 KCAL/MOL
REMARK 927      BINDING AFFINITY PREDICTED BY RF-SCORE:    0.00 PKD
ROOT
HETATM    1 CL   UNL     1     -10.063  15.334  65.667  1.00  0.00    -0.372 Cl 
HETATM    2  C   UNL     1     -11.093  15.057  67.093  1.00  0.00    -0.332 C  
HETATM    3  C   UNL     1     -12.284  14.134  66.811  1.00  0.00    -0.394 C  
ENDROOT
BRANCH   3   4
HETATM    4  N   UNL     1     -11.933  12.823  66.209  1.00  0.00    -0.473 NA 
BRANCH   4   5
HETATM    5  C   UNL     1     -12.468  12.484  64.852  1.00  0.00    -0.450 C  
HETATM    6 CL   UNL     1     -10.277  12.021  63.204  1.00  0.00    -0.379 Cl 
HETATM    7  C   UNL     1     -11.754  12.942  63.580  1.00  0.00    -0.508 C  
ENDBRANCH   4   5
BRANCH   4   8
HETATM    8  C   UNL     1     -10.901  12.005  66.777  1.00  0.00    -0.266 C  
HETATM    9  C   UNL     1      -9.639  11.903  66.314  1.00  0.00    -0.229 C  
HETATM   10  N   UNL     1      -8.676  11.107  66.874  1.00  0.00    -0.148 N  
HETATM   11  C   UNL     1      -8.870  10.346  67.981  1.00  0.00    -0.130 C  
HETATM   12  H   UNL     1      -7.758  11.085  66.432  1.00  0.00     0.000 HD 
HETATM   13  O   UNL     1      -7.985   9.640  68.452  1.00  0.00    -0.095 OA 
HETATM   14  N   UNL     1     -10.112  10.421  68.526  1.00  0.00    -0.164 N  
HETATM   15  C   UNL     1     -11.166  11.132  68.015  1.00  0.00    -0.296 C  
HETATM   16  H   UNL     1     -10.273   9.904  69.389  1.00  0.00     0.000 HD 
HETATM   17  O   UNL     1     -12.264  11.025  68.560  1.00  0.00    -0.582 OA 
ENDBRANCH   4   8
ENDBRANCH   3   4
TORSDOF 3
ENDMDL
MODEL       90
REMARK 921   NORMALIZED FREE ENERGY PREDICTED BY IDOCK:   -3.86 KCAL/MOL
REMARK 922        TOTAL FREE ENERGY PREDICTED BY IDOCK:   -4.98 KCAL/MOL
REMARK 923 INTER-LIGAND FREE ENERGY PREDICTED BY IDOCK:   -4.93 KCAL/MOL
REMARK 924 INTRA-LIGAND FREE ENERGY PREDICTED BY IDOCK:   -0.05 KCAL/MOL
REMARK 927      BINDING AFFINITY PREDICTED BY RF-SCORE:    0.00 PKD
ROOT
HETATM    1 CL   UNL     1      -8.361  12.073  68.508  1.00  0.00    -0.137 Cl 
HETATM    2  C   UNL     1      -8.705  13.591  67.642  1.00  0.00    -0.194 C  
HETATM    3  C   UNL     1      -9.359  13.372  66.273  1.00  0.00    -0.121 C  
ENDROOT
BRANCH   3   4
HETATM    4  N   UNL     1     -10.588  12.538  66.291  1.00  0.00    -0.245 NA 
BRANCH   4   5
HETATM    5  C   UNL     1     -11.884  13.153  65.862  1.00  0.00    -0.406 C  
HETATM    6 CL   UNL     1     -12.593  11.959  63.453  1.00  0.00    -0.674 Cl 
HETATM    7  C   UNL     1     -12.186  13.419  64.386  1.00  0.00    -0.389 C  
ENDBRANCH   4   5
BRANCH   4   8
HETATM    8  C   UNL     1     -10.511  11.116  66.457  1.00  0.00    -0.255 C  
HETATM    9  C   UNL     1      -9.840  10.269  65.652  1.00  0.00    -0.268 C  
HETATM   10  N   UNL     1      -9.790   8.913  65.832  1.00  0.00    -0.452 N  
HETATM   11  C   UNL     1     -10.387   8.262  66.862  1.00  0.00    -0.320 C  
HETATM   12  H   UNL     1      -9.272   8.359  65.150  1.00  0.00     0.000 HD 
HETATM   13  O   UNL     1     -10.326   7.043  66.989  1.00  0.00    -0.233 OA 
HETATM   14  N   UNL     1     -11.057   9.054  67.738  1.00  0.00    -0.456 N  
HETATM   15  C   UNL     1     -11.226  10.409  67.621  1.00  0.00    -0.213 C  
HETATM   16  H   UNL     1     -11.471   8.601  68.552  1.00  0.00     0.000 HD 
HETATM   17  O   UNL     1     -11.946  10.982  68.437  1.00  0.00    -0.565 OA 
ENDBRANCH   4   8
ENDBRANCH   3   4
TORSDOF 3
ENDMDL
MODEL       91
REMARK 921   NORMALIZED FREE ENERGY PREDICTED BY IDOCK:   -3.85 KCAL/MOL
REMARK 922        TOTAL FREE ENERGY PREDICTED BY IDOCK:   -4.97 KCAL/MOL
REMARK 923 INTER-LIGAND FREE ENERGY PREDICTED BY IDOCK:   -4.59 KCAL/MOL
REMARK 924 INTRA-LIGAND FREE ENERGY PREDICTED BY IDOCK:   -0.37 KCAL/MOL
REMARK 927      BINDING AFFINITY PREDICTED BY RF-SCORE:    0.00 PKD
ROOT
HETATM    1 CL   UNL     1     -11.697  10.860  68.971  1.00  0.00    -0.379 Cl 
HETATM    2  C   UNL     1     -10.627   9.537  68.446  1.00  0.00    -0.219 C  
HETATM    3  C   UNL     1     -10.286   9.590  66.952  1.00  0.00    -0.249 C  
ENDROOT
BRANCH   3   4
HETATM    4  N   UNL     1      -9.722  10.881  66.483  1.00  0.00    -0.193 NA 
BRANCH   4   5
HETATM    5  C   UNL     1      -8.248  11.113  66.607  1.00  0.00    -0.158 C  
HETATM    6 CL   UNL     1      -7.604  10.837  69.298  1.00  0.00    -0.133 Cl 
HETATM    7  C   UNL     1      -7.657  11.830  67.822  1.00  0.00    -0.127 C  
ENDBRANCH   4   5
BRANCH   4   8
HETATM    8  C   UNL     1     -10.506  11.784  65.691  1.00  0.00    -0.265 C  
HETATM    9  C   UNL     1     -10.862  11.591  64.406  1.00  0.00    -0.342 C  
HETATM   10  N   UNL     1     -11.607  12.474  63.673  1.00  0.00    -0.464 N  
HETATM   11  C   UNL     1     -12.102  13.639  64.163  1.00  0.00    -0.435 C  
HETATM   12  H   UNL     1     -11.802  12.242  62.699  1.00  0.00     0.000 HD 
HETATM   13  O   UNL     1     -12.761  14.410  63.474  1.00  0.00    -0.742 OA 
HETATM   14  N   UNL     1     -11.811  13.889  65.465  1.00  0.00    -0.346 N  
HETATM   15  C   UNL     1     -11.025  13.110  66.272  1.00  0.00    -0.280 C  
HETATM   16  H   UNL     1     -12.214  14.730  65.878  1.00  0.00     0.000 HD 
HETATM   17  O   UNL     1     -10.764  13.515  67.404  1.00  0.00    -0.259 OA 
ENDBRANCH   4   8
ENDBRANCH   3   4
TORSDOF 3
ENDMDL
MODEL       92
REMARK 921   NORMALIZED FREE ENERGY PREDICTED BY IDOCK:   -3.85 KCAL/MOL
REMARK 922        TOTAL FREE ENERGY PREDICTED BY IDOCK:   -4.97 KCAL/MOL
REMARK 923 INTER-LIGAND FREE ENERGY PREDICTED BY IDOCK:   -4.50 KCAL/MOL
REMARK 924 INTRA-LIGAND FREE ENERGY PREDICTED BY IDOCK:   -0.47 KCAL/MOL
REMARK 927      BINDING AFFINITY PREDICTED BY RF-SCORE:    0.00 PKD
ROOT
HETATM    1 CL   UNL     1     -11.220   6.140  69.340  1.00  0.00    -0.484 Cl 
HETATM    2  C   UNL     1     -10.524   7.256  68.139  1.00  0.00    -0.198 C  
HETATM    3  C   UNL     1     -10.892   8.722  68.390  1.00  0.00     0.034 C  
ENDROOT
BRANCH   3   4
HETATM    4  N   UNL     1     -10.579   9.224  69.752  1.00  0.00    -0.223 NA 
BRANCH   4   5
HETATM    5  C   UNL     1      -9.232   8.935  70.336  1.00  0.00    -0.194 C  
HETATM    6 CL   UNL     1      -9.607   7.073  72.368  1.00  0.00    -0.160 Cl 
HETATM    7  C   UNL     1      -9.054   8.679  71.833  1.00  0.00    -0.256 C  
ENDBRANCH   4   5
BRANCH   4   8
HETATM    8  C   UNL     1     -11.429  10.183  70.397  1.00  0.00    -0.322 C  
HETATM    9  C   UNL     1     -11.434  11.509  70.160  1.00  0.00    -0.170 C  
HETATM   10  N   UNL     1     -12.253  12.401  70.796  1.00  0.00    -0.440 N  
HETATM   11  C   UNL     1     -13.180  12.052  71.724  1.00  0.00    -0.317 C  
HETATM   12  H   UNL     1     -12.161  13.389  70.559  1.00  0.00     0.000 HD 
HETATM   13  O   UNL     1     -13.894  12.881  72.280  1.00  0.00    -0.503 OA 
HETATM   14  N   UNL     1     -13.257  10.724  71.995  1.00  0.00    -0.546 N  
HETATM   15  C   UNL     1     -12.448   9.753  71.467  1.00  0.00    -0.403 C  
HETATM   16  H   UNL     1     -13.981  10.423  72.647  1.00  0.00     0.000 HD 
HETATM   17  O   UNL     1     -12.566   8.601  71.881  1.00  0.00    -0.317 OA 
ENDBRANCH   4   8
ENDBRANCH   3   4
TORSDOF 3
ENDMDL
MODEL       93
REMARK 921   NORMALIZED FREE ENERGY PREDICTED BY IDOCK:   -3.84 KCAL/MOL
REMARK 922        TOTAL FREE ENERGY PREDICTED BY IDOCK:   -4.96 KCAL/MOL
REMARK 923 INTER-LIGAND FREE ENERGY PREDICTED BY IDOCK:   -5.13 KCAL/MOL
REMARK 924 INTRA-LIGAND FREE ENERGY PREDICTED BY IDOCK:    0.17 KCAL/MOL
REMARK 927      BINDING AFFINITY PREDICTED BY RF-SCORE:    0.00 PKD
ROOT
HETATM    1 CL   UNL     1      -7.663  15.271  67.090  1.00  0.00    -0.242 Cl 
HETATM    2  C   UNL     1      -8.452  13.721  67.475  1.00  0.00    -0.196 C  
HETATM    3  C   UNL     1      -9.808  13.887  68.168  1.00  0.00    -0.240 C  
ENDROOT
BRANCH   3   4
HETATM    4  N   UNL     1     -10.777  14.755  67.450  1.00  0.00    -0.275 NA 
BRANCH   4   5
HETATM    5  C   UNL     1     -12.091  14.175  67.028  1.00  0.00    -0.414 C  
HETATM    6 CL   UNL     1     -11.542  12.206  65.142  1.00  0.00    -0.387 Cl 
HETATM    7  C   UNL     1     -12.336  13.737  65.583  1.00  0.00    -0.482 C  
ENDBRANCH   4   5
BRANCH   4   8
HETATM    8  C   UNL     1     -10.589  16.175  67.390  1.00  0.00    -0.311 C  
HETATM    9  C   UNL     1     -10.364  16.888  66.268  1.00  0.00    -0.308 C  
HETATM   10  N   UNL     1     -10.181  18.244  66.242  1.00  0.00    -0.395 N  
HETATM   11  C   UNL     1     -10.233  19.038  67.341  1.00  0.00    -0.394 C  
HETATM   12  H   UNL     1      -9.994  18.684  65.341  1.00  0.00     0.000 HD 
HETATM   13  O   UNL     1     -10.058  20.251  67.281  1.00  0.00    -0.419 OA 
HETATM   14  N   UNL     1     -10.488  18.395  68.509  1.00  0.00    -0.373 N  
HETATM   15  C   UNL     1     -10.624  17.040  68.662  1.00  0.00    -0.362 C  
HETATM   16  H   UNL     1     -10.587  18.970  69.346  1.00  0.00     0.000 HD 
HETATM   17  O   UNL     1     -10.752  16.587  69.798  1.00  0.00    -0.328 OA 
ENDBRANCH   4   8
ENDBRANCH   3   4
TORSDOF 3
ENDMDL
MODEL       94
REMARK 921   NORMALIZED FREE ENERGY PREDICTED BY IDOCK:   -3.84 KCAL/MOL
REMARK 922        TOTAL FREE ENERGY PREDICTED BY IDOCK:   -4.96 KCAL/MOL
REMARK 923 INTER-LIGAND FREE ENERGY PREDICTED BY IDOCK:   -5.14 KCAL/MOL
REMARK 924 INTRA-LIGAND FREE ENERGY PREDICTED BY IDOCK:    0.19 KCAL/MOL
REMARK 927      BINDING AFFINITY PREDICTED BY RF-SCORE:    0.00 PKD
ROOT
HETATM    1 CL   UNL     1      -7.955  12.730  67.208  1.00  0.00    -0.173 Cl 
HETATM    2  C   UNL     1      -8.327  11.250  68.127  1.00  0.00    -0.143 C  
HETATM    3  C   UNL     1      -9.668  10.618  67.739  1.00  0.00    -0.161 C  
ENDROOT
BRANCH   3   4
HETATM    4  N   UNL     1      -9.835  10.339  66.290  1.00  0.00    -0.208 NA 
BRANCH   4   5
HETATM    5  C   UNL     1      -9.457   8.989  65.765  1.00  0.00    -0.236 C  
HETATM    6 CL   UNL     1     -10.923   7.116  67.205  1.00  0.00    -0.402 Cl 
HETATM    7  C   UNL     1      -9.352   7.778  66.693  1.00  0.00    -0.188 C  
ENDBRANCH   4   5
BRANCH   4   8
HETATM    8  C   UNL     1     -10.581  11.232  65.450  1.00  0.00    -0.250 C  
HETATM    9  C   UNL     1     -11.463  12.156  65.878  1.00  0.00    -0.363 C  
HETATM   10  N   UNL     1     -12.166  12.990  65.052  1.00  0.00    -0.425 N  
HETATM   11  C   UNL     1     -12.037  13.005  63.701  1.00  0.00    -0.531 C  
HETATM   12  H   UNL     1     -12.826  13.640  65.478  1.00  0.00     0.000 HD 
HETATM   13  O   UNL     1     -12.688  13.763  62.990  1.00  0.00    -0.671 OA 
HETATM   14  N   UNL     1     -11.139  12.120  63.195  1.00  0.00    -0.699 N  
HETATM   15  C   UNL     1     -10.431  11.199  63.920  1.00  0.00    -0.381 C  
HETATM   16  H   UNL     1     -10.980  12.144  62.188  1.00  0.00     0.000 HD 
HETATM   17  O   UNL     1      -9.728  10.391  63.314  1.00  0.00    -0.313 OA 
ENDBRANCH   4   8
ENDBRANCH   3   4
TORSDOF 3
ENDMDL
MODEL       95
REMARK 921   NORMALIZED FREE ENERGY PREDICTED BY IDOCK:   -3.84 KCAL/MOL
REMARK 922        TOTAL FREE ENERGY PREDICTED BY IDOCK:   -4.96 KCAL/MOL
REMARK 923 INTER-LIGAND FREE ENERGY PREDICTED BY IDOCK:   -4.53 KCAL/MOL
REMARK 924 INTRA-LIGAND FREE ENERGY PREDICTED BY IDOCK:   -0.43 KCAL/MOL
REMARK 927      BINDING AFFINITY PREDICTED BY RF-SCORE:    0.00 PKD
ROOT
HETATM    1 CL   UNL     1      -7.758   8.120  64.054  1.00  0.00    -0.130 Cl 
HETATM    2  C   UNL     1      -6.946   9.034  65.350  1.00  0.00    -0.080 C  
HETATM    3  C   UNL     1      -7.583  10.402  65.616  1.00  0.00    -0.150 C  
ENDROOT
BRANCH   3   4
HETATM    4  N   UNL     1      -9.043  10.372  65.890  1.00  0.00    -0.159 NA 
BRANCH   4   5
HETATM    5  C   UNL     1      -9.527   9.742  67.158  1.00  0.00    -0.154 C  
HETATM    6 CL   UNL     1      -9.838   7.026  66.651  1.00  0.00    -0.239 Cl 
HETATM    7  C   UNL     1     -10.533   8.591  67.138  1.00  0.00    -0.299 C  
ENDBRANCH   4   5
BRANCH   4   8
HETATM    8  C   UNL     1      -9.955  11.151  65.104  1.00  0.00    -0.272 C  
HETATM    9  C   UNL     1     -10.328  10.879  63.838  1.00  0.00    -0.329 C  
HETATM   10  N   UNL     1     -11.197  11.645  63.109  1.00  0.00    -0.795 N  
HETATM   11  C   UNL     1     -11.809  12.759  63.586  1.00  0.00    -0.532 C  
HETATM   12  H   UNL     1     -11.396  11.362  62.150  1.00  0.00     0.000 HD 
HETATM   13  O   UNL     1     -12.578  13.426  62.902  1.00  0.00    -0.576 OA 
HETATM   14  N   UNL     1     -11.507  13.081  64.870  1.00  0.00    -0.306 N  
HETATM   15  C   UNL     1     -10.607  12.425  65.668  1.00  0.00    -0.265 C  
HETATM   16  H   UNL     1     -11.993  13.881  65.276  1.00  0.00     0.000 HD 
HETATM   17  O   UNL     1     -10.358  12.892  66.778  1.00  0.00    -0.241 OA 
ENDBRANCH   4   8
ENDBRANCH   3   4
TORSDOF 3
ENDMDL
MODEL       96
REMARK 921   NORMALIZED FREE ENERGY PREDICTED BY IDOCK:   -3.82 KCAL/MOL
REMARK 922        TOTAL FREE ENERGY PREDICTED BY IDOCK:   -4.94 KCAL/MOL
REMARK 923 INTER-LIGAND FREE ENERGY PREDICTED BY IDOCK:   -4.58 KCAL/MOL
REMARK 924 INTRA-LIGAND FREE ENERGY PREDICTED BY IDOCK:   -0.35 KCAL/MOL
REMARK 927      BINDING AFFINITY PREDICTED BY RF-SCORE:    0.00 PKD
ROOT
HETATM    1 CL   UNL     1     -11.664  14.820  71.050  1.00  0.00    -0.362 Cl 
HETATM    2  C   UNL     1     -12.019  13.539  69.865  1.00  0.00    -0.348 C  
HETATM    3  C   UNL     1     -11.910  14.011  68.411  1.00  0.00    -0.362 C  
ENDROOT
BRANCH   3   4
HETATM    4  N   UNL     1     -10.619  14.652  68.055  1.00  0.00    -0.238 NA 
BRANCH   4   5
HETATM    5  C   UNL     1      -9.356  13.861  68.200  1.00  0.00    -0.203 C  
HETATM    6 CL   UNL     1      -9.319  11.999  66.134  1.00  0.00    -0.231 Cl 
HETATM    7  C   UNL     1      -9.314  12.367  67.877  1.00  0.00    -0.195 C  
ENDBRANCH   4   5
BRANCH   4   8
HETATM    8  C   UNL     1     -10.585  15.896  67.342  1.00  0.00    -0.315 C  
HETATM    9  C   UNL     1     -10.694  16.037  66.006  1.00  0.00    -0.267 C  
HETATM   10  N   UNL     1     -10.652  17.238  65.353  1.00  0.00    -0.193 N  
HETATM   11  C   UNL     1     -10.525  18.437  65.977  1.00  0.00    -0.374 C  
HETATM   12  H   UNL     1     -10.722  17.232  64.336  1.00  0.00     0.000 HD 
HETATM   13  O   UNL     1     -10.485  19.495  65.358  1.00  0.00    -0.439 OA 
HETATM   14  N   UNL     1     -10.441  18.380  67.331  1.00  0.00    -0.401 N  
HETATM   15  C   UNL     1     -10.408  17.234  68.081  1.00  0.00    -0.357 C  
HETATM   16  H   UNL     1     -10.399  19.267  67.833  1.00  0.00     0.000 HD 
HETATM   17  O   UNL     1     -10.227  17.332  69.294  1.00  0.00    -0.296 OA 
ENDBRANCH   4   8
ENDBRANCH   3   4
TORSDOF 3
ENDMDL
MODEL       97
REMARK 921   NORMALIZED FREE ENERGY PREDICTED BY IDOCK:   -3.82 KCAL/MOL
REMARK 922        TOTAL FREE ENERGY PREDICTED BY IDOCK:   -4.93 KCAL/MOL
REMARK 923 INTER-LIGAND FREE ENERGY PREDICTED BY IDOCK:   -4.58 KCAL/MOL
REMARK 924 INTRA-LIGAND FREE ENERGY PREDICTED BY IDOCK:   -0.36 KCAL/MOL
REMARK 927      BINDING AFFINITY PREDICTED BY RF-SCORE:    0.00 PKD
ROOT
HETATM    1 CL   UNL     1     -12.169  13.979  66.142  1.00  0.00    -0.472 Cl 
HETATM    2  C   UNL     1     -10.430  14.227  65.851  1.00  0.00    -0.307 C  
HETATM    3  C   UNL     1      -9.536  13.452  66.825  1.00  0.00    -0.261 C  
ENDROOT
BRANCH   3   4
HETATM    4  N   UNL     1      -9.807  11.994  66.902  1.00  0.00    -0.202 NA 
BRANCH   4   5
HETATM    5  C   UNL     1      -9.224  11.094  65.858  1.00  0.00    -0.206 C  
HETATM    6 CL   UNL     1     -10.604  11.587  63.494  1.00  0.00    -0.460 Cl 
HETATM    7  C   UNL     1     -10.100  10.459  64.777  1.00  0.00    -0.317 C  
ENDBRANCH   4   5
BRANCH   4   8
HETATM    8  C   UNL     1     -10.387  11.414  68.079  1.00  0.00    -0.184 C  
HETATM    9  C   UNL     1     -11.692  11.457  68.411  1.00  0.00    -0.303 C  
HETATM   10  N   UNL     1     -12.216  10.900  69.546  1.00  0.00    -0.454 N  
HETATM   11  C   UNL     1     -11.486  10.211  70.460  1.00  0.00    -0.337 C  
HETATM   12  H   UNL     1     -13.216  11.009  69.715  1.00  0.00     0.000 HD 
HETATM   13  O   UNL     1     -11.989   9.730  71.470  1.00  0.00    -0.371 OA 
HETATM   14  N   UNL     1     -10.163  10.097  70.177  1.00  0.00    -0.396 N  
HETATM   15  C   UNL     1      -9.523  10.666  69.108  1.00  0.00    -0.170 C  
HETATM   16  H   UNL     1      -9.597   9.539  70.816  1.00  0.00     0.000 HD 
HETATM   17  O   UNL     1      -8.299  10.563  69.035  1.00  0.00    -0.136 OA 
ENDBRANCH   4   8
ENDBRANCH   3   4
TORSDOF 3
ENDMDL
MODEL       98
REMARK 921   NORMALIZED FREE ENERGY PREDICTED BY IDOCK:   -3.82 KCAL/MOL
REMARK 922        TOTAL FREE ENERGY PREDICTED BY IDOCK:   -4.93 KCAL/MOL
REMARK 923 INTER-LIGAND FREE ENERGY PREDICTED BY IDOCK:   -4.82 KCAL/MOL
REMARK 924 INTRA-LIGAND FREE ENERGY PREDICTED BY IDOCK:   -0.11 KCAL/MOL
REMARK 927      BINDING AFFINITY PREDICTED BY RF-SCORE:    0.00 PKD
ROOT
HETATM    1 CL   UNL     1      -9.983  13.812  66.712  1.00  0.00    -0.263 Cl 
HETATM    2  C   UNL     1     -11.499  12.883  66.607  1.00  0.00    -0.343 C  
HETATM    3  C   UNL     1     -11.401  11.489  67.235  1.00  0.00    -0.290 C  
ENDROOT
BRANCH   3   4
HETATM    4  N   UNL     1     -10.919  11.466  68.639  1.00  0.00    -0.203 NA 
BRANCH   4   5
HETATM    5  C   UNL     1      -9.488  11.117  68.906  1.00  0.00    -0.124 C  
HETATM    6 CL   UNL     1      -8.273  10.714  66.438  1.00  0.00    -0.140 Cl 
HETATM    7  C   UNL     1      -8.745  10.099  68.041  1.00  0.00    -0.122 C  
ENDBRANCH   4   5
BRANCH   4   8
HETATM    8  C   UNL     1     -11.715  12.015  69.699  1.00  0.00    -0.335 C  
HETATM    9  C   UNL     1     -12.002  13.320  69.867  1.00  0.00    -0.330 C  
HETATM   10  N   UNL     1     -12.759  13.816  70.894  1.00  0.00    -0.336 N  
HETATM   11  C   UNL     1     -13.336  13.046  71.851  1.00  0.00    -0.446 C  
HETATM   12  H   UNL     1     -12.898  14.825  70.942  1.00  0.00     0.000 HD 
HETATM   13  O   UNL     1     -14.004  13.526  72.761  1.00  0.00    -0.733 OA 
HETATM   14  N   UNL     1     -13.118  11.711  71.731  1.00  0.00    -0.449 N  
HETATM   15  C   UNL     1     -12.328  11.113  70.785  1.00  0.00    -0.406 C  
HETATM   16  H   UNL     1     -13.582  11.101  72.403  1.00  0.00     0.000 HD 
HETATM   17  O   UNL     1     -12.140   9.900  70.860  1.00  0.00    -0.302 OA 
ENDBRANCH   4   8
ENDBRANCH   3   4
TORSDOF 3
ENDMDL
MODEL       99
REMARK 921   NORMALIZED FREE ENERGY PREDICTED BY IDOCK:   -3.82 KCAL/MOL
REMARK 922        TOTAL FREE ENERGY PREDICTED BY IDOCK:   -4.93 KCAL/MOL
REMARK 923 INTER-LIGAND FREE ENERGY PREDICTED BY IDOCK:   -4.57 KCAL/MOL
REMARK 924 INTRA-LIGAND FREE ENERGY PREDICTED BY IDOCK:   -0.36 KCAL/MOL
REMARK 927      BINDING AFFINITY PREDICTED BY RF-SCORE:    0.00 PKD
ROOT
HETATM    1 CL   UNL     1     -12.338  14.484  64.091  1.00  0.00    -0.441 Cl 
HETATM    2  C   UNL     1     -10.999  13.649  64.915  1.00  0.00    -0.367 C  
HETATM    3  C   UNL     1     -10.002  14.608  65.575  1.00  0.00    -0.352 C  
ENDROOT
BRANCH   3   4
HETATM    4  N   UNL     1     -10.602  15.592  66.510  1.00  0.00    -0.305 NA 
BRANCH   4   5
HETATM    5  C   UNL     1     -11.656  15.129  67.468  1.00  0.00    -0.257 C  
HETATM    6 CL   UNL     1     -10.809  15.843  70.018  1.00  0.00    -0.326 Cl 
HETATM    7  C   UNL     1     -11.289  14.588  68.850  1.00  0.00    -0.274 C  
ENDBRANCH   4   5
BRANCH   4   8
HETATM    8  C   UNL     1     -10.019  16.890  66.688  1.00  0.00    -0.296 C  
HETATM    9  C   UNL     1     -10.522  18.047  66.214  1.00  0.00    -0.335 C  
HETATM   10  N   UNL     1      -9.938  19.271  66.394  1.00  0.00    -0.376 N  
HETATM   11  C   UNL     1      -8.795  19.471  67.097  1.00  0.00    -0.304 C  
HETATM   12  H   UNL     1     -10.391  20.083  65.974  1.00  0.00     0.000 HD 
HETATM   13  O   UNL     1      -8.296  20.583  67.233  1.00  0.00    -0.337 OA 
HETATM   14  N   UNL     1      -8.243  18.353  67.635  1.00  0.00    -0.251 N  
HETATM   15  C   UNL     1      -8.704  17.074  67.466  1.00  0.00    -0.210 C  
HETATM   16  H   UNL     1      -7.413  18.476  68.215  1.00  0.00     0.000 HD 
HETATM   17  O   UNL     1      -8.043  16.146  67.929  1.00  0.00    -0.143 OA 
ENDBRANCH   4   8
ENDBRANCH   3   4
TORSDOF 3
ENDMDL
MODEL      100
REMARK 921   NORMALIZED FREE ENERGY PREDICTED BY IDOCK:   -3.81 KCAL/MOL
REMARK 922        TOTAL FREE ENERGY PREDICTED BY IDOCK:   -4.92 KCAL/MOL
REMARK 923 INTER-LIGAND FREE ENERGY PREDICTED BY IDOCK:   -4.52 KCAL/MOL
REMARK 924 INTRA-LIGAND FREE ENERGY PREDICTED BY IDOCK:   -0.41 KCAL/MOL
REMARK 927      BINDING AFFINITY PREDICTED BY RF-SCORE:    0.00 PKD
ROOT
HETATM    1 CL   UNL     1     -11.874  14.016  68.187  1.00  0.00    -0.392 Cl 
HETATM    2  C   UNL     1     -10.357  14.176  67.268  1.00  0.00    -0.267 C  
HETATM    3  C   UNL     1      -9.683  12.832  66.973  1.00  0.00    -0.224 C  
ENDROOT
BRANCH   3   4
HETATM    4  N   UNL     1     -10.549  11.829  66.302  1.00  0.00    -0.243 NA 
BRANCH   4   5
HETATM    5  C   UNL     1     -11.244  12.210  65.032  1.00  0.00    -0.322 C  
HETATM    6 CL   UNL     1      -9.660  11.305  62.933  1.00  0.00    -0.376 Cl 
HETATM    7  C   UNL     1     -10.455  12.644  63.795  1.00  0.00    -0.379 C  
ENDBRANCH   4   5
BRANCH   4   8
HETATM    8  C   UNL     1     -10.523  10.451  66.698  1.00  0.00    -0.215 C  
HETATM    9  C   UNL     1     -10.007   9.438  65.975  1.00  0.00    -0.281 C  
HETATM   10  N   UNL     1     -10.003   8.130  66.377  1.00  0.00    -0.436 N  
HETATM   11  C   UNL     1     -10.495   7.700  67.567  1.00  0.00    -0.266 C  
HETATM   12  H   UNL     1      -9.606   7.436  65.743  1.00  0.00     0.000 HD 
HETATM   13  O   UNL     1     -10.480   6.518  67.891  1.00  0.00    -0.173 OA 
HETATM   14  N   UNL     1     -11.005   8.671  68.367  1.00  0.00    -0.445 N  
HETATM   15  C   UNL     1     -11.118   9.997  68.042  1.00  0.00    -0.201 C  
HETATM   16  H   UNL     1     -11.333   8.388  69.290  1.00  0.00     0.000 HD 
HETATM   17  O   UNL     1     -11.697  10.746  68.827  1.00  0.00    -0.295 OA 
ENDBRANCH   4   8
ENDBRANCH   3   4
TORSDOF 3
ENDMDL
MODEL      101
REMARK 921   NORMALIZED FREE ENERGY PREDICTED BY IDOCK:   -3.81 KCAL/MOL
REMARK 922        TOTAL FREE ENERGY PREDICTED BY IDOCK:   -4.92 KCAL/MOL
REMARK 923 INTER-LIGAND FREE ENERGY PREDICTED BY IDOCK:   -4.70 KCAL/MOL
REMARK 924 INTRA-LIGAND FREE ENERGY PREDICTED BY IDOCK:   -0.22 KCAL/MOL
REMARK 927      BINDING AFFINITY PREDICTED BY RF-SCORE:    0.00 PKD
ROOT
HETATM    1 CL   UNL     1      -9.303   6.548  69.108  1.00  0.00    -0.134 Cl 
HETATM    2  C   UNL     1     -11.081   6.592  69.021  1.00  0.00    -0.310 C  
HETATM    3  C   UNL     1     -11.758   6.427  70.386  1.00  0.00    -0.321 C  
ENDROOT
BRANCH   3   4
HETATM    4  N   UNL     1     -11.305   7.379  71.431  1.00  0.00    -0.251 NA 
BRANCH   4   5
HETATM    5  C   UNL     1     -10.074   7.055  72.218  1.00  0.00    -0.177 C  
HETATM    6 CL   UNL     1     -10.418   4.496  73.251  1.00  0.00    -0.235 Cl 
HETATM    7  C   UNL     1     -10.149   6.237  73.508  1.00  0.00    -0.217 C  
ENDBRANCH   4   5
BRANCH   4   8
HETATM    8  C   UNL     1     -11.862   8.698  71.517  1.00  0.00    -0.306 C  
HETATM    9  C   UNL     1     -12.952   9.042  72.230  1.00  0.00    -0.424 C  
HETATM   10  N   UNL     1     -13.465  10.309  72.288  1.00  0.00    -0.575 N  
HETATM   11  C   UNL     1     -12.919  11.379  71.656  1.00  0.00    -0.418 C  
HETATM   12  H   UNL     1     -14.309  10.459  72.841  1.00  0.00     0.000 HD 
HETATM   13  O   UNL     1     -13.410  12.501  71.725  1.00  0.00    -0.414 OA 
HETATM   14  N   UNL     1     -11.795  11.117  70.940  1.00  0.00    -0.335 N  
HETATM   15  C   UNL     1     -11.232   9.881  70.761  1.00  0.00    -0.353 C  
HETATM   16  H   UNL     1     -11.330  11.909  70.497  1.00  0.00     0.000 HD 
HETATM   17  O   UNL     1     -10.271   9.779  70.001  1.00  0.00    -0.230 OA 
ENDBRANCH   4   8
ENDBRANCH   3   4
TORSDOF 3
ENDMDL
MODEL      102
REMARK 921   NORMALIZED FREE ENERGY PREDICTED BY IDOCK:   -3.77 KCAL/MOL
REMARK 922        TOTAL FREE ENERGY PREDICTED BY IDOCK:   -4.88 KCAL/MOL
REMARK 923 INTER-LIGAND FREE ENERGY PREDICTED BY IDOCK:   -4.66 KCAL/MOL
REMARK 924 INTRA-LIGAND FREE ENERGY PREDICTED BY IDOCK:   -0.22 KCAL/MOL
REMARK 927      BINDING AFFINITY PREDICTED BY RF-SCORE:    0.00 PKD
ROOT
HETATM    1 CL   UNL     1      -9.581  14.961  68.604  1.00  0.00    -0.216 Cl 
HETATM    2  C   UNL     1      -8.701  14.530  67.117  1.00  0.00    -0.219 C  
HETATM    3  C   UNL     1      -8.465  13.023  66.968  1.00  0.00    -0.136 C  
ENDROOT
BRANCH   3   4
HETATM    4  N   UNL     1      -9.686  12.184  67.064  1.00  0.00    -0.199 NA 
BRANCH   4   5
HETATM    5  C   UNL     1     -10.068  11.615  68.396  1.00  0.00    -0.206 C  
HETATM    6 CL   UNL     1     -10.862   8.986  67.960  1.00  0.00    -0.168 Cl 
HETATM    7  C   UNL     1     -11.230  10.631  68.534  1.00  0.00    -0.282 C  
ENDBRANCH   4   5
BRANCH   4   8
HETATM    8  C   UNL     1     -10.627  12.127  65.984  1.00  0.00    -0.257 C  
HETATM    9  C   UNL     1     -11.809  12.774  65.940  1.00  0.00    -0.437 C  
HETATM   10  N   UNL     1     -12.691  12.695  64.897  1.00  0.00    -0.656 N  
HETATM   11  C   UNL     1     -12.468  11.976  63.767  1.00  0.00    -0.485 C  
HETATM   12  H   UNL     1     -13.569  13.207  64.973  1.00  0.00     0.000 HD 
HETATM   13  O   UNL     1     -13.284  11.923  62.854  1.00  0.00    -0.358 OA 
HETATM   14  N   UNL     1     -11.280  11.319  63.723  1.00  0.00    -0.529 N  
HETATM   15  C   UNL     1     -10.353  11.276  64.732  1.00  0.00    -0.307 C  
HETATM   16  H   UNL     1     -11.059  10.814  62.865  1.00  0.00     0.000 HD 
HETATM   17  O   UNL     1      -9.367  10.556  64.591  1.00  0.00    -0.205 OA 
ENDBRANCH   4   8
ENDBRANCH   3   4
TORSDOF 3
ENDMDL
MODEL      103
REMARK 921   NORMALIZED FREE ENERGY PREDICTED BY IDOCK:   -3.76 KCAL/MOL
REMARK 922        TOTAL FREE ENERGY PREDICTED BY IDOCK:   -4.86 KCAL/MOL
REMARK 923 INTER-LIGAND FREE ENERGY PREDICTED BY IDOCK:   -4.31 KCAL/MOL
REMARK 924 INTRA-LIGAND FREE ENERGY PREDICTED BY IDOCK:   -0.55 KCAL/MOL
REMARK 927      BINDING AFFINITY PREDICTED BY RF-SCORE:    0.00 PKD
ROOT
HETATM    1 CL   UNL     1      -8.158  11.056  69.157  1.00  0.00    -0.109 Cl 
HETATM    2  C   UNL     1      -7.330   9.797  70.106  1.00  0.00    -0.155 C  
HETATM    3  C   UNL     1      -8.254   9.075  71.092  1.00  0.00    -0.149 C  
ENDROOT
BRANCH   3   4
HETATM    4  N   UNL     1      -9.482   8.495  70.492  1.00  0.00    -0.165 NA 
BRANCH   4   5
HETATM    5  C   UNL     1      -9.345   7.551  69.338  1.00  0.00    -0.152 C  
HETATM    6 CL   UNL     1     -10.532   8.773  67.140  1.00  0.00    -0.363 Cl 
HETATM    7  C   UNL     1     -10.449   7.415  68.288  1.00  0.00    -0.189 C  
ENDBRANCH   4   5
BRANCH   4   8
HETATM    8  C   UNL     1     -10.751   8.615  71.149  1.00  0.00    -0.240 C  
HETATM    9  C   UNL     1     -11.267   7.729  72.023  1.00  0.00    -0.278 C  
HETATM   10  N   UNL     1     -12.485   7.867  72.631  1.00  0.00    -0.580 N  
HETATM   11  C   UNL     1     -13.309   8.930  72.447  1.00  0.00    -0.440 C  
HETATM   12  H   UNL     1     -12.793   7.126  73.260  1.00  0.00     0.000 HD 
HETATM   13  O   UNL     1     -14.398   9.018  73.004  1.00  0.00    -0.462 OA 
HETATM   14  N   UNL     1     -12.842   9.885  71.601  1.00  0.00    -0.400 N  
HETATM   15  C   UNL     1     -11.672   9.821  70.892  1.00  0.00    -0.347 C  
HETATM   16  H   UNL     1     -13.413  10.722  71.484  1.00  0.00     0.000 HD 
HETATM   17  O   UNL     1     -11.426  10.715  70.084  1.00  0.00    -0.281 OA 
ENDBRANCH   4   8
ENDBRANCH   3   4
TORSDOF 3
ENDMDL
MODEL      104
REMARK 921   NORMALIZED FREE ENERGY PREDICTED BY IDOCK:   -3.75 KCAL/MOL
REMARK 922        TOTAL FREE ENERGY PREDICTED BY IDOCK:   -4.86 KCAL/MOL
REMARK 923 INTER-LIGAND FREE ENERGY PREDICTED BY IDOCK:   -4.59 KCAL/MOL
REMARK 924 INTRA-LIGAND FREE ENERGY PREDICTED BY IDOCK:   -0.26 KCAL/MOL
REMARK 927      BINDING AFFINITY PREDICTED BY RF-SCORE:    0.00 PKD
ROOT
HETATM    1 CL   UNL     1      -9.789  11.512  64.773  1.00  0.00    -0.278 Cl 
HETATM    2  C   UNL     1     -11.254  12.473  64.458  1.00  0.00    -0.325 C  
HETATM    3  C   UNL     1     -12.070  12.766  65.722  1.00  0.00    -0.448 C  
ENDROOT
BRANCH   3   4
HETATM    4  N   UNL     1     -11.307  13.400  66.827  1.00  0.00    -0.314 NA 
BRANCH   4   5
HETATM    5  C   UNL     1     -11.287  12.733  68.167  1.00  0.00    -0.288 C  
HETATM    6 CL   UNL     1     -10.631  10.065  67.738  1.00  0.00    -0.289 Cl 
HETATM    7  C   UNL     1     -11.770  11.293  68.343  1.00  0.00    -0.294 C  
ENDBRANCH   4   5
BRANCH   4   8
HETATM    8  C   UNL     1     -10.395  14.477  66.569  1.00  0.00    -0.283 C  
HETATM    9  C   UNL     1     -10.733  15.693  66.096  1.00  0.00    -0.303 C  
HETATM   10  N   UNL     1      -9.839  16.700  65.854  1.00  0.00    -0.300 N  
HETATM   11  C   UNL     1      -8.506  16.604  66.088  1.00  0.00    -0.273 C  
HETATM   12  H   UNL     1     -10.197  17.576  65.474  1.00  0.00     0.000 HD 
HETATM   13  O   UNL     1      -7.732  17.526  65.852  1.00  0.00    -0.506 OA 
HETATM   14  N   UNL     1      -8.091  15.415  66.597  1.00  0.00    -0.332 N  
HETATM   15  C   UNL     1      -8.885  14.321  66.818  1.00  0.00    -0.182 C  
HETATM   16  H   UNL     1      -7.103  15.330  66.835  1.00  0.00     0.000 HD 
HETATM   17  O   UNL     1      -8.353  13.276  67.188  1.00  0.00    -0.180 OA 
ENDBRANCH   4   8
ENDBRANCH   3   4
TORSDOF 3
ENDMDL
MODEL      105
REMARK 921   NORMALIZED FREE ENERGY PREDICTED BY IDOCK:   -3.75 KCAL/MOL
REMARK 922        TOTAL FREE ENERGY PREDICTED BY IDOCK:   -4.85 KCAL/MOL
REMARK 923 INTER-LIGAND FREE ENERGY PREDICTED BY IDOCK:   -4.80 KCAL/MOL
REMARK 924 INTRA-LIGAND FREE ENERGY PREDICTED BY IDOCK:   -0.06 KCAL/MOL
REMARK 927      BINDING AFFINITY PREDICTED BY RF-SCORE:    0.00 PKD
ROOT
HETATM    1 CL   UNL     1      -8.865  11.143  65.350  1.00  0.00    -0.155 Cl 
HETATM    2  C   UNL     1     -10.639  11.159  65.194  1.00  0.00    -0.253 C  
HETATM    3  C   UNL     1     -11.335  11.986  66.281  1.00  0.00    -0.357 C  
ENDROOT
BRANCH   3   4
HETATM    4  N   UNL     1     -10.851  13.384  66.413  1.00  0.00    -0.288 NA 
BRANCH   4   5
HETATM    5  C   UNL     1     -10.430  14.121  65.180  1.00  0.00    -0.402 C  
HETATM    6 CL   UNL     1     -10.523  16.834  65.783  1.00  0.00    -0.350 Cl 
HETATM    7  C   UNL     1     -11.070  15.457  64.797  1.00  0.00    -0.403 C  
ENDBRANCH   4   5
BRANCH   4   8
HETATM    8  C   UNL     1     -11.023  14.110  67.637  1.00  0.00    -0.267 C  
HETATM    9  C   UNL     1     -12.158  14.718  68.034  1.00  0.00    -0.128 C  
HETATM   10  N   UNL     1     -12.291  15.411  69.206  1.00  0.00    -0.606 N  
HETATM   11  C   UNL     1     -11.301  15.545  70.125  1.00  0.00    -0.326 C  
HETATM   12  H   UNL     1     -13.189  15.854  69.401  1.00  0.00     0.000 HD 
HETATM   13  O   UNL     1     -11.454  16.179  71.164  1.00  0.00    -0.413 OA 
HETATM   14  N   UNL     1     -10.132  14.930  69.810  1.00  0.00    -0.444 N  
HETATM   15  C   UNL     1      -9.868  14.266  68.641  1.00  0.00    -0.228 C  
HETATM   16  H   UNL     1      -9.386  14.966  70.505  1.00  0.00     0.000 HD 
HETATM   17  O   UNL     1      -8.728  13.846  68.450  1.00  0.00    -0.178 OA 
ENDBRANCH   4   8
ENDBRANCH   3   4
TORSDOF 3
ENDMDL
MODEL      106
REMARK 921   NORMALIZED FREE ENERGY PREDICTED BY IDOCK:   -3.74 KCAL/MOL
REMARK 922        TOTAL FREE ENERGY PREDICTED BY IDOCK:   -4.84 KCAL/MOL
REMARK 923 INTER-LIGAND FREE ENERGY PREDICTED BY IDOCK:   -4.64 KCAL/MOL
REMARK 924 INTRA-LIGAND FREE ENERGY PREDICTED BY IDOCK:   -0.20 KCAL/MOL
REMARK 927      BINDING AFFINITY PREDICTED BY RF-SCORE:    0.00 PKD
ROOT
HETATM    1 CL   UNL     1      -9.916   8.995  67.114  1.00  0.00    -0.263 Cl 
HETATM    2  C   UNL     1      -8.663  10.242  67.326  1.00  0.00    -0.125 C  
HETATM    3  C   UNL     1      -8.569  11.213  66.144  1.00  0.00    -0.172 C  
ENDROOT
BRANCH   3   4
HETATM    4  N   UNL     1      -9.846  11.873  65.771  1.00  0.00    -0.234 NA 
BRANCH   4   5
HETATM    5  C   UNL     1     -10.726  11.219  64.752  1.00  0.00    -0.285 C  
HETATM    6 CL   UNL     1      -9.209  10.912  62.442  1.00  0.00    -0.321 Cl 
HETATM    7  C   UNL     1     -10.633  11.586  63.270  1.00  0.00    -0.338 C  
ENDBRANCH   4   5
BRANCH   4   8
HETATM    8  C   UNL     1     -10.363  12.966  66.543  1.00  0.00    -0.264 C  
HETATM    9  C   UNL     1      -9.857  14.214  66.570  1.00  0.00    -0.290 C  
HETATM   10  N   UNL     1     -10.369  15.236  67.323  1.00  0.00    -0.260 N  
HETATM   11  C   UNL     1     -11.467  15.120  68.113  1.00  0.00    -0.342 C  
HETATM   12  H   UNL     1      -9.897  16.139  67.288  1.00  0.00     0.000 HD 
HETATM   13  O   UNL     1     -11.894  16.057  68.779  1.00  0.00    -0.375 OA 
HETATM   14  N   UNL     1     -12.053  13.896  68.114  1.00  0.00    -0.478 N  
HETATM   15  C   UNL     1     -11.592  12.788  67.451  1.00  0.00    -0.356 C  
HETATM   16  H   UNL     1     -12.911  13.791  68.655  1.00  0.00     0.000 HD 
HETATM   17  O   UNL     1     -12.170  11.717  67.626  1.00  0.00    -0.534 OA 
ENDBRANCH   4   8
ENDBRANCH   3   4
TORSDOF 3
ENDMDL
MODEL      107
REMARK 921   NORMALIZED FREE ENERGY PREDICTED BY IDOCK:   -3.74 KCAL/MOL
REMARK 922        TOTAL FREE ENERGY PREDICTED BY IDOCK:   -4.84 KCAL/MOL
REMARK 923 INTER-LIGAND FREE ENERGY PREDICTED BY IDOCK:   -4.53 KCAL/MOL
REMARK 924 INTRA-LIGAND FREE ENERGY PREDICTED BY IDOCK:   -0.31 KCAL/MOL
REMARK 927      BINDING AFFINITY PREDICTED BY RF-SCORE:    0.00 PKD
ROOT
HETATM    1 CL   UNL     1     -10.547  17.790  67.233  1.00  0.00    -0.351 Cl 
HETATM    2  C   UNL     1      -8.956  17.110  66.812  1.00  0.00    -0.241 C  
HETATM    3  C   UNL     1      -8.736  15.697  67.361  1.00  0.00    -0.179 C  
ENDROOT
BRANCH   3   4
HETATM    4  N   UNL     1      -9.789  14.713  67.001  1.00  0.00    -0.239 NA 
BRANCH   4   5
HETATM    5  C   UNL     1      -9.967  14.339  65.563  1.00  0.00    -0.312 C  
HETATM    6 CL   UNL     1     -11.731  16.180  64.454  1.00  0.00    -0.248 Cl 
HETATM    7  C   UNL     1     -11.317  14.498  64.863  1.00  0.00    -0.394 C  
ENDBRANCH   4   5
BRANCH   4   8
HETATM    8  C   UNL     1     -10.448  13.937  68.012  1.00  0.00    -0.243 C  
HETATM    9  C   UNL     1     -10.176  12.653  68.314  1.00  0.00    -0.239 C  
HETATM   10  N   UNL     1     -10.827  11.935  69.280  1.00  0.00    -0.425 N  
HETATM   11  C   UNL     1     -11.807  12.442  70.071  1.00  0.00    -0.288 C  
HETATM   12  H   UNL     1     -10.559  10.960  69.414  1.00  0.00     0.000 HD 
HETATM   13  O   UNL     1     -12.373  11.767  70.924  1.00  0.00    -0.375 OA 
HETATM   14  N   UNL     1     -12.116  13.745  69.848  1.00  0.00    -0.337 N  
HETATM   15  C   UNL     1     -11.576  14.537  68.869  1.00  0.00    -0.309 C  
HETATM   16  H   UNL     1     -12.810  14.171  70.462  1.00  0.00     0.000 HD 
HETATM   17  O   UNL     1     -12.026  15.672  68.718  1.00  0.00    -0.348 OA 
ENDBRANCH   4   8
ENDBRANCH   3   4
TORSDOF 3
ENDMDL
MODEL      108
REMARK 921   NORMALIZED FREE ENERGY PREDICTED BY IDOCK:   -3.73 KCAL/MOL
REMARK 922        TOTAL FREE ENERGY PREDICTED BY IDOCK:   -4.83 KCAL/MOL
REMARK 923 INTER-LIGAND FREE ENERGY PREDICTED BY IDOCK:   -4.46 KCAL/MOL
REMARK 924 INTRA-LIGAND FREE ENERGY PREDICTED BY IDOCK:   -0.36 KCAL/MOL
REMARK 927      BINDING AFFINITY PREDICTED BY RF-SCORE:    0.00 PKD
ROOT
HETATM    1 CL   UNL     1     -11.772  16.009  68.802  1.00  0.00    -0.365 Cl 
HETATM    2  C   UNL     1     -10.076  15.735  68.335  1.00  0.00    -0.222 C  
HETATM    3  C   UNL     1      -9.554  14.351  68.737  1.00  0.00    -0.177 C  
ENDROOT
BRANCH   3   4
HETATM    4  N   UNL     1     -10.374  13.208  68.261  1.00  0.00    -0.247 NA 
BRANCH   4   5
HETATM    5  C   UNL     1     -11.417  12.639  69.172  1.00  0.00    -0.304 C  
HETATM    6 CL   UNL     1     -10.825   9.942  69.503  1.00  0.00    -0.254 Cl 
HETATM    7  C   UNL     1     -11.950  11.219  68.979  1.00  0.00    -0.325 C  
ENDBRANCH   4   5
BRANCH   4   8
HETATM    8  C   UNL     1     -10.366  12.820  66.880  1.00  0.00    -0.238 C  
HETATM    9  C   UNL     1      -9.439  12.038  66.293  1.00  0.00    -0.229 C  
HETATM   10  N   UNL     1      -9.453  11.689  64.970  1.00  0.00    -0.391 N  
HETATM   11  C   UNL     1     -10.420  12.067  64.096  1.00  0.00    -0.353 C  
HETATM   12  H   UNL     1      -8.690  11.110  64.620  1.00  0.00     0.000 HD 
HETATM   13  O   UNL     1     -10.398  11.740  62.914  1.00  0.00    -0.264 OA 
HETATM   14  N   UNL     1     -11.410  12.833  64.623  1.00  0.00    -0.308 N  
HETATM   15  C   UNL     1     -11.464  13.293  65.912  1.00  0.00    -0.332 C  
HETATM   16  H   UNL     1     -12.180  13.088  64.004  1.00  0.00     0.000 HD 
HETATM   17  O   UNL     1     -12.370  14.064  66.222  1.00  0.00    -0.456 OA 
ENDBRANCH   4   8
ENDBRANCH   3   4
TORSDOF 3
ENDMDL
MODEL      109
REMARK 921   NORMALIZED FREE ENERGY PREDICTED BY IDOCK:   -3.73 KCAL/MOL
REMARK 922        TOTAL FREE ENERGY PREDICTED BY IDOCK:   -4.82 KCAL/MOL
REMARK 923 INTER-LIGAND FREE ENERGY PREDICTED BY IDOCK:   -4.42 KCAL/MOL
REMARK 924 INTRA-LIGAND FREE ENERGY PREDICTED BY IDOCK:   -0.41 KCAL/MOL
REMARK 927      BINDING AFFINITY PREDICTED BY RF-SCORE:    0.00 PKD
ROOT
HETATM    1 CL   UNL     1      -9.640  17.318  68.158  1.00  0.00    -0.274 Cl 
HETATM    2  C   UNL     1     -10.890  16.445  69.079  1.00  0.00    -0.331 C  
HETATM    3  C   UNL     1     -11.479  15.252  68.319  1.00  0.00    -0.347 C  
ENDROOT
BRANCH   3   4
HETATM    4  N   UNL     1     -10.482  14.274  67.816  1.00  0.00    -0.244 NA 
BRANCH   4   5
HETATM    5  C   UNL     1      -9.445  13.749  68.760  1.00  0.00    -0.012 C  
HETATM    6 CL   UNL     1      -7.057  13.593  67.343  1.00  0.00    -0.157 Cl 
HETATM    7  C   UNL     1      -8.345  12.799  68.282  1.00  0.00    -0.161 C  
ENDBRANCH   4   5
BRANCH   4   8
HETATM    8  C   UNL     1     -10.651  13.640  66.540  1.00  0.00    -0.282 C  
HETATM    9  C   UNL     1     -10.194  14.112  65.364  1.00  0.00    -0.358 C  
HETATM   10  N   UNL     1     -10.377  13.488  64.160  1.00  0.00    -0.617 N  
HETATM   11  C   UNL     1     -11.017  12.300  64.011  1.00  0.00    -0.383 C  
HETATM   12  H   UNL     1     -10.009  13.942  63.325  1.00  0.00     0.000 HD 
HETATM   13  O   UNL     1     -11.168  11.772  62.915  1.00  0.00    -0.047 OA 
HETATM   14  N   UNL     1     -11.480  11.744  65.160  1.00  0.00    -0.237 N  
HETATM   15  C   UNL     1     -11.410  12.308  66.406  1.00  0.00    -0.354 C  
HETATM   16  H   UNL     1     -11.918  10.825  65.089  1.00  0.00     0.000 HD 
HETATM   17  O   UNL     1     -11.964  11.734  67.342  1.00  0.00    -0.617 OA 
ENDBRANCH   4   8
ENDBRANCH   3   4
TORSDOF 3
ENDMDL
MODEL      110
REMARK 921   NORMALIZED FREE ENERGY PREDICTED BY IDOCK:   -3.72 KCAL/MOL
REMARK 922        TOTAL FREE ENERGY PREDICTED BY IDOCK:   -4.81 KCAL/MOL
REMARK 923 INTER-LIGAND FREE ENERGY PREDICTED BY IDOCK:   -4.40 KCAL/MOL
REMARK 924 INTRA-LIGAND FREE ENERGY PREDICTED BY IDOCK:   -0.41 KCAL/MOL
REMARK 927      BINDING AFFINITY PREDICTED BY RF-SCORE:    0.00 PKD
ROOT
HETATM    1 CL   UNL     1      -9.146   4.139  71.727  1.00  0.00    -0.157 Cl 
HETATM    2  C   UNL     1      -8.597   5.812  71.996  1.00  0.00    -0.130 C  
HETATM    3  C   UNL     1      -8.694   6.690  70.744  1.00  0.00    -0.143 C  
ENDROOT
BRANCH   3   4
HETATM    4  N   UNL     1     -10.033   6.721  70.102  1.00  0.00    -0.177 NA 
BRANCH   4   5
HETATM    5  C   UNL     1     -10.259   5.909  68.865  1.00  0.00    -0.198 C  
HETATM    6 CL   UNL     1     -10.388   7.691  66.734  1.00  0.00    -0.367 Cl 
HETATM    7  C   UNL     1     -11.145   6.423  67.729  1.00  0.00    -0.276 C  
ENDBRANCH   4   5
BRANCH   4   8
HETATM    8  C   UNL     1     -11.161   7.293  70.778  1.00  0.00    -0.266 C  
HETATM    9  C   UNL     1     -12.115   6.602  71.433  1.00  0.00    -0.347 C  
HETATM   10  N   UNL     1     -13.185   7.176  72.063  1.00  0.00    -0.542 N  
HETATM   11  C   UNL     1     -13.398   8.515  72.129  1.00  0.00    -0.351 C  
HETATM   12  H   UNL     1     -13.863   6.560  72.511  1.00  0.00     0.000 HD 
HETATM   13  O   UNL     1     -14.373   8.995  72.699  1.00  0.00    -0.603 OA 
HETATM   14  N   UNL     1     -12.459   9.282  71.518  1.00  0.00    -0.336 N  
HETATM   15  C   UNL     1     -11.386   8.815  70.806  1.00  0.00    -0.272 C  
HETATM   16  H   UNL     1     -12.561  10.294  71.596  1.00  0.00     0.000 HD 
HETATM   17  O   UNL     1     -10.673   9.627  70.219  1.00  0.00    -0.237 OA 
ENDBRANCH   4   8
ENDBRANCH   3   4
TORSDOF 3
ENDMDL
MODEL      111
REMARK 921   NORMALIZED FREE ENERGY PREDICTED BY IDOCK:   -3.71 KCAL/MOL
REMARK 922        TOTAL FREE ENERGY PREDICTED BY IDOCK:   -4.81 KCAL/MOL
REMARK 923 INTER-LIGAND FREE ENERGY PREDICTED BY IDOCK:   -5.02 KCAL/MOL
REMARK 924 INTRA-LIGAND FREE ENERGY PREDICTED BY IDOCK:    0.20 KCAL/MOL
REMARK 927      BINDING AFFINITY PREDICTED BY RF-SCORE:    0.00 PKD
ROOT
HETATM    1 CL   UNL     1     -10.304   8.443  66.970  1.00  0.00    -0.375 Cl 
HETATM    2  C   UNL     1      -9.230   9.345  68.068  1.00  0.00    -0.130 C  
HETATM    3  C   UNL     1      -9.190  10.849  67.777  1.00  0.00    -0.153 C  
ENDROOT
BRANCH   3   4
HETATM    4  N   UNL     1     -10.516  11.517  67.744  1.00  0.00    -0.183 NA 
BRANCH   4   5
HETATM    5  C   UNL     1     -11.175  11.877  69.039  1.00  0.00    -0.258 C  
HETATM    6 CL   UNL     1     -11.582   9.506  70.433  1.00  0.00    -0.289 Cl 
HETATM    7  C   UNL     1     -12.237  10.974  69.667  1.00  0.00    -0.300 C  
ENDBRANCH   4   5
BRANCH   4   8
HETATM    8  C   UNL     1     -11.043  12.047  66.520  1.00  0.00    -0.314 C  
HETATM    9  C   UNL     1     -10.803  11.558  65.287  1.00  0.00    -0.259 C  
HETATM   10  N   UNL     1     -11.316  12.090  64.135  1.00  0.00    -0.357 N  
HETATM   11  C   UNL     1     -12.152  13.159  64.099  1.00  0.00    -0.430 C  
HETATM   12  H   UNL     1     -11.053  11.657  63.250  1.00  0.00     0.000 HD 
HETATM   13  O   UNL     1     -12.588  13.613  63.047  1.00  0.00    -0.729 OA 
HETATM   14  N   UNL     1     -12.467  13.689  65.309  1.00  0.00    -0.481 N  
HETATM   15  C   UNL     1     -11.965  13.279  66.516  1.00  0.00    -0.391 C  
HETATM   16  H   UNL     1     -13.136  14.458  65.320  1.00  0.00     0.000 HD 
HETATM   17  O   UNL     1     -12.262  13.920  67.523  1.00  0.00    -0.366 OA 
ENDBRANCH   4   8
ENDBRANCH   3   4
TORSDOF 3
ENDMDL
MODEL      112
REMARK 921   NORMALIZED FREE ENERGY PREDICTED BY IDOCK:   -3.71 KCAL/MOL
REMARK 922        TOTAL FREE ENERGY PREDICTED BY IDOCK:   -4.81 KCAL/MOL
REMARK 923 INTER-LIGAND FREE ENERGY PREDICTED BY IDOCK:   -4.37 KCAL/MOL
REMARK 924 INTRA-LIGAND FREE ENERGY PREDICTED BY IDOCK:   -0.44 KCAL/MOL
REMARK 927      BINDING AFFINITY PREDICTED BY RF-SCORE:    0.00 PKD
ROOT
HETATM    1 CL   UNL     1      -7.791   8.638  71.439  1.00  0.00    -0.148 Cl 
HETATM    2  C   UNL     1      -8.934   7.825  72.537  1.00  0.00    -0.159 C  
HETATM    3  C   UNL     1     -10.319   8.481  72.563  1.00  0.00    -0.244 C  
ENDROOT
BRANCH   3   4
HETATM    4  N   UNL     1     -10.961   8.644  71.235  1.00  0.00    -0.250 NA 
BRANCH   4   5
HETATM    5  C   UNL     1     -11.673   7.475  70.628  1.00  0.00    -0.215 C  
HETATM    6 CL   UNL     1     -14.290   7.539  71.566  1.00  0.00    -0.592 Cl 
HETATM    7  C   UNL     1     -12.730   6.695  71.412  1.00  0.00    -0.153 C  
ENDBRANCH   4   5
BRANCH   4   8
HETATM    8  C   UNL     1     -11.134   9.944  70.655  1.00  0.00    -0.340 C  
HETATM    9  C   UNL     1     -10.372  10.472  69.676  1.00  0.00    -0.193 C  
HETATM   10  N   UNL     1     -10.557  11.720  69.146  1.00  0.00    -0.393 N  
HETATM   11  C   UNL     1     -11.549  12.566  69.525  1.00  0.00    -0.281 C  
HETATM   12  H   UNL     1      -9.910  12.034  68.423  1.00  0.00     0.000 HD 
HETATM   13  O   UNL     1     -11.681  13.682  69.032  1.00  0.00    -0.286 OA 
HETATM   14  N   UNL     1     -12.380  12.091  70.488  1.00  0.00    -0.319 N  
HETATM   15  C   UNL     1     -12.251  10.888  71.131  1.00  0.00    -0.336 C  
HETATM   16  H   UNL     1     -13.168  12.681  70.755  1.00  0.00     0.000 HD 
HETATM   17  O   UNL     1     -13.020  10.633  72.056  1.00  0.00    -0.461 OA 
ENDBRANCH   4   8
ENDBRANCH   3   4
TORSDOF 3
ENDMDL
MODEL      113
REMARK 921   NORMALIZED FREE ENERGY PREDICTED BY IDOCK:   -3.69 KCAL/MOL
REMARK 922        TOTAL FREE ENERGY PREDICTED BY IDOCK:   -4.79 KCAL/MOL
REMARK 923 INTER-LIGAND FREE ENERGY PREDICTED BY IDOCK:   -4.47 KCAL/MOL
REMARK 924 INTRA-LIGAND FREE ENERGY PREDICTED BY IDOCK:   -0.32 KCAL/MOL
REMARK 927      BINDING AFFINITY PREDICTED BY RF-SCORE:    0.00 PKD
ROOT
HETATM    1 CL   UNL     1      -9.101  15.778  67.103  1.00  0.00    -0.218 Cl 
HETATM    2  C   UNL     1     -10.711  15.563  67.832  1.00  0.00    -0.294 C  
HETATM    3  C   UNL     1     -11.659  14.723  66.968  1.00  0.00    -0.339 C  
ENDROOT
BRANCH   3   4
HETATM    4  N   UNL     1     -11.132  13.395  66.566  1.00  0.00    -0.294 NA 
BRANCH   4   5
HETATM    5  C   UNL     1     -10.511  13.244  65.213  1.00  0.00    -0.313 C  
HETATM    6 CL   UNL     1     -12.383  11.975  63.595  1.00  0.00    -0.641 Cl 
HETATM    7  C   UNL     1     -10.773  12.006  64.353  1.00  0.00    -0.323 C  
ENDBRANCH   4   5
BRANCH   4   8
HETATM    8  C   UNL     1     -10.972  12.344  67.529  1.00  0.00    -0.252 C  
HETATM    9  C   UNL     1     -11.950  11.525  67.963  1.00  0.00    -0.104 C  
HETATM   10  N   UNL     1     -11.770  10.534  68.889  1.00  0.00    -0.502 N  
HETATM   11  C   UNL     1     -10.575  10.238  69.462  1.00  0.00    -0.245 C  
HETATM   12  H   UNL     1     -12.583   9.984  69.166  1.00  0.00     0.000 HD 
HETATM   13  O   UNL     1     -10.451   9.346  70.294  1.00  0.00    -0.214 OA 
HETATM   14  N   UNL     1      -9.531  11.003  69.050  1.00  0.00    -0.362 N  
HETATM   15  C   UNL     1      -9.608  12.058  68.180  1.00  0.00    -0.200 C  
HETATM   16  H   UNL     1      -8.610  10.770  69.421  1.00  0.00     0.000 HD 
HETATM   17  O   UNL     1      -8.595  12.725  67.977  1.00  0.00    -0.169 OA 
ENDBRANCH   4   8
ENDBRANCH   3   4
TORSDOF 3
ENDMDL
MODEL      114
REMARK 921   NORMALIZED FREE ENERGY PREDICTED BY IDOCK:   -3.66 KCAL/MOL
REMARK 922        TOTAL FREE ENERGY PREDICTED BY IDOCK:   -4.74 KCAL/MOL
REMARK 923 INTER-LIGAND FREE ENERGY PREDICTED BY IDOCK:   -4.33 KCAL/MOL
REMARK 924 INTRA-LIGAND FREE ENERGY PREDICTED BY IDOCK:   -0.41 KCAL/MOL
REMARK 927      BINDING AFFINITY PREDICTED BY RF-SCORE:    0.00 PKD
ROOT
HETATM    1 CL   UNL     1     -10.590  14.942  64.842  1.00  0.00    -0.442 Cl 
HETATM    2  C   UNL     1     -12.201  14.209  65.030  1.00  0.00    -0.441 C  
HETATM    3  C   UNL     1     -12.229  13.058  66.042  1.00  0.00    -0.399 C  
ENDROOT
BRANCH   3   4
HETATM    4  N   UNL     1     -11.692  13.391  67.386  1.00  0.00    -0.352 NA 
BRANCH   4   5
HETATM    5  C   UNL     1     -11.938  14.759  67.943  1.00  0.00    -0.227 C  
HETATM    6 CL   UNL     1      -9.457  15.984  68.220  1.00  0.00    -0.204 Cl 
HETATM    7  C   UNL     1     -10.972  15.393  68.945  1.00  0.00    -0.261 C  
ENDBRANCH   4   5
BRANCH   4   8
HETATM    8  C   UNL     1     -11.181  12.367  68.250  1.00  0.00    -0.263 C  
HETATM    9  C   UNL     1     -11.879  11.734  69.212  1.00  0.00    -0.326 C  
HETATM   10  N   UNL     1     -11.362  10.763  70.027  1.00  0.00    -0.303 N  
HETATM   11  C   UNL     1     -10.088  10.301  69.942  1.00  0.00    -0.171 C  
HETATM   12  H   UNL     1     -11.971  10.363  70.740  1.00  0.00     0.000 HD 
HETATM   13  O   UNL     1      -9.656   9.434  70.694  1.00  0.00    -0.250 OA 
HETATM   14  N   UNL     1      -9.329  10.870  68.971  1.00  0.00    -0.329 N  
HETATM   15  C   UNL     1      -9.722  11.890  68.145  1.00  0.00    -0.194 C  
HETATM   16  H   UNL     1      -8.384  10.507  68.846  1.00  0.00     0.000 HD 
HETATM   17  O   UNL     1      -8.892  12.376  67.378  1.00  0.00    -0.171 OA 
ENDBRANCH   4   8
ENDBRANCH   3   4
TORSDOF 3
ENDMDL
MODEL      115
REMARK 921   NORMALIZED FREE ENERGY PREDICTED BY IDOCK:   -3.66 KCAL/MOL
REMARK 922        TOTAL FREE ENERGY PREDICTED BY IDOCK:   -4.74 KCAL/MOL
REMARK 923 INTER-LIGAND FREE ENERGY PREDICTED BY IDOCK:   -4.38 KCAL/MOL
REMARK 924 INTRA-LIGAND FREE ENERGY PREDICTED BY IDOCK:   -0.37 KCAL/MOL
REMARK 927      BINDING AFFINITY PREDICTED BY RF-SCORE:    0.00 PKD
ROOT
HETATM    1 CL   UNL     1     -11.554  14.242  70.538  1.00  0.00    -0.286 Cl 
HETATM    2  C   UNL     1     -11.961  12.693  69.758  1.00  0.00    -0.295 C  
HETATM    3  C   UNL     1     -11.877  12.744  68.229  1.00  0.00    -0.312 C  
ENDROOT
BRANCH   3   4
HETATM    4  N   UNL     1     -10.582  13.229  67.688  1.00  0.00    -0.234 NA 
BRANCH   4   5
HETATM    5  C   UNL     1      -9.492  12.237  67.424  1.00  0.00    -0.181 C  
HETATM    6 CL   UNL     1      -9.938  11.194  64.885  1.00  0.00    -0.307 Cl 
HETATM    7  C   UNL     1      -9.762  10.952  66.640  1.00  0.00    -0.189 C  
ENDBRANCH   4   5
BRANCH   4   8
HETATM    8  C   UNL     1     -10.450  14.564  67.179  1.00  0.00    -0.267 C  
HETATM    9  C   UNL     1      -9.828  15.582  67.804  1.00  0.00    -0.213 C  
HETATM   10  N   UNL     1      -9.723  16.849  67.296  1.00  0.00    -0.246 N  
HETATM   11  C   UNL     1     -10.210  17.223  66.085  1.00  0.00    -0.331 C  
HETATM   12  H   UNL     1      -9.251  17.553  67.861  1.00  0.00     0.000 HD 
HETATM   13  O   UNL     1     -10.104  18.370  65.664  1.00  0.00    -0.519 OA 
HETATM   14  N   UNL     1     -10.825  16.240  65.379  1.00  0.00    -0.321 N  
HETATM   15  C   UNL     1     -11.042  14.959  65.815  1.00  0.00    -0.342 C  
HETATM   16  H   UNL     1     -11.154  16.475  64.443  1.00  0.00     0.000 HD 
HETATM   17  O   UNL     1     -11.704  14.203  65.106  1.00  0.00    -0.333 OA 
ENDBRANCH   4   8
ENDBRANCH   3   4
TORSDOF 3
ENDMDL
MODEL      116
REMARK 921   NORMALIZED FREE ENERGY PREDICTED BY IDOCK:   -3.64 KCAL/MOL
REMARK 922        TOTAL FREE ENERGY PREDICTED BY IDOCK:   -4.72 KCAL/MOL
REMARK 923 INTER-LIGAND FREE ENERGY PREDICTED BY IDOCK:   -4.33 KCAL/MOL
REMARK 924 INTRA-LIGAND FREE ENERGY PREDICTED BY IDOCK:   -0.39 KCAL/MOL
REMARK 927      BINDING AFFINITY PREDICTED BY RF-SCORE:    0.00 PKD
ROOT
HETATM    1 CL   UNL     1      -7.338   7.021  69.275  1.00  0.00    -0.089 Cl 
HETATM    2  C   UNL     1      -7.779   6.809  70.987  1.00  0.00    -0.097 C  
HETATM    3  C   UNL     1      -8.977   7.663  71.415  1.00  0.00    -0.132 C  
ENDROOT
BRANCH   3   4
HETATM    4  N   UNL     1     -10.195   7.498  70.580  1.00  0.00    -0.202 NA 
BRANCH   4   5
HETATM    5  C   UNL     1     -11.090   6.326  70.834  1.00  0.00    -0.306 C  
HETATM    6 CL   UNL     1     -13.602   7.341  71.461  1.00  0.00    -0.465 Cl 
HETATM    7  C   UNL     1     -12.176   6.375  71.910  1.00  0.00    -0.279 C  
ENDBRANCH   4   5
BRANCH   4   8
HETATM    8  C   UNL     1     -10.655   8.558  69.731  1.00  0.00    -0.224 C  
HETATM    9  C   UNL     1     -10.494   8.618  68.395  1.00  0.00    -0.176 C  
HETATM   10  N   UNL     1     -10.939   9.647  67.611  1.00  0.00    -0.459 N  
HETATM   11  C   UNL     1     -11.622  10.720  68.084  1.00  0.00    -0.197 C  
HETATM   12  H   UNL     1     -10.745   9.605  66.611  1.00  0.00     0.000 HD 
HETATM   13  O   UNL     1     -12.001  11.629  67.352  1.00  0.00    -0.621 OA 
HETATM   14  N   UNL     1     -11.853  10.717  69.422  1.00  0.00    -0.442 N  
HETATM   15  C   UNL     1     -11.400   9.775  70.308  1.00  0.00    -0.272 C  
HETATM   16  H   UNL     1     -12.411  11.482  69.801  1.00  0.00     0.000 HD 
HETATM   17  O   UNL     1     -11.599   9.955  71.508  1.00  0.00    -0.373 OA 
ENDBRANCH   4   8
ENDBRANCH   3   4
TORSDOF 3
ENDMDL
MODEL      117
REMARK 921   NORMALIZED FREE ENERGY PREDICTED BY IDOCK:   -3.63 KCAL/MOL
REMARK 922        TOTAL FREE ENERGY PREDICTED BY IDOCK:   -4.72 KCAL/MOL
REMARK 923 INTER-LIGAND FREE ENERGY PREDICTED BY IDOCK:   -4.40 KCAL/MOL
REMARK 924 INTRA-LIGAND FREE ENERGY PREDICTED BY IDOCK:   -0.32 KCAL/MOL
REMARK 927      BINDING AFFINITY PREDICTED BY RF-SCORE:    0.00 PKD
ROOT
HETATM    1 CL   UNL     1     -12.337  13.511  70.006  1.00  0.00    -0.349 Cl 
HETATM    2  C   UNL     1     -11.640  11.931  69.573  1.00  0.00    -0.327 C  
HETATM    3  C   UNL     1     -11.759  11.605  68.080  1.00  0.00    -0.295 C  
ENDROOT
BRANCH   3   4
HETATM    4  N   UNL     1     -11.211  12.640  67.167  1.00  0.00    -0.284 NA 
BRANCH   4   5
HETATM    5  C   UNL     1     -12.162  13.466  66.358  1.00  0.00    -0.376 C  
HETATM    6 CL   UNL     1     -12.484  12.179  63.914  1.00  0.00    -0.590 Cl 
HETATM    7  C   UNL     1     -11.995  13.615  64.845  1.00  0.00    -0.383 C  
ENDBRANCH   4   5
BRANCH   4   8
HETATM    8  C   UNL     1      -9.833  13.031  67.240  1.00  0.00    -0.227 C  
HETATM    9  C   UNL     1      -8.784  12.279  66.852  1.00  0.00    -0.197 C  
HETATM   10  N   UNL     1      -7.478  12.677  66.939  1.00  0.00    -0.385 N  
HETATM   11  C   UNL     1      -7.084  13.891  67.403  1.00  0.00    -0.070 C  
HETATM   12  H   UNL     1      -6.757  12.022  66.638  1.00  0.00     0.000 HD 
HETATM   13  O   UNL     1      -5.902  14.212  67.473  1.00  0.00    -0.343 OA 
HETATM   14  N   UNL     1      -8.089  14.720  67.784  1.00  0.00    -0.140 N  
HETATM   15  C   UNL     1      -9.423  14.404  67.799  1.00  0.00    -0.211 C  
HETATM   16  H   UNL     1      -7.829  15.659  68.086  1.00  0.00     0.000 HD 
HETATM   17  O   UNL     1     -10.213  15.221  68.268  1.00  0.00    -0.222 OA 
ENDBRANCH   4   8
ENDBRANCH   3   4
TORSDOF 3
ENDMDL
MODEL      118
REMARK 921   NORMALIZED FREE ENERGY PREDICTED BY IDOCK:   -3.62 KCAL/MOL
REMARK 922        TOTAL FREE ENERGY PREDICTED BY IDOCK:   -4.70 KCAL/MOL
REMARK 923 INTER-LIGAND FREE ENERGY PREDICTED BY IDOCK:   -4.50 KCAL/MOL
REMARK 924 INTRA-LIGAND FREE ENERGY PREDICTED BY IDOCK:   -0.20 KCAL/MOL
REMARK 927      BINDING AFFINITY PREDICTED BY RF-SCORE:    0.00 PKD
ROOT
HETATM    1 CL   UNL     1      -9.036  14.408  67.878  1.00  0.00    -0.179 Cl 
HETATM    2  C   UNL     1     -10.351  14.672  69.050  1.00  0.00    -0.235 C  
HETATM    3  C   UNL     1     -11.707  14.145  68.567  1.00  0.00    -0.345 C  
ENDROOT
BRANCH   3   4
HETATM    4  N   UNL     1     -11.713  12.720  68.150  1.00  0.00    -0.332 NA 
BRANCH   4   5
HETATM    5  C   UNL     1     -11.707  12.396  66.688  1.00  0.00    -0.372 C  
HETATM    6 CL   UNL     1     -11.350  14.793  65.324  1.00  0.00    -0.352 Cl 
HETATM    7  C   UNL     1     -12.329  13.345  65.662  1.00  0.00    -0.470 C  
ENDBRANCH   4   5
BRANCH   4   8
HETATM    8  C   UNL     1     -11.466  11.673  69.098  1.00  0.00    -0.300 C  
HETATM    9  C   UNL     1     -12.244  11.377  70.158  1.00  0.00    -0.321 C  
HETATM   10  N   UNL     1     -11.978  10.376  71.052  1.00  0.00    -0.367 N  
HETATM   11  C   UNL     1     -10.912   9.540  70.961  1.00  0.00    -0.353 C  
HETATM   12  H   UNL     1     -12.620  10.249  71.833  1.00  0.00     0.000 HD 
HETATM   13  O   UNL     1     -10.702   8.656  71.784  1.00  0.00    -0.269 OA 
HETATM   14  N   UNL     1     -10.096   9.756  69.897  1.00  0.00    -0.236 N  
HETATM   15  C   UNL     1     -10.229  10.766  68.980  1.00  0.00    -0.213 C  
HETATM   16  H   UNL     1      -9.316   9.111  69.770  1.00  0.00     0.000 HD 
HETATM   17  O   UNL     1      -9.355  10.901  68.126  1.00  0.00    -0.155 OA 
ENDBRANCH   4   8
ENDBRANCH   3   4
TORSDOF 3
ENDMDL
MODEL      119
REMARK 921   NORMALIZED FREE ENERGY PREDICTED BY IDOCK:   -3.56 KCAL/MOL
REMARK 922        TOTAL FREE ENERGY PREDICTED BY IDOCK:   -4.63 KCAL/MOL
REMARK 923 INTER-LIGAND FREE ENERGY PREDICTED BY IDOCK:   -4.20 KCAL/MOL
REMARK 924 INTRA-LIGAND FREE ENERGY PREDICTED BY IDOCK:   -0.43 KCAL/MOL
REMARK 927      BINDING AFFINITY PREDICTED BY RF-SCORE:    0.00 PKD
ROOT
HETATM    1 CL   UNL     1      -9.766  10.810  65.610  1.00  0.00    -0.269 Cl 
HETATM    2  C   UNL     1     -11.020  12.072  65.692  1.00  0.00    -0.297 C  
HETATM    3  C   UNL     1     -11.863  12.005  66.970  1.00  0.00    -0.176 C  
ENDROOT
BRANCH   3   4
HETATM    4  N   UNL     1     -11.087  12.016  68.236  1.00  0.00    -0.225 NA 
BRANCH   4   5
HETATM    5  C   UNL     1     -10.020  13.049  68.419  1.00  0.00    -0.216 C  
HETATM    6 CL   UNL     1     -11.139  15.122  69.897  1.00  0.00    -0.281 Cl 
HETATM    7  C   UNL     1     -10.351  14.542  68.410  1.00  0.00    -0.241 C  
ENDBRANCH   4   5
BRANCH   4   8
HETATM    8  C   UNL     1     -11.508  11.238  69.365  1.00  0.00    -0.301 C  
HETATM    9  C   UNL     1     -12.347  11.654  70.333  1.00  0.00    -0.288 C  
HETATM   10  N   UNL     1     -12.726  10.891  71.404  1.00  0.00    -0.420 N  
HETATM   11  C   UNL     1     -12.323   9.610  71.603  1.00  0.00    -0.404 C  
HETATM   12  H   UNL     1     -13.349  11.310  72.093  1.00  0.00     0.000 HD 
HETATM   13  O   UNL     1     -12.679   8.957  72.578  1.00  0.00    -0.390 OA 
HETATM   14  N   UNL     1     -11.498   9.107  70.649  1.00  0.00    -0.277 N  
HETATM   15  C   UNL     1     -11.006   9.798  69.573  1.00  0.00    -0.227 C  
HETATM   16  H   UNL     1     -11.222   8.130  70.741  1.00  0.00     0.000 HD 
HETATM   17  O   UNL     1     -10.185   9.243  68.845  1.00  0.00    -0.190 OA 
ENDBRANCH   4   8
ENDBRANCH   3   4
TORSDOF 3
ENDMDL
MODEL      120
REMARK 921   NORMALIZED FREE ENERGY PREDICTED BY IDOCK:   -3.55 KCAL/MOL
REMARK 922        TOTAL FREE ENERGY PREDICTED BY IDOCK:   -4.62 KCAL/MOL
REMARK 923 INTER-LIGAND FREE ENERGY PREDICTED BY IDOCK:   -4.22 KCAL/MOL
REMARK 924 INTRA-LIGAND FREE ENERGY PREDICTED BY IDOCK:   -0.40 KCAL/MOL
REMARK 927      BINDING AFFINITY PREDICTED BY RF-SCORE:    0.00 PKD
ROOT
HETATM    1 CL   UNL     1     -10.599  10.992  63.978  1.00  0.00    -0.437 Cl 
HETATM    2  C   UNL     1      -9.695   9.906  65.062  1.00  0.00    -0.288 C  
HETATM    3  C   UNL     1      -9.310  10.562  66.393  1.00  0.00    -0.168 C  
ENDROOT
BRANCH   3   4
HETATM    4  N   UNL     1     -10.440  11.163  67.146  1.00  0.00    -0.219 NA 
BRANCH   4   5
HETATM    5  C   UNL     1     -11.324  10.268  67.958  1.00  0.00    -0.146 C  
HETATM    6 CL   UNL     1     -10.130   9.990  70.454  1.00  0.00    -0.255 Cl 
HETATM    7  C   UNL     1     -10.739   9.261  68.948  1.00  0.00    -0.156 C  
ENDBRANCH   4   5
BRANCH   4   8
HETATM    8  C   UNL     1     -10.538  12.584  67.317  1.00  0.00    -0.227 C  
HETATM    9  C   UNL     1      -9.720  13.340  68.075  1.00  0.00    -0.223 C  
HETATM   10  N   UNL     1      -9.842  14.694  68.225  1.00  0.00    -0.216 N  
HETATM   11  C   UNL     1     -10.787  15.444  67.602  1.00  0.00    -0.304 C  
HETATM   12  H   UNL     1      -9.184  15.169  68.841  1.00  0.00     0.000 HD 
HETATM   13  O   UNL     1     -10.871  16.657  67.764  1.00  0.00    -0.340 OA 
HETATM   14  N   UNL     1     -11.632  14.755  66.791  1.00  0.00    -0.354 N  
HETATM   15  C   UNL     1     -11.641  13.396  66.618  1.00  0.00    -0.362 C  
HETATM   16  H   UNL     1     -12.318  15.297  66.267  1.00  0.00     0.000 HD 
HETATM   17  O   UNL     1     -12.532  12.900  65.930  1.00  0.00    -0.527 OA 
ENDBRANCH   4   8
ENDBRANCH   3   4
TORSDOF 3
ENDMDL
MODEL      121
REMARK 921   NORMALIZED FREE ENERGY PREDICTED BY IDOCK:   -3.53 KCAL/MOL
REMARK 922        TOTAL FREE ENERGY PREDICTED BY IDOCK:   -4.59 KCAL/MOL
REMARK 923 INTER-LIGAND FREE ENERGY PREDICTED BY IDOCK:   -4.48 KCAL/MOL
REMARK 924 INTRA-LIGAND FREE ENERGY PREDICTED BY IDOCK:   -0.12 KCAL/MOL
REMARK 927      BINDING AFFINITY PREDICTED BY RF-SCORE:    0.00 PKD
ROOT
HETATM    1 CL   UNL     1     -12.868  13.381  64.649  1.00  0.00    -0.219 Cl 
HETATM    2  C   UNL     1     -11.956  12.363  63.508  1.00  0.00    -0.538 C  
HETATM    3  C   UNL     1     -10.490  12.165  63.911  1.00  0.00    -0.409 C  
ENDROOT
BRANCH   3   4
HETATM    4  N   UNL     1     -10.283  11.650  65.288  1.00  0.00    -0.260 NA 
BRANCH   4   5
HETATM    5  C   UNL     1      -9.774  10.254  65.468  1.00  0.00    -0.265 C  
HETATM    6 CL   UNL     1      -7.308  10.116  64.189  1.00  0.00    -0.130 Cl 
HETATM    7  C   UNL     1      -8.987   9.548  64.363  1.00  0.00    -0.212 C  
ENDBRANCH   4   5
BRANCH   4   8
HETATM    8  C   UNL     1     -10.311  12.534  66.418  1.00  0.00    -0.243 C  
HETATM    9  C   UNL     1      -9.517  13.608  66.591  1.00  0.00    -0.277 C  
HETATM   10  N   UNL     1      -9.562  14.431  67.684  1.00  0.00    -0.211 N  
HETATM   11  C   UNL     1     -10.435  14.278  68.712  1.00  0.00    -0.249 C  
HETATM   12  H   UNL     1      -8.901  15.205  67.727  1.00  0.00     0.000 HD 
HETATM   13  O   UNL     1     -10.443  15.032  69.680  1.00  0.00    -0.241 OA 
HETATM   14  N   UNL     1     -11.292  13.232  68.594  1.00  0.00    -0.267 N  
HETATM   15  C   UNL     1     -11.294  12.311  67.580  1.00  0.00    -0.325 C  
HETATM   16  H   UNL     1     -11.996  13.123  69.324  1.00  0.00     0.000 HD 
HETATM   17  O   UNL     1     -12.065  11.356  67.657  1.00  0.00    -0.630 OA 
ENDBRANCH   4   8
ENDBRANCH   3   4
TORSDOF 3
ENDMDL
MODEL      122
REMARK 921   NORMALIZED FREE ENERGY PREDICTED BY IDOCK:   -3.52 KCAL/MOL
REMARK 922        TOTAL FREE ENERGY PREDICTED BY IDOCK:   -4.58 KCAL/MOL
REMARK 923 INTER-LIGAND FREE ENERGY PREDICTED BY IDOCK:   -4.30 KCAL/MOL
REMARK 924 INTRA-LIGAND FREE ENERGY PREDICTED BY IDOCK:   -0.28 KCAL/MOL
REMARK 927      BINDING AFFINITY PREDICTED BY RF-SCORE:    0.00 PKD
ROOT
HETATM    1 CL   UNL     1      -7.264  10.595  68.053  1.00  0.00    -0.086 Cl 
HETATM    2  C   UNL     1      -7.808  11.272  66.498  1.00  0.00    -0.133 C  
HETATM    3  C   UNL     1      -9.132  10.676  66.008  1.00  0.00    -0.180 C  
ENDROOT
BRANCH   3   4
HETATM    4  N   UNL     1     -10.251  10.747  66.982  1.00  0.00    -0.208 NA 
BRANCH   4   5
HETATM    5  C   UNL     1     -10.748   9.480  67.605  1.00  0.00    -0.250 C  
HETATM    6 CL   UNL     1      -8.726   7.590  67.331  1.00  0.00    -0.124 Cl 
HETATM    7  C   UNL     1     -10.398   8.114  67.012  1.00  0.00    -0.333 C  
ENDBRANCH   4   5
BRANCH   4   8
HETATM    8  C   UNL     1     -10.679  12.005  67.521  1.00  0.00    -0.226 C  
HETATM    9  C   UNL     1     -10.200  12.580  68.642  1.00  0.00    -0.154 C  
HETATM   10  N   UNL     1     -10.633  13.780  69.137  1.00  0.00    -0.414 N  
HETATM   11  C   UNL     1     -11.579  14.550  68.540  1.00  0.00    -0.313 C  
HETATM   12  H   UNL     1     -10.220  14.116  70.006  1.00  0.00     0.000 HD 
HETATM   13  O   UNL     1     -11.947  15.619  69.016  1.00  0.00    -0.374 OA 
HETATM   14  N   UNL     1     -12.088  14.051  67.385  1.00  0.00    -0.500 N  
HETATM   15  C   UNL     1     -11.776  12.836  66.833  1.00  0.00    -0.380 C  
HETATM   16  H   UNL     1     -12.761  14.631  66.884  1.00  0.00     0.000 HD 
HETATM   17  O   UNL     1     -12.393  12.469  65.835  1.00  0.00    -0.626 OA 
ENDBRANCH   4   8
ENDBRANCH   3   4
TORSDOF 3
ENDMDL
MODEL      123
REMARK 921   NORMALIZED FREE ENERGY PREDICTED BY IDOCK:   -3.52 KCAL/MOL
REMARK 922        TOTAL FREE ENERGY PREDICTED BY IDOCK:   -4.58 KCAL/MOL
REMARK 923 INTER-LIGAND FREE ENERGY PREDICTED BY IDOCK:   -4.10 KCAL/MOL
REMARK 924 INTRA-LIGAND FREE ENERGY PREDICTED BY IDOCK:   -0.48 KCAL/MOL
REMARK 927      BINDING AFFINITY PREDICTED BY RF-SCORE:    0.00 PKD
ROOT
HETATM    1 CL   UNL     1     -12.353   9.478  71.657  1.00  0.00    -0.451 Cl 
HETATM    2  C   UNL     1     -12.488   7.723  71.928  1.00  0.00    -0.314 C  
HETATM    3  C   UNL     1     -12.038   6.888  70.724  1.00  0.00    -0.349 C  
ENDROOT
BRANCH   3   4
HETATM    4  N   UNL     1     -10.674   7.194  70.223  1.00  0.00    -0.231 NA 
BRANCH   4   5
HETATM    5  C   UNL     1      -9.495   6.605  70.932  1.00  0.00    -0.164 C  
HETATM    6 CL   UNL     1      -9.236   7.962  73.346  1.00  0.00    -0.338 Cl 
HETATM    7  C   UNL     1      -8.559   7.475  71.773  1.00  0.00    -0.115 C  
ENDBRANCH   4   5
BRANCH   4   8
HETATM    8  C   UNL     1     -10.482   7.815  68.944  1.00  0.00    -0.194 C  
HETATM    9  C   UNL     1     -10.230   9.123  68.739  1.00  0.00    -0.210 C  
HETATM   10  N   UNL     1     -10.057   9.689  67.505  1.00  0.00    -0.184 N  
HETATM   11  C   UNL     1     -10.090   8.994  66.340  1.00  0.00    -0.281 C  
HETATM   12  H   UNL     1      -9.894  10.694  67.459  1.00  0.00     0.000 HD 
HETATM   13  O   UNL     1      -9.937   9.535  65.250  1.00  0.00    -0.247 OA 
HETATM   14  N   UNL     1     -10.308   7.659  66.467  1.00  0.00    -0.504 N  
HETATM   15  C   UNL     1     -10.556   6.999  67.642  1.00  0.00    -0.257 C  
HETATM   16  H   UNL     1     -10.285   7.100  65.615  1.00  0.00     0.000 HD 
HETATM   17  O   UNL     1     -10.838   5.803  67.594  1.00  0.00    -0.258 OA 
ENDBRANCH   4   8
ENDBRANCH   3   4
TORSDOF 3
ENDMDL
MODEL      124
REMARK 921   NORMALIZED FREE ENERGY PREDICTED BY IDOCK:   -3.52 KCAL/MOL
REMARK 922        TOTAL FREE ENERGY PREDICTED BY IDOCK:   -4.58 KCAL/MOL
REMARK 923 INTER-LIGAND FREE ENERGY PREDICTED BY IDOCK:   -4.37 KCAL/MOL
REMARK 924 INTRA-LIGAND FREE ENERGY PREDICTED BY IDOCK:   -0.21 KCAL/MOL
REMARK 927      BINDING AFFINITY PREDICTED BY RF-SCORE:    0.00 PKD
ROOT
HETATM    1 CL   UNL     1     -12.108  14.300  67.536  1.00  0.00    -0.401 Cl 
HETATM    2  C   UNL     1     -11.072  14.499  66.101  1.00  0.00    -0.334 C  
HETATM    3  C   UNL     1     -10.568  15.934  65.913  1.00  0.00    -0.337 C  
ENDROOT
BRANCH   3   4
HETATM    4  N   UNL     1      -9.875  16.515  67.091  1.00  0.00    -0.249 NA 
BRANCH   4   5
HETATM    5  C   UNL     1     -10.451  17.736  67.737  1.00  0.00    -0.397 C  
HETATM    6 CL   UNL     1     -10.618  19.697  65.772  1.00  0.00    -0.602 Cl 
HETATM    7  C   UNL     1      -9.987  19.138  67.341  1.00  0.00    -0.351 C  
ENDBRANCH   4   5
BRANCH   4   8
HETATM    8  C   UNL     1      -8.836  15.792  67.764  1.00  0.00    -0.171 C  
HETATM    9  C   UNL     1      -7.668  15.405  67.214  1.00  0.00    -0.213 C  
HETATM   10  N   UNL     1      -6.696  14.709  67.880  1.00  0.00    -0.146 N  
HETATM   11  C   UNL     1      -6.781  14.351  69.187  1.00  0.00    -0.117 C  
HETATM   12  H   UNL     1      -5.858  14.444  67.364  1.00  0.00     0.000 HD 
HETATM   13  O   UNL     1      -5.892  13.722  69.751  1.00  0.00    -0.101 OA 
HETATM   14  N   UNL     1      -7.918  14.736  69.821  1.00  0.00    -0.408 N  
HETATM   15  C   UNL     1      -8.980  15.377  69.238  1.00  0.00    -0.261 C  
HETATM   16  H   UNL     1      -7.988  14.529  70.817  1.00  0.00     0.000 HD 
HETATM   17  O   UNL     1      -9.989  15.573  69.914  1.00  0.00    -0.281 OA 
ENDBRANCH   4   8
ENDBRANCH   3   4
TORSDOF 3
ENDMDL
MODEL      125
REMARK 921   NORMALIZED FREE ENERGY PREDICTED BY IDOCK:   -3.51 KCAL/MOL
REMARK 922        TOTAL FREE ENERGY PREDICTED BY IDOCK:   -4.57 KCAL/MOL
REMARK 923 INTER-LIGAND FREE ENERGY PREDICTED BY IDOCK:   -4.28 KCAL/MOL
REMARK 924 INTRA-LIGAND FREE ENERGY PREDICTED BY IDOCK:   -0.29 KCAL/MOL
REMARK 927      BINDING AFFINITY PREDICTED BY RF-SCORE:    0.00 PKD
ROOT
HETATM    1 CL   UNL     1     -12.156  14.819  69.974  1.00  0.00    -0.358 Cl 
HETATM    2  C   UNL     1     -10.575  15.605  69.741  1.00  0.00    -0.304 C  
HETATM    3  C   UNL     1      -9.627  14.804  68.843  1.00  0.00    -0.210 C  
ENDROOT
BRANCH   3   4
HETATM    4  N   UNL     1     -10.181  14.436  67.515  1.00  0.00    -0.239 NA 
BRANCH   4   5
HETATM    5  C   UNL     1     -10.738  15.517  66.641  1.00  0.00    -0.306 C  
HETATM    6 CL   UNL     1     -12.086  14.264  64.556  1.00  0.00    -0.480 Cl 
HETATM    7  C   UNL     1     -10.798  15.356  65.121  1.00  0.00    -0.431 C  
ENDBRANCH   4   5
BRANCH   4   8
HETATM    8  C   UNL     1      -9.959  13.133  66.959  1.00  0.00    -0.244 C  
HETATM    9  C   UNL     1      -8.862  12.748  66.279  1.00  0.00     0.140 C  
HETATM   10  N   UNL     1      -8.681  11.498  65.753  1.00  0.00    -0.387 N  
HETATM   11  C   UNL     1      -9.575  10.485  65.880  1.00  0.00    -0.204 C  
HETATM   12  H   UNL     1      -7.821  11.317  65.235  1.00  0.00     0.000 HD 
HETATM   13  O   UNL     1      -9.382   9.377  65.391  1.00  0.00    -0.232 OA 
HETATM   14  N   UNL     1     -10.697  10.787  66.584  1.00  0.00    -0.236 N  
HETATM   15  C   UNL     1     -11.010  12.018  67.097  1.00  0.00    -0.270 C  
HETATM   16  H   UNL     1     -11.363  10.032  66.743  1.00  0.00     0.000 HD 
HETATM   17  O   UNL     1     -12.111  12.170  67.625  1.00  0.00    -0.522 OA 
ENDBRANCH   4   8
ENDBRANCH   3   4
TORSDOF 3
ENDMDL
MODEL      126
REMARK 921   NORMALIZED FREE ENERGY PREDICTED BY IDOCK:   -3.49 KCAL/MOL
REMARK 922        TOTAL FREE ENERGY PREDICTED BY IDOCK:   -4.54 KCAL/MOL
REMARK 923 INTER-LIGAND FREE ENERGY PREDICTED BY IDOCK:   -4.82 KCAL/MOL
REMARK 924 INTRA-LIGAND FREE ENERGY PREDICTED BY IDOCK:    0.28 KCAL/MOL
REMARK 927      BINDING AFFINITY PREDICTED BY RF-SCORE:    0.00 PKD
ROOT
HETATM    1 CL   UNL     1      -6.936  12.089  67.024  1.00  0.00    -0.128 Cl 
HETATM    2  C   UNL     1      -7.989  11.318  68.235  1.00  0.00    -0.134 C  
HETATM    3  C   UNL     1      -9.389  11.939  68.303  1.00  0.00    -0.193 C  
ENDROOT
BRANCH   3   4
HETATM    4  N   UNL     1     -10.111  12.002  67.007  1.00  0.00    -0.202 NA 
BRANCH   4   5
HETATM    5  C   UNL     1     -10.782  10.766  66.494  1.00  0.00    -0.181 C  
HETATM    6 CL   UNL     1      -9.226   8.603  67.290  1.00  0.00    -0.158 Cl 
HETATM    7  C   UNL     1      -9.969   9.571  65.993  1.00  0.00    -0.278 C  
ENDBRANCH   4   5
BRANCH   4   8
HETATM    8  C   UNL     1     -10.393  13.261  66.382  1.00  0.00    -0.286 C  
HETATM    9  C   UNL     1     -10.687  14.407  67.027  1.00  0.00    -0.285 C  
HETATM   10  N   UNL     1     -10.959  15.594  66.402  1.00  0.00    -0.253 N  
HETATM   11  C   UNL     1     -10.937  15.766  65.056  1.00  0.00    -0.417 C  
HETATM   12  H   UNL     1     -11.192  16.398  66.984  1.00  0.00     0.000 HD 
HETATM   13  O   UNL     1     -11.192  16.844  64.530  1.00  0.00    -1.057 OA 
HETATM   14  N   UNL     1     -10.616  14.660  64.336  1.00  0.00    -0.502 N  
HETATM   15  C   UNL     1     -10.389  13.410  64.851  1.00  0.00    -0.366 C  
HETATM   16  H   UNL     1     -10.538  14.769  63.325  1.00  0.00     0.000 HD 
HETATM   17  O   UNL     1     -10.208  12.478  64.069  1.00  0.00    -0.385 OA 
ENDBRANCH   4   8
ENDBRANCH   3   4
TORSDOF 3
ENDMDL
MODEL      127
REMARK 921   NORMALIZED FREE ENERGY PREDICTED BY IDOCK:   -3.46 KCAL/MOL
REMARK 922        TOTAL FREE ENERGY PREDICTED BY IDOCK:   -4.52 KCAL/MOL
REMARK 923 INTER-LIGAND FREE ENERGY PREDICTED BY IDOCK:   -4.08 KCAL/MOL
REMARK 924 INTRA-LIGAND FREE ENERGY PREDICTED BY IDOCK:   -0.44 KCAL/MOL
REMARK 927      BINDING AFFINITY PREDICTED BY RF-SCORE:    0.00 PKD
ROOT
HETATM    1 CL   UNL     1      -8.073   8.966  67.933  1.00  0.00    -0.106 Cl 
HETATM    2  C   UNL     1      -7.348   8.349  69.438  1.00  0.00    -0.070 C  
HETATM    3  C   UNL     1      -8.314   8.366  70.628  1.00  0.00    -0.125 C  
ENDROOT
BRANCH   3   4
HETATM    4  N   UNL     1      -9.606   7.672  70.397  1.00  0.00    -0.168 NA 
BRANCH   4   5
HETATM    5  C   UNL     1      -9.593   6.313  69.769  1.00  0.00    -0.151 C  
HETATM    6 CL   UNL     1     -10.734   6.569  67.247  1.00  0.00    -0.376 Cl 
HETATM    7  C   UNL     1     -10.738   5.842  68.872  1.00  0.00    -0.300 C  
ENDBRANCH   4   5
BRANCH   4   8
HETATM    8  C   UNL     1     -10.819   8.156  70.990  1.00  0.00    -0.235 C  
HETATM    9  C   UNL     1     -11.657   9.053  70.436  1.00  0.00    -0.117 C  
HETATM   10  N   UNL     1     -12.806   9.502  71.030  1.00  0.00    -0.499 N  
HETATM   11  C   UNL     1     -13.252   9.074  72.238  1.00  0.00    -0.460 C  
HETATM   12  H   UNL     1     -13.359  10.200  70.534  1.00  0.00     0.000 HD 
HETATM   13  O   UNL     1     -14.284   9.504  72.743  1.00  0.00    -0.332 OA 
HETATM   14  N   UNL     1     -12.474   8.142  72.847  1.00  0.00    -0.571 N  
HETATM   15  C   UNL     1     -11.277   7.670  72.376  1.00  0.00    -0.320 C  
HETATM   16  H   UNL     1     -12.811   7.761  73.731  1.00  0.00     0.000 HD 
HETATM   17  O   UNL     1     -10.631   6.901  73.085  1.00  0.00    -0.250 OA 
ENDBRANCH   4   8
ENDBRANCH   3   4
TORSDOF 3
ENDMDL
MODEL      128
REMARK 921   NORMALIZED FREE ENERGY PREDICTED BY IDOCK:   -3.46 KCAL/MOL
REMARK 922        TOTAL FREE ENERGY PREDICTED BY IDOCK:   -4.52 KCAL/MOL
REMARK 923 INTER-LIGAND FREE ENERGY PREDICTED BY IDOCK:   -4.85 KCAL/MOL
REMARK 924 INTRA-LIGAND FREE ENERGY PREDICTED BY IDOCK:    0.34 KCAL/MOL
REMARK 927      BINDING AFFINITY PREDICTED BY RF-SCORE:    0.00 PKD
ROOT
HETATM    1 CL   UNL     1     -10.768  10.838  69.654  1.00  0.00    -0.274 Cl 
HETATM    2  C   UNL     1     -11.494  12.461  69.549  1.00  0.00    -0.240 C  
HETATM    3  C   UNL     1     -10.517  13.530  69.049  1.00  0.00    -0.051 C  
ENDROOT
BRANCH   3   4
HETATM    4  N   UNL     1      -9.849  13.217  67.760  1.00  0.00    -0.218 NA 
BRANCH   4   5
HETATM    5  C   UNL     1      -8.548  12.477  67.781  1.00  0.00    -0.178 C  
HETATM    6 CL   UNL     1      -8.526  10.805  65.559  1.00  0.00    -0.172 Cl 
HETATM    7  C   UNL     1      -8.456  11.021  67.325  1.00  0.00    -0.130 C  
ENDBRANCH   4   5
BRANCH   4   8
HETATM    8  C   UNL     1     -10.543  13.376  66.514  1.00  0.00    -0.287 C  
HETATM    9  C   UNL     1     -10.305  14.340  65.603  1.00  0.00    -0.336 C  
HETATM   10  N   UNL     1     -10.989  14.471  64.425  1.00  0.00    -0.621 N  
HETATM   11  C   UNL     1     -11.970  13.625  64.019  1.00  0.00    -0.431 C  
HETATM   12  H   UNL     1     -10.745  15.251  63.815  1.00  0.00     0.000 HD 
HETATM   13  O   UNL     1     -12.566  13.777  62.958  1.00  0.00    -0.721 OA 
HETATM   14  N   UNL     1     -12.245  12.605  64.872  1.00  0.00    -0.449 N  
HETATM   15  C   UNL     1     -11.671  12.415  66.101  1.00  0.00    -0.400 C  
HETATM   16  H   UNL     1     -12.940  11.922  64.571  1.00  0.00     0.000 HD 
HETATM   17  O   UNL     1     -12.093  11.504  66.811  1.00  0.00    -0.345 OA 
ENDBRANCH   4   8
ENDBRANCH   3   4
TORSDOF 3
ENDMDL
MODEL      129
REMARK 921   NORMALIZED FREE ENERGY PREDICTED BY IDOCK:   -3.44 KCAL/MOL
REMARK 922        TOTAL FREE ENERGY PREDICTED BY IDOCK:   -4.49 KCAL/MOL
REMARK 923 INTER-LIGAND FREE ENERGY PREDICTED BY IDOCK:   -4.15 KCAL/MOL
REMARK 924 INTRA-LIGAND FREE ENERGY PREDICTED BY IDOCK:   -0.34 KCAL/MOL
REMARK 927      BINDING AFFINITY PREDICTED BY RF-SCORE:    0.00 PKD
ROOT
HETATM    1 CL   UNL     1      -8.242   5.302  69.601  1.00  0.00    -0.093 Cl 
HETATM    2  C   UNL     1      -8.100   6.418  70.982  1.00  0.00    -0.121 C  
HETATM    3  C   UNL     1      -8.206   7.893  70.581  1.00  0.00    -0.114 C  
ENDROOT
BRANCH   3   4
HETATM    4  N   UNL     1      -9.419   8.246  69.800  1.00  0.00    -0.162 NA 
BRANCH   4   5
HETATM    5  C   UNL     1      -9.346   8.225  68.305  1.00  0.00    -0.134 C  
HETATM    6 CL   UNL     1     -10.578  10.547  67.397  1.00  0.00    -0.290 Cl 
HETATM    7  C   UNL     1     -10.490   8.769  67.447  1.00  0.00    -0.279 C  
ENDBRANCH   4   5
BRANCH   4   8
HETATM    8  C   UNL     1     -10.700   8.348  70.436  1.00  0.00    -0.231 C  
HETATM    9  C   UNL     1     -11.158   9.424  71.106  1.00  0.00    -0.362 C  
HETATM   10  N   UNL     1     -12.384   9.490  71.710  1.00  0.00    -0.382 N  
HETATM   11  C   UNL     1     -13.299   8.488  71.680  1.00  0.00    -0.343 C  
HETATM   12  H   UNL     1     -12.625  10.344  72.212  1.00  0.00     0.000 HD 
HETATM   13  O   UNL     1     -14.388   8.580  72.238  1.00  0.00    -0.435 OA 
HETATM   14  N   UNL     1     -12.922   7.379  70.994  1.00  0.00    -0.588 N  
HETATM   15  C   UNL     1     -11.700   7.179  70.408  1.00  0.00    -0.230 C  
HETATM   16  H   UNL     1     -13.609   6.629  70.907  1.00  0.00     0.000 HD 
HETATM   17  O   UNL     1     -11.463   6.082  69.906  1.00  0.00    -0.388 OA 
ENDBRANCH   4   8
ENDBRANCH   3   4
TORSDOF 3
ENDMDL
MODEL      130
REMARK 921   NORMALIZED FREE ENERGY PREDICTED BY IDOCK:   -3.44 KCAL/MOL
REMARK 922        TOTAL FREE ENERGY PREDICTED BY IDOCK:   -4.49 KCAL/MOL
REMARK 923 INTER-LIGAND FREE ENERGY PREDICTED BY IDOCK:   -4.17 KCAL/MOL
REMARK 924 INTRA-LIGAND FREE ENERGY PREDICTED BY IDOCK:   -0.32 KCAL/MOL
REMARK 927      BINDING AFFINITY PREDICTED BY RF-SCORE:    0.00 PKD
ROOT
HETATM    1 CL   UNL     1     -12.238  12.538  63.581  1.00  0.00    -0.606 Cl 
HETATM    2  C   UNL     1     -12.875  13.757  64.712  1.00  0.00    -0.113 C  
HETATM    3  C   UNL     1     -12.244  13.679  66.106  1.00  0.00    -0.444 C  
ENDROOT
BRANCH   3   4
HETATM    4  N   UNL     1     -10.760  13.733  66.127  1.00  0.00    -0.281 NA 
BRANCH   4   5
HETATM    5  C   UNL     1     -10.068  14.868  65.438  1.00  0.00    -0.367 C  
HETATM    6 CL   UNL     1     -10.296  17.087  67.098  1.00  0.00    -0.307 Cl 
HETATM    7  C   UNL     1     -10.603  16.297  65.532  1.00  0.00    -0.353 C  
ENDBRANCH   4   5
BRANCH   4   8
HETATM    8  C   UNL     1     -10.004  12.879  66.998  1.00  0.00    -0.244 C  
HETATM    9  C   UNL     1      -9.363  13.272  68.116  1.00  0.00    -0.220 C  
HETATM   10  N   UNL     1      -8.644  12.436  68.925  1.00  0.00    -0.349 N  
HETATM   11  C   UNL     1      -8.513  11.101  68.713  1.00  0.00    -0.134 C  
HETATM   12  H   UNL     1      -8.177  12.840  69.737  1.00  0.00     0.000 HD 
HETATM   13  O   UNL     1      -7.855  10.382  69.456  1.00  0.00    -0.151 OA 
HETATM   14  N   UNL     1      -9.160  10.623  67.619  1.00  0.00    -0.142 N  
HETATM   15  C   UNL     1      -9.854  11.376  66.708  1.00  0.00    -0.206 C  
HETATM   16  H   UNL     1      -9.127   9.616  67.462  1.00  0.00     0.000 HD 
HETATM   17  O   UNL     1     -10.304  10.819  65.708  1.00  0.00    -0.251 OA 
ENDBRANCH   4   8
ENDBRANCH   3   4
TORSDOF 3
ENDMDL
MODEL      131
REMARK 921   NORMALIZED FREE ENERGY PREDICTED BY IDOCK:   -3.43 KCAL/MOL
REMARK 922        TOTAL FREE ENERGY PREDICTED BY IDOCK:   -4.48 KCAL/MOL
REMARK 923 INTER-LIGAND FREE ENERGY PREDICTED BY IDOCK:   -4.32 KCAL/MOL
REMARK 924 INTRA-LIGAND FREE ENERGY PREDICTED BY IDOCK:   -0.16 KCAL/MOL
REMARK 927      BINDING AFFINITY PREDICTED BY RF-SCORE:    0.00 PKD
ROOT
HETATM    1 CL   UNL     1      -7.317  11.253  68.231  1.00  0.00    -0.089 Cl 
HETATM    2  C   UNL     1      -7.344  11.008  66.467  1.00  0.00    -0.144 C  
HETATM    3  C   UNL     1      -8.745  10.726  65.916  1.00  0.00    -0.181 C  
ENDROOT
BRANCH   3   4
HETATM    4  N   UNL     1      -9.776  11.732  66.277  1.00  0.00    -0.216 NA 
BRANCH   4   5
HETATM    5  C   UNL     1     -10.235  12.703  65.234  1.00  0.00    -0.284 C  
HETATM    6 CL   UNL     1     -12.683  13.713  66.082  1.00  0.00    -0.378 Cl 
HETATM    7  C   UNL     1     -11.714  12.838  64.871  1.00  0.00    -0.352 C  
ENDBRANCH   4   5
BRANCH   4   8
HETATM    8  C   UNL     1     -10.512  11.624  67.503  1.00  0.00    -0.200 C  
HETATM    9  C   UNL     1     -11.318  10.599  67.845  1.00  0.00    -0.268 C  
HETATM   10  N   UNL     1     -12.014  10.527  69.021  1.00  0.00    -0.531 N  
HETATM   11  C   UNL     1     -11.954  11.467  69.998  1.00  0.00    -0.357 C  
HETATM   12  H   UNL     1     -12.615   9.717  69.172  1.00  0.00     0.000 HD 
HETATM   13  O   UNL     1     -12.597  11.372  71.037  1.00  0.00    -0.389 OA 
HETATM   14  N   UNL     1     -11.135  12.519  69.739  1.00  0.00    -0.471 N  
HETATM   15  C   UNL     1     -10.443  12.726  68.575  1.00  0.00    -0.238 C  
HETATM   16  H   UNL     1     -11.026  13.216  70.476  1.00  0.00     0.000 HD 
HETATM   17  O   UNL     1      -9.819  13.777  68.442  1.00  0.00    -0.224 OA 
ENDBRANCH   4   8
ENDBRANCH   3   4
TORSDOF 3
ENDMDL
MODEL      132
REMARK 921   NORMALIZED FREE ENERGY PREDICTED BY IDOCK:   -3.42 KCAL/MOL
REMARK 922        TOTAL FREE ENERGY PREDICTED BY IDOCK:   -4.46 KCAL/MOL
REMARK 923 INTER-LIGAND FREE ENERGY PREDICTED BY IDOCK:   -4.33 KCAL/MOL
REMARK 924 INTRA-LIGAND FREE ENERGY PREDICTED BY IDOCK:   -0.13 KCAL/MOL
REMARK 927      BINDING AFFINITY PREDICTED BY RF-SCORE:    0.00 PKD
ROOT
HETATM    1 CL   UNL     1     -10.627  11.827  65.277  1.00  0.00    -0.314 Cl 
HETATM    2  C   UNL     1     -11.941  13.026  65.350  1.00  0.00    -0.414 C  
HETATM    3  C   UNL     1     -12.372  13.367  66.780  1.00  0.00    -0.231 C  
ENDROOT
BRANCH   3   4
HETATM    4  N   UNL     1     -11.273  13.803  67.679  1.00  0.00    -0.283 NA 
BRANCH   4   5
HETATM    5  C   UNL     1     -11.002  13.015  68.923  1.00  0.00    -0.230 C  
HETATM    6 CL   UNL     1     -10.838  10.342  68.174  1.00  0.00    -0.287 Cl 
HETATM    7  C   UNL     1     -11.612  11.628  69.132  1.00  0.00    -0.314 C  
ENDBRANCH   4   5
BRANCH   4   8
HETATM    8  C   UNL     1     -10.320  14.787  67.254  1.00  0.00    -0.247 C  
HETATM    9  C   UNL     1      -9.173  14.532  66.594  1.00  0.00    -0.266 C  
HETATM   10  N   UNL     1      -8.278  15.492  66.207  1.00  0.00    -0.312 N  
HETATM   11  C   UNL     1      -8.454  16.821  66.416  1.00  0.00    -0.303 C  
HETATM   12  H   UNL     1      -7.428  15.190  65.732  1.00  0.00     0.000 HD 
HETATM   13  O   UNL     1      -7.627  17.654  66.060  1.00  0.00    -0.414 OA 
HETATM   14  N   UNL     1      -9.606  17.161  67.050  1.00  0.00    -0.252 N  
HETATM   15  C   UNL     1     -10.538  16.283  67.536  1.00  0.00    -0.310 C  
HETATM   16  H   UNL     1      -9.793  18.156  67.174  1.00  0.00     0.000 HD 
HETATM   17  O   UNL     1     -11.486  16.731  68.180  1.00  0.00    -0.157 OA 
ENDBRANCH   4   8
ENDBRANCH   3   4
TORSDOF 3
ENDMDL
MODEL      133
REMARK 921   NORMALIZED FREE ENERGY PREDICTED BY IDOCK:   -3.42 KCAL/MOL
REMARK 922        TOTAL FREE ENERGY PREDICTED BY IDOCK:   -4.46 KCAL/MOL
REMARK 923 INTER-LIGAND FREE ENERGY PREDICTED BY IDOCK:   -4.42 KCAL/MOL
REMARK 924 INTRA-LIGAND FREE ENERGY PREDICTED BY IDOCK:   -0.04 KCAL/MOL
REMARK 927      BINDING AFFINITY PREDICTED BY RF-SCORE:    0.00 PKD
ROOT
HETATM    1 CL   UNL     1      -5.846  18.047  65.944  1.00  0.00    -0.232 Cl 
HETATM    2  C   UNL     1      -5.939  16.793  67.205  1.00  0.00    -0.173 C  
HETATM    3  C   UNL     1      -6.706  17.244  68.453  1.00  0.00    -0.181 C  
ENDROOT
BRANCH   3   4
HETATM    4  N   UNL     1      -8.071  17.770  68.195  1.00  0.00    -0.256 NA 
BRANCH   4   5
HETATM    5  C   UNL     1      -8.236  19.222  67.873  1.00  0.00    -0.305 C  
HETATM    6 CL   UNL     1     -10.927  19.628  67.299  1.00  0.00    -0.525 Cl 
HETATM    7  C   UNL     1      -9.219  19.690  66.799  1.00  0.00    -0.359 C  
ENDBRANCH   4   5
BRANCH   4   8
HETATM    8  C   UNL     1      -9.177  16.879  67.996  1.00  0.00    -0.235 C  
HETATM    9  C   UNL     1     -10.025  16.457  68.954  1.00  0.00    -0.257 C  
HETATM   10  N   UNL     1     -11.069  15.600  68.735  1.00  0.00    -0.287 N  
HETATM   11  C   UNL     1     -11.394  15.095  67.517  1.00  0.00    -0.320 C  
HETATM   12  H   UNL     1     -11.638  15.325  69.535  1.00  0.00     0.000 HD 
HETATM   13  O   UNL     1     -12.334  14.325  67.358  1.00  0.00    -0.311 OA 
HETATM   14  N   UNL     1     -10.602  15.502  66.492  1.00  0.00    -0.304 N  
HETATM   15  C   UNL     1      -9.496  16.303  66.605  1.00  0.00    -0.248 C  
HETATM   16  H   UNL     1     -10.852  15.183  65.556  1.00  0.00     0.000 HD 
HETATM   17  O   UNL     1      -8.814  16.506  65.603  1.00  0.00    -0.428 OA 
ENDBRANCH   4   8
ENDBRANCH   3   4
TORSDOF 3
ENDMDL
MODEL      134
REMARK 921   NORMALIZED FREE ENERGY PREDICTED BY IDOCK:   -3.41 KCAL/MOL
REMARK 922        TOTAL FREE ENERGY PREDICTED BY IDOCK:   -4.45 KCAL/MOL
REMARK 923 INTER-LIGAND FREE ENERGY PREDICTED BY IDOCK:   -4.07 KCAL/MOL
REMARK 924 INTRA-LIGAND FREE ENERGY PREDICTED BY IDOCK:   -0.38 KCAL/MOL
REMARK 927      BINDING AFFINITY PREDICTED BY RF-SCORE:    0.00 PKD
ROOT
HETATM    1 CL   UNL     1     -10.341  14.311  65.164  1.00  0.00    -0.417 Cl 
HETATM    2  C   UNL     1     -11.425  14.330  66.577  1.00  0.00    -0.360 C  
HETATM    3  C   UNL     1     -11.706  12.935  67.144  1.00  0.00    -0.377 C  
ENDROOT
BRANCH   3   4
HETATM    4  N   UNL     1     -10.498  12.137  67.475  1.00  0.00    -0.207 NA 
BRANCH   4   5
HETATM    5  C   UNL     1      -9.378  12.798  68.216  1.00  0.00    -0.194 C  
HETATM    6 CL   UNL     1      -7.013  11.652  67.306  1.00  0.00    -0.120 Cl 
HETATM    7  C   UNL     1      -8.136  12.013  68.640  1.00  0.00    -0.069 C  
ENDBRANCH   4   5
BRANCH   4   8
HETATM    8  C   UNL     1     -10.496  10.710  67.333  1.00  0.00    -0.235 C  
HETATM    9  C   UNL     1     -10.939   9.830  68.253  1.00  0.00    -0.164 C  
HETATM   10  N   UNL     1     -10.918   8.472  68.091  1.00  0.00    -0.457 N  
HETATM   11  C   UNL     1     -10.475   7.848  66.971  1.00  0.00    -0.349 C  
HETATM   12  H   UNL     1     -11.257   7.894  68.860  1.00  0.00     0.000 HD 
HETATM   13  O   UNL     1     -10.465   6.626  66.863  1.00  0.00    -0.243 OA 
HETATM   14  N   UNL     1     -10.041   8.671  65.982  1.00  0.00    -0.421 N  
HETATM   15  C   UNL     1      -9.957  10.036  66.059  1.00  0.00    -0.267 C  
HETATM   16  H   UNL     1      -9.752   8.235  65.106  1.00  0.00     0.000 HD 
HETATM   17  O   UNL     1      -9.447  10.646  65.120  1.00  0.00    -0.194 OA 
ENDBRANCH   4   8
ENDBRANCH   3   4
TORSDOF 3
ENDMDL
MODEL      135
REMARK 921   NORMALIZED FREE ENERGY PREDICTED BY IDOCK:   -3.40 KCAL/MOL
REMARK 922        TOTAL FREE ENERGY PREDICTED BY IDOCK:   -4.44 KCAL/MOL
REMARK 923 INTER-LIGAND FREE ENERGY PREDICTED BY IDOCK:   -4.74 KCAL/MOL
REMARK 924 INTRA-LIGAND FREE ENERGY PREDICTED BY IDOCK:    0.30 KCAL/MOL
REMARK 927      BINDING AFFINITY PREDICTED BY RF-SCORE:    0.00 PKD
ROOT
HETATM    1 CL   UNL     1     -11.101  12.953  63.920  1.00  0.00    -0.450 Cl 
HETATM    2  C   UNL     1     -12.253  14.276  64.228  1.00  0.00    -0.423 C  
HETATM    3  C   UNL     1     -12.896  14.208  65.617  1.00  0.00    -0.371 C  
ENDROOT
BRANCH   3   4
HETATM    4  N   UNL     1     -11.938  14.132  66.749  1.00  0.00    -0.431 NA 
BRANCH   4   5
HETATM    5  C   UNL     1     -12.066  13.008  67.729  1.00  0.00    -0.193 C  
HETATM    6 CL   UNL     1     -12.518  14.150  70.224  1.00  0.00    -0.415 Cl 
HETATM    7  C   UNL     1     -11.524  13.131  69.154  1.00  0.00    -0.305 C  
ENDBRANCH   4   5
BRANCH   4   8
HETATM    8  C   UNL     1     -10.758  14.947  66.771  1.00  0.00    -0.312 C  
HETATM    9  C   UNL     1      -9.637  14.722  66.057  1.00  0.00    -0.301 C  
HETATM   10  N   UNL     1      -8.523  15.515  66.104  1.00  0.00    -0.365 N  
HETATM   11  C   UNL     1      -8.424  16.641  66.855  1.00  0.00    -0.215 C  
HETATM   12  H   UNL     1      -7.718  15.242  65.539  1.00  0.00     0.000 HD 
HETATM   13  O   UNL     1      -7.406  17.325  66.877  1.00  0.00    -0.171 OA 
HETATM   14  N   UNL     1      -9.528  16.953  67.580  1.00  0.00    -0.239 N  
HETATM   15  C   UNL     1     -10.671  16.200  67.659  1.00  0.00    -0.318 C  
HETATM   16  H   UNL     1      -9.505  17.822  68.113  1.00  0.00     0.000 HD 
HETATM   17  O   UNL     1     -11.554  16.555  68.437  1.00  0.00    -0.231 OA 
ENDBRANCH   4   8
ENDBRANCH   3   4
TORSDOF 3
ENDMDL
MODEL      136
REMARK 921   NORMALIZED FREE ENERGY PREDICTED BY IDOCK:   -3.40 KCAL/MOL
REMARK 922        TOTAL FREE ENERGY PREDICTED BY IDOCK:   -4.44 KCAL/MOL
REMARK 923 INTER-LIGAND FREE ENERGY PREDICTED BY IDOCK:   -4.43 KCAL/MOL
REMARK 924 INTRA-LIGAND FREE ENERGY PREDICTED BY IDOCK:   -0.01 KCAL/MOL
REMARK 927      BINDING AFFINITY PREDICTED BY RF-SCORE:    0.00 PKD
ROOT
HETATM    1 CL   UNL     1      -7.843  12.787  67.514  1.00  0.00    -0.159 Cl 
HETATM    2  C   UNL     1      -7.188  11.167  67.860  1.00  0.00    -0.090 C  
HETATM    3  C   UNL     1      -8.051  10.360  68.836  1.00  0.00    -0.129 C  
ENDROOT
BRANCH   3   4
HETATM    4  N   UNL     1      -9.479  10.229  68.450  1.00  0.00    -0.142 NA 
BRANCH   4   5
HETATM    5  C   UNL     1      -9.817   9.929  67.023  1.00  0.00    -0.191 C  
HETATM    6 CL   UNL     1     -10.815   7.334  66.951  1.00  0.00    -0.384 Cl 
HETATM    7  C   UNL     1      -9.605   8.533  66.434  1.00  0.00    -0.245 C  
ENDBRANCH   4   5
BRANCH   4   8
HETATM    8  C   UNL     1     -10.504  10.127  69.448  1.00  0.00    -0.233 C  
HETATM    9  C   UNL     1     -10.379   9.509  70.639  1.00  0.00    -0.302 C  
HETATM   10  N   UNL     1     -11.379   9.422  71.569  1.00  0.00    -0.379 N  
HETATM   11  C   UNL     1     -12.610   9.973  71.414  1.00  0.00    -0.415 C  
HETATM   12  H   UNL     1     -11.187   8.912  72.431  1.00  0.00     0.000 HD 
HETATM   13  O   UNL     1     -13.485   9.869  72.267  1.00  0.00    -0.430 OA 
HETATM   14  N   UNL     1     -12.803  10.642  70.248  1.00  0.00    -0.420 N  
HETATM   15  C   UNL     1     -11.898  10.738  69.224  1.00  0.00    -0.288 C  
HETATM   16  H   UNL     1     -13.699  11.113  70.125  1.00  0.00     0.000 HD 
HETATM   17  O   UNL     1     -12.248  11.291  68.182  1.00  0.00    -0.622 OA 
ENDBRANCH   4   8
ENDBRANCH   3   4
TORSDOF 3
ENDMDL
MODEL      137
REMARK 921   NORMALIZED FREE ENERGY PREDICTED BY IDOCK:   -3.39 KCAL/MOL
REMARK 922        TOTAL FREE ENERGY PREDICTED BY IDOCK:   -4.44 KCAL/MOL
REMARK 923 INTER-LIGAND FREE ENERGY PREDICTED BY IDOCK:   -4.16 KCAL/MOL
REMARK 924 INTRA-LIGAND FREE ENERGY PREDICTED BY IDOCK:   -0.28 KCAL/MOL
REMARK 927      BINDING AFFINITY PREDICTED BY RF-SCORE:    0.00 PKD
ROOT
HETATM    1 CL   UNL     1      -9.608  11.873  64.536  1.00  0.00    -0.109 Cl 
HETATM    2  C   UNL     1      -8.946  11.812  66.188  1.00  0.00    -0.145 C  
HETATM    3  C   UNL     1      -8.912  13.181  66.877  1.00  0.00    -0.209 C  
ENDROOT
BRANCH   3   4
HETATM    4  N   UNL     1     -10.210  13.902  66.905  1.00  0.00    -0.254 NA 
BRANCH   4   5
HETATM    5  C   UNL     1     -11.405  13.215  67.489  1.00  0.00    -0.298 C  
HETATM    6 CL   UNL     1     -12.287  14.779  69.612  1.00  0.00    -0.292 Cl 
HETATM    7  C   UNL     1     -11.670  13.227  68.995  1.00  0.00    -0.322 C  
ENDBRANCH   4   5
BRANCH   4   8
HETATM    8  C   UNL     1     -10.278  15.307  66.629  1.00  0.00    -0.271 C  
HETATM    9  C   UNL     1     -10.631  15.858  65.451  1.00  0.00    -0.419 C  
HETATM   10  N   UNL     1     -10.680  17.205  65.215  1.00  0.00    -0.187 N  
HETATM   11  C   UNL     1     -10.405  18.150  66.151  1.00  0.00    -0.385 C  
HETATM   12  H   UNL     1     -10.939  17.518  64.280  1.00  0.00     0.000 HD 
HETATM   13  O   UNL     1     -10.454  19.350  65.902  1.00  0.00    -0.487 OA 
HETATM   14  N   UNL     1     -10.071  17.671  67.376  1.00  0.00    -0.318 N  
HETATM   15  C   UNL     1      -9.929  16.349  67.706  1.00  0.00    -0.248 C  
HETATM   16  H   UNL     1      -9.912  18.356  68.116  1.00  0.00     0.000 HD 
HETATM   17  O   UNL     1      -9.521  16.066  68.832  1.00  0.00    -0.210 OA 
ENDBRANCH   4   8
ENDBRANCH   3   4
TORSDOF 3
ENDMDL
MODEL      138
REMARK 921   NORMALIZED FREE ENERGY PREDICTED BY IDOCK:   -3.37 KCAL/MOL
REMARK 922        TOTAL FREE ENERGY PREDICTED BY IDOCK:   -4.41 KCAL/MOL
REMARK 923 INTER-LIGAND FREE ENERGY PREDICTED BY IDOCK:   -4.56 KCAL/MOL
REMARK 924 INTRA-LIGAND FREE ENERGY PREDICTED BY IDOCK:    0.15 KCAL/MOL
REMARK 927      BINDING AFFINITY PREDICTED BY RF-SCORE:    0.00 PKD
ROOT
HETATM    1 CL   UNL     1      -7.852  10.446  69.393  1.00  0.00    -0.153 Cl 
HETATM    2  C   UNL     1      -9.103   9.332  70.000  1.00  0.00    -0.210 C  
HETATM    3  C   UNL     1     -10.429   9.438  69.239  1.00  0.00    -0.218 C  
ENDROOT
BRANCH   3   4
HETATM    4  N   UNL     1     -10.320   9.283  67.766  1.00  0.00    -0.223 NA 
BRANCH   4   5
HETATM    5  C   UNL     1     -10.498   7.922  67.168  1.00  0.00    -0.344 C  
HETATM    6 CL   UNL     1     -11.351   6.239  69.210  1.00  0.00    -0.474 Cl 
HETATM    7  C   UNL     1     -10.157   6.657  67.957  1.00  0.00    -0.154 C  
ENDBRANCH   4   5
BRANCH   4   8
HETATM    8  C   UNL     1     -10.310  10.429  66.904  1.00  0.00    -0.240 C  
HETATM    9  C   UNL     1      -9.478  10.617  65.860  1.00  0.00    -0.196 C  
HETATM   10  N   UNL     1      -9.487  11.725  65.058  1.00  0.00    -0.417 N  
HETATM   11  C   UNL     1     -10.356  12.758  65.201  1.00  0.00    -0.295 C  
HETATM   12  H   UNL     1      -8.799  11.779  64.308  1.00  0.00     0.000 HD 
HETATM   13  O   UNL     1     -10.332  13.740  64.467  1.00  0.00    -0.437 OA 
HETATM   14  N   UNL     1     -11.250  12.627  66.215  1.00  0.00    -0.296 N  
HETATM   15  C   UNL     1     -11.291  11.595  67.115  1.00  0.00    -0.306 C  
HETATM   16  H   UNL     1     -11.952  13.360  66.315  1.00  0.00     0.000 HD 
HETATM   17  O   UNL     1     -12.093  11.659  68.045  1.00  0.00    -0.597 OA 
ENDBRANCH   4   8
ENDBRANCH   3   4
TORSDOF 3
ENDMDL
MODEL      139
REMARK 921   NORMALIZED FREE ENERGY PREDICTED BY IDOCK:   -3.36 KCAL/MOL
REMARK 922        TOTAL FREE ENERGY PREDICTED BY IDOCK:   -4.40 KCAL/MOL
REMARK 923 INTER-LIGAND FREE ENERGY PREDICTED BY IDOCK:   -4.22 KCAL/MOL
REMARK 924 INTRA-LIGAND FREE ENERGY PREDICTED BY IDOCK:   -0.18 KCAL/MOL
REMARK 927      BINDING AFFINITY PREDICTED BY RF-SCORE:    0.00 PKD
ROOT
HETATM    1 CL   UNL     1      -9.579   8.342  66.943  1.00  0.00    -0.244 Cl 
HETATM    2  C   UNL     1     -10.801   7.098  67.310  1.00  0.00    -0.312 C  
HETATM    3  C   UNL     1     -10.450   6.248  68.536  1.00  0.00    -0.229 C  
ENDROOT
BRANCH   3   4
HETATM    4  N   UNL     1     -10.161   7.018  69.772  1.00  0.00    -0.186 NA 
BRANCH   4   5
HETATM    5  C   UNL     1      -8.749   7.430  70.053  1.00  0.00    -0.140 C  
HETATM    6 CL   UNL     1      -8.350   7.155  72.791  1.00  0.00    -0.119 Cl 
HETATM    7  C   UNL     1      -8.381   8.179  71.335  1.00  0.00    -0.122 C  
ENDBRANCH   4   5
BRANCH   4   8
HETATM    8  C   UNL     1     -11.223   7.587  70.550  1.00  0.00    -0.269 C  
HETATM    9  C   UNL     1     -12.040   6.905  71.378  1.00  0.00    -0.364 C  
HETATM   10  N   UNL     1     -13.050   7.475  72.103  1.00  0.00    -0.510 N  
HETATM   11  C   UNL     1     -13.333   8.803  72.098  1.00  0.00    -0.423 C  
HETATM   12  H   UNL     1     -13.626   6.865  72.683  1.00  0.00     0.000 HD 
HETATM   13  O   UNL     1     -14.251   9.278  72.757  1.00  0.00    -0.502 OA 
HETATM   14  N   UNL     1     -12.530   9.563  71.310  1.00  0.00    -0.330 N  
HETATM   15  C   UNL     1     -11.533   9.093  70.495  1.00  0.00    -0.229 C  
HETATM   16  H   UNL     1     -12.682  10.571  71.326  1.00  0.00     0.000 HD 
HETATM   17  O   UNL     1     -10.954   9.889  69.759  1.00  0.00    -0.241 OA 
ENDBRANCH   4   8
ENDBRANCH   3   4
TORSDOF 3
ENDMDL
MODEL      140
REMARK 921   NORMALIZED FREE ENERGY PREDICTED BY IDOCK:   -3.36 KCAL/MOL
REMARK 922        TOTAL FREE ENERGY PREDICTED BY IDOCK:   -4.39 KCAL/MOL
REMARK 923 INTER-LIGAND FREE ENERGY PREDICTED BY IDOCK:   -4.13 KCAL/MOL
REMARK 924 INTRA-LIGAND FREE ENERGY PREDICTED BY IDOCK:   -0.26 KCAL/MOL
REMARK 927      BINDING AFFINITY PREDICTED BY RF-SCORE:    0.00 PKD
ROOT
HETATM    1 CL   UNL     1      -6.947   7.009  72.869  1.00  0.00    -0.069 Cl 
HETATM    2  C   UNL     1      -7.571   7.585  71.303  1.00  0.00    -0.081 C  
HETATM    3  C   UNL     1      -8.389   6.528  70.552  1.00  0.00    -0.133 C  
ENDROOT
BRANCH   3   4
HETATM    4  N   UNL     1      -9.507   5.933  71.326  1.00  0.00    -0.160 NA 
BRANCH   4   5
HETATM    5  C   UNL     1      -9.237   4.732  72.178  1.00  0.00    -0.128 C  
HETATM    6 CL   UNL     1      -8.986   2.557  70.462  1.00  0.00    -0.146 Cl 
HETATM    7  C   UNL     1      -9.812   3.360  71.820  1.00  0.00    -0.159 C  
ENDBRANCH   4   5
BRANCH   4   8
HETATM    8  C   UNL     1     -10.753   6.629  71.474  1.00  0.00    -0.230 C  
HETATM    9  C   UNL     1     -11.770   6.610  70.591  1.00  0.00    -0.394 C  
HETATM   10  N   UNL     1     -12.946   7.291  70.757  1.00  0.00    -0.592 N  
HETATM   11  C   UNL     1     -13.239   8.044  71.847  1.00  0.00    -0.301 C  
HETATM   12  H   UNL     1     -13.643   7.227  70.016  1.00  0.00     0.000 HD 
HETATM   13  O   UNL     1     -14.302   8.646  71.959  1.00  0.00    -0.434 OA 
HETATM   14  N   UNL     1     -12.273   8.086  72.799  1.00  0.00    -0.614 N  
HETATM   15  C   UNL     1     -11.038   7.498  72.711  1.00  0.00    -0.366 C  
HETATM   16  H   UNL     1     -12.484   8.599  73.655  1.00  0.00     0.000 HD 
HETATM   17  O   UNL     1     -10.224   7.706  73.609  1.00  0.00    -0.320 OA 
ENDBRANCH   4   8
ENDBRANCH   3   4
TORSDOF 3
ENDMDL
MODEL      141
REMARK 921   NORMALIZED FREE ENERGY PREDICTED BY IDOCK:   -3.36 KCAL/MOL
REMARK 922        TOTAL FREE ENERGY PREDICTED BY IDOCK:   -4.39 KCAL/MOL
REMARK 923 INTER-LIGAND FREE ENERGY PREDICTED BY IDOCK:   -4.14 KCAL/MOL
REMARK 924 INTRA-LIGAND FREE ENERGY PREDICTED BY IDOCK:   -0.25 KCAL/MOL
REMARK 927      BINDING AFFINITY PREDICTED BY RF-SCORE:    0.00 PKD
ROOT
HETATM    1 CL   UNL     1      -6.934   5.996  69.927  1.00  0.00    -0.067 Cl 
HETATM    2  C   UNL     1      -6.745   6.629  71.581  1.00  0.00    -0.062 C  
HETATM    3  C   UNL     1      -8.037   7.219  72.155  1.00  0.00    -0.094 C  
ENDROOT
BRANCH   3   4
HETATM    4  N   UNL     1      -9.211   6.311  72.119  1.00  0.00    -0.145 NA 
BRANCH   4   5
HETATM    5  C   UNL     1      -9.022   4.871  72.484  1.00  0.00    -0.132 C  
HETATM    6 CL   UNL     1     -11.474   3.935  73.405  1.00  0.00    -0.266 Cl 
HETATM    7  C   UNL     1      -9.744   4.255  73.683  1.00  0.00    -0.116 C  
ENDBRANCH   4   5
BRANCH   4   8
HETATM    8  C   UNL     1     -10.542   6.832  71.998  1.00  0.00    -0.213 C  
HETATM    9  C   UNL     1     -11.165   7.606  72.908  1.00  0.00    -0.372 C  
HETATM   10  N   UNL     1     -12.440   8.084  72.769  1.00  0.00    -0.597 N  
HETATM   11  C   UNL     1     -13.220   7.858  71.681  1.00  0.00    -0.334 C  
HETATM   12  H   UNL     1     -12.827   8.644  73.528  1.00  0.00     0.000 HD 
HETATM   13  O   UNL     1     -14.362   8.297  71.593  1.00  0.00    -0.432 OA 
HETATM   14  N   UNL     1     -12.648   7.110  70.703  1.00  0.00    -0.610 N  
HETATM   15  C   UNL     1     -11.408   6.529  70.764  1.00  0.00    -0.342 C  
HETATM   16  H   UNL     1     -13.188   6.967  69.850  1.00  0.00     0.000 HD 
HETATM   17  O   UNL     1     -11.061   5.792  69.843  1.00  0.00    -0.360 OA 
ENDBRANCH   4   8
ENDBRANCH   3   4
TORSDOF 3
ENDMDL
MODEL      142
REMARK 921   NORMALIZED FREE ENERGY PREDICTED BY IDOCK:   -3.35 KCAL/MOL
REMARK 922        TOTAL FREE ENERGY PREDICTED BY IDOCK:   -4.38 KCAL/MOL
REMARK 923 INTER-LIGAND FREE ENERGY PREDICTED BY IDOCK:   -3.93 KCAL/MOL
REMARK 924 INTRA-LIGAND FREE ENERGY PREDICTED BY IDOCK:   -0.46 KCAL/MOL
REMARK 927      BINDING AFFINITY PREDICTED BY RF-SCORE:    0.00 PKD
ROOT
HETATM    1 CL   UNL     1     -12.135  14.047  68.141  1.00  0.00    -0.367 Cl 
HETATM    2  C   UNL     1     -11.969  12.644  69.225  1.00  0.00    -0.246 C  
HETATM    3  C   UNL     1     -11.414  11.399  68.525  1.00  0.00    -0.297 C  
ENDROOT
BRANCH   3   4
HETATM    4  N   UNL     1     -10.133  11.603  67.803  1.00  0.00    -0.184 NA 
BRANCH   4   5
HETATM    5  C   UNL     1      -8.881  11.810  68.597  1.00  0.00    -0.060 C  
HETATM    6 CL   UNL     1      -8.507  14.556  68.826  1.00  0.00    -0.162 Cl 
HETATM    7  C   UNL     1      -7.925  12.963  68.286  1.00  0.00    -0.151 C  
ENDBRANCH   4   5
BRANCH   4   8
HETATM    8  C   UNL     1     -10.033  11.350  66.395  1.00  0.00    -0.214 C  
HETATM    9  C   UNL     1      -9.834  10.143  65.828  1.00  0.00    -0.266 C  
HETATM   10  N   UNL     1      -9.736   9.933  64.480  1.00  0.00    -0.412 N  
HETATM   11  C   UNL     1      -9.856  10.912  63.548  1.00  0.00    -0.359 C  
HETATM   12  H   UNL     1      -9.561   8.982  64.156  1.00  0.00     0.000 HD 
HETATM   13  O   UNL     1      -9.757  10.688  62.347  1.00  0.00    -0.204 OA 
HETATM   14  N   UNL     1     -10.092  12.155  64.042  1.00  0.00    -0.448 N  
HETATM   15  C   UNL     1     -10.145  12.491  65.369  1.00  0.00    -0.267 C  
HETATM   16  H   UNL     1     -10.241  12.904  63.365  1.00  0.00     0.000 HD 
HETATM   17  O   UNL     1     -10.264  13.678  65.669  1.00  0.00    -0.291 OA 
ENDBRANCH   4   8
ENDBRANCH   3   4
TORSDOF 3
ENDMDL
MODEL      143
REMARK 921   NORMALIZED FREE ENERGY PREDICTED BY IDOCK:   -3.35 KCAL/MOL
REMARK 922        TOTAL FREE ENERGY PREDICTED BY IDOCK:   -4.38 KCAL/MOL
REMARK 923 INTER-LIGAND FREE ENERGY PREDICTED BY IDOCK:   -3.97 KCAL/MOL
REMARK 924 INTRA-LIGAND FREE ENERGY PREDICTED BY IDOCK:   -0.42 KCAL/MOL
REMARK 927      BINDING AFFINITY PREDICTED BY RF-SCORE:    0.00 PKD
ROOT
HETATM    1 CL   UNL     1     -12.138  12.402  64.904  1.00  0.00    -0.470 Cl 
HETATM    2  C   UNL     1     -12.679  13.958  65.582  1.00  0.00    -0.495 C  
HETATM    3  C   UNL     1     -11.804  14.451  66.740  1.00  0.00    -0.410 C  
ENDROOT
BRANCH   3   4
HETATM    4  N   UNL     1     -10.353  14.536  66.437  1.00  0.00    -0.286 NA 
BRANCH   4   5
HETATM    5  C   UNL     1      -9.833  15.749  65.729  1.00  0.00    -0.348 C  
HETATM    6 CL   UNL     1      -9.582  17.759  67.633  1.00  0.00    -0.262 Cl 
HETATM    7  C   UNL     1     -10.294  17.154  66.118  1.00  0.00    -0.322 C  
ENDBRANCH   4   5
BRANCH   4   8
HETATM    8  C   UNL     1      -9.422  13.621  67.030  1.00  0.00    -0.252 C  
HETATM    9  C   UNL     1      -8.976  12.481  66.466  1.00  0.00    -0.132 C  
HETATM   10  N   UNL     1      -8.092  11.623  67.060  1.00  0.00    -0.159 N  
HETATM   11  C   UNL     1      -7.534  11.832  68.279  1.00  0.00    -0.103 C  
HETATM   12  H   UNL     1      -7.836  10.775  66.554  1.00  0.00     0.000 HD 
HETATM   13  O   UNL     1      -6.749  11.037  68.784  1.00  0.00    -0.056 OA 
HETATM   14  N   UNL     1      -7.911  12.979  68.900  1.00  0.00    -0.328 N  
HETATM   15  C   UNL     1      -8.834  13.876  68.429  1.00  0.00    -0.177 C  
HETATM   16  H   UNL     1      -7.469  13.192  69.794  1.00  0.00     0.000 HD 
HETATM   17  O   UNL     1      -9.152  14.822  69.148  1.00  0.00    -0.167 OA 
ENDBRANCH   4   8
ENDBRANCH   3   4
TORSDOF 3
ENDMDL
MODEL      144
REMARK 921   NORMALIZED FREE ENERGY PREDICTED BY IDOCK:   -3.35 KCAL/MOL
REMARK 922        TOTAL FREE ENERGY PREDICTED BY IDOCK:   -4.38 KCAL/MOL
REMARK 923 INTER-LIGAND FREE ENERGY PREDICTED BY IDOCK:   -3.95 KCAL/MOL
REMARK 924 INTRA-LIGAND FREE ENERGY PREDICTED BY IDOCK:   -0.42 KCAL/MOL
REMARK 927      BINDING AFFINITY PREDICTED BY RF-SCORE:    0.00 PKD
ROOT
HETATM    1 CL   UNL     1     -10.601  10.602  64.761  1.00  0.00    -0.292 Cl 
HETATM    2  C   UNL     1      -9.041  10.364  65.586  1.00  0.00    -0.176 C  
HETATM    3  C   UNL     1      -8.554  11.611  66.332  1.00  0.00    -0.143 C  
ENDROOT
BRANCH   3   4
HETATM    4  N   UNL     1      -9.526  12.186  67.296  1.00  0.00    -0.181 NA 
BRANCH   4   5
HETATM    5  C   UNL     1     -10.023  13.581  67.077  1.00  0.00    -0.247 C  
HETATM    6 CL   UNL     1     -12.365  13.387  65.591  1.00  0.00    -0.500 Cl 
HETATM    7  C   UNL     1     -10.698  13.986  65.766  1.00  0.00    -0.293 C  
ENDBRANCH   4   5
BRANCH   4   8
HETATM    8  C   UNL     1     -10.182  11.355  68.264  1.00  0.00    -0.193 C  
HETATM    9  C   UNL     1     -11.514  11.186  68.377  1.00  0.00    -0.306 C  
HETATM   10  N   UNL     1     -12.112  10.391  69.316  1.00  0.00    -0.537 N  
HETATM   11  C   UNL     1     -11.432   9.652  70.229  1.00  0.00    -0.233 C  
HETATM   12  H   UNL     1     -13.131  10.351  69.330  1.00  0.00     0.000 HD 
HETATM   13  O   UNL     1     -12.002   8.954  71.061  1.00  0.00    -0.290 OA 
HETATM   14  N   UNL     1     -10.079   9.745  70.158  1.00  0.00    -0.253 N  
HETATM   15  C   UNL     1      -9.378  10.555  69.304  1.00  0.00    -0.160 C  
HETATM   16  H   UNL     1      -9.538   9.160  70.795  1.00  0.00     0.000 HD 
HETATM   17  O   UNL     1      -8.155  10.612  69.421  1.00  0.00    -0.151 OA 
ENDBRANCH   4   8
ENDBRANCH   3   4
TORSDOF 3
ENDMDL
MODEL      145
REMARK 921   NORMALIZED FREE ENERGY PREDICTED BY IDOCK:   -3.33 KCAL/MOL
REMARK 922        TOTAL FREE ENERGY PREDICTED BY IDOCK:   -4.36 KCAL/MOL
REMARK 923 INTER-LIGAND FREE ENERGY PREDICTED BY IDOCK:   -4.10 KCAL/MOL
REMARK 924 INTRA-LIGAND FREE ENERGY PREDICTED BY IDOCK:   -0.26 KCAL/MOL
REMARK 927      BINDING AFFINITY PREDICTED BY RF-SCORE:    0.00 PKD
ROOT
HETATM    1 CL   UNL     1     -12.858  10.691  71.222  1.00  0.00    -0.500 Cl 
HETATM    2  C   UNL     1     -13.574   9.419  72.242  1.00  0.00    -0.462 C  
HETATM    3  C   UNL     1     -13.228   8.001  71.774  1.00  0.00    -0.341 C  
ENDROOT
BRANCH   3   4
HETATM    4  N   UNL     1     -11.777   7.729  71.613  1.00  0.00    -0.270 NA 
BRANCH   4   5
HETATM    5  C   UNL     1     -10.950   7.479  72.835  1.00  0.00    -0.383 C  
HETATM    6 CL   UNL     1      -8.333   7.086  71.980  1.00  0.00    -0.105 Cl 
HETATM    7  C   UNL     1      -9.786   6.486  72.815  1.00  0.00    -0.169 C  
ENDBRANCH   4   5
BRANCH   4   8
HETATM    8  C   UNL     1     -11.219   7.450  70.321  1.00  0.00    -0.247 C  
HETATM    9  C   UNL     1     -11.398   6.313  69.621  1.00  0.00    -0.422 C  
HETATM   10  N   UNL     1     -10.846   6.071  68.392  1.00  0.00    -0.285 N  
HETATM   11  C   UNL     1     -10.075   6.962  67.718  1.00  0.00    -0.161 C  
HETATM   12  H   UNL     1     -11.026   5.167  67.956  1.00  0.00     0.000 HD 
HETATM   13  O   UNL     1      -9.591   6.709  66.620  1.00  0.00    -0.163 OA 
HETATM   14  N   UNL     1      -9.875   8.148  68.348  1.00  0.00    -0.166 N  
HETATM   15  C   UNL     1     -10.324   8.473  69.601  1.00  0.00    -0.218 C  
HETATM   16  H   UNL     1      -9.345   8.859  67.844  1.00  0.00     0.000 HD 
HETATM   17  O   UNL     1      -9.980   9.549  70.087  1.00  0.00    -0.209 OA 
ENDBRANCH   4   8
ENDBRANCH   3   4
TORSDOF 3
ENDMDL
MODEL      146
REMARK 921   NORMALIZED FREE ENERGY PREDICTED BY IDOCK:   -3.32 KCAL/MOL
REMARK 922        TOTAL FREE ENERGY PREDICTED BY IDOCK:   -4.35 KCAL/MOL
REMARK 923 INTER-LIGAND FREE ENERGY PREDICTED BY IDOCK:   -4.08 KCAL/MOL
REMARK 924 INTRA-LIGAND FREE ENERGY PREDICTED BY IDOCK:   -0.26 KCAL/MOL
REMARK 927      BINDING AFFINITY PREDICTED BY RF-SCORE:    0.00 PKD
ROOT
HETATM    1 CL   UNL     1     -11.873  13.675  69.009  1.00  0.00    -0.370 Cl 
HETATM    2  C   UNL     1     -10.453  13.482  67.951  1.00  0.00    -0.250 C  
HETATM    3  C   UNL     1      -9.589  12.270  68.314  1.00  0.00    -0.212 C  
ENDROOT
BRANCH   3   4
HETATM    4  N   UNL     1     -10.317  10.977  68.383  1.00  0.00    -0.175 NA 
BRANCH   4   5
HETATM    5  C   UNL     1     -10.775  10.338  67.109  1.00  0.00    -0.241 C  
HETATM    6 CL   UNL     1      -8.576  10.238  65.410  1.00  0.00    -0.159 Cl 
HETATM    7  C   UNL     1     -10.233  10.792  65.753  1.00  0.00    -0.257 C  
ENDBRANCH   4   5
BRANCH   4   8
HETATM    8  C   UNL     1     -10.357  10.219  69.599  1.00  0.00    -0.248 C  
HETATM    9  C   UNL     1      -9.351   9.466  70.086  1.00  0.00    -0.241 C  
HETATM   10  N   UNL     1      -9.421   8.747  71.248  1.00  0.00    -0.225 N  
HETATM   11  C   UNL     1     -10.505   8.729  72.066  1.00  0.00    -0.344 C  
HETATM   12  H   UNL     1      -8.610   8.191  71.516  1.00  0.00     0.000 HD 
HETATM   13  O   UNL     1     -10.535   8.068  73.098  1.00  0.00    -0.338 OA 
HETATM   14  N   UNL     1     -11.551   9.492  71.657  1.00  0.00    -0.393 N  
HETATM   15  C   UNL     1     -11.615  10.199  70.485  1.00  0.00    -0.329 C  
HETATM   16  H   UNL     1     -12.360   9.543  72.277  1.00  0.00     0.000 HD 
HETATM   17  O   UNL     1     -12.668  10.764  70.198  1.00  0.00    -0.301 OA 
ENDBRANCH   4   8
ENDBRANCH   3   4
TORSDOF 3
ENDMDL
MODEL      147
REMARK 921   NORMALIZED FREE ENERGY PREDICTED BY IDOCK:   -3.30 KCAL/MOL
REMARK 922        TOTAL FREE ENERGY PREDICTED BY IDOCK:   -4.32 KCAL/MOL
REMARK 923 INTER-LIGAND FREE ENERGY PREDICTED BY IDOCK:   -4.00 KCAL/MOL
REMARK 924 INTRA-LIGAND FREE ENERGY PREDICTED BY IDOCK:   -0.33 KCAL/MOL
REMARK 927      BINDING AFFINITY PREDICTED BY RF-SCORE:    0.00 PKD
ROOT
HETATM    1 CL   UNL     1      -9.882   9.295  70.937  1.00  0.00    -0.352 Cl 
HETATM    2  C   UNL     1      -9.683   8.516  72.526  1.00  0.00    -0.256 C  
HETATM    3  C   UNL     1     -10.954   7.815  73.020  1.00  0.00    -0.381 C  
ENDROOT
BRANCH   3   4
HETATM    4  N   UNL     1     -11.538   6.833  72.072  1.00  0.00    -0.278 NA 
BRANCH   4   5
HETATM    5  C   UNL     1     -12.758   7.218  71.295  1.00  0.00    -0.359 C  
HETATM    6 CL   UNL     1     -13.366   9.843  71.979  1.00  0.00    -0.534 Cl 
HETATM    7  C   UNL     1     -13.830   8.126  71.898  1.00  0.00    -0.364 C  
ENDBRANCH   4   5
BRANCH   4   8
HETATM    8  C   UNL     1     -10.818   5.649  71.702  1.00  0.00    -0.237 C  
HETATM    9  C   UNL     1     -10.229   5.431  70.510  1.00  0.00    -0.256 C  
HETATM   10  N   UNL     1      -9.554   4.287  70.183  1.00  0.00    -0.183 N  
HETATM   11  C   UNL     1      -9.373   3.243  71.033  1.00  0.00    -0.143 C  
HETATM   12  H   UNL     1      -9.163   4.213  69.244  1.00  0.00     0.000 HD 
HETATM   13  O   UNL     1      -8.767   2.229  70.703  1.00  0.00    -0.051 OA 
HETATM   14  N   UNL     1      -9.912   3.402  72.269  1.00  0.00    -0.160 N  
HETATM   15  C   UNL     1     -10.660   4.474  72.682  1.00  0.00    -0.179 C  
HETATM   16  H   UNL     1      -9.747   2.660  72.948  1.00  0.00     0.000 HD 
HETATM   17  O   UNL     1     -11.172   4.435  73.800  1.00  0.00    -0.266 OA 
ENDBRANCH   4   8
ENDBRANCH   3   4
TORSDOF 3
ENDMDL
MODEL      148
REMARK 921   NORMALIZED FREE ENERGY PREDICTED BY IDOCK:   -3.27 KCAL/MOL
REMARK 922        TOTAL FREE ENERGY PREDICTED BY IDOCK:   -4.29 KCAL/MOL
REMARK 923 INTER-LIGAND FREE ENERGY PREDICTED BY IDOCK:   -3.98 KCAL/MOL
REMARK 924 INTRA-LIGAND FREE ENERGY PREDICTED BY IDOCK:   -0.31 KCAL/MOL
REMARK 927      BINDING AFFINITY PREDICTED BY RF-SCORE:    0.00 PKD
ROOT
HETATM    1 CL   UNL     1     -10.786   7.306  67.071  1.00  0.00    -0.425 Cl 
HETATM    2  C   UNL     1      -9.036   7.483  66.794  1.00  0.00    -0.144 C  
HETATM    3  C   UNL     1      -8.609   8.929  66.519  1.00  0.00    -0.124 C  
ENDROOT
BRANCH   3   4
HETATM    4  N   UNL     1      -9.037   9.916  67.543  1.00  0.00    -0.134 NA 
BRANCH   4   5
HETATM    5  C   UNL     1      -8.617   9.708  68.965  1.00  0.00    -0.133 C  
HETATM    6 CL   UNL     1     -10.519   8.057  70.143  1.00  0.00    -0.220 Cl 
HETATM    7  C   UNL     1      -9.648   9.609  70.090  1.00  0.00    -0.254 C  
ENDBRANCH   4   5
BRANCH   4   8
HETATM    8  C   UNL     1      -9.611  11.173  67.160  1.00  0.00    -0.173 C  
HETATM    9  C   UNL     1      -8.938  12.208  66.618  1.00  0.00    -0.198 C  
HETATM   10  N   UNL     1      -9.512  13.400  66.269  1.00  0.00    -0.420 N  
HETATM   11  C   UNL     1     -10.835  13.673  66.400  1.00  0.00    -0.290 C  
HETATM   12  H   UNL     1      -8.908  14.127  65.886  1.00  0.00     0.000 HD 
HETATM   13  O   UNL     1     -11.314  14.756  66.081  1.00  0.00    -0.341 OA 
HETATM   14  N   UNL     1     -11.586  12.664  66.910  1.00  0.00    -0.353 N  
HETATM   15  C   UNL     1     -11.110  11.457  67.352  1.00  0.00    -0.289 C  
HETATM   16  H   UNL     1     -12.593  12.818  66.971  1.00  0.00     0.000 HD 
HETATM   17  O   UNL     1     -11.896  10.677  67.886  1.00  0.00    -0.485 OA 
ENDBRANCH   4   8
ENDBRANCH   3   4
TORSDOF 3
ENDMDL
MODEL      149
REMARK 921   NORMALIZED FREE ENERGY PREDICTED BY IDOCK:   -3.26 KCAL/MOL
REMARK 922        TOTAL FREE ENERGY PREDICTED BY IDOCK:   -4.28 KCAL/MOL
REMARK 923 INTER-LIGAND FREE ENERGY PREDICTED BY IDOCK:   -3.88 KCAL/MOL
REMARK 924 INTRA-LIGAND FREE ENERGY PREDICTED BY IDOCK:   -0.40 KCAL/MOL
REMARK 927      BINDING AFFINITY PREDICTED BY RF-SCORE:    0.00 PKD
ROOT
HETATM    1 CL   UNL     1     -10.598   7.110  67.076  1.00  0.00    -0.399 Cl 
HETATM    2  C   UNL     1     -11.250   6.366  68.557  1.00  0.00    -0.228 C  
HETATM    3  C   UNL     1     -10.231   6.300  69.701  1.00  0.00    -0.186 C  
ENDROOT
BRANCH   3   4
HETATM    4  N   UNL     1      -9.598   7.597  70.052  1.00  0.00    -0.165 NA 
BRANCH   4   5
HETATM    5  C   UNL     1      -8.122   7.755  69.860  1.00  0.00    -0.120 C  
HETATM    6 CL   UNL     1      -7.746   8.921  67.363  1.00  0.00    -0.096 Cl 
HETATM    7  C   UNL     1      -7.476   7.566  68.487  1.00  0.00    -0.108 C  
ENDBRANCH   4   5
BRANCH   4   8
HETATM    8  C   UNL     1     -10.397   8.758  70.318  1.00  0.00    -0.203 C  
HETATM    9  C   UNL     1     -10.355   9.913  69.624  1.00  0.00    -0.241 C  
HETATM   10  N   UNL     1     -11.126  11.008  69.906  1.00  0.00    -0.420 N  
HETATM   11  C   UNL     1     -12.047  11.052  70.902  1.00  0.00    -0.339 C  
HETATM   12  H   UNL     1     -11.000  11.841  69.332  1.00  0.00     0.000 HD 
HETATM   13  O   UNL     1     -12.716  12.054  71.130  1.00  0.00    -0.364 OA 
HETATM   14  N   UNL     1     -12.170   9.911  71.628  1.00  0.00    -0.401 N  
HETATM   15  C   UNL     1     -11.410   8.782  71.476  1.00  0.00    -0.304 C  
HETATM   16  H   UNL     1     -12.891   9.894  72.349  1.00  0.00     0.000 HD 
HETATM   17  O   UNL     1     -11.564   7.859  72.274  1.00  0.00    -0.305 OA 
ENDBRANCH   4   8
ENDBRANCH   3   4
TORSDOF 3
ENDMDL
MODEL      150
REMARK 921   NORMALIZED FREE ENERGY PREDICTED BY IDOCK:   -3.24 KCAL/MOL
REMARK 922        TOTAL FREE ENERGY PREDICTED BY IDOCK:   -4.25 KCAL/MOL
REMARK 923 INTER-LIGAND FREE ENERGY PREDICTED BY IDOCK:   -4.27 KCAL/MOL
REMARK 924 INTRA-LIGAND FREE ENERGY PREDICTED BY IDOCK:    0.01 KCAL/MOL
REMARK 927      BINDING AFFINITY PREDICTED BY RF-SCORE:    0.00 PKD
ROOT
HETATM    1 CL   UNL     1     -10.184  15.546  69.691  1.00  0.00    -0.271 Cl 
HETATM    2  C   UNL     1     -11.274  14.529  68.716  1.00  0.00    -0.261 C  
HETATM    3  C   UNL     1     -11.526  15.086  67.311  1.00  0.00    -0.304 C  
ENDROOT
BRANCH   3   4
HETATM    4  N   UNL     1     -10.302  15.374  66.521  1.00  0.00    -0.280 NA 
BRANCH   4   5
HETATM    5  C   UNL     1      -9.891  14.414  65.449  1.00  0.00    -0.230 C  
HETATM    6 CL   UNL     1     -12.223  13.450  64.282  1.00  0.00    -0.454 Cl 
HETATM    7  C   UNL     1     -10.704  13.151  65.161  1.00  0.00    -0.315 C  
ENDBRANCH   4   5
BRANCH   4   8
HETATM    8  C   UNL     1      -9.668  16.659  66.589  1.00  0.00    -0.266 C  
HETATM    9  C   UNL     1     -10.305  17.845  66.646  1.00  0.00    -0.361 C  
HETATM   10  N   UNL     1      -9.673  19.057  66.703  1.00  0.00    -0.324 N  
HETATM   11  C   UNL     1      -8.324  19.208  66.738  1.00  0.00    -0.293 C  
HETATM   12  H   UNL     1     -10.250  19.897  66.720  1.00  0.00     0.000 HD 
HETATM   13  O   UNL     1      -7.791  20.311  66.782  1.00  0.00    -0.298 OA 
HETATM   14  N   UNL     1      -7.611  18.053  66.716  1.00  0.00    -0.209 N  
HETATM   15  C   UNL     1      -8.135  16.793  66.596  1.00  0.00    -0.265 C  
HETATM   16  H   UNL     1      -6.597  18.130  66.796  1.00  0.00     0.000 HD 
HETATM   17  O   UNL     1      -7.361  15.843  66.487  1.00  0.00    -0.134 OA 
ENDBRANCH   4   8
ENDBRANCH   3   4
TORSDOF 3
ENDMDL
MODEL      151
REMARK 921   NORMALIZED FREE ENERGY PREDICTED BY IDOCK:   -3.24 KCAL/MOL
REMARK 922        TOTAL FREE ENERGY PREDICTED BY IDOCK:   -4.25 KCAL/MOL
REMARK 923 INTER-LIGAND FREE ENERGY PREDICTED BY IDOCK:   -3.71 KCAL/MOL
REMARK 924 INTRA-LIGAND FREE ENERGY PREDICTED BY IDOCK:   -0.54 KCAL/MOL
REMARK 927      BINDING AFFINITY PREDICTED BY RF-SCORE:    0.00 PKD
ROOT
HETATM    1 CL   UNL     1      -8.700  15.749  68.457  1.00  0.00    -0.176 Cl 
HETATM    2  C   UNL     1      -9.349  16.450  66.954  1.00  0.00    -0.227 C  
HETATM    3  C   UNL     1      -9.537  15.419  65.836  1.00  0.00    -0.351 C  
ENDROOT
BRANCH   3   4
HETATM    4  N   UNL     1     -10.352  14.235  66.205  1.00  0.00    -0.286 NA 
BRANCH   4   5
HETATM    5  C   UNL     1     -11.680  14.449  66.864  1.00  0.00    -0.402 C  
HETATM    6 CL   UNL     1     -11.370  13.802  69.550  1.00  0.00    -0.302 Cl 
HETATM    7  C   UNL     1     -12.168  13.528  67.983  1.00  0.00    -0.123 C  
ENDBRANCH   4   5
BRANCH   4   8
HETATM    8  C   UNL     1     -10.017  12.928  65.717  1.00  0.00    -0.254 C  
HETATM    9  C   UNL     1     -10.458  12.387  64.564  1.00  0.00    -0.325 C  
HETATM   10  N   UNL     1     -10.126  11.134  64.126  1.00  0.00    -0.302 N  
HETATM   11  C   UNL     1      -9.289  10.295  64.789  1.00  0.00    -0.260 C  
HETATM   12  H   UNL     1     -10.533  10.810  63.249  1.00  0.00     0.000 HD 
HETATM   13  O   UNL     1      -9.018   9.175  64.369  1.00  0.00    -0.173 OA 
HETATM   14  N   UNL     1      -8.777  10.785  65.947  1.00  0.00    -0.176 N  
HETATM   15  C   UNL     1      -9.088  11.994  66.511  1.00  0.00    -0.202 C  
HETATM   16  H   UNL     1      -8.102  10.201  66.441  1.00  0.00     0.000 HD 
HETATM   17  O   UNL     1      -8.624  12.262  67.618  1.00  0.00    -0.151 OA 
ENDBRANCH   4   8
ENDBRANCH   3   4
TORSDOF 3
ENDMDL
MODEL      152
REMARK 921   NORMALIZED FREE ENERGY PREDICTED BY IDOCK:   -3.21 KCAL/MOL
REMARK 922        TOTAL FREE ENERGY PREDICTED BY IDOCK:   -4.22 KCAL/MOL
REMARK 923 INTER-LIGAND FREE ENERGY PREDICTED BY IDOCK:   -3.79 KCAL/MOL
REMARK 924 INTRA-LIGAND FREE ENERGY PREDICTED BY IDOCK:   -0.42 KCAL/MOL
REMARK 927      BINDING AFFINITY PREDICTED BY RF-SCORE:    0.00 PKD
ROOT
HETATM    1 CL   UNL     1      -8.499   9.187  66.986  1.00  0.00    -0.123 Cl 
HETATM    2  C   UNL     1      -9.934   8.132  66.999  1.00  0.00    -0.259 C  
HETATM    3  C   UNL     1      -9.872   7.037  68.069  1.00  0.00    -0.138 C  
ENDROOT
BRANCH   3   4
HETATM    4  N   UNL     1      -9.620   7.523  69.450  1.00  0.00    -0.155 NA 
BRANCH   4   5
HETATM    5  C   UNL     1      -8.285   7.263  70.075  1.00  0.00    -0.132 C  
HETATM    6 CL   UNL     1      -8.637   5.217  71.925  1.00  0.00    -0.128 Cl 
HETATM    7  C   UNL     1      -8.159   6.891  71.553  1.00  0.00    -0.109 C  
ENDBRANCH   4   5
BRANCH   4   8
HETATM    8  C   UNL     1     -10.519   8.445  70.082  1.00  0.00    -0.228 C  
HETATM    9  C   UNL     1     -10.330   9.775  70.188  1.00  0.00    -0.282 C  
HETATM   10  N   UNL     1     -11.204  10.630  70.803  1.00  0.00    -0.367 N  
HETATM   11  C   UNL     1     -12.381  10.243  71.356  1.00  0.00    -0.401 C  
HETATM   12  H   UNL     1     -10.955  11.617  70.849  1.00  0.00     0.000 HD 
HETATM   13  O   UNL     1     -13.138  11.036  71.906  1.00  0.00    -0.486 OA 
HETATM   14  N   UNL     1     -12.658   8.917  71.260  1.00  0.00    -0.420 N  
HETATM   15  C   UNL     1     -11.831   7.965  70.725  1.00  0.00    -0.176 C  
HETATM   16  H   UNL     1     -13.560   8.603  71.618  1.00  0.00     0.000 HD 
HETATM   17  O   UNL     1     -12.171   6.785  70.798  1.00  0.00    -0.390 OA 
ENDBRANCH   4   8
ENDBRANCH   3   4
TORSDOF 3
ENDMDL
MODEL      153
REMARK 921   NORMALIZED FREE ENERGY PREDICTED BY IDOCK:   -3.21 KCAL/MOL
REMARK 922        TOTAL FREE ENERGY PREDICTED BY IDOCK:   -4.22 KCAL/MOL
REMARK 923 INTER-LIGAND FREE ENERGY PREDICTED BY IDOCK:   -4.11 KCAL/MOL
REMARK 924 INTRA-LIGAND FREE ENERGY PREDICTED BY IDOCK:   -0.11 KCAL/MOL
REMARK 927      BINDING AFFINITY PREDICTED BY RF-SCORE:    0.00 PKD
ROOT
HETATM    1 CL   UNL     1      -9.247  17.835  68.679  1.00  0.00    -0.282 Cl 
HETATM    2  C   UNL     1     -10.182  17.840  67.163  1.00  0.00    -0.353 C  
HETATM    3  C   UNL     1     -10.130  16.504  66.415  1.00  0.00    -0.312 C  
ENDROOT
BRANCH   3   4
HETATM    4  N   UNL     1     -10.523  15.319  67.220  1.00  0.00    -0.270 NA 
BRANCH   4   5
HETATM    5  C   UNL     1     -11.784  15.379  68.025  1.00  0.00    -0.221 C  
HETATM    6 CL   UNL     1     -11.038  15.744  70.679  1.00  0.00    -0.358 Cl 
HETATM    7  C   UNL     1     -11.858  14.777  69.429  1.00  0.00    -0.323 C  
ENDBRANCH   4   5
BRANCH   4   8
HETATM    8  C   UNL     1      -9.871  14.055  67.036  1.00  0.00    -0.260 C  
HETATM    9  C   UNL     1      -9.166  13.394  67.975  1.00  0.00    -0.209 C  
HETATM   10  N   UNL     1      -8.548  12.191  67.769  1.00  0.00    -0.154 N  
HETATM   11  C   UNL     1      -8.595  11.504  66.599  1.00  0.00    -0.176 C  
HETATM   12  H   UNL     1      -8.020  11.786  68.541  1.00  0.00     0.000 HD 
HETATM   13  O   UNL     1      -8.024  10.430  66.447  1.00  0.00    -0.120 OA 
HETATM   14  N   UNL     1      -9.317  12.093  65.611  1.00  0.00    -0.423 N  
HETATM   15  C   UNL     1      -9.921  13.320  65.685  1.00  0.00    -0.230 C  
HETATM   16  H   UNL     1      -9.417  11.577  64.737  1.00  0.00     0.000 HD 
HETATM   17  O   UNL     1     -10.456  13.773  64.675  1.00  0.00    -0.416 OA 
ENDBRANCH   4   8
ENDBRANCH   3   4
TORSDOF 3
ENDMDL
MODEL      154
REMARK 921   NORMALIZED FREE ENERGY PREDICTED BY IDOCK:   -3.21 KCAL/MOL
REMARK 922        TOTAL FREE ENERGY PREDICTED BY IDOCK:   -4.21 KCAL/MOL
REMARK 923 INTER-LIGAND FREE ENERGY PREDICTED BY IDOCK:   -4.49 KCAL/MOL
REMARK 924 INTRA-LIGAND FREE ENERGY PREDICTED BY IDOCK:    0.28 KCAL/MOL
REMARK 927      BINDING AFFINITY PREDICTED BY RF-SCORE:    0.00 PKD
ROOT
HETATM    1 CL   UNL     1      -7.741  17.776  67.979  1.00  0.00    -0.231 Cl 
HETATM    2  C   UNL     1      -7.591  16.763  66.522  1.00  0.00    -0.298 C  
HETATM    3  C   UNL     1      -8.486  15.519  66.555  1.00  0.00    -0.248 C  
ENDROOT
BRANCH   3   4
HETATM    4  N   UNL     1      -9.924  15.788  66.809  1.00  0.00    -0.245 NA 
BRANCH   4   5
HETATM    5  C   UNL     1     -10.860  15.868  65.643  1.00  0.00    -0.284 C  
HETATM    6 CL   UNL     1     -12.376  13.537  65.653  1.00  0.00    -0.493 Cl 
HETATM    7  C   UNL     1     -11.229  14.624  64.834  1.00  0.00    -0.396 C  
ENDBRANCH   4   5
BRANCH   4   8
HETATM    8  C   UNL     1     -10.464  15.711  68.135  1.00  0.00    -0.259 C  
HETATM    9  C   UNL     1     -11.681  16.153  68.512  1.00  0.00    -0.170 C  
HETATM   10  N   UNL     1     -12.167  16.073  69.788  1.00  0.00    -0.346 N  
HETATM   11  C   UNL     1     -11.492  15.512  70.823  1.00  0.00    -0.367 C  
HETATM   12  H   UNL     1     -13.093  16.458  69.972  1.00  0.00     0.000 HD 
HETATM   13  O   UNL     1     -11.957  15.462  71.957  1.00  0.00    -0.344 OA 
HETATM   14  N   UNL     1     -10.268  15.013  70.515  1.00  0.00    -0.459 N  
HETATM   15  C   UNL     1      -9.657  15.095  69.291  1.00  0.00    -0.218 C  
HETATM   16  H   UNL     1      -9.758  14.537  71.259  1.00  0.00     0.000 HD 
HETATM   17  O   UNL     1      -8.501  14.689  69.183  1.00  0.00    -0.135 OA 
ENDBRANCH   4   8
ENDBRANCH   3   4
TORSDOF 3
ENDMDL
MODEL      155
REMARK 921   NORMALIZED FREE ENERGY PREDICTED BY IDOCK:   -3.18 KCAL/MOL
REMARK 922        TOTAL FREE ENERGY PREDICTED BY IDOCK:   -4.19 KCAL/MOL
REMARK 923 INTER-LIGAND FREE ENERGY PREDICTED BY IDOCK:   -3.95 KCAL/MOL
REMARK 924 INTRA-LIGAND FREE ENERGY PREDICTED BY IDOCK:   -0.24 KCAL/MOL
REMARK 927      BINDING AFFINITY PREDICTED BY RF-SCORE:    0.00 PKD
ROOT
HETATM    1 CL   UNL     1      -6.938   7.470  73.170  1.00  0.00    -0.069 Cl 
HETATM    2  C   UNL     1      -7.548   8.359  71.753  1.00  0.00    -0.112 C  
HETATM    3  C   UNL     1      -8.164   7.448  70.685  1.00  0.00    -0.112 C  
ENDROOT
BRANCH   3   4
HETATM    4  N   UNL     1      -9.229   6.537  71.177  1.00  0.00    -0.156 NA 
BRANCH   4   5
HETATM    5  C   UNL     1      -8.845   5.174  71.661  1.00  0.00    -0.134 C  
HETATM    6 CL   UNL     1      -7.471   3.929  69.589  1.00  0.00    -0.052 Cl 
HETATM    7  C   UNL     1      -8.845   3.968  70.721  1.00  0.00    -0.084 C  
ENDBRANCH   4   5
BRANCH   4   8
HETATM    8  C   UNL     1     -10.553   7.023  71.434  1.00  0.00    -0.217 C  
HETATM    9  C   UNL     1     -10.948   7.665  72.552  1.00  0.00    -0.324 C  
HETATM   10  N   UNL     1     -12.222   8.112  72.773  1.00  0.00    -0.611 N  
HETATM   11  C   UNL     1     -13.236   7.988  71.879  1.00  0.00    -0.301 C  
HETATM   12  H   UNL     1     -12.422   8.567  73.663  1.00  0.00     0.000 HD 
HETATM   13  O   UNL     1     -14.368   8.395  72.113  1.00  0.00    -0.427 OA 
HETATM   14  N   UNL     1     -12.907   7.378  70.711  1.00  0.00    -0.589 N  
HETATM   15  C   UNL     1     -11.685   6.837  70.409  1.00  0.00    -0.363 C  
HETATM   16  H   UNL     1     -13.632   7.317  69.997  1.00  0.00     0.000 HD 
HETATM   17  O   UNL     1     -11.560   6.223  69.350  1.00  0.00    -0.403 OA 
ENDBRANCH   4   8
ENDBRANCH   3   4
TORSDOF 3
ENDMDL
MODEL      156
REMARK 921   NORMALIZED FREE ENERGY PREDICTED BY IDOCK:   -3.18 KCAL/MOL
REMARK 922        TOTAL FREE ENERGY PREDICTED BY IDOCK:   -4.18 KCAL/MOL
REMARK 923 INTER-LIGAND FREE ENERGY PREDICTED BY IDOCK:   -3.69 KCAL/MOL
REMARK 924 INTRA-LIGAND FREE ENERGY PREDICTED BY IDOCK:   -0.50 KCAL/MOL
REMARK 927      BINDING AFFINITY PREDICTED BY RF-SCORE:    0.00 PKD
ROOT
HETATM    1 CL   UNL     1      -7.908  19.503  68.226  1.00  0.00    -0.353 Cl 
HETATM    2  C   UNL     1      -6.692  18.206  68.118  1.00  0.00    -0.206 C  
HETATM    3  C   UNL     1      -7.223  16.839  68.563  1.00  0.00    -0.194 C  
ENDROOT
BRANCH   3   4
HETATM    4  N   UNL     1      -8.463  16.394  67.877  1.00  0.00    -0.168 NA 
BRANCH   4   5
HETATM    5  C   UNL     1      -8.527  16.466  66.383  1.00  0.00    -0.329 C  
HETATM    6 CL   UNL     1     -10.841  17.866  65.734  1.00  0.00    -0.124 Cl 
HETATM    7  C   UNL     1      -9.862  16.381  65.641  1.00  0.00    -0.187 C  
ENDBRANCH   4   5
BRANCH   4   8
HETATM    8  C   UNL     1      -9.477  15.669  68.586  1.00  0.00    -0.204 C  
HETATM    9  C   UNL     1      -9.572  14.327  68.660  1.00  0.00    -0.192 C  
HETATM   10  N   UNL     1     -10.556  13.662  69.340  1.00  0.00    -0.439 N  
HETATM   11  C   UNL     1     -11.539  14.276  70.046  1.00  0.00    -0.261 C  
HETATM   12  H   UNL     1     -10.550  12.642  69.315  1.00  0.00     0.000 HD 
HETATM   13  O   UNL     1     -12.410  13.648  70.639  1.00  0.00    -0.342 OA 
HETATM   14  N   UNL     1     -11.492  15.633  70.045  1.00  0.00    -0.313 N  
HETATM   15  C   UNL     1     -10.594  16.401  69.350  1.00  0.00    -0.317 C  
HETATM   16  H   UNL     1     -12.184  16.124  70.610  1.00  0.00     0.000 HD 
HETATM   17  O   UNL     1     -10.734  17.622  69.362  1.00  0.00    -0.057 OA 
ENDBRANCH   4   8
ENDBRANCH   3   4
TORSDOF 3
ENDMDL
MODEL      157
REMARK 921   NORMALIZED FREE ENERGY PREDICTED BY IDOCK:   -3.18 KCAL/MOL
REMARK 922        TOTAL FREE ENERGY PREDICTED BY IDOCK:   -4.18 KCAL/MOL
REMARK 923 INTER-LIGAND FREE ENERGY PREDICTED BY IDOCK:   -3.80 KCAL/MOL
REMARK 924 INTRA-LIGAND FREE ENERGY PREDICTED BY IDOCK:   -0.38 KCAL/MOL
REMARK 927      BINDING AFFINITY PREDICTED BY RF-SCORE:    0.00 PKD
ROOT
HETATM    1 CL   UNL     1     -12.971  10.953  71.198  1.00  0.00    -0.471 Cl 
HETATM    2  C   UNL     1     -11.975   9.501  70.928  1.00  0.00    -0.295 C  
HETATM    3  C   UNL     1     -11.353   9.445  69.528  1.00  0.00     0.057 C  
ENDROOT
BRANCH   3   4
HETATM    4  N   UNL     1     -10.569  10.646  69.142  1.00  0.00    -0.213 NA 
BRANCH   4   5
HETATM    5  C   UNL     1      -9.122  10.716  69.520  1.00  0.00     0.040 C  
HETATM    6 CL   UNL     1      -7.743   9.043  67.779  1.00  0.00    -0.096 Cl 
HETATM    7  C   UNL     1      -8.219   9.484  69.437  1.00  0.00    -0.126 C  
ENDBRANCH   4   5
BRANCH   4   8
HETATM    8  C   UNL     1     -11.093  11.598  68.207  1.00  0.00    -0.234 C  
HETATM    9  C   UNL     1     -11.728  12.743  68.528  1.00  0.00    -0.333 C  
HETATM   10  N   UNL     1     -12.225  13.630  67.612  1.00  0.00    -0.376 N  
HETATM   11  C   UNL     1     -12.111  13.477  66.268  1.00  0.00    -0.428 C  
HETATM   12  H   UNL     1     -12.709  14.457  67.961  1.00  0.00     0.000 HD 
HETATM   13  O   UNL     1     -12.574  14.291  65.476  1.00  0.00    -0.458 OA 
HETATM   14  N   UNL     1     -11.453  12.360  65.866  1.00  0.00    -0.356 N  
HETATM   15  C   UNL     1     -10.973  11.376  66.689  1.00  0.00    -0.285 C  
HETATM   16  H   UNL     1     -11.304  12.243  64.864  1.00  0.00     0.000 HD 
HETATM   17  O   UNL     1     -10.487  10.369  66.178  1.00  0.00    -0.225 OA 
ENDBRANCH   4   8
ENDBRANCH   3   4
TORSDOF 3
ENDMDL
MODEL      158
REMARK 921   NORMALIZED FREE ENERGY PREDICTED BY IDOCK:   -3.17 KCAL/MOL
REMARK 922        TOTAL FREE ENERGY PREDICTED BY IDOCK:   -4.18 KCAL/MOL
REMARK 923 INTER-LIGAND FREE ENERGY PREDICTED BY IDOCK:   -4.01 KCAL/MOL
REMARK 924 INTRA-LIGAND FREE ENERGY PREDICTED BY IDOCK:   -0.16 KCAL/MOL
REMARK 927      BINDING AFFINITY PREDICTED BY RF-SCORE:    0.00 PKD
ROOT
HETATM    1 CL   UNL     1      -7.604   5.789  72.164  1.00  0.00    -0.099 Cl 
HETATM    2  C   UNL     1      -7.751   7.365  72.981  1.00  0.00    -0.088 C  
HETATM    3  C   UNL     1      -7.966   8.532  72.011  1.00  0.00    -0.105 C  
ENDROOT
BRANCH   3   4
HETATM    4  N   UNL     1      -9.107   8.367  71.074  1.00  0.00    -0.153 NA 
BRANCH   4   5
HETATM    5  C   UNL     1      -8.861   7.731  69.741  1.00  0.00    -0.139 C  
HETATM    6 CL   UNL     1      -6.859   9.204  68.493  1.00  0.00    -0.062 Cl 
HETATM    7  C   UNL     1      -8.524   8.573  68.510  1.00  0.00    -0.131 C  
ENDBRANCH   4   5
BRANCH   4   8
HETATM    8  C   UNL     1     -10.457   8.563  71.516  1.00  0.00    -0.248 C  
HETATM    9  C   UNL     1     -11.120   7.770  72.381  1.00  0.00    -0.323 C  
HETATM   10  N   UNL     1     -12.413   7.978  72.780  1.00  0.00    -0.597 N  
HETATM   11  C   UNL     1     -13.173   9.026  72.373  1.00  0.00    -0.447 C  
HETATM   12  H   UNL     1     -12.830   7.304  73.421  1.00  0.00     0.000 HD 
HETATM   13  O   UNL     1     -14.331   9.178  72.746  1.00  0.00    -0.563 OA 
HETATM   14  N   UNL     1     -12.561   9.890  71.522  1.00  0.00    -0.383 N  
HETATM   15  C   UNL     1     -11.299   9.746  71.009  1.00  0.00    -0.387 C  
HETATM   16  H   UNL     1     -13.087  10.717  71.241  1.00  0.00     0.000 HD 
HETATM   17  O   UNL     1     -10.912  10.556  70.168  1.00  0.00    -0.287 OA 
ENDBRANCH   4   8
ENDBRANCH   3   4
TORSDOF 3
ENDMDL
MODEL      159
REMARK 921   NORMALIZED FREE ENERGY PREDICTED BY IDOCK:   -3.17 KCAL/MOL
REMARK 922        TOTAL FREE ENERGY PREDICTED BY IDOCK:   -4.17 KCAL/MOL
REMARK 923 INTER-LIGAND FREE ENERGY PREDICTED BY IDOCK:   -4.12 KCAL/MOL
REMARK 924 INTRA-LIGAND FREE ENERGY PREDICTED BY IDOCK:   -0.05 KCAL/MOL
REMARK 927      BINDING AFFINITY PREDICTED BY RF-SCORE:    0.00 PKD
ROOT
HETATM    1 CL   UNL     1     -12.543  12.522  63.704  1.00  0.00    -0.524 Cl 
HETATM    2  C   UNL     1     -12.581  12.984  65.424  1.00  0.00    -0.422 C  
HETATM    3  C   UNL     1     -11.642  12.144  66.297  1.00  0.00    -0.360 C  
ENDROOT
BRANCH   3   4
HETATM    4  N   UNL     1     -10.230  12.103  65.841  1.00  0.00    -0.238 NA 
BRANCH   4   5
HETATM    5  C   UNL     1      -9.294  13.181  66.291  1.00  0.00    -0.127 C  
HETATM    6 CL   UNL     1     -10.851  15.204  67.392  1.00  0.00    -0.295 Cl 
HETATM    7  C   UNL     1      -9.671  14.658  66.176  1.00  0.00    -0.319 C  
ENDBRANCH   4   5
BRANCH   4   8
HETATM    8  C   UNL     1      -9.695  10.933  65.206  1.00  0.00    -0.246 C  
HETATM    9  C   UNL     1      -9.430   9.762  65.818  1.00  0.00    -0.240 C  
HETATM   10  N   UNL     1      -8.912   8.664  65.187  1.00  0.00    -0.405 N  
HETATM   11  C   UNL     1      -8.631   8.613  63.860  1.00  0.00     0.002 C  
HETATM   12  H   UNL     1      -8.727   7.833  65.748  1.00  0.00     0.000 HD 
HETATM   13  O   UNL     1      -8.162   7.613  63.328  1.00  0.00    -0.091 OA 
HETATM   14  N   UNL     1      -8.903   9.749  63.167  1.00  0.00    -0.230 N  
HETATM   15  C   UNL     1      -9.360  10.923  63.705  1.00  0.00    -0.262 C  
HETATM   16  H   UNL     1      -8.754   9.725  62.158  1.00  0.00     0.000 HD 
HETATM   17  O   UNL     1      -9.465  11.903  62.969  1.00  0.00    -0.359 OA 
ENDBRANCH   4   8
ENDBRANCH   3   4
TORSDOF 3
ENDMDL
MODEL      160
REMARK 921   NORMALIZED FREE ENERGY PREDICTED BY IDOCK:   -3.16 KCAL/MOL
REMARK 922        TOTAL FREE ENERGY PREDICTED BY IDOCK:   -4.16 KCAL/MOL
REMARK 923 INTER-LIGAND FREE ENERGY PREDICTED BY IDOCK:   -3.84 KCAL/MOL
REMARK 924 INTRA-LIGAND FREE ENERGY PREDICTED BY IDOCK:   -0.32 KCAL/MOL
REMARK 927      BINDING AFFINITY PREDICTED BY RF-SCORE:    0.00 PKD
ROOT
HETATM    1 CL   UNL     1      -7.449   8.504  74.332  1.00  0.00    -0.237 Cl 
HETATM    2  C   UNL     1      -8.491   7.067  74.469  1.00  0.00    -0.186 C  
HETATM    3  C   UNL     1      -9.735   7.134  73.576  1.00  0.00    -0.251 C  
ENDROOT
BRANCH   3   4
HETATM    4  N   UNL     1      -9.463   7.395  72.140  1.00  0.00    -0.138 NA 
BRANCH   4   5
HETATM    5  C   UNL     1      -8.541   6.476  71.400  1.00  0.00    -0.126 C  
HETATM    6 CL   UNL     1     -10.099   5.027  69.611  1.00  0.00    -0.311 Cl 
HETATM    7  C   UNL     1      -8.981   5.069  70.995  1.00  0.00    -0.132 C  
ENDBRANCH   4   5
BRANCH   4   8
HETATM    8  C   UNL     1     -10.253   8.336  71.400  1.00  0.00    -0.207 C  
HETATM    9  C   UNL     1     -11.591   8.282  71.243  1.00  0.00    -0.281 C  
HETATM   10  N   UNL     1     -12.318   9.192  70.525  1.00  0.00    -0.472 N  
HETATM   11  C   UNL     1     -11.782  10.275  69.907  1.00  0.00    -0.225 C  
HETATM   12  H   UNL     1     -13.325   9.046  70.450  1.00  0.00     0.000 HD 
HETATM   13  O   UNL     1     -12.464  11.067  69.266  1.00  0.00    -0.400 OA 
HETATM   14  N   UNL     1     -10.439  10.415  70.047  1.00  0.00    -0.419 N  
HETATM   15  C   UNL     1      -9.606   9.535  70.687  1.00  0.00    -0.227 C  
HETATM   16  H   UNL     1     -10.013  11.248  69.640  1.00  0.00     0.000 HD 
HETATM   17  O   UNL     1      -8.394   9.740  70.647  1.00  0.00    -0.224 OA 
ENDBRANCH   4   8
ENDBRANCH   3   4
TORSDOF 3
ENDMDL
MODEL      161
REMARK 921   NORMALIZED FREE ENERGY PREDICTED BY IDOCK:   -3.15 KCAL/MOL
REMARK 922        TOTAL FREE ENERGY PREDICTED BY IDOCK:   -4.15 KCAL/MOL
REMARK 923 INTER-LIGAND FREE ENERGY PREDICTED BY IDOCK:   -3.86 KCAL/MOL
REMARK 924 INTRA-LIGAND FREE ENERGY PREDICTED BY IDOCK:   -0.30 KCAL/MOL
REMARK 927      BINDING AFFINITY PREDICTED BY RF-SCORE:    0.00 PKD
ROOT
HETATM    1 CL   UNL     1     -11.337  16.248  68.339  1.00  0.00    -0.357 Cl 
HETATM    2  C   UNL     1     -10.396  15.675  66.940  1.00  0.00    -0.293 C  
HETATM    3  C   UNL     1      -9.306  16.659  66.499  1.00  0.00    -0.265 C  
ENDROOT
BRANCH   3   4
HETATM    4  N   UNL     1      -8.368  17.076  67.572  1.00  0.00    -0.187 NA 
BRANCH   4   5
HETATM    5  C   UNL     1      -8.469  18.466  68.118  1.00  0.00    -0.285 C  
HETATM    6 CL   UNL     1     -10.825  19.562  67.129  1.00  0.00    -0.596 Cl 
HETATM    7  C   UNL     1      -9.052  19.607  67.284  1.00  0.00    -0.317 C  
ENDBRANCH   4   5
BRANCH   4   8
HETATM    8  C   UNL     1      -7.559  16.112  68.260  1.00  0.00    -0.146 C  
HETATM    9  C   UNL     1      -7.906  15.462  69.388  1.00  0.00    -0.232 C  
HETATM   10  N   UNL     1      -7.109  14.550  70.027  1.00  0.00    -0.392 N  
HETATM   11  C   UNL     1      -5.884  14.170  69.582  1.00  0.00    -0.107 C  
HETATM   12  H   UNL     1      -7.458  14.132  70.888  1.00  0.00     0.000 HD 
HETATM   13  O   UNL     1      -5.195  13.354  70.184  1.00  0.00    -0.088 OA 
HETATM   14  N   UNL     1      -5.478  14.760  68.429  1.00  0.00    -0.103 N  
HETATM   15  C   UNL     1      -6.162  15.728  67.742  1.00  0.00    -0.154 C  
HETATM   16  H   UNL     1      -4.585  14.455  68.040  1.00  0.00     0.000 HD 
HETATM   17  O   UNL     1      -5.624  16.246  66.765  1.00  0.00    -0.335 OA 
ENDBRANCH   4   8
ENDBRANCH   3   4
TORSDOF 3
ENDMDL
MODEL      162
REMARK 921   NORMALIZED FREE ENERGY PREDICTED BY IDOCK:   -3.15 KCAL/MOL
REMARK 922        TOTAL FREE ENERGY PREDICTED BY IDOCK:   -4.14 KCAL/MOL
REMARK 923 INTER-LIGAND FREE ENERGY PREDICTED BY IDOCK:   -4.14 KCAL/MOL
REMARK 924 INTRA-LIGAND FREE ENERGY PREDICTED BY IDOCK:   -0.00 KCAL/MOL
REMARK 927      BINDING AFFINITY PREDICTED BY RF-SCORE:    0.00 PKD
ROOT
HETATM    1 CL   UNL     1      -9.467   9.431  65.002  1.00  0.00    -0.275 Cl 
HETATM    2  C   UNL     1      -8.120   9.552  66.160  1.00  0.00    -0.111 C  
HETATM    3  C   UNL     1      -7.887  10.978  66.672  1.00  0.00    -0.153 C  
ENDROOT
BRANCH   3   4
HETATM    4  N   UNL     1      -9.083  11.638  67.254  1.00  0.00    -0.164 NA 
BRANCH   4   5
HETATM    5  C   UNL     1      -9.690  12.800  66.532  1.00  0.00    -0.255 C  
HETATM    6 CL   UNL     1      -8.074  15.006  67.034  1.00  0.00    -0.243 Cl 
HETATM    7  C   UNL     1      -9.662  14.208  67.129  1.00  0.00    -0.248 C  
ENDBRANCH   4   5
BRANCH   4   8
HETATM    8  C   UNL     1      -9.806  11.031  68.334  1.00  0.00    -0.182 C  
HETATM    9  C   UNL     1      -9.258  10.518  69.453  1.00  0.00    -0.107 C  
HETATM   10  N   UNL     1      -9.973   9.939  70.465  1.00  0.00    -0.375 N  
HETATM   11  C   UNL     1     -11.327   9.837  70.476  1.00  0.00    -0.314 C  
HETATM   12  H   UNL     1      -9.458   9.561  71.260  1.00  0.00     0.000 HD 
HETATM   13  O   UNL     1     -11.936   9.305  71.398  1.00  0.00    -0.304 OA 
HETATM   14  N   UNL     1     -11.956  10.362  69.393  1.00  0.00    -0.522 N  
HETATM   15  C   UNL     1     -11.339  10.906  68.297  1.00  0.00    -0.308 C  
HETATM   16  H   UNL     1     -12.976  10.350  69.395  1.00  0.00     0.000 HD 
HETATM   17  O   UNL     1     -12.035  11.251  67.343  1.00  0.00    -0.581 OA 
ENDBRANCH   4   8
ENDBRANCH   3   4
TORSDOF 3
ENDMDL
MODEL      163
REMARK 921   NORMALIZED FREE ENERGY PREDICTED BY IDOCK:   -3.13 KCAL/MOL
REMARK 922        TOTAL FREE ENERGY PREDICTED BY IDOCK:   -4.13 KCAL/MOL
REMARK 923 INTER-LIGAND FREE ENERGY PREDICTED BY IDOCK:   -3.82 KCAL/MOL
REMARK 924 INTRA-LIGAND FREE ENERGY PREDICTED BY IDOCK:   -0.31 KCAL/MOL
REMARK 927      BINDING AFFINITY PREDICTED BY RF-SCORE:    0.00 PKD
ROOT
HETATM    1 CL   UNL     1     -11.096  14.897  68.038  1.00  0.00    -0.286 Cl 
HETATM    2  C   UNL     1      -9.515  14.077  68.069  1.00  0.00    -0.206 C  
HETATM    3  C   UNL     1      -9.594  12.629  68.563  1.00  0.00    -0.109 C  
ENDROOT
BRANCH   3   4
HETATM    4  N   UNL     1     -10.566  11.771  67.839  1.00  0.00    -0.195 NA 
BRANCH   4   5
HETATM    5  C   UNL     1     -11.875  11.455  68.492  1.00  0.00    -0.294 C  
HETATM    6 CL   UNL     1     -12.089  13.096  70.727  1.00  0.00    -0.375 Cl 
HETATM    7  C   UNL     1     -12.026  11.466  70.014  1.00  0.00    -0.363 C  
ENDBRANCH   4   5
BRANCH   4   8
HETATM    8  C   UNL     1     -10.386  11.464  66.450  1.00  0.00    -0.242 C  
HETATM    9  C   UNL     1     -11.114  11.971  65.435  1.00  0.00    -0.320 C  
HETATM   10  N   UNL     1     -10.923  11.654  64.118  1.00  0.00    -0.357 N  
HETATM   11  C   UNL     1      -9.957  10.811  63.673  1.00  0.00    -0.345 C  
HETATM   12  H   UNL     1     -11.545  12.077  63.429  1.00  0.00     0.000 HD 
HETATM   13  O   UNL     1      -9.819  10.544  62.484  1.00  0.00    -0.217 OA 
HETATM   14  N   UNL     1      -9.159  10.283  64.636  1.00  0.00    -0.207 N  
HETATM   15  C   UNL     1      -9.299  10.480  65.985  1.00  0.00    -0.178 C  
HETATM   16  H   UNL     1      -8.390   9.688  64.330  1.00  0.00     0.000 HD 
HETATM   17  O   UNL     1      -8.565   9.854  66.748  1.00  0.00    -0.127 OA 
ENDBRANCH   4   8
ENDBRANCH   3   4
TORSDOF 3
ENDMDL
MODEL      164
REMARK 921   NORMALIZED FREE ENERGY PREDICTED BY IDOCK:   -3.13 KCAL/MOL
REMARK 922        TOTAL FREE ENERGY PREDICTED BY IDOCK:   -4.12 KCAL/MOL
REMARK 923 INTER-LIGAND FREE ENERGY PREDICTED BY IDOCK:   -3.84 KCAL/MOL
REMARK 924 INTRA-LIGAND FREE ENERGY PREDICTED BY IDOCK:   -0.29 KCAL/MOL
REMARK 927      BINDING AFFINITY PREDICTED BY RF-SCORE:    0.00 PKD
ROOT
HETATM    1 CL   UNL     1     -11.834  12.866  63.492  1.00  0.00    -0.587 Cl 
HETATM    2  C   UNL     1     -12.639  13.342  65.008  1.00  0.00    -0.423 C  
HETATM    3  C   UNL     1     -12.010  12.709  66.253  1.00  0.00    -0.374 C  
ENDROOT
BRANCH   3   4
HETATM    4  N   UNL     1     -10.548  12.926  66.397  1.00  0.00    -0.269 NA 
BRANCH   4   5
HETATM    5  C   UNL     1     -10.061  14.247  66.905  1.00  0.00    -0.264 C  
HETATM    6 CL   UNL     1     -10.727  16.152  64.992  1.00  0.00    -0.416 Cl 
HETATM    7  C   UNL     1      -9.494  15.303  65.955  1.00  0.00    -0.316 C  
ENDBRANCH   4   5
BRANCH   4   8
HETATM    8  C   UNL     1      -9.628  11.829  66.308  1.00  0.00    -0.225 C  
HETATM    9  C   UNL     1      -9.294  11.177  65.178  1.00  0.00    -0.213 C  
HETATM   10  N   UNL     1      -8.417  10.128  65.125  1.00  0.00    -0.153 N  
HETATM   11  C   UNL     1      -7.755   9.637  66.204  1.00  0.00    -0.102 C  
HETATM   12  H   UNL     1      -8.250   9.688  64.220  1.00  0.00     0.000 HD 
HETATM   13  O   UNL     1      -6.980   8.690  66.121  1.00  0.00    -0.077 OA 
HETATM   14  N   UNL     1      -8.016  10.266  67.379  1.00  0.00    -0.107 N  
HETATM   15  C   UNL     1      -8.920  11.280  67.559  1.00  0.00    -0.140 C  
HETATM   16  H   UNL     1      -7.494   9.956  68.199  1.00  0.00     0.000 HD 
HETATM   17  O   UNL     1      -9.126  11.686  68.701  1.00  0.00    -0.173 OA 
ENDBRANCH   4   8
ENDBRANCH   3   4
TORSDOF 3
ENDMDL
MODEL      165
REMARK 921   NORMALIZED FREE ENERGY PREDICTED BY IDOCK:   -3.13 KCAL/MOL
REMARK 922        TOTAL FREE ENERGY PREDICTED BY IDOCK:   -4.12 KCAL/MOL
REMARK 923 INTER-LIGAND FREE ENERGY PREDICTED BY IDOCK:   -3.69 KCAL/MOL
REMARK 924 INTRA-LIGAND FREE ENERGY PREDICTED BY IDOCK:   -0.43 KCAL/MOL
REMARK 927      BINDING AFFINITY PREDICTED BY RF-SCORE:    0.00 PKD
ROOT
HETATM    1 CL   UNL     1      -7.246   6.342  69.025  1.00  0.00    -0.081 Cl 
HETATM    2  C   UNL     1      -7.692   6.676  70.716  1.00  0.00    -0.097 C  
HETATM    3  C   UNL     1      -8.702   7.819  70.863  1.00  0.00    -0.137 C  
ENDROOT
BRANCH   3   4
HETATM    4  N   UNL     1      -9.941   7.668  70.059  1.00  0.00    -0.188 NA 
BRANCH   4   5
HETATM    5  C   UNL     1     -10.734   6.404  70.185  1.00  0.00    -0.271 C  
HETATM    6 CL   UNL     1     -13.140   7.071  71.410  1.00  0.00    -0.412 Cl 
HETATM    7  C   UNL     1     -11.621   6.142  71.403  1.00  0.00    -0.219 C  
ENDBRANCH   4   5
BRANCH   4   8
HETATM    8  C   UNL     1     -10.520   8.791  69.379  1.00  0.00    -0.222 C  
HETATM    9  C   UNL     1     -11.226   9.780  69.961  1.00  0.00    -0.251 C  
HETATM   10  N   UNL     1     -11.772  10.836  69.285  1.00  0.00    -0.363 N  
HETATM   11  C   UNL     1     -11.643  11.030  67.948  1.00  0.00    -0.226 C  
HETATM   12  H   UNL     1     -12.309  11.520  69.819  1.00  0.00     0.000 HD 
HETATM   13  O   UNL     1     -12.152  11.986  67.373  1.00  0.00    -0.566 OA 
HETATM   14  N   UNL     1     -10.914  10.089  67.294  1.00  0.00    -0.252 N  
HETATM   15  C   UNL     1     -10.378   8.961  67.857  1.00  0.00    -0.230 C  
HETATM   16  H   UNL     1     -10.753  10.234  66.298  1.00  0.00     0.000 HD 
HETATM   17  O   UNL     1      -9.828   8.143  67.121  1.00  0.00    -0.177 OA 
ENDBRANCH   4   8
ENDBRANCH   3   4
TORSDOF 3
ENDMDL
MODEL      166
REMARK 921   NORMALIZED FREE ENERGY PREDICTED BY IDOCK:   -3.13 KCAL/MOL
REMARK 922        TOTAL FREE ENERGY PREDICTED BY IDOCK:   -4.12 KCAL/MOL
REMARK 923 INTER-LIGAND FREE ENERGY PREDICTED BY IDOCK:   -3.69 KCAL/MOL
REMARK 924 INTRA-LIGAND FREE ENERGY PREDICTED BY IDOCK:   -0.43 KCAL/MOL
REMARK 927      BINDING AFFINITY PREDICTED BY RF-SCORE:    0.00 PKD
ROOT
HETATM    1 CL   UNL     1      -7.706   7.244  66.711  1.00  0.00    -0.106 Cl 
HETATM    2  C   UNL     1      -7.436   8.118  68.239  1.00  0.00    -0.097 C  
HETATM    3  C   UNL     1      -8.167   9.463  68.305  1.00  0.00    -0.118 C  
ENDROOT
BRANCH   3   4
HETATM    4  N   UNL     1      -9.626   9.398  68.039  1.00  0.00    -0.137 NA 
BRANCH   4   5
HETATM    5  C   UNL     1     -10.453   8.402  68.791  1.00  0.00    -0.178 C  
HETATM    6 CL   UNL     1     -11.542   9.732  70.977  1.00  0.00    -0.420 Cl 
HETATM    7  C   UNL     1     -10.528   8.425  70.318  1.00  0.00    -0.218 C  
ENDBRANCH   4   5
BRANCH   4   8
HETATM    8  C   UNL     1     -10.284  10.426  67.285  1.00  0.00    -0.211 C  
HETATM    9  C   UNL     1     -11.073  11.390  67.799  1.00  0.00    -0.265 C  
HETATM   10  N   UNL     1     -11.694  12.355  67.053  1.00  0.00    -0.368 N  
HETATM   11  C   UNL     1     -11.566  12.473  65.707  1.00  0.00    -0.392 C  
HETATM   12  H   UNL     1     -12.289  13.025  67.538  1.00  0.00     0.000 HD 
HETATM   13  O   UNL     1     -12.143  13.347  65.069  1.00  0.00    -0.362 OA 
HETATM   14  N   UNL     1     -10.758  11.554  65.119  1.00  0.00    -0.294 N  
HETATM   15  C   UNL     1     -10.140  10.510  65.756  1.00  0.00    -0.265 C  
HETATM   16  H   UNL     1     -10.597  11.648  64.116  1.00  0.00     0.000 HD 
HETATM   17  O   UNL     1      -9.518   9.694  65.077  1.00  0.00    -0.261 OA 
ENDBRANCH   4   8
ENDBRANCH   3   4
TORSDOF 3
ENDMDL
MODEL      167
REMARK 921   NORMALIZED FREE ENERGY PREDICTED BY IDOCK:   -3.12 KCAL/MOL
REMARK 922        TOTAL FREE ENERGY PREDICTED BY IDOCK:   -4.12 KCAL/MOL
REMARK 923 INTER-LIGAND FREE ENERGY PREDICTED BY IDOCK:   -3.59 KCAL/MOL
REMARK 924 INTRA-LIGAND FREE ENERGY PREDICTED BY IDOCK:   -0.52 KCAL/MOL
REMARK 927      BINDING AFFINITY PREDICTED BY RF-SCORE:    0.00 PKD
ROOT
HETATM    1 CL   UNL     1      -8.648   5.175  67.509  1.00  0.00    -0.105 Cl 
HETATM    2  C   UNL     1     -10.084   6.024  66.888  1.00  0.00    -0.185 C  
HETATM    3  C   UNL     1     -11.127   6.323  67.971  1.00  0.00    -0.265 C  
ENDROOT
BRANCH   3   4
HETATM    4  N   UNL     1     -10.610   7.055  69.155  1.00  0.00    -0.214 NA 
BRANCH   4   5
HETATM    5  C   UNL     1     -10.261   8.504  69.013  1.00  0.00    -0.207 C  
HETATM    6 CL   UNL     1      -7.674   8.623  67.999  1.00  0.00    -0.101 Cl 
HETATM    7  C   UNL     1      -8.844   9.009  69.285  1.00  0.00    -0.139 C  
ENDBRANCH   4   5
BRANCH   4   8
HETATM    8  C   UNL     1     -10.684   6.480  70.467  1.00  0.00    -0.254 C  
HETATM    9  C   UNL     1      -9.739   5.708  71.039  1.00  0.00    -0.173 C  
HETATM   10  N   UNL     1      -9.841   5.167  72.292  1.00  0.00    -0.166 N  
HETATM   11  C   UNL     1     -10.897   5.367  73.121  1.00  0.00    -0.285 C  
HETATM   12  H   UNL     1      -9.077   4.578  72.622  1.00  0.00     0.000 HD 
HETATM   13  O   UNL     1     -10.958   4.861  74.236  1.00  0.00    -0.322 OA 
HETATM   14  N   UNL     1     -11.879   6.163  72.626  1.00  0.00    -0.515 N  
HETATM   15  C   UNL     1     -11.912   6.704  71.367  1.00  0.00    -0.353 C  
HETATM   16  H   UNL     1     -12.661   6.377  73.245  1.00  0.00     0.000 HD 
HETATM   17  O   UNL     1     -12.916   7.323  71.020  1.00  0.00    -0.307 OA 
ENDBRANCH   4   8
ENDBRANCH   3   4
TORSDOF 3
ENDMDL
MODEL      168
REMARK 921   NORMALIZED FREE ENERGY PREDICTED BY IDOCK:   -3.12 KCAL/MOL
REMARK 922        TOTAL FREE ENERGY PREDICTED BY IDOCK:   -4.11 KCAL/MOL
REMARK 923 INTER-LIGAND FREE ENERGY PREDICTED BY IDOCK:   -3.99 KCAL/MOL
REMARK 924 INTRA-LIGAND FREE ENERGY PREDICTED BY IDOCK:   -0.12 KCAL/MOL
REMARK 927      BINDING AFFINITY PREDICTED BY RF-SCORE:    0.00 PKD
ROOT
HETATM    1 CL   UNL     1     -12.398  13.604  70.951  1.00  0.00    -0.441 Cl 
HETATM    2  C   UNL     1     -12.325  12.000  70.181  1.00  0.00    -0.155 C  
HETATM    3  C   UNL     1     -11.868  12.051  68.719  1.00  0.00    -0.302 C  
ENDROOT
BRANCH   3   4
HETATM    4  N   UNL     1     -10.582  12.755  68.487  1.00  0.00    -0.250 NA 
BRANCH   4   5
HETATM    5  C   UNL     1      -9.331  11.945  68.346  1.00  0.00    -0.184 C  
HETATM    6 CL   UNL     1     -10.050   9.534  67.162  1.00  0.00    -0.270 Cl 
HETATM    7  C   UNL     1      -9.342  10.427  68.530  1.00  0.00    -0.160 C  
ENDBRANCH   4   5
BRANCH   4   8
HETATM    8  C   UNL     1     -10.556  14.147  68.142  1.00  0.00    -0.246 C  
HETATM    9  C   UNL     1     -10.082  15.138  68.923  1.00  0.00    -0.238 C  
HETATM   10  N   UNL     1     -10.077  16.460  68.569  1.00  0.00    -0.238 N  
HETATM   11  C   UNL     1     -10.523  16.928  67.376  1.00  0.00    -0.310 C  
HETATM   12  H   UNL     1      -9.716  17.134  69.244  1.00  0.00     0.000 HD 
HETATM   13  O   UNL     1     -10.509  18.122  67.095  1.00  0.00    -0.371 OA 
HETATM   14  N   UNL     1     -10.988  15.982  66.520  1.00  0.00    -0.161 N  
HETATM   15  C   UNL     1     -11.099  14.644  66.791  1.00  0.00    -0.335 C  
HETATM   16  H   UNL     1     -11.280  16.296  65.594  1.00  0.00     0.000 HD 
HETATM   17  O   UNL     1     -11.634  13.918  65.955  1.00  0.00    -0.329 OA 
ENDBRANCH   4   8
ENDBRANCH   3   4
TORSDOF 3
ENDMDL
MODEL      169
REMARK 921   NORMALIZED FREE ENERGY PREDICTED BY IDOCK:   -3.11 KCAL/MOL
REMARK 922        TOTAL FREE ENERGY PREDICTED BY IDOCK:   -4.11 KCAL/MOL
REMARK 923 INTER-LIGAND FREE ENERGY PREDICTED BY IDOCK:   -3.79 KCAL/MOL
REMARK 924 INTRA-LIGAND FREE ENERGY PREDICTED BY IDOCK:   -0.31 KCAL/MOL
REMARK 927      BINDING AFFINITY PREDICTED BY RF-SCORE:    0.00 PKD
ROOT
HETATM    1 CL   UNL     1      -9.524   7.523  68.916  1.00  0.00    -0.145 Cl 
HETATM    2  C   UNL     1      -8.809   7.192  67.318  1.00  0.00    -0.120 C  
HETATM    3  C   UNL     1      -9.292   8.155  66.228  1.00  0.00    -0.196 C  
ENDROOT
BRANCH   3   4
HETATM    4  N   UNL     1      -9.120   9.596  66.542  1.00  0.00    -0.149 NA 
BRANCH   4   5
HETATM    5  C   UNL     1      -7.774  10.085  66.976  1.00  0.00    -0.095 C  
HETATM    6 CL   UNL     1      -7.914  10.532  69.717  1.00  0.00    -0.092 Cl 
HETATM    7  C   UNL     1      -7.629  11.144  68.070  1.00  0.00    -0.100 C  
ENDBRANCH   4   5
BRANCH   4   8
HETATM    8  C   UNL     1     -10.132  10.551  66.193  1.00  0.00    -0.246 C  
HETATM    9  C   UNL     1     -10.949  11.179  67.061  1.00  0.00    -0.289 C  
HETATM   10  N   UNL     1     -11.911  12.082  66.697  1.00  0.00    -0.259 N  
HETATM   11  C   UNL     1     -12.137  12.475  65.417  1.00  0.00    -0.435 C  
HETATM   12  H   UNL     1     -12.492  12.483  67.432  1.00  0.00     0.000 HD 
HETATM   13  O   UNL     1     -13.013  13.283  65.127  1.00  0.00    -0.705 OA 
HETATM   14  N   UNL     1     -11.329  11.908  64.485  1.00  0.00    -0.329 N  
HETATM   15  C   UNL     1     -10.380  10.949  64.728  1.00  0.00    -0.323 C  
HETATM   16  H   UNL     1     -11.437  12.223  63.521  1.00  0.00     0.000 HD 
HETATM   17  O   UNL     1      -9.791  10.452  63.769  1.00  0.00    -0.310 OA 
ENDBRANCH   4   8
ENDBRANCH   3   4
TORSDOF 3
ENDMDL
MODEL      170
REMARK 921   NORMALIZED FREE ENERGY PREDICTED BY IDOCK:   -3.10 KCAL/MOL
REMARK 922        TOTAL FREE ENERGY PREDICTED BY IDOCK:   -4.09 KCAL/MOL
REMARK 923 INTER-LIGAND FREE ENERGY PREDICTED BY IDOCK:   -4.33 KCAL/MOL
REMARK 924 INTRA-LIGAND FREE ENERGY PREDICTED BY IDOCK:    0.24 KCAL/MOL
REMARK 927      BINDING AFFINITY PREDICTED BY RF-SCORE:    0.00 PKD
ROOT
HETATM    1 CL   UNL     1     -11.952  12.431  64.403  1.00  0.00    -0.456 Cl 
HETATM    2  C   UNL     1     -12.562  13.867  65.262  1.00  0.00    -0.478 C  
HETATM    3  C   UNL     1     -12.286  13.835  66.769  1.00  0.00    -0.397 C  
ENDROOT
BRANCH   3   4
HETATM    4  N   UNL     1     -10.865  13.620  67.141  1.00  0.00    -0.283 NA 
BRANCH   4   5
HETATM    5  C   UNL     1     -10.169  14.657  67.967  1.00  0.00    -0.231 C  
HETATM    6 CL   UNL     1     -11.515  14.801  70.396  1.00  0.00    -0.307 Cl 
HETATM    7  C   UNL     1     -10.950  15.583  68.900  1.00  0.00    -0.266 C  
ENDBRANCH   4   5
BRANCH   4   8
HETATM    8  C   UNL     1     -10.239  12.343  66.951  1.00  0.00    -0.225 C  
HETATM    9  C   UNL     1      -9.042  12.137  66.367  1.00  0.00    -0.177 C  
HETATM   10  N   UNL     1      -8.473  10.904  66.193  1.00  0.00    -0.168 N  
HETATM   11  C   UNL     1      -9.034   9.743  66.616  1.00  0.00    -0.142 C  
HETATM   12  H   UNL     1      -7.572  10.857  65.718  1.00  0.00     0.000 HD 
HETATM   13  O   UNL     1      -8.498   8.655  66.437  1.00  0.00    -0.106 OA 
HETATM   14  N   UNL     1     -10.231   9.873  67.245  1.00  0.00    -0.208 N  
HETATM   15  C   UNL     1     -10.920  11.044  67.416  1.00  0.00    -0.291 C  
HETATM   16  H   UNL     1     -10.652   9.024  67.622  1.00  0.00     0.000 HD 
HETATM   17  O   UNL     1     -12.043  10.996  67.916  1.00  0.00    -0.600 OA 
ENDBRANCH   4   8
ENDBRANCH   3   4
TORSDOF 3
ENDMDL
MODEL      171
REMARK 921   NORMALIZED FREE ENERGY PREDICTED BY IDOCK:   -3.10 KCAL/MOL
REMARK 922        TOTAL FREE ENERGY PREDICTED BY IDOCK:   -4.09 KCAL/MOL
REMARK 923 INTER-LIGAND FREE ENERGY PREDICTED BY IDOCK:   -3.87 KCAL/MOL
REMARK 924 INTRA-LIGAND FREE ENERGY PREDICTED BY IDOCK:   -0.22 KCAL/MOL
REMARK 927      BINDING AFFINITY PREDICTED BY RF-SCORE:    0.00 PKD
ROOT
HETATM    1 CL   UNL     1      -9.365   5.277  72.042  1.00  0.00    -0.154 Cl 
HETATM    2  C   UNL     1     -10.519   5.670  73.340  1.00  0.00    -0.242 C  
HETATM    3  C   UNL     1     -10.898   7.155  73.385  1.00  0.00    -0.319 C  
ENDROOT
BRANCH   3   4
HETATM    4  N   UNL     1     -11.404   7.712  72.106  1.00  0.00    -0.277 NA 
BRANCH   4   5
HETATM    5  C   UNL     1     -12.870   7.983  71.966  1.00  0.00    -0.287 C  
HETATM    6 CL   UNL     1     -13.140  10.660  71.261  1.00  0.00    -0.474 Cl 
HETATM    7  C   UNL     1     -13.473   9.323  72.389  1.00  0.00    -0.459 C  
ENDBRANCH   4   5
BRANCH   4   8
HETATM    8  C   UNL     1     -10.501   8.229  71.119  1.00  0.00    -0.209 C  
HETATM    9  C   UNL     1      -9.663   9.270  71.293  1.00  0.00    -0.229 C  
HETATM   10  N   UNL     1      -8.816   9.746  70.329  1.00  0.00    -0.326 N  
HETATM   11  C   UNL     1      -8.698   9.207  69.089  1.00  0.00    -0.138 C  
HETATM   12  H   UNL     1      -8.239  10.555  70.557  1.00  0.00     0.000 HD 
HETATM   13  O   UNL     1      -7.932   9.664  68.248  1.00  0.00    -0.095 OA 
HETATM   14  N   UNL     1      -9.489   8.130  68.848  1.00  0.00    -0.151 N  
HETATM   15  C   UNL     1     -10.416   7.610  69.713  1.00  0.00    -0.232 C  
HETATM   16  H   UNL     1      -9.385   7.668  67.945  1.00  0.00     0.000 HD 
HETATM   17  O   UNL     1     -11.135   6.693  69.320  1.00  0.00    -0.282 OA 
ENDBRANCH   4   8
ENDBRANCH   3   4
TORSDOF 3
ENDMDL
MODEL      172
REMARK 921   NORMALIZED FREE ENERGY PREDICTED BY IDOCK:   -3.09 KCAL/MOL
REMARK 922        TOTAL FREE ENERGY PREDICTED BY IDOCK:   -4.08 KCAL/MOL
REMARK 923 INTER-LIGAND FREE ENERGY PREDICTED BY IDOCK:   -4.20 KCAL/MOL
REMARK 924 INTRA-LIGAND FREE ENERGY PREDICTED BY IDOCK:    0.13 KCAL/MOL
REMARK 927      BINDING AFFINITY PREDICTED BY RF-SCORE:    0.00 PKD
ROOT
HETATM    1 CL   UNL     1      -5.126  19.542  66.334  1.00  0.00    -0.162 Cl 
HETATM    2  C   UNL     1      -6.618  19.080  65.479  1.00  0.00    -0.274 C  
HETATM    3  C   UNL     1      -7.382  17.942  66.166  1.00  0.00    -0.292 C  
ENDROOT
BRANCH   3   4
HETATM    4  N   UNL     1      -7.700  18.175  67.598  1.00  0.00    -0.221 NA 
BRANCH   4   5
HETATM    5  C   UNL     1      -7.339  19.491  68.213  1.00  0.00    -0.311 C  
HETATM    6 CL   UNL     1      -5.366  18.990  70.108  1.00  0.00    -0.215 Cl 
HETATM    7  C   UNL     1      -6.986  19.604  69.697  1.00  0.00    -0.224 C  
ENDBRANCH   4   5
BRANCH   4   8
HETATM    8  C   UNL     1      -8.563  17.282  68.315  1.00  0.00    -0.247 C  
HETATM    9  C   UNL     1      -8.182  16.134  68.909  1.00  0.00    -0.229 C  
HETATM   10  N   UNL     1      -9.030  15.297  69.582  1.00  0.00    -0.426 N  
HETATM   11  C   UNL     1     -10.354  15.539  69.756  1.00  0.00    -0.309 C  
HETATM   12  H   UNL     1      -8.643  14.440  69.977  1.00  0.00     0.000 HD 
HETATM   13  O   UNL     1     -11.087  14.763  70.360  1.00  0.00    -0.211 OA 
HETATM   14  N   UNL     1     -10.808  16.697  69.212  1.00  0.00    -0.327 N  
HETATM   15  C   UNL     1     -10.065  17.574  68.466  1.00  0.00    -0.363 C  
HETATM   16  H   UNL     1     -11.787  16.934  69.372  1.00  0.00     0.000 HD 
HETATM   17  O   UNL     1     -10.636  18.533  67.949  1.00  0.00    -0.392 OA 
ENDBRANCH   4   8
ENDBRANCH   3   4
TORSDOF 3
ENDMDL
MODEL      173
REMARK 921   NORMALIZED FREE ENERGY PREDICTED BY IDOCK:   -3.08 KCAL/MOL
REMARK 922        TOTAL FREE ENERGY PREDICTED BY IDOCK:   -4.06 KCAL/MOL
REMARK 923 INTER-LIGAND FREE ENERGY PREDICTED BY IDOCK:   -3.96 KCAL/MOL
REMARK 924 INTRA-LIGAND FREE ENERGY PREDICTED BY IDOCK:   -0.10 KCAL/MOL
REMARK 927      BINDING AFFINITY PREDICTED BY RF-SCORE:    0.00 PKD
ROOT
HETATM    1 CL   UNL     1      -9.910   5.211  69.953  1.00  0.00    -0.267 Cl 
HETATM    2  C   UNL     1      -9.122   6.509  70.884  1.00  0.00    -0.154 C  
HETATM    3  C   UNL     1      -8.905   7.791  70.073  1.00  0.00    -0.142 C  
ENDROOT
BRANCH   3   4
HETATM    4  N   UNL     1     -10.125   8.336  69.425  1.00  0.00    -0.193 NA 
BRANCH   4   5
HETATM    5  C   UNL     1     -10.604   7.715  68.150  1.00  0.00    -0.130 C  
HETATM    6 CL   UNL     1      -8.385   6.594  66.905  1.00  0.00    -0.113 Cl 
HETATM    7  C   UNL     1      -9.747   7.739  66.884  1.00  0.00    -0.216 C  
ENDBRANCH   4   5
BRANCH   4   8
HETATM    8  C   UNL     1     -10.980   9.255  70.119  1.00  0.00    -0.246 C  
HETATM    9  C   UNL     1     -11.768   8.951  71.168  1.00  0.00    -0.298 C  
HETATM   10  N   UNL     1     -12.579   9.849  71.807  1.00  0.00    -0.403 N  
HETATM   11  C   UNL     1     -12.665  11.163  71.477  1.00  0.00    -0.394 C  
HETATM   12  H   UNL     1     -13.154   9.510  72.578  1.00  0.00     0.000 HD 
HETATM   13  O   UNL     1     -13.409  11.938  72.068  1.00  0.00    -0.487 OA 
HETATM   14  N   UNL     1     -11.873  11.554  70.446  1.00  0.00    -0.450 N  
HETATM   15  C   UNL     1     -11.074  10.732  69.696  1.00  0.00    -0.279 C  
HETATM   16  H   UNL     1     -11.874  12.546  70.208  1.00  0.00     0.000 HD 
HETATM   17  O   UNL     1     -10.488  11.209  68.725  1.00  0.00    -0.188 OA 
ENDBRANCH   4   8
ENDBRANCH   3   4
TORSDOF 3
ENDMDL
MODEL      174
REMARK 921   NORMALIZED FREE ENERGY PREDICTED BY IDOCK:   -3.08 KCAL/MOL
REMARK 922        TOTAL FREE ENERGY PREDICTED BY IDOCK:   -4.06 KCAL/MOL
REMARK 923 INTER-LIGAND FREE ENERGY PREDICTED BY IDOCK:   -4.22 KCAL/MOL
REMARK 924 INTRA-LIGAND FREE ENERGY PREDICTED BY IDOCK:    0.16 KCAL/MOL
REMARK 927      BINDING AFFINITY PREDICTED BY RF-SCORE:    0.00 PKD
ROOT
HETATM    1 CL   UNL     1      -9.851   8.395  67.251  1.00  0.00    -0.241 Cl 
HETATM    2  C   UNL     1      -8.847   9.641  68.032  1.00  0.00    -0.119 C  
HETATM    3  C   UNL     1      -8.849  10.978  67.282  1.00  0.00    -0.135 C  
ENDROOT
BRANCH   3   4
HETATM    4  N   UNL     1     -10.195  11.544  67.013  1.00  0.00    -0.209 NA 
BRANCH   4   5
HETATM    5  C   UNL     1     -10.930  11.105  65.785  1.00  0.00    -0.091 C  
HETATM    6 CL   UNL     1      -9.031  10.132  64.002  1.00  0.00    -0.236 Cl 
HETATM    7  C   UNL     1     -10.328  11.288  64.391  1.00  0.00    -0.329 C  
ENDBRANCH   4   5
BRANCH   4   8
HETATM    8  C   UNL     1     -10.897  12.286  68.020  1.00  0.00    -0.220 C  
HETATM    9  C   UNL     1     -10.959  11.966  69.327  1.00  0.00    -0.151 C  
HETATM   10  N   UNL     1     -11.643  12.690  70.265  1.00  0.00    -0.538 N  
HETATM   11  C   UNL     1     -12.319  13.836  69.995  1.00  0.00    -0.300 C  
HETATM   12  H   UNL     1     -11.645  12.348  71.226  1.00  0.00     0.000 HD 
HETATM   13  O   UNL     1     -12.927  14.456  70.860  1.00  0.00    -0.342 OA 
HETATM   14  N   UNL     1     -12.276  14.242  68.700  1.00  0.00    -0.568 N  
HETATM   15  C   UNL     1     -11.678  13.564  67.670  1.00  0.00    -0.363 C  
HETATM   16  H   UNL     1     -12.728  15.128  68.474  1.00  0.00     0.000 HD 
HETATM   17  O   UNL     1     -11.806  14.001  66.527  1.00  0.00    -0.376 OA 
ENDBRANCH   4   8
ENDBRANCH   3   4
TORSDOF 3
ENDMDL
MODEL      175
REMARK 921   NORMALIZED FREE ENERGY PREDICTED BY IDOCK:   -3.08 KCAL/MOL
REMARK 922        TOTAL FREE ENERGY PREDICTED BY IDOCK:   -4.06 KCAL/MOL
REMARK 923 INTER-LIGAND FREE ENERGY PREDICTED BY IDOCK:   -4.04 KCAL/MOL
REMARK 924 INTRA-LIGAND FREE ENERGY PREDICTED BY IDOCK:   -0.03 KCAL/MOL
REMARK 927      BINDING AFFINITY PREDICTED BY RF-SCORE:    0.00 PKD
ROOT
HETATM    1 CL   UNL     1     -11.255  10.184  70.864  1.00  0.00    -0.414 Cl 
HETATM    2  C   UNL     1     -10.398   8.937  69.926  1.00  0.00    -0.206 C  
HETATM    3  C   UNL     1     -10.417   9.195  68.416  1.00  0.00    -0.199 C  
ENDROOT
BRANCH   3   4
HETATM    4  N   UNL     1      -9.923  10.532  68.002  1.00  0.00    -0.153 NA 
BRANCH   4   5
HETATM    5  C   UNL     1      -8.458  10.823  68.100  1.00  0.00    -0.125 C  
HETATM    6 CL   UNL     1      -7.119   8.440  67.591  1.00  0.00    -0.082 Cl 
HETATM    7  C   UNL     1      -7.483   9.799  68.682  1.00  0.00    -0.075 C  
ENDBRANCH   4   5
BRANCH   4   8
HETATM    8  C   UNL     1     -10.768  11.439  67.279  1.00  0.00    -0.241 C  
HETATM    9  C   UNL     1     -10.991  11.411  65.951  1.00  0.00    -0.207 C  
HETATM   10  N   UNL     1     -11.799  12.294  65.287  1.00  0.00    -0.376 N  
HETATM   11  C   UNL     1     -12.496  13.288  65.894  1.00  0.00    -0.368 C  
HETATM   12  H   UNL     1     -11.882  12.199  64.275  1.00  0.00     0.000 HD 
HETATM   13  O   UNL     1     -13.206  14.066  65.267  1.00  0.00    -0.782 OA 
HETATM   14  N   UNL     1     -12.347  13.360  67.242  1.00  0.00    -0.223 N  
HETATM   15  C   UNL     1     -11.519  12.573  67.998  1.00  0.00    -0.317 C  
HETATM   16  H   UNL     1     -12.900  14.062  67.734  1.00  0.00     0.000 HD 
HETATM   17  O   UNL     1     -11.410  12.819  69.198  1.00  0.00    -0.267 OA 
ENDBRANCH   4   8
ENDBRANCH   3   4
TORSDOF 3
ENDMDL
MODEL      176
REMARK 921   NORMALIZED FREE ENERGY PREDICTED BY IDOCK:   -3.04 KCAL/MOL
REMARK 922        TOTAL FREE ENERGY PREDICTED BY IDOCK:   -4.02 KCAL/MOL
REMARK 923 INTER-LIGAND FREE ENERGY PREDICTED BY IDOCK:   -3.80 KCAL/MOL
REMARK 924 INTRA-LIGAND FREE ENERGY PREDICTED BY IDOCK:   -0.22 KCAL/MOL
REMARK 927      BINDING AFFINITY PREDICTED BY RF-SCORE:    0.00 PKD
ROOT
HETATM    1 CL   UNL     1     -12.718  12.168  64.135  1.00  0.00    -0.486 Cl 
HETATM    2  C   UNL     1     -11.559  13.508  63.959  1.00  0.00    -0.353 C  
HETATM    3  C   UNL     1     -11.568  14.477  65.147  1.00  0.00    -0.371 C  
ENDROOT
BRANCH   3   4
HETATM    4  N   UNL     1     -11.371  13.842  66.475  1.00  0.00    -0.321 NA 
BRANCH   4   5
HETATM    5  C   UNL     1     -12.387  14.083  67.548  1.00  0.00    -0.077 C  
HETATM    6 CL   UNL     1     -11.048  15.238  69.693  1.00  0.00    -0.260 Cl 
HETATM    7  C   UNL     1     -12.035  13.915  69.026  1.00  0.00    -0.364 C  
ENDBRANCH   4   5
BRANCH   4   8
HETATM    8  C   UNL     1     -10.387  12.816  66.662  1.00  0.00    -0.242 C  
HETATM    9  C   UNL     1     -10.620  11.489  66.609  1.00  0.00    -0.253 C  
HETATM   10  N   UNL     1      -9.661  10.532  66.798  1.00  0.00    -0.166 N  
HETATM   11  C   UNL     1      -8.352  10.805  67.035  1.00  0.00    -0.129 C  
HETATM   12  H   UNL     1      -9.947   9.554  66.759  1.00  0.00     0.000 HD 
HETATM   13  O   UNL     1      -7.520   9.920  67.207  1.00  0.00    -0.087 OA 
HETATM   14  N   UNL     1      -8.033  12.124  67.072  1.00  0.00    -0.259 N  
HETATM   15  C   UNL     1      -8.919  13.164  66.959  1.00  0.00    -0.228 C  
HETATM   16  H   UNL     1      -7.049  12.362  67.194  1.00  0.00     0.000 HD 
HETATM   17  O   UNL     1      -8.500  14.310  67.114  1.00  0.00    -0.203 OA 
ENDBRANCH   4   8
ENDBRANCH   3   4
TORSDOF 3
ENDMDL
MODEL      177
REMARK 921   NORMALIZED FREE ENERGY PREDICTED BY IDOCK:   -3.04 KCAL/MOL
REMARK 922        TOTAL FREE ENERGY PREDICTED BY IDOCK:   -4.02 KCAL/MOL
REMARK 923 INTER-LIGAND FREE ENERGY PREDICTED BY IDOCK:   -3.75 KCAL/MOL
REMARK 924 INTRA-LIGAND FREE ENERGY PREDICTED BY IDOCK:   -0.27 KCAL/MOL
REMARK 927      BINDING AFFINITY PREDICTED BY RF-SCORE:    0.00 PKD
ROOT
HETATM    1 CL   UNL     1     -10.876  11.226  63.578  1.00  0.00    -0.431 Cl 
HETATM    2  C   UNL     1      -9.998  10.400  64.889  1.00  0.00    -0.339 C  
HETATM    3  C   UNL     1      -9.180  11.354  65.765  1.00  0.00    -0.208 C  
ENDROOT
BRANCH   3   4
HETATM    4  N   UNL     1      -9.944  12.491  66.339  1.00  0.00    -0.246 NA 
BRANCH   4   5
HETATM    5  C   UNL     1     -11.306  12.232  66.904  1.00  0.00    -0.333 C  
HETATM    6 CL   UNL     1     -13.096  13.794  65.458  1.00  0.00    -0.369 Cl 
HETATM    7  C   UNL     1     -12.346  13.349  67.010  1.00  0.00    -0.177 C  
ENDBRANCH   4   5
BRANCH   4   8
HETATM    8  C   UNL     1      -9.309  13.751  66.595  1.00  0.00    -0.264 C  
HETATM    9  C   UNL     1      -9.478  14.874  65.869  1.00  0.00    -0.254 C  
HETATM   10  N   UNL     1      -8.853  16.062  66.134  1.00  0.00    -0.338 N  
HETATM   11  C   UNL     1      -8.008  16.259  67.177  1.00  0.00    -0.187 C  
HETATM   12  H   UNL     1      -9.033  16.847  65.508  1.00  0.00     0.000 HD 
HETATM   13  O   UNL     1      -7.460  17.337  67.381  1.00  0.00    -0.164 OA 
HETATM   14  N   UNL     1      -7.812  15.179  67.976  1.00  0.00    -0.123 N  
HETATM   15  C   UNL     1      -8.333  13.928  67.770  1.00  0.00    -0.174 C  
HETATM   16  H   UNL     1      -7.225  15.309  68.800  1.00  0.00     0.000 HD 
HETATM   17  O   UNL     1      -7.986  13.018  68.521  1.00  0.00    -0.138 OA 
ENDBRANCH   4   8
ENDBRANCH   3   4
TORSDOF 3
ENDMDL
MODEL      178
REMARK 921   NORMALIZED FREE ENERGY PREDICTED BY IDOCK:   -3.03 KCAL/MOL
REMARK 922        TOTAL FREE ENERGY PREDICTED BY IDOCK:   -4.01 KCAL/MOL
REMARK 923 INTER-LIGAND FREE ENERGY PREDICTED BY IDOCK:   -3.51 KCAL/MOL
REMARK 924 INTRA-LIGAND FREE ENERGY PREDICTED BY IDOCK:   -0.50 KCAL/MOL
REMARK 927      BINDING AFFINITY PREDICTED BY RF-SCORE:    0.00 PKD
ROOT
HETATM    1 CL   UNL     1      -9.742   8.254  72.952  1.00  0.00    -0.335 Cl 
HETATM    2  C   UNL     1     -11.487   8.047  72.660  1.00  0.00    -0.402 C  
HETATM    3  C   UNL     1     -12.004   8.871  71.476  1.00  0.00    -0.333 C  
ENDROOT
BRANCH   3   4
HETATM    4  N   UNL     1     -11.274   8.663  70.200  1.00  0.00    -0.200 NA 
BRANCH   4   5
HETATM    5  C   UNL     1     -11.564   7.435  69.394  1.00  0.00     0.412 C  
HETATM    6 CL   UNL     1     -10.347   5.300  70.695  1.00  0.00    -0.327 Cl 
HETATM    7  C   UNL     1     -10.529   6.319  69.247  1.00  0.00    -0.244 C  
ENDBRANCH   4   5
BRANCH   4   8
HETATM    8  C   UNL     1     -10.507   9.721  69.609  1.00  0.00    -0.242 C  
HETATM    9  C   UNL     1      -9.170   9.865  69.704  1.00  0.00    -0.227 C  
HETATM   10  N   UNL     1      -8.465  10.891  69.134  1.00  0.00    -0.327 N  
HETATM   11  C   UNL     1      -9.026  11.871  68.382  1.00  0.00    -0.163 C  
HETATM   12  H   UNL     1      -7.457  10.920  69.285  1.00  0.00     0.000 HD 
HETATM   13  O   UNL     1      -8.363  12.779  67.891  1.00  0.00    -0.149 OA 
HETATM   14  N   UNL     1     -10.370  11.776  68.214  1.00  0.00    -0.199 N  
HETATM   15  C   UNL     1     -11.182  10.833  68.787  1.00  0.00    -0.272 C  
HETATM   16  H   UNL     1     -10.814  12.466  67.609  1.00  0.00     0.000 HD 
HETATM   17  O   UNL     1     -12.397  10.930  68.628  1.00  0.00    -0.501 OA 
ENDBRANCH   4   8
ENDBRANCH   3   4
TORSDOF 3
ENDMDL
MODEL      179
REMARK 921   NORMALIZED FREE ENERGY PREDICTED BY IDOCK:   -3.03 KCAL/MOL
REMARK 922        TOTAL FREE ENERGY PREDICTED BY IDOCK:   -4.01 KCAL/MOL
REMARK 923 INTER-LIGAND FREE ENERGY PREDICTED BY IDOCK:   -3.64 KCAL/MOL
REMARK 924 INTRA-LIGAND FREE ENERGY PREDICTED BY IDOCK:   -0.36 KCAL/MOL
REMARK 927      BINDING AFFINITY PREDICTED BY RF-SCORE:    0.00 PKD
ROOT
HETATM    1 CL   UNL     1     -12.431   9.793  71.557  1.00  0.00    -0.462 Cl 
HETATM    2  C   UNL     1     -11.605   8.248  71.237  1.00  0.00    -0.281 C  
HETATM    3  C   UNL     1     -11.001   8.165  69.831  1.00  0.00    -0.168 C  
ENDROOT
BRANCH   3   4
HETATM    4  N   UNL     1     -10.089   9.281  69.472  1.00  0.00    -0.190 NA 
BRANCH   4   5
HETATM    5  C   UNL     1      -8.881   9.527  70.320  1.00  0.00    -0.243 C  
HETATM    6 CL   UNL     1      -6.849   7.905  69.334  1.00  0.00    -0.046 Cl 
HETATM    7  C   UNL     1      -7.915   8.395  70.673  1.00  0.00    -0.101 C  
ENDBRANCH   4   5
BRANCH   4   8
HETATM    8  C   UNL     1     -10.202   9.945  68.206  1.00  0.00    -0.176 C  
HETATM    9  C   UNL     1      -9.363   9.791  67.163  1.00  0.00    -0.142 C  
HETATM   10  N   UNL     1      -9.492  10.445  65.968  1.00  0.00    -0.176 N  
HETATM   11  C   UNL     1     -10.500  11.307  65.680  1.00  0.00    -0.261 C  
HETATM   12  H   UNL     1      -8.788  10.273  65.251  1.00  0.00     0.000 HD 
HETATM   13  O   UNL     1     -10.581  11.880  64.599  1.00  0.00    -0.277 OA 
HETATM   14  N   UNL     1     -11.407  11.490  66.673  1.00  0.00    -0.279 N  
HETATM   15  C   UNL     1     -11.342  10.940  67.926  1.00  0.00    -0.308 C  
HETATM   16  H   UNL     1     -12.206  12.090  66.469  1.00  0.00     0.000 HD 
HETATM   17  O   UNL     1     -12.182  11.276  68.759  1.00  0.00    -0.532 OA 
ENDBRANCH   4   8
ENDBRANCH   3   4
TORSDOF 3
ENDMDL
MODEL      180
REMARK 921   NORMALIZED FREE ENERGY PREDICTED BY IDOCK:   -3.03 KCAL/MOL
REMARK 922        TOTAL FREE ENERGY PREDICTED BY IDOCK:   -4.00 KCAL/MOL
REMARK 923 INTER-LIGAND FREE ENERGY PREDICTED BY IDOCK:   -3.83 KCAL/MOL
REMARK 924 INTRA-LIGAND FREE ENERGY PREDICTED BY IDOCK:   -0.17 KCAL/MOL
REMARK 927      BINDING AFFINITY PREDICTED BY RF-SCORE:    0.00 PKD
ROOT
HETATM    1 CL   UNL     1      -7.264  11.182  67.867  1.00  0.00    -0.087 Cl 
HETATM    2  C   UNL     1      -7.838  10.042  69.109  1.00  0.00    -0.112 C  
HETATM    3  C   UNL     1      -9.351  10.108  69.339  1.00  0.00    -0.219 C  
ENDROOT
BRANCH   3   4
HETATM    4  N   UNL     1     -10.179   9.944  68.117  1.00  0.00    -0.170 NA 
BRANCH   4   5
HETATM    5  C   UNL     1     -10.598   8.567  67.707  1.00  0.00    -0.175 C  
HETATM    6 CL   UNL     1     -11.125   7.149  70.041  1.00  0.00    -0.290 Cl 
HETATM    7  C   UNL     1     -10.202   7.340  68.530  1.00  0.00    -0.181 C  
ENDBRANCH   4   5
BRANCH   4   8
HETATM    8  C   UNL     1     -10.790  11.077  67.484  1.00  0.00    -0.263 C  
HETATM    9  C   UNL     1     -11.527  12.018  68.105  1.00  0.00    -0.322 C  
HETATM   10  N   UNL     1     -12.104  13.086  67.473  1.00  0.00    -0.294 N  
HETATM   11  C   UNL     1     -11.977  13.341  66.145  1.00  0.00    -0.418 C  
HETATM   12  H   UNL     1     -12.662  13.729  68.033  1.00  0.00     0.000 HD 
HETATM   13  O   UNL     1     -12.513  14.305  65.611  1.00  0.00    -0.445 OA 
HETATM   14  N   UNL     1     -11.219  12.451  65.455  1.00  0.00    -0.307 N  
HETATM   15  C   UNL     1     -10.649  11.317  65.970  1.00  0.00    -0.258 C  
HETATM   16  H   UNL     1     -11.060  12.644  64.466  1.00  0.00     0.000 HD 
HETATM   17  O   UNL     1     -10.073  10.548  65.202  1.00  0.00    -0.291 OA 
ENDBRANCH   4   8
ENDBRANCH   3   4
TORSDOF 3
ENDMDL
MODEL      181
REMARK 921   NORMALIZED FREE ENERGY PREDICTED BY IDOCK:   -3.01 KCAL/MOL
REMARK 922        TOTAL FREE ENERGY PREDICTED BY IDOCK:   -3.99 KCAL/MOL
REMARK 923 INTER-LIGAND FREE ENERGY PREDICTED BY IDOCK:   -3.70 KCAL/MOL
REMARK 924 INTRA-LIGAND FREE ENERGY PREDICTED BY IDOCK:   -0.29 KCAL/MOL
REMARK 927      BINDING AFFINITY PREDICTED BY RF-SCORE:    0.00 PKD
ROOT
HETATM    1 CL   UNL     1      -9.718   9.872  69.368  1.00  0.00    -0.212 Cl 
HETATM    2  C   UNL     1     -10.133   8.755  68.044  1.00  0.00    -0.196 C  
HETATM    3  C   UNL     1     -10.335   9.459  66.698  1.00  0.00    -0.214 C  
ENDROOT
BRANCH   3   4
HETATM    4  N   UNL     1      -9.206  10.320  66.265  1.00  0.00    -0.156 NA 
BRANCH   4   5
HETATM    5  C   UNL     1      -7.919   9.673  65.859  1.00  0.00    -0.112 C  
HETATM    6 CL   UNL     1      -6.844   8.499  68.139  1.00  0.00    -0.068 Cl 
HETATM    7  C   UNL     1      -6.709   9.658  66.795  1.00  0.00    -0.075 C  
ENDBRANCH   4   5
BRANCH   4   8
HETATM    8  C   UNL     1      -9.407  11.712  65.983  1.00  0.00    -0.227 C  
HETATM    9  C   UNL     1      -8.942  12.736  66.725  1.00  0.00    -0.188 C  
HETATM   10  N   UNL     1      -9.156  14.056  66.435  1.00  0.00    -0.474 N  
HETATM   11  C   UNL     1      -9.839  14.493  65.346  1.00  0.00    -0.239 C  
HETATM   12  H   UNL     1      -8.779  14.754  67.075  1.00  0.00     0.000 HD 
HETATM   13  O   UNL     1     -10.017  15.685  65.120  1.00  0.00    -0.357 OA 
HETATM   14  N   UNL     1     -10.313  13.517  64.530  1.00  0.00    -0.557 N  
HETATM   15  C   UNL     1     -10.214  12.169  64.755  1.00  0.00    -0.281 C  
HETATM   16  H   UNL     1     -10.784  13.813  63.675  1.00  0.00     0.000 HD 
HETATM   17  O   UNL     1     -10.781  11.401  63.979  1.00  0.00    -0.341 OA 
ENDBRANCH   4   8
ENDBRANCH   3   4
TORSDOF 3
ENDMDL
MODEL      182
REMARK 921   NORMALIZED FREE ENERGY PREDICTED BY IDOCK:   -3.00 KCAL/MOL
REMARK 922        TOTAL FREE ENERGY PREDICTED BY IDOCK:   -3.97 KCAL/MOL
REMARK 923 INTER-LIGAND FREE ENERGY PREDICTED BY IDOCK:   -3.96 KCAL/MOL
REMARK 924 INTRA-LIGAND FREE ENERGY PREDICTED BY IDOCK:   -0.01 KCAL/MOL
REMARK 927      BINDING AFFINITY PREDICTED BY RF-SCORE:    0.00 PKD
ROOT
HETATM    1 CL   UNL     1      -8.170   9.173  68.064  1.00  0.00    -0.112 Cl 
HETATM    2  C   UNL     1      -8.580  10.009  66.546  1.00  0.00    -0.125 C  
HETATM    3  C   UNL     1     -10.089  10.146  66.319  1.00  0.00    -0.238 C  
ENDROOT
BRANCH   3   4
HETATM    4  N   UNL     1     -10.837  10.779  67.434  1.00  0.00    -0.272 NA 
BRANCH   4   5
HETATM    5  C   UNL     1     -11.252   9.933  68.597  1.00  0.00    -0.068 C  
HETATM    6 CL   UNL     1     -12.199  11.658  70.562  1.00  0.00    -0.457 Cl 
HETATM    7  C   UNL     1     -11.046  10.407  70.037  1.00  0.00    -0.314 C  
ENDBRANCH   4   5
BRANCH   4   8
HETATM    8  C   UNL     1     -10.937  12.206  67.537  1.00  0.00    -0.257 C  
HETATM    9  C   UNL     1     -11.999  12.946  67.162  1.00  0.00    -0.310 C  
HETATM   10  N   UNL     1     -12.063  14.309  67.266  1.00  0.00    -0.557 N  
HETATM   11  C   UNL     1     -11.073  15.077  67.788  1.00  0.00    -0.310 C  
HETATM   12  H   UNL     1     -12.906  14.775  66.931  1.00  0.00     0.000 HD 
HETATM   13  O   UNL     1     -11.162  16.299  67.860  1.00  0.00    -0.309 OA 
HETATM   14  N   UNL     1      -9.979  14.399  68.219  1.00  0.00    -0.226 N  
HETATM   15  C   UNL     1      -9.781  13.048  68.106  1.00  0.00    -0.228 C  
HETATM   16  H   UNL     1      -9.240  14.942  68.666  1.00  0.00     0.000 HD 
HETATM   17  O   UNL     1      -8.696  12.583  68.449  1.00  0.00    -0.177 OA 
ENDBRANCH   4   8
ENDBRANCH   3   4
TORSDOF 3
ENDMDL
MODEL      183
REMARK 921   NORMALIZED FREE ENERGY PREDICTED BY IDOCK:   -2.98 KCAL/MOL
REMARK 922        TOTAL FREE ENERGY PREDICTED BY IDOCK:   -3.94 KCAL/MOL
REMARK 923 INTER-LIGAND FREE ENERGY PREDICTED BY IDOCK:   -3.86 KCAL/MOL
REMARK 924 INTRA-LIGAND FREE ENERGY PREDICTED BY IDOCK:   -0.09 KCAL/MOL
REMARK 927      BINDING AFFINITY PREDICTED BY RF-SCORE:    0.00 PKD
ROOT
HETATM    1 CL   UNL     1      -9.841   6.171  71.196  1.00  0.00    -0.202 Cl 
HETATM    2  C   UNL     1      -8.947   7.663  71.580  1.00  0.00    -0.127 C  
HETATM    3  C   UNL     1      -8.660   8.531  70.350  1.00  0.00    -0.143 C  
ENDROOT
BRANCH   3   4
HETATM    4  N   UNL     1      -9.851   8.881  69.537  1.00  0.00    -0.176 NA 
BRANCH   4   5
HETATM    5  C   UNL     1     -10.397   7.865  68.581  1.00  0.00    -0.201 C  
HETATM    6 CL   UNL     1      -9.177   8.321  66.124  1.00  0.00    -0.248 Cl 
HETATM    7  C   UNL     1     -10.653   8.213  67.114  1.00  0.00    -0.285 C  
ENDBRANCH   4   5
BRANCH   4   8
HETATM    8  C   UNL     1     -10.628  10.049  69.834  1.00  0.00    -0.282 C  
HETATM    9  C   UNL     1     -10.492  11.251  69.241  1.00  0.00    -0.111 C  
HETATM   10  N   UNL     1     -11.244  12.352  69.550  1.00  0.00    -0.461 N  
HETATM   11  C   UNL     1     -12.239  12.356  70.473  1.00  0.00    -0.295 C  
HETATM   12  H   UNL     1     -11.044  13.222  69.056  1.00  0.00     0.000 HD 
HETATM   13  O   UNL     1     -12.889  13.364  70.729  1.00  0.00    -0.247 OA 
HETATM   14  N   UNL     1     -12.459  11.168  71.093  1.00  0.00    -0.396 N  
HETATM   15  C   UNL     1     -11.728  10.024  70.909  1.00  0.00    -0.374 C  
HETATM   16  H   UNL     1     -13.235  11.124  71.753  1.00  0.00     0.000 HD 
HETATM   17  O   UNL     1     -11.978   9.049  71.616  1.00  0.00    -0.309 OA 
ENDBRANCH   4   8
ENDBRANCH   3   4
TORSDOF 3
ENDMDL
MODEL      184
REMARK 921   NORMALIZED FREE ENERGY PREDICTED BY IDOCK:   -2.97 KCAL/MOL
REMARK 922        TOTAL FREE ENERGY PREDICTED BY IDOCK:   -3.94 KCAL/MOL
REMARK 923 INTER-LIGAND FREE ENERGY PREDICTED BY IDOCK:   -3.89 KCAL/MOL
REMARK 924 INTRA-LIGAND FREE ENERGY PREDICTED BY IDOCK:   -0.05 KCAL/MOL
REMARK 927      BINDING AFFINITY PREDICTED BY RF-SCORE:    0.00 PKD
ROOT
HETATM    1 CL   UNL     1      -8.213   8.389  72.242  1.00  0.00    -0.210 Cl 
HETATM    2  C   UNL     1      -8.829   7.858  73.826  1.00  0.00    -0.271 C  
HETATM    3  C   UNL     1     -10.136   7.063  73.732  1.00  0.00    -0.352 C  
ENDROOT
BRANCH   3   4
HETATM    4  N   UNL     1     -10.096   5.896  72.815  1.00  0.00    -0.180 NA 
BRANCH   4   5
HETATM    5  C   UNL     1     -10.060   4.518  73.400  1.00  0.00    -0.160 C  
HETATM    6 CL   UNL     1      -7.498   4.130  74.409  1.00  0.00    -0.074 Cl 
HETATM    7  C   UNL     1      -8.807   3.647  73.303  1.00  0.00    -0.089 C  
ENDBRANCH   4   5
BRANCH   4   8
HETATM    8  C   UNL     1     -10.351   6.052  71.412  1.00  0.00    -0.220 C  
HETATM    9  C   UNL     1      -9.471   5.800  70.423  1.00  0.00    -0.166 C  
HETATM   10  N   UNL     1      -9.740   5.965  69.092  1.00  0.00    -0.135 N  
HETATM   11  C   UNL     1     -10.939   6.376  68.606  1.00  0.00    -0.330 C  
HETATM   12  H   UNL     1      -8.995   5.766  68.425  1.00  0.00     0.000 HD 
HETATM   13  O   UNL     1     -11.144   6.519  67.405  1.00  0.00    -0.357 OA 
HETATM   14  N   UNL     1     -11.891   6.621  69.543  1.00  0.00    -0.632 N  
HETATM   15  C   UNL     1     -11.713   6.550  70.899  1.00  0.00    -0.356 C  
HETATM   16  H   UNL     1     -12.819   6.879  69.207  1.00  0.00     0.000 HD 
HETATM   17  O   UNL     1     -12.639   6.899  71.631  1.00  0.00    -0.357 OA 
ENDBRANCH   4   8
ENDBRANCH   3   4
TORSDOF 3
ENDMDL
MODEL      185
REMARK 921   NORMALIZED FREE ENERGY PREDICTED BY IDOCK:   -2.97 KCAL/MOL
REMARK 922        TOTAL FREE ENERGY PREDICTED BY IDOCK:   -3.94 KCAL/MOL
REMARK 923 INTER-LIGAND FREE ENERGY PREDICTED BY IDOCK:   -3.89 KCAL/MOL
REMARK 924 INTRA-LIGAND FREE ENERGY PREDICTED BY IDOCK:   -0.05 KCAL/MOL
REMARK 927      BINDING AFFINITY PREDICTED BY RF-SCORE:    0.00 PKD
ROOT
HETATM    1 CL   UNL     1      -6.892  19.923  65.192  1.00  0.00    -0.311 Cl 
HETATM    2  C   UNL     1      -6.049  18.406  65.590  1.00  0.00    -0.244 C  
HETATM    3  C   UNL     1      -6.212  17.989  67.056  1.00  0.00    -0.161 C  
ENDROOT
BRANCH   3   4
HETATM    4  N   UNL     1      -7.617  17.898  67.530  1.00  0.00    -0.208 NA 
BRANCH   4   5
HETATM    5  C   UNL     1      -8.169  19.008  68.368  1.00  0.00    -0.347 C  
HETATM    6 CL   UNL     1     -10.259  20.150  66.933  1.00  0.00    -0.585 Cl 
HETATM    7  C   UNL     1      -8.677  20.304  67.735  1.00  0.00    -0.210 C  
ENDBRANCH   4   5
BRANCH   4   8
HETATM    8  C   UNL     1      -8.513  16.915  66.992  1.00  0.00    -0.203 C  
HETATM    9  C   UNL     1      -9.399  17.124  65.999  1.00  0.00    -0.124 C  
HETATM   10  N   UNL     1     -10.247  16.168  65.511  1.00  0.00    -0.359 N  
HETATM   11  C   UNL     1     -10.277  14.884  65.950  1.00  0.00    -0.314 C  
HETATM   12  H   UNL     1     -10.896  16.436  64.771  1.00  0.00     0.000 HD 
HETATM   13  O   UNL     1     -11.056  14.054  65.493  1.00  0.00    -0.299 OA 
HETATM   14  N   UNL     1      -9.387  14.587  66.932  1.00  0.00    -0.234 N  
HETATM   15  C   UNL     1      -8.539  15.477  67.537  1.00  0.00    -0.170 C  
HETATM   16  H   UNL     1      -9.347  13.618  67.247  1.00  0.00     0.000 HD 
HETATM   17  O   UNL     1      -7.859  15.087  68.485  1.00  0.00    -0.125 OA 
ENDBRANCH   4   8
ENDBRANCH   3   4
TORSDOF 3
ENDMDL
MODEL      186
REMARK 921   NORMALIZED FREE ENERGY PREDICTED BY IDOCK:   -2.97 KCAL/MOL
REMARK 922        TOTAL FREE ENERGY PREDICTED BY IDOCK:   -3.93 KCAL/MOL
REMARK 923 INTER-LIGAND FREE ENERGY PREDICTED BY IDOCK:   -3.46 KCAL/MOL
REMARK 924 INTRA-LIGAND FREE ENERGY PREDICTED BY IDOCK:   -0.47 KCAL/MOL
REMARK 927      BINDING AFFINITY PREDICTED BY RF-SCORE:    0.00 PKD
ROOT
HETATM    1 CL   UNL     1      -7.444   7.906  71.072  1.00  0.00    -0.071 Cl 
HETATM    2  C   UNL     1      -8.870   8.539  71.930  1.00  0.00    -0.216 C  
HETATM    3  C   UNL     1      -9.880   9.224  71.004  1.00  0.00    -0.285 C  
ENDROOT
BRANCH   3   4
HETATM    4  N   UNL     1     -10.336   8.401  69.855  1.00  0.00    -0.206 NA 
BRANCH   4   5
HETATM    5  C   UNL     1     -11.244   7.239  70.114  1.00  0.00    -0.239 C  
HETATM    6 CL   UNL     1      -9.639   5.118  70.926  1.00  0.00    -0.222 Cl 
HETATM    7  C   UNL     1     -10.816   5.808  69.783  1.00  0.00    -0.349 C  
ENDBRANCH   4   5
BRANCH   4   8
HETATM    8  C   UNL     1     -10.140   8.846  68.506  1.00  0.00    -0.188 C  
HETATM    9  C   UNL     1      -9.222   8.362  67.647  1.00  0.00    -0.134 C  
HETATM   10  N   UNL     1      -9.053   8.812  66.366  1.00  0.00    -0.165 N  
HETATM   11  C   UNL     1      -9.811   9.784  65.797  1.00  0.00    -0.290 C  
HETATM   12  H   UNL     1      -8.312   8.392  65.805  1.00  0.00     0.000 HD 
HETATM   13  O   UNL     1      -9.627  10.167  64.647  1.00  0.00    -0.278 OA 
HETATM   14  N   UNL     1     -10.783  10.301  66.593  1.00  0.00    -0.162 N  
HETATM   15  C   UNL     1     -10.999   9.972  67.905  1.00  0.00    -0.252 C  
HETATM   16  H   UNL     1     -11.404  10.994  66.177  1.00  0.00     0.000 HD 
HETATM   17  O   UNL     1     -11.853  10.597  68.533  1.00  0.00    -0.406 OA 
ENDBRANCH   4   8
ENDBRANCH   3   4
TORSDOF 3
ENDMDL
MODEL      187
REMARK 921   NORMALIZED FREE ENERGY PREDICTED BY IDOCK:   -2.97 KCAL/MOL
REMARK 922        TOTAL FREE ENERGY PREDICTED BY IDOCK:   -3.93 KCAL/MOL
REMARK 923 INTER-LIGAND FREE ENERGY PREDICTED BY IDOCK:   -3.89 KCAL/MOL
REMARK 924 INTRA-LIGAND FREE ENERGY PREDICTED BY IDOCK:   -0.04 KCAL/MOL
REMARK 927      BINDING AFFINITY PREDICTED BY RF-SCORE:    0.00 PKD
ROOT
HETATM    1 CL   UNL     1      -5.584  19.032  66.894  1.00  0.00    -0.154 Cl 
HETATM    2  C   UNL     1      -7.105  18.910  65.976  1.00  0.00    -0.266 C  
HETATM    3  C   UNL     1      -7.982  17.731  66.412  1.00  0.00    -0.271 C  
ENDROOT
BRANCH   3   4
HETATM    4  N   UNL     1      -8.290  17.680  67.864  1.00  0.00    -0.230 NA 
BRANCH   4   5
HETATM    5  C   UNL     1      -9.467  18.449  68.379  1.00  0.00    -0.332 C  
HETATM    6 CL   UNL     1     -10.370  20.051  66.293  1.00  0.00    -0.578 Cl 
HETATM    7  C   UNL     1      -9.724  19.892  67.945  1.00  0.00    -0.389 C  
ENDBRANCH   4   5
BRANCH   4   8
HETATM    8  C   UNL     1      -7.653  16.722  68.719  1.00  0.00    -0.240 C  
HETATM    9  C   UNL     1      -6.531  16.935  69.435  1.00  0.00    -0.234 C  
HETATM   10  N   UNL     1      -5.941  15.998  70.238  1.00  0.00    -0.130 N  
HETATM   11  C   UNL     1      -6.433  14.747  70.433  1.00  0.00    -0.100 C  
HETATM   12  H   UNL     1      -5.080  16.254  70.720  1.00  0.00     0.000 HD 
HETATM   13  O   UNL     1      -5.874  13.930  71.156  1.00  0.00    -0.212 OA 
HETATM   14  N   UNL     1      -7.583  14.467  69.768  1.00  0.00    -0.390 N  
HETATM   15  C   UNL     1      -8.223  15.303  68.891  1.00  0.00    -0.186 C  
HETATM   16  H   UNL     1      -8.007  13.555  69.936  1.00  0.00     0.000 HD 
HETATM   17  O   UNL     1      -9.203  14.876  68.283  1.00  0.00    -0.177 OA 
ENDBRANCH   4   8
ENDBRANCH   3   4
TORSDOF 3
ENDMDL
MODEL      188
REMARK 921   NORMALIZED FREE ENERGY PREDICTED BY IDOCK:   -2.96 KCAL/MOL
REMARK 922        TOTAL FREE ENERGY PREDICTED BY IDOCK:   -3.93 KCAL/MOL
REMARK 923 INTER-LIGAND FREE ENERGY PREDICTED BY IDOCK:   -4.66 KCAL/MOL
REMARK 924 INTRA-LIGAND FREE ENERGY PREDICTED BY IDOCK:    0.73 KCAL/MOL
REMARK 927      BINDING AFFINITY PREDICTED BY RF-SCORE:    0.00 PKD
ROOT
HETATM    1 CL   UNL     1     -11.778  12.290  67.655  1.00  0.00    -0.415 Cl 
HETATM    2  C   UNL     1     -11.468  12.643  69.372  1.00  0.00    -0.266 C  
HETATM    3  C   UNL     1     -12.035  11.581  70.321  1.00  0.00    -0.368 C  
ENDROOT
BRANCH   3   4
HETATM    4  N   UNL     1     -11.608  10.189  70.031  1.00  0.00    -0.262 NA 
BRANCH   4   5
HETATM    5  C   UNL     1     -11.231   9.826  68.629  1.00  0.00    -0.015 C  
HETATM    6 CL   UNL     1     -10.817   7.077  68.582  1.00  0.00    -0.213 Cl 
HETATM    7  C   UNL     1     -10.203   8.731  68.342  1.00  0.00    -0.196 C  
ENDBRANCH   4   5
BRANCH   4   8
HETATM    8  C   UNL     1     -11.307   9.275  71.095  1.00  0.00    -0.342 C  
HETATM    9  C   UNL     1     -10.088   9.078  71.636  1.00  0.00    -0.335 C  
HETATM   10  N   UNL     1      -9.829   8.193  72.647  1.00  0.00    -0.277 N  
HETATM   11  C   UNL     1     -10.776   7.426  73.245  1.00  0.00    -0.391 C  
HETATM   12  H   UNL     1      -8.866   8.104  72.970  1.00  0.00     0.000 HD 
HETATM   13  O   UNL     1     -10.507   6.638  74.146  1.00  0.00    -0.353 OA 
HETATM   14  N   UNL     1     -12.039   7.592  72.775  1.00  0.00    -0.588 N  
HETATM   15  C   UNL     1     -12.402   8.399  71.729  1.00  0.00    -0.331 C  
HETATM   16  H   UNL     1     -12.782   7.071  73.240  1.00  0.00     0.000 HD 
HETATM   17  O   UNL     1     -13.570   8.373  71.345  1.00  0.00    -0.305 OA 
ENDBRANCH   4   8
ENDBRANCH   3   4
TORSDOF 3
ENDMDL
MODEL      189
REMARK 921   NORMALIZED FREE ENERGY PREDICTED BY IDOCK:   -2.96 KCAL/MOL
REMARK 922        TOTAL FREE ENERGY PREDICTED BY IDOCK:   -3.92 KCAL/MOL
REMARK 923 INTER-LIGAND FREE ENERGY PREDICTED BY IDOCK:   -3.52 KCAL/MOL
REMARK 924 INTRA-LIGAND FREE ENERGY PREDICTED BY IDOCK:   -0.40 KCAL/MOL
REMARK 927      BINDING AFFINITY PREDICTED BY RF-SCORE:    0.00 PKD
ROOT
HETATM    1 CL   UNL     1     -11.457  14.882  68.512  1.00  0.00    -0.317 Cl 
HETATM    2  C   UNL     1     -10.447  15.469  67.167  1.00  0.00    -0.286 C  
HETATM    3  C   UNL     1      -9.209  14.602  66.917  1.00  0.00    -0.249 C  
ENDROOT
BRANCH   3   4
HETATM    4  N   UNL     1      -9.484  13.157  66.716  1.00  0.00    -0.246 NA 
BRANCH   4   5
HETATM    5  C   UNL     1      -9.939  12.689  65.369  1.00  0.00    -0.214 C  
HETATM    6 CL   UNL     1     -12.659  13.239  65.190  1.00  0.00    -0.517 Cl 
HETATM    7  C   UNL     1     -11.321  12.064  65.170  1.00  0.00    -0.304 C  
ENDBRANCH   4   5
BRANCH   4   8
HETATM    8  C   UNL     1      -9.081  12.187  67.693  1.00  0.00    -0.181 C  
HETATM    9  C   UNL     1      -9.912  11.465  68.470  1.00  0.00    -0.201 C  
HETATM   10  N   UNL     1      -9.497  10.551  69.399  1.00  0.00    -0.366 N  
HETATM   11  C   UNL     1      -8.195  10.242  69.630  1.00  0.00    -0.133 C  
HETATM   12  H   UNL     1     -10.208  10.074  69.952  1.00  0.00     0.000 HD 
HETATM   13  O   UNL     1      -7.859   9.420  70.477  1.00  0.00    -0.140 OA 
HETATM   14  N   UNL     1      -7.296  10.907  68.861  1.00  0.00    -0.102 N  
HETATM   15  C   UNL     1      -7.594  11.885  67.949  1.00  0.00    -0.128 C  
HETATM   16  H   UNL     1      -6.313  10.658  68.973  1.00  0.00     0.000 HD 
HETATM   17  O   UNL     1      -6.666  12.474  67.397  1.00  0.00    -0.138 OA 
ENDBRANCH   4   8
ENDBRANCH   3   4
TORSDOF 3
ENDMDL
MODEL      190
REMARK 921   NORMALIZED FREE ENERGY PREDICTED BY IDOCK:   -2.96 KCAL/MOL
REMARK 922        TOTAL FREE ENERGY PREDICTED BY IDOCK:   -3.92 KCAL/MOL
REMARK 923 INTER-LIGAND FREE ENERGY PREDICTED BY IDOCK:   -4.23 KCAL/MOL
REMARK 924 INTRA-LIGAND FREE ENERGY PREDICTED BY IDOCK:    0.31 KCAL/MOL
REMARK 927      BINDING AFFINITY PREDICTED BY RF-SCORE:    0.00 PKD
ROOT
HETATM    1 CL   UNL     1     -13.657  15.487  71.231  1.00  0.00    -0.574 Cl 
HETATM    2  C   UNL     1     -11.997  16.126  71.131  1.00  0.00    -0.311 C  
HETATM    3  C   UNL     1     -10.972  15.079  70.683  1.00  0.00    -0.153 C  
ENDROOT
BRANCH   3   4
HETATM    4  N   UNL     1     -11.297  14.386  69.411  1.00  0.00    -0.269 NA 
BRANCH   4   5
HETATM    5  C   UNL     1     -11.589  15.208  68.195  1.00  0.00    -0.341 C  
HETATM    6 CL   UNL     1     -12.657  13.490  66.286  1.00  0.00    -0.370 Cl 
HETATM    7  C   UNL     1     -11.394  14.641  66.788  1.00  0.00    -0.356 C  
ENDBRANCH   4   5
BRANCH   4   8
HETATM    8  C   UNL     1     -11.085  12.975  69.266  1.00  0.00    -0.136 C  
HETATM    9  C   UNL     1     -10.211  12.397  68.419  1.00  0.00    -0.225 C  
HETATM   10  N   UNL     1     -10.035  11.046  68.297  1.00  0.00    -0.173 N  
HETATM   11  C   UNL     1     -10.701  10.124  69.038  1.00  0.00    -0.221 C  
HETATM   12  H   UNL     1      -9.362  10.711  67.608  1.00  0.00     0.000 HD 
HETATM   13  O   UNL     1     -10.522   8.919  68.898  1.00  0.00    -0.217 OA 
HETATM   14  N   UNL     1     -11.580  10.632  69.940  1.00  0.00    -0.289 N  
HETATM   15  C   UNL     1     -11.882  11.958  70.102  1.00  0.00    -0.308 C  
HETATM   16  H   UNL     1     -12.057   9.968  70.550  1.00  0.00     0.000 HD 
HETATM   17  O   UNL     1     -12.775  12.265  70.890  1.00  0.00    -0.289 OA 
ENDBRANCH   4   8
ENDBRANCH   3   4
TORSDOF 3
ENDMDL
MODEL      191
REMARK 921   NORMALIZED FREE ENERGY PREDICTED BY IDOCK:   -2.96 KCAL/MOL
REMARK 922        TOTAL FREE ENERGY PREDICTED BY IDOCK:   -3.92 KCAL/MOL
REMARK 923 INTER-LIGAND FREE ENERGY PREDICTED BY IDOCK:   -3.40 KCAL/MOL
REMARK 924 INTRA-LIGAND FREE ENERGY PREDICTED BY IDOCK:   -0.52 KCAL/MOL
REMARK 927      BINDING AFFINITY PREDICTED BY RF-SCORE:    0.00 PKD
ROOT
HETATM    1 CL   UNL     1      -9.561  10.216  64.790  1.00  0.00    -0.354 Cl 
HETATM    2  C   UNL     1      -8.188   9.799  65.845  1.00  0.00    -0.117 C  
HETATM    3  C   UNL     1      -7.523  11.023  66.485  1.00  0.00    -0.145 C  
ENDROOT
BRANCH   3   4
HETATM    4  N   UNL     1      -8.443  11.922  67.226  1.00  0.00    -0.164 NA 
BRANCH   4   5
HETATM    5  C   UNL     1      -8.996  11.465  68.539  1.00  0.00    -0.158 C  
HETATM    6 CL   UNL     1     -11.090   9.723  67.980  1.00  0.00    -0.234 Cl 
HETATM    7  C   UNL     1     -10.495  11.224  68.729  1.00  0.00    -0.208 C  
ENDBRANCH   4   5
BRANCH   4   8
HETATM    8  C   UNL     1      -8.601  13.295  66.840  1.00  0.00    -0.105 C  
HETATM    9  C   UNL     1      -9.543  13.769  66.002  1.00  0.00    -0.175 C  
HETATM   10  N   UNL     1      -9.665  15.085  65.647  1.00  0.00    -0.402 N  
HETATM   11  C   UNL     1      -8.867  16.076  66.120  1.00  0.00    -0.331 C  
HETATM   12  H   UNL     1     -10.400  15.336  64.986  1.00  0.00     0.000 HD 
HETATM   13  O   UNL     1      -9.001  17.245  65.775  1.00  0.00    -0.521 OA 
HETATM   14  N   UNL     1      -7.910  15.679  66.998  1.00  0.00    -0.220 N  
HETATM   15  C   UNL     1      -7.658  14.386  67.374  1.00  0.00    -0.172 C  
HETATM   16  H   UNL     1      -7.329  16.407  67.414  1.00  0.00     0.000 HD 
HETATM   17  O   UNL     1      -6.690  14.165  68.101  1.00  0.00    -0.096 OA 
ENDBRANCH   4   8
ENDBRANCH   3   4
TORSDOF 3
ENDMDL
MODEL      192
REMARK 921   NORMALIZED FREE ENERGY PREDICTED BY IDOCK:   -2.95 KCAL/MOL
REMARK 922        TOTAL FREE ENERGY PREDICTED BY IDOCK:   -3.92 KCAL/MOL
REMARK 923 INTER-LIGAND FREE ENERGY PREDICTED BY IDOCK:   -3.46 KCAL/MOL
REMARK 924 INTRA-LIGAND FREE ENERGY PREDICTED BY IDOCK:   -0.46 KCAL/MOL
REMARK 927      BINDING AFFINITY PREDICTED BY RF-SCORE:    0.00 PKD
ROOT
HETATM    1 CL   UNL     1      -9.790   6.829  72.399  1.00  0.00    -0.166 Cl 
HETATM    2  C   UNL     1     -10.131   5.841  70.958  1.00  0.00    -0.205 C  
HETATM    3  C   UNL     1     -10.667   6.657  69.777  1.00  0.00    -0.257 C  
ENDROOT
BRANCH   3   4
HETATM    4  N   UNL     1      -9.823   7.813  69.379  1.00  0.00    -0.173 NA 
BRANCH   4   5
HETATM    5  C   UNL     1      -8.359   7.596  69.156  1.00  0.00    -0.131 C  
HETATM    6 CL   UNL     1      -7.011   9.404  70.783  1.00  0.00    -0.112 Cl 
HETATM    7  C   UNL     1      -7.374   8.765  69.161  1.00  0.00    -0.072 C  
ENDBRANCH   4   5
BRANCH   4   8
HETATM    8  C   UNL     1     -10.418   9.049  68.960  1.00  0.00    -0.218 C  
HETATM    9  C   UNL     1     -10.578   9.447  67.682  1.00  0.00    -0.271 C  
HETATM   10  N   UNL     1     -11.144  10.637  67.312  1.00  0.00    -0.288 N  
HETATM   11  C   UNL     1     -11.639  11.547  68.188  1.00  0.00    -0.308 C  
HETATM   12  H   UNL     1     -11.197  10.852  66.316  1.00  0.00     0.000 HD 
HETATM   13  O   UNL     1     -12.135  12.607  67.821  1.00  0.00    -0.362 OA 
HETATM   14  N   UNL     1     -11.544  11.201  69.498  1.00  0.00    -0.290 N  
HETATM   15  C   UNL     1     -10.942  10.071  69.984  1.00  0.00    -0.300 C  
HETATM   16  H   UNL     1     -11.955  11.839  70.179  1.00  0.00     0.000 HD 
HETATM   17  O   UNL     1     -10.839   9.938  71.202  1.00  0.00    -0.309 OA 
ENDBRANCH   4   8
ENDBRANCH   3   4
TORSDOF 3
ENDMDL
MODEL      193
REMARK 921   NORMALIZED FREE ENERGY PREDICTED BY IDOCK:   -2.94 KCAL/MOL
REMARK 922        TOTAL FREE ENERGY PREDICTED BY IDOCK:   -3.90 KCAL/MOL
REMARK 923 INTER-LIGAND FREE ENERGY PREDICTED BY IDOCK:   -3.98 KCAL/MOL
REMARK 924 INTRA-LIGAND FREE ENERGY PREDICTED BY IDOCK:    0.09 KCAL/MOL
REMARK 927      BINDING AFFINITY PREDICTED BY RF-SCORE:    0.00 PKD
ROOT
HETATM    1 CL   UNL     1      -7.680  11.117  68.181  1.00  0.00    -0.102 Cl 
HETATM    2  C   UNL     1      -8.156  11.921  66.666  1.00  0.00    -0.063 C  
HETATM    3  C   UNL     1      -9.438  11.347  66.052  1.00  0.00    -0.223 C  
ENDROOT
BRANCH   3   4
HETATM    4  N   UNL     1     -10.608  11.310  66.965  1.00  0.00    -0.234 NA 
BRANCH   4   5
HETATM    5  C   UNL     1     -11.743  12.256  66.723  1.00  0.00    -0.342 C  
HETATM    6 CL   UNL     1     -12.484  11.975  64.058  1.00  0.00    -0.515 Cl 
HETATM    7  C   UNL     1     -11.891  12.994  65.392  1.00  0.00    -0.388 C  
ENDBRANCH   4   5
BRANCH   4   8
HETATM    8  C   UNL     1     -10.783  10.232  67.895  1.00  0.00    -0.264 C  
HETATM    9  C   UNL     1     -11.148  10.362  69.185  1.00  0.00    -0.246 C  
HETATM   10  N   UNL     1     -11.301   9.313  70.051  1.00  0.00    -0.407 N  
HETATM   11  C   UNL     1     -11.131   8.012  69.704  1.00  0.00    -0.015 C  
HETATM   12  H   UNL     1     -11.559   9.523  71.015  1.00  0.00     0.000 HD 
HETATM   13  O   UNL     1     -11.270   7.097  70.509  1.00  0.00    -0.270 OA 
HETATM   14  N   UNL     1     -10.792   7.798  68.407  1.00  0.00    -0.422 N  
HETATM   15  C   UNL     1     -10.551   8.771  67.473  1.00  0.00    -0.228 C  
HETATM   16  H   UNL     1     -10.710   6.828  68.102  1.00  0.00     0.000 HD 
HETATM   17  O   UNL     1     -10.153   8.430  66.361  1.00  0.00    -0.265 OA 
ENDBRANCH   4   8
ENDBRANCH   3   4
TORSDOF 3
ENDMDL
MODEL      194
REMARK 921   NORMALIZED FREE ENERGY PREDICTED BY IDOCK:   -2.93 KCAL/MOL
REMARK 922        TOTAL FREE ENERGY PREDICTED BY IDOCK:   -3.89 KCAL/MOL
REMARK 923 INTER-LIGAND FREE ENERGY PREDICTED BY IDOCK:   -3.54 KCAL/MOL
REMARK 924 INTRA-LIGAND FREE ENERGY PREDICTED BY IDOCK:   -0.35 KCAL/MOL
REMARK 927      BINDING AFFINITY PREDICTED BY RF-SCORE:    0.00 PKD
ROOT
HETATM    1 CL   UNL     1      -9.473  10.736  66.809  1.00  0.00    -0.192 Cl 
HETATM    2  C   UNL     1      -8.164  10.866  68.010  1.00  0.00    -0.121 C  
HETATM    3  C   UNL     1      -8.645  10.680  69.453  1.00  0.00    -0.030 C  
ENDROOT
BRANCH   3   4
HETATM    4  N   UNL     1      -9.406   9.429  69.704  1.00  0.00    -0.176 NA 
BRANCH   4   5
HETATM    5  C   UNL     1      -8.758   8.116  69.397  1.00  0.00    -0.143 C  
HETATM    6 CL   UNL     1      -7.368   7.339  71.677  1.00  0.00    -0.079 Cl 
HETATM    7  C   UNL     1      -7.375   7.764  69.948  1.00  0.00    -0.079 C  
ENDBRANCH   4   5
BRANCH   4   8
HETATM    8  C   UNL     1     -10.622   9.448  70.465  1.00  0.00    -0.271 C  
HETATM    9  C   UNL     1     -10.791   8.900  71.684  1.00  0.00    -0.349 C  
HETATM   10  N   UNL     1     -11.967   8.928  72.383  1.00  0.00    -0.309 N  
HETATM   11  C   UNL     1     -13.098   9.536  71.943  1.00  0.00    -0.428 C  
HETATM   12  H   UNL     1     -11.995   8.463  73.290  1.00  0.00     0.000 HD 
HETATM   13  O   UNL     1     -14.137   9.535  72.595  1.00  0.00    -0.339 OA 
HETATM   14  N   UNL     1     -12.996  10.140  70.731  1.00  0.00    -0.525 N  
HETATM   15  C   UNL     1     -11.893  10.121  69.919  1.00  0.00    -0.135 C  
HETATM   16  H   UNL     1     -13.812  10.652  70.397  1.00  0.00     0.000 HD 
HETATM   17  O   UNL     1     -11.979  10.626  68.801  1.00  0.00    -0.366 OA 
ENDBRANCH   4   8
ENDBRANCH   3   4
TORSDOF 3
ENDMDL
MODEL      195
REMARK 921   NORMALIZED FREE ENERGY PREDICTED BY IDOCK:   -2.93 KCAL/MOL
REMARK 922        TOTAL FREE ENERGY PREDICTED BY IDOCK:   -3.89 KCAL/MOL
REMARK 923 INTER-LIGAND FREE ENERGY PREDICTED BY IDOCK:   -3.42 KCAL/MOL
REMARK 924 INTRA-LIGAND FREE ENERGY PREDICTED BY IDOCK:   -0.47 KCAL/MOL
REMARK 927      BINDING AFFINITY PREDICTED BY RF-SCORE:    0.00 PKD
ROOT
HETATM    1 CL   UNL     1     -10.359  11.904  68.390  1.00  0.00    -0.206 Cl 
HETATM    2  C   UNL     1     -11.190  10.914  67.164  1.00  0.00    -0.184 C  
HETATM    3  C   UNL     1     -10.258   9.938  66.440  1.00  0.00    -0.222 C  
ENDROOT
BRANCH   3   4
HETATM    4  N   UNL     1      -9.472   9.044  67.328  1.00  0.00    -0.145 NA 
BRANCH   4   5
HETATM    5  C   UNL     1      -7.978   9.097  67.268  1.00  0.00    -0.102 C  
HETATM    6 CL   UNL     1      -7.144  10.835  69.273  1.00  0.00    -0.103 Cl 
HETATM    7  C   UNL     1      -7.218  10.395  67.549  1.00  0.00    -0.087 C  
ENDBRANCH   4   5
BRANCH   4   8
HETATM    8  C   UNL     1     -10.104   8.335  68.404  1.00  0.00    -0.201 C  
HETATM    9  C   UNL     1     -10.024   8.661  69.709  1.00  0.00    -0.190 C  
HETATM   10  N   UNL     1     -10.632   7.961  70.715  1.00  0.00    -0.211 N  
HETATM   11  C   UNL     1     -11.414   6.869  70.515  1.00  0.00    -0.342 C  
HETATM   12  H   UNL     1     -10.489   8.279  71.673  1.00  0.00     0.000 HD 
HETATM   13  O   UNL     1     -11.939   6.262  71.442  1.00  0.00    -0.290 OA 
HETATM   14  N   UNL     1     -11.569   6.498  69.219  1.00  0.00    -0.643 N  
HETATM   15  C   UNL     1     -10.958   7.083  68.141  1.00  0.00    -0.096 C  
HETATM   16  H   UNL     1     -12.194   5.714  69.031  1.00  0.00     0.000 HD 
HETATM   17  O   UNL     1     -11.112   6.575  67.032  1.00  0.00    -0.399 OA 
ENDBRANCH   4   8
ENDBRANCH   3   4
TORSDOF 3
ENDMDL
MODEL      196
REMARK 921   NORMALIZED FREE ENERGY PREDICTED BY IDOCK:   -2.92 KCAL/MOL
REMARK 922        TOTAL FREE ENERGY PREDICTED BY IDOCK:   -3.88 KCAL/MOL
REMARK 923 INTER-LIGAND FREE ENERGY PREDICTED BY IDOCK:   -3.50 KCAL/MOL
REMARK 924 INTRA-LIGAND FREE ENERGY PREDICTED BY IDOCK:   -0.37 KCAL/MOL
REMARK 927      BINDING AFFINITY PREDICTED BY RF-SCORE:    0.00 PKD
ROOT
HETATM    1 CL   UNL     1      -7.145   9.201  71.253  1.00  0.00    -0.092 Cl 
HETATM    2  C   UNL     1      -8.241   8.066  72.081  1.00  0.00    -0.137 C  
HETATM    3  C   UNL     1      -9.702   8.529  72.084  1.00  0.00    -0.317 C  
ENDROOT
BRANCH   3   4
HETATM    4  N   UNL     1     -10.262   8.848  70.747  1.00  0.00    -0.209 NA 
BRANCH   4   5
HETATM    5  C   UNL     1     -10.704  10.250  70.465  1.00  0.00    -0.144 C  
HETATM    6 CL   UNL     1     -13.029  10.680  71.929  1.00  0.00    -0.574 Cl 
HETATM    7  C   UNL     1     -12.187  10.609  70.362  1.00  0.00    -0.345 C  
ENDBRANCH   4   5
BRANCH   4   8
HETATM    8  C   UNL     1     -10.145   7.921  69.659  1.00  0.00    -0.197 C  
HETATM    9  C   UNL     1      -9.302   8.041  68.614  1.00  0.00    -0.146 C  
HETATM   10  N   UNL     1      -9.218   7.142  67.586  1.00  0.00    -0.126 N  
HETATM   11  C   UNL     1      -9.955   6.005  67.510  1.00  0.00    -0.137 C  
HETATM   12  H   UNL     1      -8.561   7.339  66.831  1.00  0.00     0.000 HD 
HETATM   13  O   UNL     1      -9.858   5.224  66.569  1.00  0.00    -0.154 OA 
HETATM   14  N   UNL     1     -10.808   5.797  68.546  1.00  0.00    -0.231 N  
HETATM   15  C   UNL     1     -11.020   6.657  69.591  1.00  0.00    -0.313 C  
HETATM   16  H   UNL     1     -11.337   4.925  68.546  1.00  0.00     0.000 HD 
HETATM   17  O   UNL     1     -11.900   6.384  70.406  1.00  0.00    -0.382 OA 
ENDBRANCH   4   8
ENDBRANCH   3   4
TORSDOF 3
ENDMDL
MODEL      197
REMARK 921   NORMALIZED FREE ENERGY PREDICTED BY IDOCK:   -2.90 KCAL/MOL
REMARK 922        TOTAL FREE ENERGY PREDICTED BY IDOCK:   -3.86 KCAL/MOL
REMARK 923 INTER-LIGAND FREE ENERGY PREDICTED BY IDOCK:   -3.65 KCAL/MOL
REMARK 924 INTRA-LIGAND FREE ENERGY PREDICTED BY IDOCK:   -0.21 KCAL/MOL
REMARK 927      BINDING AFFINITY PREDICTED BY RF-SCORE:    0.00 PKD
ROOT
HETATM    1 CL   UNL     1      -8.738   7.806  73.393  1.00  0.00    -0.252 Cl 
HETATM    2  C   UNL     1     -10.425   7.294  73.646  1.00  0.00    -0.344 C  
HETATM    3  C   UNL     1     -11.270   7.341  72.368  1.00  0.00    -0.281 C  
ENDROOT
BRANCH   3   4
HETATM    4  N   UNL     1     -10.707   6.591  71.216  1.00  0.00    -0.231 NA 
BRANCH   4   5
HETATM    5  C   UNL     1     -10.500   5.114  71.347  1.00  0.00    -0.179 C  
HETATM    6 CL   UNL     1      -7.932   4.736  72.343  1.00  0.00    -0.098 Cl 
HETATM    7  C   UNL     1      -9.141   4.475  71.063  1.00  0.00    -0.132 C  
ENDBRANCH   4   5
BRANCH   4   8
HETATM    8  C   UNL     1     -10.605   7.199  69.921  1.00  0.00    -0.230 C  
HETATM    9  C   UNL     1     -11.095   6.686  68.775  1.00  0.00    -0.227 C  
HETATM   10  N   UNL     1     -10.977   7.286  67.551  1.00  0.00    -0.537 N  
HETATM   11  C   UNL     1     -10.376   8.486  67.349  1.00  0.00    -0.286 C  
HETATM   12  H   UNL     1     -11.364   6.802  66.742  1.00  0.00     0.000 HD 
HETATM   13  O   UNL     1     -10.283   8.992  66.236  1.00  0.00    -0.284 OA 
HETATM   14  N   UNL     1      -9.884   9.083  68.465  1.00  0.00    -0.164 N  
HETATM   15  C   UNL     1      -9.890   8.546  69.726  1.00  0.00    -0.186 C  
HETATM   16  H   UNL     1      -9.475  10.010  68.355  1.00  0.00     0.000 HD 
HETATM   17  O   UNL     1      -9.316   9.158  70.626  1.00  0.00    -0.216 OA 
ENDBRANCH   4   8
ENDBRANCH   3   4
TORSDOF 3
ENDMDL
MODEL      198
REMARK 921   NORMALIZED FREE ENERGY PREDICTED BY IDOCK:   -2.89 KCAL/MOL
REMARK 922        TOTAL FREE ENERGY PREDICTED BY IDOCK:   -3.85 KCAL/MOL
REMARK 923 INTER-LIGAND FREE ENERGY PREDICTED BY IDOCK:   -3.47 KCAL/MOL
REMARK 924 INTRA-LIGAND FREE ENERGY PREDICTED BY IDOCK:   -0.38 KCAL/MOL
REMARK 927      BINDING AFFINITY PREDICTED BY RF-SCORE:    0.00 PKD
ROOT
HETATM    1 CL   UNL     1      -7.822  10.566  69.567  1.00  0.00    -0.155 Cl 
HETATM    2  C   UNL     1      -9.550  10.144  69.635  1.00  0.00    -0.210 C  
HETATM    3  C   UNL     1     -10.450  11.162  68.927  1.00  0.00    -0.207 C  
ENDROOT
BRANCH   3   4
HETATM    4  N   UNL     1     -10.081  11.452  67.518  1.00  0.00    -0.182 NA 
BRANCH   4   5
HETATM    5  C   UNL     1     -10.303  10.396  66.481  1.00  0.00    -0.224 C  
HETATM    6 CL   UNL     1      -7.842   9.896  65.287  1.00  0.00    -0.125 Cl 
HETATM    7  C   UNL     1      -9.540  10.413  65.155  1.00  0.00    -0.271 C  
ENDBRANCH   4   5
BRANCH   4   8
HETATM    8  C   UNL     1      -9.768  12.788  67.099  1.00  0.00    -0.216 C  
HETATM    9  C   UNL     1     -10.666  13.735  66.764  1.00  0.00    -0.276 C  
HETATM   10  N   UNL     1     -10.337  15.000  66.361  1.00  0.00    -0.278 N  
HETATM   11  C   UNL     1      -9.064  15.463  66.279  1.00  0.00    -0.320 C  
HETATM   12  H   UNL     1     -11.095  15.634  66.108  1.00  0.00     0.000 HD 
HETATM   13  O   UNL     1      -8.805  16.603  65.908  1.00  0.00    -0.486 OA 
HETATM   14  N   UNL     1      -8.100  14.574  66.633  1.00  0.00    -0.300 N  
HETATM   15  C   UNL     1      -8.310  13.268  66.989  1.00  0.00    -0.080 C  
HETATM   16  H   UNL     1      -7.137  14.908  66.634  1.00  0.00     0.000 HD 
HETATM   17  O   UNL     1      -7.332  12.549  67.186  1.00  0.00    -0.137 OA 
ENDBRANCH   4   8
ENDBRANCH   3   4
TORSDOF 3
ENDMDL
MODEL      199
REMARK 921   NORMALIZED FREE ENERGY PREDICTED BY IDOCK:   -2.87 KCAL/MOL
REMARK 922        TOTAL FREE ENERGY PREDICTED BY IDOCK:   -3.82 KCAL/MOL
REMARK 923 INTER-LIGAND FREE ENERGY PREDICTED BY IDOCK:   -3.60 KCAL/MOL
REMARK 924 INTRA-LIGAND FREE ENERGY PREDICTED BY IDOCK:   -0.22 KCAL/MOL
REMARK 927      BINDING AFFINITY PREDICTED BY RF-SCORE:    0.00 PKD
ROOT
HETATM    1 CL   UNL     1     -10.043  12.815  67.885  1.00  0.00    -0.224 Cl 
HETATM    2  C   UNL     1     -10.977  11.510  67.115  1.00  0.00    -0.286 C  
HETATM    3  C   UNL     1     -10.219  10.179  67.050  1.00  0.00    -0.234 C  
ENDROOT
BRANCH   3   4
HETATM    4  N   UNL     1      -9.693   9.692  68.351  1.00  0.00    -0.148 NA 
BRANCH   4   5
HETATM    5  C   UNL     1      -8.372  10.205  68.833  1.00  0.00    -0.130 C  
HETATM    6 CL   UNL     1      -7.032  11.216  66.617  1.00  0.00    -0.141 Cl 
HETATM    7  C   UNL     1      -7.110  10.074  67.980  1.00  0.00    -0.081 C  
ENDBRANCH   4   5
BRANCH   4   8
HETATM    8  C   UNL     1     -10.530   8.958  69.255  1.00  0.00    -0.224 C  
HETATM    9  C   UNL     1     -10.697   7.621  69.256  1.00  0.00    -0.161 C  
HETATM   10  N   UNL     1     -11.509   6.947  70.127  1.00  0.00    -0.451 N  
HETATM   11  C   UNL     1     -12.222   7.544  71.116  1.00  0.00    -0.301 C  
HETATM   12  H   UNL     1     -11.582   5.935  70.028  1.00  0.00     0.000 HD 
HETATM   13  O   UNL     1     -12.945   6.909  71.876  1.00  0.00    -0.325 OA 
HETATM   14  N   UNL     1     -12.080   8.892  71.199  1.00  0.00    -0.327 N  
HETATM   15  C   UNL     1     -11.348   9.673  70.344  1.00  0.00    -0.277 C  
HETATM   16  H   UNL     1     -12.561   9.364  71.965  1.00  0.00     0.000 HD 
HETATM   17  O   UNL     1     -11.393  10.894  70.480  1.00  0.00    -0.290 OA 
ENDBRANCH   4   8
ENDBRANCH   3   4
TORSDOF 3
ENDMDL
MODEL      200
REMARK 921   NORMALIZED FREE ENERGY PREDICTED BY IDOCK:   -2.87 KCAL/MOL
REMARK 922        TOTAL FREE ENERGY PREDICTED BY IDOCK:   -3.82 KCAL/MOL
REMARK 923 INTER-LIGAND FREE ENERGY PREDICTED BY IDOCK:   -3.99 KCAL/MOL
REMARK 924 INTRA-LIGAND FREE ENERGY PREDICTED BY IDOCK:    0.17 KCAL/MOL
REMARK 927      BINDING AFFINITY PREDICTED BY RF-SCORE:    0.00 PKD
ROOT
HETATM    1 CL   UNL     1      -7.839  12.785  67.516  1.00  0.00    -0.159 Cl 
HETATM    2  C   UNL     1      -7.154  11.176  67.854  1.00  0.00    -0.081 C  
HETATM    3  C   UNL     1      -7.989  10.358  68.846  1.00  0.00    -0.123 C  
ENDROOT
BRANCH   3   4
HETATM    4  N   UNL     1      -9.421  10.205  68.483  1.00  0.00    -0.153 NA 
BRANCH   4   5
HETATM    5  C   UNL     1      -9.778   9.905  67.060  1.00  0.00    -0.182 C  
HETATM    6 CL   UNL     1     -10.718   7.289  66.991  1.00  0.00    -0.425 Cl 
HETATM    7  C   UNL     1      -9.545   8.518  66.460  1.00  0.00    -0.236 C  
ENDBRANCH   4   5
BRANCH   4   8
HETATM    8  C   UNL     1     -10.428  10.083  69.496  1.00  0.00    -0.240 C  
HETATM    9  C   UNL     1     -11.712  10.475  69.376  1.00  0.00    -0.223 C  
HETATM   10  N   UNL     1     -12.650  10.351  70.364  1.00  0.00    -0.473 N  
HETATM   11  C   UNL     1     -12.406   9.792  71.577  1.00  0.00    -0.405 C  
HETATM   12  H   UNL     1     -13.590  10.701  70.178  1.00  0.00     0.000 HD 
HETATM   13  O   UNL     1     -13.271   9.703  72.442  1.00  0.00    -0.422 OA 
HETATM   14  N   UNL     1     -11.139   9.342  71.762  1.00  0.00    -0.369 N  
HETATM   15  C   UNL     1     -10.107   9.470  70.870  1.00  0.00    -0.260 C  
HETATM   16  H   UNL     1     -10.938   8.867  72.642  1.00  0.00     0.000 HD 
HETATM   17  O   UNL     1      -8.984   9.105  71.216  1.00  0.00    -0.237 OA 
ENDBRANCH   4   8
ENDBRANCH   3   4
TORSDOF 3
ENDMDL
MODEL      201
REMARK 921   NORMALIZED FREE ENERGY PREDICTED BY IDOCK:   -2.85 KCAL/MOL
REMARK 922        TOTAL FREE ENERGY PREDICTED BY IDOCK:   -3.80 KCAL/MOL
REMARK 923 INTER-LIGAND FREE ENERGY PREDICTED BY IDOCK:   -3.25 KCAL/MOL
REMARK 924 INTRA-LIGAND FREE ENERGY PREDICTED BY IDOCK:   -0.55 KCAL/MOL
REMARK 927      BINDING AFFINITY PREDICTED BY RF-SCORE:    0.00 PKD
ROOT
HETATM    1 CL   UNL     1      -8.102   6.303  71.154  1.00  0.00    -0.116 Cl 
HETATM    2  C   UNL     1      -7.692   7.880  71.872  1.00  0.00    -0.093 C  
HETATM    3  C   UNL     1      -7.984   9.063  70.943  1.00  0.00    -0.164 C  
ENDROOT
BRANCH   3   4
HETATM    4  N   UNL     1      -9.371   9.121  70.418  1.00  0.00    -0.212 NA 
BRANCH   4   5
HETATM    5  C   UNL     1     -10.512   9.111  71.387  1.00  0.00    -0.344 C  
HETATM    6 CL   UNL     1     -12.003   6.822  70.868  1.00  0.00    -0.431 Cl 
HETATM    7  C   UNL     1     -11.893   8.595  70.982  1.00  0.00    -0.265 C  
ENDBRANCH   4   5
BRANCH   4   8
HETATM    8  C   UNL     1      -9.625   9.443  69.043  1.00  0.00    -0.164 C  
HETATM    9  C   UNL     1      -9.753  10.687  68.542  1.00  0.00    -0.174 C  
HETATM   10  N   UNL     1     -10.002  10.964  67.225  1.00  0.00    -0.182 N  
HETATM   11  C   UNL     1     -10.123  10.017  66.260  1.00  0.00    -0.243 C  
HETATM   12  H   UNL     1     -10.103  11.942  66.953  1.00  0.00     0.000 HD 
HETATM   13  O   UNL     1     -10.353  10.302  65.090  1.00  0.00    -0.286 OA 
HETATM   14  N   UNL     1      -9.975   8.736  66.684  1.00  0.00    -0.263 N  
HETATM   15  C   UNL     1      -9.787   8.341  67.983  1.00  0.00    -0.169 C  
HETATM   16  H   UNL     1     -10.006   8.004  65.974  1.00  0.00     0.000 HD 
HETATM   17  O   UNL     1      -9.771   7.137  68.233  1.00  0.00    -0.142 OA 
ENDBRANCH   4   8
ENDBRANCH   3   4
TORSDOF 3
ENDMDL
MODEL      202
REMARK 921   NORMALIZED FREE ENERGY PREDICTED BY IDOCK:   -2.84 KCAL/MOL
REMARK 922        TOTAL FREE ENERGY PREDICTED BY IDOCK:   -3.78 KCAL/MOL
REMARK 923 INTER-LIGAND FREE ENERGY PREDICTED BY IDOCK:   -4.20 KCAL/MOL
REMARK 924 INTRA-LIGAND FREE ENERGY PREDICTED BY IDOCK:    0.42 KCAL/MOL
REMARK 927      BINDING AFFINITY PREDICTED BY RF-SCORE:    0.00 PKD
ROOT
HETATM    1 CL   UNL     1      -7.702  17.285  66.536  1.00  0.00    -0.296 Cl 
HETATM    2  C   UNL     1      -9.469  17.489  66.450  1.00  0.00    -0.259 C  
HETATM    3  C   UNL     1     -10.217  16.182  66.163  1.00  0.00    -0.336 C  
ENDROOT
BRANCH   3   4
HETATM    4  N   UNL     1      -9.907  15.066  67.092  1.00  0.00    -0.231 NA 
BRANCH   4   5
HETATM    5  C   UNL     1      -8.726  14.192  66.802  1.00  0.00    -0.123 C  
HETATM    6 CL   UNL     1      -7.146  14.174  69.090  1.00  0.00    -0.112 Cl 
HETATM    7  C   UNL     1      -7.339  14.523  67.355  1.00  0.00    -0.157 C  
ENDBRANCH   4   5
BRANCH   4   8
HETATM    8  C   UNL     1     -10.547  14.973  68.372  1.00  0.00    -0.239 C  
HETATM    9  C   UNL     1     -10.114  15.554  69.508  1.00  0.00    -0.278 C  
HETATM   10  N   UNL     1     -10.743  15.442  70.718  1.00  0.00    -0.466 N  
HETATM   11  C   UNL     1     -11.897  14.755  70.913  1.00  0.00    -0.322 C  
HETATM   12  H   UNL     1     -10.318  15.904  71.522  1.00  0.00     0.000 HD 
HETATM   13  O   UNL     1     -12.430  14.671  72.014  1.00  0.00    -0.326 OA 
HETATM   14  N   UNL     1     -12.414  14.166  69.804  1.00  0.00    -0.449 N  
HETATM   15  C   UNL     1     -11.839  14.159  68.561  1.00  0.00    -0.355 C  
HETATM   16  H   UNL     1     -13.309  13.688  69.906  1.00  0.00     0.000 HD 
HETATM   17  O   UNL     1     -12.371  13.497  67.672  1.00  0.00    -0.248 OA 
ENDBRANCH   4   8
ENDBRANCH   3   4
TORSDOF 3
ENDMDL
MODEL      203
REMARK 921   NORMALIZED FREE ENERGY PREDICTED BY IDOCK:   -2.83 KCAL/MOL
REMARK 922        TOTAL FREE ENERGY PREDICTED BY IDOCK:   -3.77 KCAL/MOL
REMARK 923 INTER-LIGAND FREE ENERGY PREDICTED BY IDOCK:   -3.47 KCAL/MOL
REMARK 924 INTRA-LIGAND FREE ENERGY PREDICTED BY IDOCK:   -0.30 KCAL/MOL
REMARK 927      BINDING AFFINITY PREDICTED BY RF-SCORE:    0.00 PKD
ROOT
HETATM    1 CL   UNL     1      -8.122   7.125  65.554  1.00  0.00    -0.129 Cl 
HETATM    2  C   UNL     1      -7.377   7.817  67.016  1.00  0.00    -0.091 C  
HETATM    3  C   UNL     1      -7.969   9.173  67.414  1.00  0.00    -0.103 C  
ENDROOT
BRANCH   3   4
HETATM    4  N   UNL     1      -9.446   9.192  67.571  1.00  0.00    -0.137 NA 
BRANCH   4   5
HETATM    5  C   UNL     1     -10.281   9.785  66.479  1.00  0.00    -0.219 C  
HETATM    6 CL   UNL     1      -9.707  12.504  66.399  1.00  0.00    -0.246 Cl 
HETATM    7  C   UNL     1     -10.883  11.184  66.611  1.00  0.00    -0.253 C  
ENDBRANCH   4   5
BRANCH   4   8
HETATM    8  C   UNL     1     -10.085   8.433  68.606  1.00  0.00    -0.193 C  
HETATM    9  C   UNL     1     -10.034   8.709  69.924  1.00  0.00    -0.186 C  
HETATM   10  N   UNL     1     -10.650   7.962  70.891  1.00  0.00    -0.211 N  
HETATM   11  C   UNL     1     -11.412   6.868  70.635  1.00  0.00    -0.336 C  
HETATM   12  H   UNL     1     -10.529   8.245  71.864  1.00  0.00     0.000 HD 
HETATM   13  O   UNL     1     -11.945   6.219  71.528  1.00  0.00    -0.303 OA 
HETATM   14  N   UNL     1     -11.538   6.545  69.322  1.00  0.00    -0.643 N  
HETATM   15  C   UNL     1     -10.917   7.181  68.280  1.00  0.00    -0.029 C  
HETATM   16  H   UNL     1     -12.148   5.761  69.093  1.00  0.00     0.000 HD 
HETATM   17  O   UNL     1     -11.043   6.714  67.149  1.00  0.00    -0.392 OA 
ENDBRANCH   4   8
ENDBRANCH   3   4
TORSDOF 3
ENDMDL
MODEL      204
REMARK 921   NORMALIZED FREE ENERGY PREDICTED BY IDOCK:   -2.83 KCAL/MOL
REMARK 922        TOTAL FREE ENERGY PREDICTED BY IDOCK:   -3.77 KCAL/MOL
REMARK 923 INTER-LIGAND FREE ENERGY PREDICTED BY IDOCK:   -3.46 KCAL/MOL
REMARK 924 INTRA-LIGAND FREE ENERGY PREDICTED BY IDOCK:   -0.31 KCAL/MOL
REMARK 927      BINDING AFFINITY PREDICTED BY RF-SCORE:    0.00 PKD
ROOT
HETATM    1 CL   UNL     1      -6.612  12.301  69.108  1.00  0.00    -0.101 Cl 
HETATM    2  C   UNL     1      -7.206  10.705  69.631  1.00  0.00    -0.139 C  
HETATM    3  C   UNL     1      -8.652  10.428  69.206  1.00  0.00    -0.150 C  
ENDROOT
BRANCH   3   4
HETATM    4  N   UNL     1      -8.923  10.591  67.755  1.00  0.00    -0.132 NA 
BRANCH   4   5
HETATM    5  C   UNL     1      -8.717   9.419  66.847  1.00  0.00    -0.127 C  
HETATM    6 CL   UNL     1      -6.866  10.195  64.922  1.00  0.00    -0.133 Cl 
HETATM    7  C   UNL     1      -8.492   9.608  65.346  1.00  0.00    -0.145 C  
ENDBRANCH   4   5
BRANCH   4   8
HETATM    8  C   UNL     1      -9.612  11.747  67.260  1.00  0.00    -0.176 C  
HETATM    9  C   UNL     1      -9.027  12.843  66.738  1.00  0.00    -0.179 C  
HETATM   10  N   UNL     1      -9.712  13.936  66.279  1.00  0.00    -0.318 N  
HETATM   11  C   UNL     1     -11.066  14.033  66.267  1.00  0.00    -0.307 C  
HETATM   12  H   UNL     1      -9.172  14.724  65.924  1.00  0.00     0.000 HD 
HETATM   13  O   UNL     1     -11.646  15.031  65.853  1.00  0.00    -0.291 OA 
HETATM   14  N   UNL     1     -11.729  12.950  66.749  1.00  0.00    -0.366 N  
HETATM   15  C   UNL     1     -11.148  11.833  67.290  1.00  0.00    -0.287 C  
HETATM   16  H   UNL     1     -12.747  12.969  66.703  1.00  0.00     0.000 HD 
HETATM   17  O   UNL     1     -11.876  10.973  67.781  1.00  0.00    -0.605 OA 
ENDBRANCH   4   8
ENDBRANCH   3   4
TORSDOF 3
ENDMDL
MODEL      205
REMARK 921   NORMALIZED FREE ENERGY PREDICTED BY IDOCK:   -2.83 KCAL/MOL
REMARK 922        TOTAL FREE ENERGY PREDICTED BY IDOCK:   -3.77 KCAL/MOL
REMARK 923 INTER-LIGAND FREE ENERGY PREDICTED BY IDOCK:   -3.37 KCAL/MOL
REMARK 924 INTRA-LIGAND FREE ENERGY PREDICTED BY IDOCK:   -0.40 KCAL/MOL
REMARK 927      BINDING AFFINITY PREDICTED BY RF-SCORE:    0.00 PKD
ROOT
HETATM    1 CL   UNL     1      -9.536  10.331  66.494  1.00  0.00    -0.216 Cl 
HETATM    2  C   UNL     1      -8.183   9.634  67.419  1.00  0.00    -0.114 C  
HETATM    3  C   UNL     1      -8.571   9.226  68.845  1.00  0.00    -0.130 C  
ENDROOT
BRANCH   3   4
HETATM    4  N   UNL     1      -9.740   8.314  68.940  1.00  0.00    -0.161 NA 
BRANCH   4   5
HETATM    5  C   UNL     1     -10.905   8.721  69.788  1.00  0.00    -0.193 C  
HETATM    6 CL   UNL     1     -11.398  11.406  69.262  1.00  0.00    -0.323 Cl 
HETATM    7  C   UNL     1     -10.983  10.114  70.414  1.00  0.00    -0.319 C  
ENDBRANCH   4   5
BRANCH   4   8
HETATM    8  C   UNL     1      -9.880   7.200  68.048  1.00  0.00    -0.138 C  
HETATM    9  C   UNL     1     -10.843   7.059  67.117  1.00  0.00    -0.357 C  
HETATM   10  N   UNL     1     -10.956   5.980  66.283  1.00  0.00    -0.666 N  
HETATM   11  C   UNL     1     -10.091   4.934  66.275  1.00  0.00    -0.257 C  
HETATM   12  H   UNL     1     -11.737   5.961  65.628  1.00  0.00     0.000 HD 
HETATM   13  O   UNL     1     -10.226   3.979  65.517  1.00  0.00    -0.173 OA 
HETATM   14  N   UNL     1      -9.070   5.019  67.167  1.00  0.00    -0.113 N  
HETATM   15  C   UNL     1      -8.896   6.018  68.089  1.00  0.00    -0.111 C  
HETATM   16  H   UNL     1      -8.372   4.275  67.148  1.00  0.00     0.000 HD 
HETATM   17  O   UNL     1      -7.981   5.911  68.903  1.00  0.00    -0.100 OA 
ENDBRANCH   4   8
ENDBRANCH   3   4
TORSDOF 3
ENDMDL
MODEL      206
REMARK 921   NORMALIZED FREE ENERGY PREDICTED BY IDOCK:   -2.80 KCAL/MOL
REMARK 922        TOTAL FREE ENERGY PREDICTED BY IDOCK:   -3.74 KCAL/MOL
REMARK 923 INTER-LIGAND FREE ENERGY PREDICTED BY IDOCK:   -3.75 KCAL/MOL
REMARK 924 INTRA-LIGAND FREE ENERGY PREDICTED BY IDOCK:    0.01 KCAL/MOL
REMARK 927      BINDING AFFINITY PREDICTED BY RF-SCORE:    0.00 PKD
ROOT
HETATM    1 CL   UNL     1     -10.449   8.337  66.854  1.00  0.00    -0.390 Cl 
HETATM    2  C   UNL     1      -9.539   7.568  68.178  1.00  0.00    -0.148 C  
HETATM    3  C   UNL     1      -8.950   8.574  69.173  1.00  0.00    -0.146 C  
ENDROOT
BRANCH   3   4
HETATM    4  N   UNL     1      -9.928   9.528  69.753  1.00  0.00    -0.199 NA 
BRANCH   4   5
HETATM    5  C   UNL     1     -10.395   9.318  71.159  1.00  0.00    -0.322 C  
HETATM    6 CL   UNL     1     -11.847   6.947  71.190  1.00  0.00    -0.373 Cl 
HETATM    7  C   UNL     1     -11.764   8.705  71.458  1.00  0.00    -0.305 C  
ENDBRANCH   4   5
BRANCH   4   8
HETATM    8  C   UNL     1     -10.227  10.768  69.095  1.00  0.00    -0.211 C  
HETATM    9  C   UNL     1     -11.459  11.282  68.915  1.00  0.00    -0.297 C  
HETATM   10  N   UNL     1     -11.714  12.465  68.277  1.00  0.00    -0.332 N  
HETATM   11  C   UNL     1     -10.751  13.278  67.773  1.00  0.00    -0.244 C  
HETATM   12  H   UNL     1     -12.687  12.754  68.174  1.00  0.00     0.000 HD 
HETATM   13  O   UNL     1     -11.016  14.330  67.202  1.00  0.00    -0.291 OA 
HETATM   14  N   UNL     1      -9.476  12.842  67.945  1.00  0.00    -0.201 N  
HETATM   15  C   UNL     1      -9.110  11.649  68.509  1.00  0.00    -0.157 C  
HETATM   16  H   UNL     1      -8.727  13.456  67.626  1.00  0.00     0.000 HD 
HETATM   17  O   UNL     1      -7.919  11.340  68.506  1.00  0.00    -0.130 OA 
ENDBRANCH   4   8
ENDBRANCH   3   4
TORSDOF 3
ENDMDL
MODEL      207
REMARK 921   NORMALIZED FREE ENERGY PREDICTED BY IDOCK:   -2.80 KCAL/MOL
REMARK 922        TOTAL FREE ENERGY PREDICTED BY IDOCK:   -3.73 KCAL/MOL
REMARK 923 INTER-LIGAND FREE ENERGY PREDICTED BY IDOCK:   -3.45 KCAL/MOL
REMARK 924 INTRA-LIGAND FREE ENERGY PREDICTED BY IDOCK:   -0.28 KCAL/MOL
REMARK 927      BINDING AFFINITY PREDICTED BY RF-SCORE:    0.00 PKD
ROOT
HETATM    1 CL   UNL     1      -8.607  10.959  65.448  1.00  0.00    -0.157 Cl 
HETATM    2  C   UNL     1     -10.081   9.980  65.647  1.00  0.00    -0.251 C  
HETATM    3  C   UNL     1      -9.940   8.882  66.707  1.00  0.00    -0.267 C  
ENDROOT
BRANCH   3   4
HETATM    4  N   UNL     1      -9.491   9.352  68.042  1.00  0.00    -0.133 NA 
BRANCH   4   5
HETATM    5  C   UNL     1      -8.023   9.443  68.320  1.00  0.00    -0.094 C  
HETATM    6 CL   UNL     1      -7.367   7.287  69.948  1.00  0.00    -0.082 Cl 
HETATM    7  C   UNL     1      -7.446   9.045  69.679  1.00  0.00    -0.076 C  
ENDBRANCH   4   5
BRANCH   4   8
HETATM    8  C   UNL     1     -10.415   9.957  68.958  1.00  0.00    -0.210 C  
HETATM    9  C   UNL     1     -11.198   9.294  69.831  1.00  0.00    -0.126 C  
HETATM   10  N   UNL     1     -12.076   9.898  70.690  1.00  0.00    -0.363 N  
HETATM   11  C   UNL     1     -12.241  11.242  70.785  1.00  0.00    -0.380 C  
HETATM   12  H   UNL     1     -12.640   9.302  71.296  1.00  0.00     0.000 HD 
HETATM   13  O   UNL     1     -13.042  11.749  71.563  1.00  0.00    -0.407 OA 
HETATM   14  N   UNL     1     -11.459  11.981  69.957  1.00  0.00    -0.522 N  
HETATM   15  C   UNL     1     -10.597  11.483  69.016  1.00  0.00    -0.173 C  
HETATM   16  H   UNL     1     -11.520  12.996  70.042  1.00  0.00     0.000 HD 
HETATM   17  O   UNL     1     -10.028  12.273  68.265  1.00  0.00    -0.208 OA 
ENDBRANCH   4   8
ENDBRANCH   3   4
TORSDOF 3
ENDMDL
MODEL      208
REMARK 921   NORMALIZED FREE ENERGY PREDICTED BY IDOCK:   -2.79 KCAL/MOL
REMARK 922        TOTAL FREE ENERGY PREDICTED BY IDOCK:   -3.73 KCAL/MOL
REMARK 923 INTER-LIGAND FREE ENERGY PREDICTED BY IDOCK:   -4.04 KCAL/MOL
REMARK 924 INTRA-LIGAND FREE ENERGY PREDICTED BY IDOCK:    0.31 KCAL/MOL
REMARK 927      BINDING AFFINITY PREDICTED BY RF-SCORE:    0.00 PKD
ROOT
HETATM    1 CL   UNL     1      -8.857  16.778  66.598  1.00  0.00    -0.263 Cl 
HETATM    2  C   UNL     1     -10.377  16.817  67.524  1.00  0.00    -0.301 C  
HETATM    3  C   UNL     1     -11.242  15.568  67.321  1.00  0.00    -0.226 C  
ENDROOT
BRANCH   3   4
HETATM    4  N   UNL     1     -10.553  14.279  67.581  1.00  0.00    -0.252 NA 
BRANCH   4   5
HETATM    5  C   UNL     1     -10.297  13.869  68.997  1.00  0.00    -0.096 C  
HETATM    6 CL   UNL     1     -12.499  14.677  70.491  1.00  0.00    -0.386 Cl 
HETATM    7  C   UNL     1     -10.749  14.741  70.170  1.00  0.00    -0.018 C  
ENDBRANCH   4   5
BRANCH   4   8
HETATM    8  C   UNL     1     -10.369  13.318  66.532  1.00  0.00    -0.285 C  
HETATM    9  C   UNL     1      -9.344  12.449  66.437  1.00  0.00    -0.219 C  
HETATM   10  N   UNL     1      -9.191  11.547  65.419  1.00  0.00    -0.364 N  
HETATM   11  C   UNL     1     -10.071  11.400  64.397  1.00  0.00    -0.291 C  
HETATM   12  H   UNL     1      -8.365  10.949  65.430  1.00  0.00     0.000 HD 
HETATM   13  O   UNL     1      -9.899  10.585  63.497  1.00  0.00    -0.314 OA 
HETATM   14  N   UNL     1     -11.152  12.221  64.440  1.00  0.00    -0.311 N  
HETATM   15  C   UNL     1     -11.374  13.201  65.372  1.00  0.00    -0.297 C  
HETATM   16  H   UNL     1     -11.860  12.099  63.716  1.00  0.00     0.000 HD 
HETATM   17  O   UNL     1     -12.348  13.938  65.228  1.00  0.00    -0.413 OA 
ENDBRANCH   4   8
ENDBRANCH   3   4
TORSDOF 3
ENDMDL
MODEL      209
REMARK 921   NORMALIZED FREE ENERGY PREDICTED BY IDOCK:   -2.78 KCAL/MOL
REMARK 922        TOTAL FREE ENERGY PREDICTED BY IDOCK:   -3.72 KCAL/MOL
REMARK 923 INTER-LIGAND FREE ENERGY PREDICTED BY IDOCK:   -3.44 KCAL/MOL
REMARK 924 INTRA-LIGAND FREE ENERGY PREDICTED BY IDOCK:   -0.28 KCAL/MOL
REMARK 927      BINDING AFFINITY PREDICTED BY RF-SCORE:    0.00 PKD
ROOT
HETATM    1 CL   UNL     1      -9.390  11.514  68.792  1.00  0.00    -0.138 Cl 
HETATM    2  C   UNL     1      -8.131  10.323  69.201  1.00  0.00    -0.138 C  
HETATM    3  C   UNL     1      -8.484   9.462  70.418  1.00  0.00    -0.214 C  
ENDROOT
BRANCH   3   4
HETATM    4  N   UNL     1      -9.795   8.768  70.337  1.00  0.00    -0.175 NA 
BRANCH   4   5
HETATM    5  C   UNL     1     -10.900   9.205  71.247  1.00  0.00    -0.332 C  
HETATM    6 CL   UNL     1     -12.483   6.971  71.737  1.00  0.00    -0.388 Cl 
HETATM    7  C   UNL     1     -12.311   8.630  71.114  1.00  0.00    -0.213 C  
ENDBRANCH   4   5
BRANCH   4   8
HETATM    8  C   UNL     1     -10.094   7.884  69.248  1.00  0.00    -0.197 C  
HETATM    9  C   UNL     1     -10.611   8.253  68.060  1.00  0.00    -0.127 C  
HETATM   10  N   UNL     1     -10.893   7.385  67.040  1.00  0.00    -0.532 N  
HETATM   11  C   UNL     1     -10.658   6.050  67.094  1.00  0.00    -0.302 C  
HETATM   12  H   UNL     1     -11.305   7.765  66.188  1.00  0.00     0.000 HD 
HETATM   13  O   UNL     1     -10.929   5.300  66.162  1.00  0.00    -0.213 OA 
HETATM   14  N   UNL     1     -10.105   5.605  68.252  1.00  0.00    -0.156 N  
HETATM   15  C   UNL     1      -9.841   6.371  69.357  1.00  0.00    -0.149 C  
HETATM   16  H   UNL     1      -9.866   4.615  68.303  1.00  0.00     0.000 HD 
HETATM   17  O   UNL     1      -9.433   5.812  70.374  1.00  0.00    -0.160 OA 
ENDBRANCH   4   8
ENDBRANCH   3   4
TORSDOF 3
ENDMDL
MODEL      210
REMARK 921   NORMALIZED FREE ENERGY PREDICTED BY IDOCK:   -2.77 KCAL/MOL
REMARK 922        TOTAL FREE ENERGY PREDICTED BY IDOCK:   -3.70 KCAL/MOL
REMARK 923 INTER-LIGAND FREE ENERGY PREDICTED BY IDOCK:   -3.72 KCAL/MOL
REMARK 924 INTRA-LIGAND FREE ENERGY PREDICTED BY IDOCK:    0.02 KCAL/MOL
REMARK 927      BINDING AFFINITY PREDICTED BY RF-SCORE:    0.00 PKD
ROOT
HETATM    1 CL   UNL     1      -6.013  20.414  66.878  1.00  0.00    -0.200 Cl 
HETATM    2  C   UNL     1      -6.474  20.185  68.583  1.00  0.00    -0.306 C  
HETATM    3  C   UNL     1      -7.605  19.169  68.773  1.00  0.00    -0.353 C  
ENDROOT
BRANCH   3   4
HETATM    4  N   UNL     1      -7.365  17.839  68.157  1.00  0.00    -0.230 NA 
BRANCH   4   5
HETATM    5  C   UNL     1      -6.161  17.055  68.577  1.00  0.00    -0.147 C  
HETATM    6 CL   UNL     1      -7.083  14.817  69.946  1.00  0.00    -0.143 Cl 
HETATM    7  C   UNL     1      -6.122  16.316  69.915  1.00  0.00    -0.180 C  
ENDBRANCH   4   5
BRANCH   4   8
HETATM    8  C   UNL     1      -8.382  17.194  67.379  1.00  0.00    -0.190 C  
HETATM    9  C   UNL     1      -8.173  16.475  66.258  1.00  0.00    -0.325 C  
HETATM   10  N   UNL     1      -9.166  15.876  65.532  1.00  0.00    -0.058 N  
HETATM   11  C   UNL     1     -10.480  15.909  65.871  1.00  0.00    -0.359 C  
HETATM   12  H   UNL     1      -8.902  15.373  64.685  1.00  0.00     0.000 HD 
HETATM   13  O   UNL     1     -11.344  15.365  65.192  1.00  0.00    -0.340 OA 
HETATM   14  N   UNL     1     -10.767  16.590  67.010  1.00  0.00    -0.247 N  
HETATM   15  C   UNL     1      -9.866  17.279  67.778  1.00  0.00    -0.281 C  
HETATM   16  H   UNL     1     -11.738  16.587  67.321  1.00  0.00     0.000 HD 
HETATM   17  O   UNL     1     -10.286  17.935  68.729  1.00  0.00    -0.366 OA 
ENDBRANCH   4   8
ENDBRANCH   3   4
TORSDOF 3
ENDMDL
MODEL      211
REMARK 921   NORMALIZED FREE ENERGY PREDICTED BY IDOCK:   -2.76 KCAL/MOL
REMARK 922        TOTAL FREE ENERGY PREDICTED BY IDOCK:   -3.69 KCAL/MOL
REMARK 923 INTER-LIGAND FREE ENERGY PREDICTED BY IDOCK:   -4.23 KCAL/MOL
REMARK 924 INTRA-LIGAND FREE ENERGY PREDICTED BY IDOCK:    0.54 KCAL/MOL
REMARK 927      BINDING AFFINITY PREDICTED BY RF-SCORE:    0.00 PKD
ROOT
HETATM    1 CL   UNL     1     -10.817  14.702  66.701  1.00  0.00    -0.306 Cl 
HETATM    2  C   UNL     1      -9.470  14.733  67.866  1.00  0.00    -0.201 C  
HETATM    3  C   UNL     1      -8.342  15.689  67.462  1.00  0.00    -0.169 C  
ENDROOT
BRANCH   3   4
HETATM    4  N   UNL     1      -8.771  17.084  67.185  1.00  0.00    -0.205 NA 
BRANCH   4   5
HETATM    5  C   UNL     1     -10.211  17.348  66.876  1.00  0.00    -0.322 C  
HETATM    6 CL   UNL     1     -10.320  19.768  65.510  1.00  0.00    -0.396 Cl 
HETATM    7  C   UNL     1     -10.782  18.767  66.908  1.00  0.00    -0.337 C  
ENDBRANCH   4   5
BRANCH   4   8
HETATM    8  C   UNL     1      -7.900  18.190  67.460  1.00  0.00    -0.222 C  
HETATM    9  C   UNL     1      -7.721  18.764  68.665  1.00  0.00    -0.326 C  
HETATM   10  N   UNL     1      -6.887  19.825  68.896  1.00  0.00    -0.329 N  
HETATM   11  C   UNL     1      -6.118  20.407  67.942  1.00  0.00    -0.247 C  
HETATM   12  H   UNL     1      -6.841  20.200  69.843  1.00  0.00     0.000 HD 
HETATM   13  O   UNL     1      -5.386  21.361  68.184  1.00  0.00    -0.273 OA 
HETATM   14  N   UNL     1      -6.220  19.861  66.703  1.00  0.00    -0.181 N  
HETATM   15  C   UNL     1      -7.066  18.844  66.345  1.00  0.00    -0.231 C  
HETATM   16  H   UNL     1      -5.614  20.241  65.975  1.00  0.00     0.000 HD 
HETATM   17  O   UNL     1      -7.124  18.519  65.160  1.00  0.00    -0.483 OA 
ENDBRANCH   4   8
ENDBRANCH   3   4
TORSDOF 3
ENDMDL
MODEL      212
REMARK 921   NORMALIZED FREE ENERGY PREDICTED BY IDOCK:   -2.75 KCAL/MOL
REMARK 922        TOTAL FREE ENERGY PREDICTED BY IDOCK:   -3.67 KCAL/MOL
REMARK 923 INTER-LIGAND FREE ENERGY PREDICTED BY IDOCK:   -3.80 KCAL/MOL
REMARK 924 INTRA-LIGAND FREE ENERGY PREDICTED BY IDOCK:    0.13 KCAL/MOL
REMARK 927      BINDING AFFINITY PREDICTED BY RF-SCORE:    0.00 PKD
ROOT
HETATM    1 CL   UNL     1     -10.470   6.897  72.942  1.00  0.00    -0.244 Cl 
HETATM    2  C   UNL     1     -11.784   6.188  71.972  1.00  0.00    -0.299 C  
HETATM    3  C   UNL     1     -12.020   6.918  70.646  1.00  0.00    -0.348 C  
ENDROOT
BRANCH   3   4
HETATM    4  N   UNL     1     -10.817   7.067  69.789  1.00  0.00    -0.240 NA 
BRANCH   4   5
HETATM    5  C   UNL     1      -9.662   7.872  70.299  1.00  0.00    -0.183 C  
HETATM    6 CL   UNL     1      -9.472  10.133  68.692  1.00  0.00    -0.157 Cl 
HETATM    7  C   UNL     1      -8.749   8.643  69.345  1.00  0.00    -0.139 C  
ENDBRANCH   4   5
BRANCH   4   8
HETATM    8  C   UNL     1     -10.641   6.256  68.619  1.00  0.00    -0.264 C  
HETATM    9  C   UNL     1     -11.139   6.526  67.397  1.00  0.00    -0.327 C  
HETATM   10  N   UNL     1     -10.960   5.728  66.299  1.00  0.00    -0.737 N  
HETATM   11  C   UNL     1     -10.233   4.582  66.305  1.00  0.00    -0.239 C  
HETATM   12  H   UNL     1     -11.400   6.013  65.425  1.00  0.00     0.000 HD 
HETATM   13  O   UNL     1     -10.098   3.888  65.303  1.00  0.00    -0.178 OA 
HETATM   14  N   UNL     1      -9.670   4.259  67.498  1.00  0.00    -0.171 N  
HETATM   15  C   UNL     1      -9.835   4.946  68.671  1.00  0.00    -0.152 C  
HETATM   16  H   UNL     1      -9.073   3.432  67.522  1.00  0.00     0.000 HD 
HETATM   17  O   UNL     1      -9.347   4.479  69.699  1.00  0.00    -0.120 OA 
ENDBRANCH   4   8
ENDBRANCH   3   4
TORSDOF 3
ENDMDL
MODEL      213
REMARK 921   NORMALIZED FREE ENERGY PREDICTED BY IDOCK:   -2.74 KCAL/MOL
REMARK 922        TOTAL FREE ENERGY PREDICTED BY IDOCK:   -3.67 KCAL/MOL
REMARK 923 INTER-LIGAND FREE ENERGY PREDICTED BY IDOCK:   -3.18 KCAL/MOL
REMARK 924 INTRA-LIGAND FREE ENERGY PREDICTED BY IDOCK:   -0.48 KCAL/MOL
REMARK 927      BINDING AFFINITY PREDICTED BY RF-SCORE:    0.00 PKD
ROOT
HETATM    1 CL   UNL     1      -7.070   9.036  69.042  1.00  0.00    -0.063 Cl 
HETATM    2  C   UNL     1      -7.942   7.657  68.329  1.00  0.00    -0.123 C  
HETATM    3  C   UNL     1      -7.945   6.413  69.225  1.00  0.00    -0.110 C  
ENDROOT
BRANCH   3   4
HETATM    4  N   UNL     1      -8.444   6.637  70.606  1.00  0.00    -0.136 NA 
BRANCH   4   5
HETATM    5  C   UNL     1      -7.549   6.308  71.759  1.00  0.00    -0.096 C  
HETATM    6 CL   UNL     1      -6.093   8.606  72.340  1.00  0.00    -0.074 Cl 
HETATM    7  C   UNL     1      -6.138   6.892  71.860  1.00  0.00    -0.038 C  
ENDBRANCH   4   5
BRANCH   4   8
HETATM    8  C   UNL     1      -9.642   7.389  70.843  1.00  0.00    -0.166 C  
HETATM    9  C   UNL     1      -9.713   8.558  71.511  1.00  0.00    -0.234 C  
HETATM   10  N   UNL     1     -10.873   9.251  71.728  1.00  0.00    -0.354 N  
HETATM   11  C   UNL     1     -12.089   8.857  71.270  1.00  0.00    -0.306 C  
HETATM   12  H   UNL     1     -10.820  10.115  72.266  1.00  0.00     0.000 HD 
HETATM   13  O   UNL     1     -13.109   9.501  71.489  1.00  0.00    -0.348 OA 
HETATM   14  N   UNL     1     -12.093   7.701  70.558  1.00  0.00    -0.507 N  
HETATM   15  C   UNL     1     -11.008   6.896  70.335  1.00  0.00    -0.274 C  
HETATM   16  H   UNL     1     -12.983   7.407  70.154  1.00  0.00     0.000 HD 
HETATM   17  O   UNL     1     -11.181   5.824  69.758  1.00  0.00    -0.355 OA 
ENDBRANCH   4   8
ENDBRANCH   3   4
TORSDOF 3
ENDMDL
MODEL      214
REMARK 921   NORMALIZED FREE ENERGY PREDICTED BY IDOCK:   -2.73 KCAL/MOL
REMARK 922        TOTAL FREE ENERGY PREDICTED BY IDOCK:   -3.65 KCAL/MOL
REMARK 923 INTER-LIGAND FREE ENERGY PREDICTED BY IDOCK:   -4.12 KCAL/MOL
REMARK 924 INTRA-LIGAND FREE ENERGY PREDICTED BY IDOCK:    0.46 KCAL/MOL
REMARK 927      BINDING AFFINITY PREDICTED BY RF-SCORE:    0.00 PKD
ROOT
HETATM    1 CL   UNL     1      -8.717  11.045  67.998  1.00  0.00    -0.133 Cl 
HETATM    2  C   UNL     1     -10.317  10.632  67.335  1.00  0.00    -0.219 C  
HETATM    3  C   UNL     1     -10.871   9.307  67.871  1.00  0.00    -0.118 C  
ENDROOT
BRANCH   3   4
HETATM    4  N   UNL     1     -10.922   9.201  69.351  1.00  0.00    -0.152 NA 
BRANCH   4   5
HETATM    5  C   UNL     1      -9.997   8.245  70.038  1.00  0.00    -0.188 C  
HETATM    6 CL   UNL     1      -7.692   9.663  70.680  1.00  0.00    -0.156 Cl 
HETATM    7  C   UNL     1      -8.484   8.315  69.827  1.00  0.00    -0.128 C  
ENDBRANCH   4   5
BRANCH   4   8
HETATM    8  C   UNL     1     -11.639  10.164  70.135  1.00  0.00    -0.277 C  
HETATM    9  C   UNL     1     -11.549  11.502  70.006  1.00  0.00    -0.282 C  
HETATM   10  N   UNL     1     -12.242  12.398  70.773  1.00  0.00    -0.440 N  
HETATM   11  C   UNL     1     -13.127  12.044  71.739  1.00  0.00    -0.355 C  
HETATM   12  H   UNL     1     -12.083  13.392  70.609  1.00  0.00     0.000 HD 
HETATM   13  O   UNL     1     -13.727  12.875  72.413  1.00  0.00    -0.565 OA 
HETATM   14  N   UNL     1     -13.298  10.708  71.907  1.00  0.00    -0.420 N  
HETATM   15  C   UNL     1     -12.613   9.725  71.242  1.00  0.00    -0.365 C  
HETATM   16  H   UNL     1     -13.996  10.410  72.588  1.00  0.00     0.000 HD 
HETATM   17  O   UNL     1     -12.799   8.555  71.571  1.00  0.00    -0.320 OA 
ENDBRANCH   4   8
ENDBRANCH   3   4
TORSDOF 3
ENDMDL
MODEL      215
REMARK 921   NORMALIZED FREE ENERGY PREDICTED BY IDOCK:   -2.71 KCAL/MOL
REMARK 922        TOTAL FREE ENERGY PREDICTED BY IDOCK:   -3.63 KCAL/MOL
REMARK 923 INTER-LIGAND FREE ENERGY PREDICTED BY IDOCK:   -3.36 KCAL/MOL
REMARK 924 INTRA-LIGAND FREE ENERGY PREDICTED BY IDOCK:   -0.27 KCAL/MOL
REMARK 927      BINDING AFFINITY PREDICTED BY RF-SCORE:    0.00 PKD
ROOT
HETATM    1 CL   UNL     1      -7.966   8.254  72.454  1.00  0.00    -0.187 Cl 
HETATM    2  C   UNL     1      -9.715   8.349  72.133  1.00  0.00    -0.300 C  
HETATM    3  C   UNL     1     -10.077   9.373  71.052  1.00  0.00    -0.283 C  
ENDROOT
BRANCH   3   4
HETATM    4  N   UNL     1      -9.360   9.206  69.763  1.00  0.00    -0.172 NA 
BRANCH   4   5
HETATM    5  C   UNL     1      -8.094   9.972  69.536  1.00  0.00    -0.161 C  
HETATM    6 CL   UNL     1      -8.753  12.196  68.002  1.00  0.00    -0.173 Cl 
HETATM    7  C   UNL     1      -7.828  10.690  68.212  1.00  0.00    -0.113 C  
ENDBRANCH   4   5
BRANCH   4   8
HETATM    8  C   UNL     1      -9.709   8.149  68.858  1.00  0.00    -0.156 C  
HETATM    9  C   UNL     1      -9.309   6.866  68.961  1.00  0.00    -0.135 C  
HETATM   10  N   UNL     1      -9.653   5.879  68.078  1.00  0.00    -0.114 N  
HETATM   11  C   UNL     1     -10.463   6.070  67.005  1.00  0.00    -0.270 C  
HETATM   12  H   UNL     1      -9.278   4.945  68.235  1.00  0.00     0.000 HD 
HETATM   13  O   UNL     1     -10.746   5.163  66.230  1.00  0.00    -0.310 OA 
HETATM   14  N   UNL     1     -10.934   7.334  66.852  1.00  0.00    -0.588 N  
HETATM   15  C   UNL     1     -10.605   8.409  67.636  1.00  0.00    -0.195 C  
HETATM   16  H   UNL     1     -11.588   7.498  66.087  1.00  0.00     0.000 HD 
HETATM   17  O   UNL     1     -11.029   9.519  67.316  1.00  0.00    -0.203 OA 
ENDBRANCH   4   8
ENDBRANCH   3   4
TORSDOF 3
ENDMDL
MODEL      216
REMARK 921   NORMALIZED FREE ENERGY PREDICTED BY IDOCK:   -2.71 KCAL/MOL
REMARK 922        TOTAL FREE ENERGY PREDICTED BY IDOCK:   -3.63 KCAL/MOL
REMARK 923 INTER-LIGAND FREE ENERGY PREDICTED BY IDOCK:   -3.39 KCAL/MOL
REMARK 924 INTRA-LIGAND FREE ENERGY PREDICTED BY IDOCK:   -0.24 KCAL/MOL
REMARK 927      BINDING AFFINITY PREDICTED BY RF-SCORE:    0.00 PKD
ROOT
HETATM    1 CL   UNL     1      -7.350   9.286  70.586  1.00  0.00    -0.113 Cl 
HETATM    2  C   UNL     1      -7.430  10.764  69.596  1.00  0.00    -0.075 C  
HETATM    3  C   UNL     1      -8.079  10.540  68.226  1.00  0.00    -0.115 C  
ENDROOT
BRANCH   3   4
HETATM    4  N   UNL     1      -9.425   9.913  68.264  1.00  0.00    -0.139 NA 
BRANCH   4   5
HETATM    5  C   UNL     1      -9.643   8.627  67.530  1.00  0.00    -0.157 C  
HETATM    6 CL   UNL     1      -7.902   6.757  68.626  1.00  0.00    -0.116 Cl 
HETATM    7  C   UNL     1      -8.481   7.683  67.220  1.00  0.00    -0.121 C  
ENDBRANCH   4   5
BRANCH   4   8
HETATM    8  C   UNL     1     -10.424  10.370  69.186  1.00  0.00    -0.227 C  
HETATM    9  C   UNL     1     -11.043  11.566  69.141  1.00  0.00    -0.259 C  
HETATM   10  N   UNL     1     -11.989  11.978  70.039  1.00  0.00    -0.340 N  
HETATM   11  C   UNL     1     -12.439  11.217  71.069  1.00  0.00    -0.403 C  
HETATM   12  H   UNL     1     -12.380  12.913  69.928  1.00  0.00     0.000 HD 
HETATM   13  O   UNL     1     -13.285  11.621  71.860  1.00  0.00    -0.485 OA 
HETATM   14  N   UNL     1     -11.884   9.981  71.162  1.00  0.00    -0.369 N  
HETATM   15  C   UNL     1     -10.888   9.490  70.360  1.00  0.00    -0.282 C  
HETATM   16  H   UNL     1     -12.240   9.364  71.892  1.00  0.00     0.000 HD 
HETATM   17  O   UNL     1     -10.410   8.389  70.625  1.00  0.00    -0.192 OA 
ENDBRANCH   4   8
ENDBRANCH   3   4
TORSDOF 3
ENDMDL
MODEL      217
REMARK 921   NORMALIZED FREE ENERGY PREDICTED BY IDOCK:   -2.71 KCAL/MOL
REMARK 922        TOTAL FREE ENERGY PREDICTED BY IDOCK:   -3.63 KCAL/MOL
REMARK 923 INTER-LIGAND FREE ENERGY PREDICTED BY IDOCK:   -3.15 KCAL/MOL
REMARK 924 INTRA-LIGAND FREE ENERGY PREDICTED BY IDOCK:   -0.48 KCAL/MOL
REMARK 927      BINDING AFFINITY PREDICTED BY RF-SCORE:    0.00 PKD
ROOT
HETATM    1 CL   UNL     1     -10.094   6.554  66.699  1.00  0.00    -0.224 Cl 
HETATM    2  C   UNL     1     -10.581   6.823  68.390  1.00  0.00    -0.227 C  
HETATM    3  C   UNL     1      -9.475   7.450  69.246  1.00  0.00    -0.154 C  
ENDROOT
BRANCH   3   4
HETATM    4  N   UNL     1      -8.900   8.707  68.706  1.00  0.00    -0.138 NA 
BRANCH   4   5
HETATM    5  C   UNL     1      -7.421   8.790  68.490  1.00  0.00    -0.089 C  
HETATM    6 CL   UNL     1      -6.942   8.070  65.847  1.00  0.00    -0.057 Cl 
HETATM    7  C   UNL     1      -6.693   7.792  67.587  1.00  0.00    -0.068 C  
ENDBRANCH   4   5
BRANCH   4   8
HETATM    8  C   UNL     1      -9.744   9.726  68.153  1.00  0.00    -0.145 C  
HETATM    9  C   UNL     1      -9.778  10.098  66.858  1.00  0.00    -0.187 C  
HETATM   10  N   UNL     1     -10.591  11.079  66.360  1.00  0.00    -0.262 N  
HETATM   11  C   UNL     1     -11.483  11.778  67.108  1.00  0.00    -0.295 C  
HETATM   12  H   UNL     1     -10.523  11.299  65.367  1.00  0.00     0.000 HD 
HETATM   13  O   UNL     1     -12.192  12.656  66.629  1.00  0.00    -0.517 OA 
HETATM   14  N   UNL     1     -11.530  11.437  68.422  1.00  0.00    -0.272 N  
HETATM   15  C   UNL     1     -10.722  10.518  69.038  1.00  0.00    -0.225 C  
HETATM   16  H   UNL     1     -12.228  11.905  68.999  1.00  0.00     0.000 HD 
HETATM   17  O   UNL     1     -10.809  10.386  70.258  1.00  0.00    -0.292 OA 
ENDBRANCH   4   8
ENDBRANCH   3   4
TORSDOF 3
ENDMDL
MODEL      218
REMARK 921   NORMALIZED FREE ENERGY PREDICTED BY IDOCK:   -2.70 KCAL/MOL
REMARK 922        TOTAL FREE ENERGY PREDICTED BY IDOCK:   -3.62 KCAL/MOL
REMARK 923 INTER-LIGAND FREE ENERGY PREDICTED BY IDOCK:   -3.38 KCAL/MOL
REMARK 924 INTRA-LIGAND FREE ENERGY PREDICTED BY IDOCK:   -0.25 KCAL/MOL
REMARK 927      BINDING AFFINITY PREDICTED BY RF-SCORE:    0.00 PKD
ROOT
HETATM    1 CL   UNL     1      -9.235   8.251  72.846  1.00  0.00    -0.335 Cl 
HETATM    2  C   UNL     1      -9.699   6.644  73.459  1.00  0.00    -0.191 C  
HETATM    3  C   UNL     1     -11.136   6.250  73.098  1.00  0.00    -0.171 C  
ENDROOT
BRANCH   3   4
HETATM    4  N   UNL     1     -11.462   6.326  71.651  1.00  0.00    -0.293 NA 
BRANCH   4   5
HETATM    5  C   UNL     1     -12.601   7.193  71.213  1.00  0.00    -0.380 C  
HETATM    6 CL   UNL     1     -11.833   9.830  71.646  1.00  0.00    -0.462 Cl 
HETATM    7  C   UNL     1     -12.952   8.481  71.959  1.00  0.00    -0.371 C  
ENDBRANCH   4   5
BRANCH   4   8
HETATM    8  C   UNL     1     -10.562   5.803  70.665  1.00  0.00    -0.277 C  
HETATM    9  C   UNL     1     -10.248   4.502  70.503  1.00  0.00    -0.082 C  
HETATM   10  N   UNL     1      -9.379   4.033  69.556  1.00  0.00    -0.156 N  
HETATM   11  C   UNL     1      -8.751   4.820  68.646  1.00  0.00    -0.097 C  
HETATM   12  H   UNL     1      -9.193   3.030  69.532  1.00  0.00     0.000 HD 
HETATM   13  O   UNL     1      -7.973   4.365  67.814  1.00  0.00    -0.087 OA 
HETATM   14  N   UNL     1      -9.043   6.143  68.725  1.00  0.00    -0.126 N  
HETATM   15  C   UNL     1      -9.844   6.730  69.669  1.00  0.00    -0.165 C  
HETATM   16  H   UNL     1      -8.629   6.754  68.021  1.00  0.00     0.000 HD 
HETATM   17  O   UNL     1      -9.937   7.956  69.680  1.00  0.00    -0.184 OA 
ENDBRANCH   4   8
ENDBRANCH   3   4
TORSDOF 3
ENDMDL
MODEL      219
REMARK 921   NORMALIZED FREE ENERGY PREDICTED BY IDOCK:   -2.69 KCAL/MOL
REMARK 922        TOTAL FREE ENERGY PREDICTED BY IDOCK:   -3.61 KCAL/MOL
REMARK 923 INTER-LIGAND FREE ENERGY PREDICTED BY IDOCK:   -3.31 KCAL/MOL
REMARK 924 INTRA-LIGAND FREE ENERGY PREDICTED BY IDOCK:   -0.30 KCAL/MOL
REMARK 927      BINDING AFFINITY PREDICTED BY RF-SCORE:    0.00 PKD
ROOT
HETATM    1 CL   UNL     1      -9.632  11.924  68.511  1.00  0.00    -0.188 Cl 
HETATM    2  C   UNL     1     -11.082  10.972  68.107  1.00  0.00    -0.270 C  
HETATM    3  C   UNL     1     -10.759   9.616  67.471  1.00  0.00    -0.256 C  
ENDROOT
BRANCH   3   4
HETATM    4  N   UNL     1      -9.825   8.764  68.250  1.00  0.00    -0.159 NA 
BRANCH   4   5
HETATM    5  C   UNL     1      -8.455   8.507  67.705  1.00  0.00    -0.130 C  
HETATM    6 CL   UNL     1      -8.678   6.409  65.894  1.00  0.00    -0.155 Cl 
HETATM    7  C   UNL     1      -7.981   7.089  67.385  1.00  0.00    -0.112 C  
ENDBRANCH   4   5
BRANCH   4   8
HETATM    8  C   UNL     1     -10.115   8.406  69.609  1.00  0.00    -0.199 C  
HETATM    9  C   UNL     1     -11.109   7.589  70.008  1.00  0.00    -0.204 C  
HETATM   10  N   UNL     1     -11.366   7.270  71.314  1.00  0.00    -0.256 N  
HETATM   11  C   UNL     1     -10.631   7.718  72.363  1.00  0.00    -0.278 C  
HETATM   12  H   UNL     1     -12.159   6.659  71.510  1.00  0.00     0.000 HD 
HETATM   13  O   UNL     1     -10.894   7.417  73.522  1.00  0.00    -0.379 OA 
HETATM   14  N   UNL     1      -9.588   8.524  72.037  1.00  0.00    -0.275 N  
HETATM   15  C   UNL     1      -9.277   8.958  70.775  1.00  0.00    -0.223 C  
HETATM   16  H   UNL     1      -8.983   8.833  72.798  1.00  0.00     0.000 HD 
HETATM   17  O   UNL     1      -8.363   9.769  70.642  1.00  0.00    -0.224 OA 
ENDBRANCH   4   8
ENDBRANCH   3   4
TORSDOF 3
ENDMDL
MODEL      220
REMARK 921   NORMALIZED FREE ENERGY PREDICTED BY IDOCK:   -2.69 KCAL/MOL
REMARK 922        TOTAL FREE ENERGY PREDICTED BY IDOCK:   -3.60 KCAL/MOL
REMARK 923 INTER-LIGAND FREE ENERGY PREDICTED BY IDOCK:   -3.69 KCAL/MOL
REMARK 924 INTRA-LIGAND FREE ENERGY PREDICTED BY IDOCK:    0.08 KCAL/MOL
REMARK 927      BINDING AFFINITY PREDICTED BY RF-SCORE:    0.00 PKD
ROOT
HETATM    1 CL   UNL     1     -11.705  11.912  70.277  1.00  0.00    -0.353 Cl 
HETATM    2  C   UNL     1     -11.420  10.374  69.425  1.00  0.00    -0.227 C  
HETATM    3  C   UNL     1     -11.358  10.528  67.902  1.00  0.00    -0.222 C  
ENDROOT
BRANCH   3   4
HETATM    4  N   UNL     1     -10.384  11.536  67.412  1.00  0.00    -0.202 NA 
BRANCH   4   5
HETATM    5  C   UNL     1      -9.292  11.096  66.488  1.00  0.00    -0.180 C  
HETATM    6 CL   UNL     1      -8.487   8.568  67.322  1.00  0.00    -0.122 Cl 
HETATM    7  C   UNL     1      -8.105  10.276  66.995  1.00  0.00    -0.121 C  
ENDBRANCH   4   5
BRANCH   4   8
HETATM    8  C   UNL     1     -10.620  12.939  67.596  1.00  0.00    -0.223 C  
HETATM    9  C   UNL     1     -11.753  13.591  67.268  1.00  0.00    -0.383 C  
HETATM   10  N   UNL     1     -11.948  14.933  67.449  1.00  0.00    -0.433 N  
HETATM   11  C   UNL     1     -11.032  15.764  68.009  1.00  0.00    -0.330 C  
HETATM   12  H   UNL     1     -12.835  15.333  67.145  1.00  0.00     0.000 HD 
HETATM   13  O   UNL     1     -11.239  16.965  68.150  1.00  0.00    -0.297 OA 
HETATM   14  N   UNL     1      -9.873  15.172  68.397  1.00  0.00    -0.218 N  
HETATM   15  C   UNL     1      -9.547  13.855  68.207  1.00  0.00    -0.218 C  
HETATM   16  H   UNL     1      -9.187  15.759  68.870  1.00  0.00     0.000 HD 
HETATM   17  O   UNL     1      -8.418  13.481  68.519  1.00  0.00    -0.157 OA 
ENDBRANCH   4   8
ENDBRANCH   3   4
TORSDOF 3
ENDMDL
MODEL      221
REMARK 921   NORMALIZED FREE ENERGY PREDICTED BY IDOCK:   -2.68 KCAL/MOL
REMARK 922        TOTAL FREE ENERGY PREDICTED BY IDOCK:   -3.60 KCAL/MOL
REMARK 923 INTER-LIGAND FREE ENERGY PREDICTED BY IDOCK:   -3.24 KCAL/MOL
REMARK 924 INTRA-LIGAND FREE ENERGY PREDICTED BY IDOCK:   -0.36 KCAL/MOL
REMARK 927      BINDING AFFINITY PREDICTED BY RF-SCORE:    0.00 PKD
ROOT
HETATM    1 CL   UNL     1     -12.139  13.849  67.199  1.00  0.00    -0.446 Cl 
HETATM    2  C   UNL     1     -11.966  13.314  68.888  1.00  0.00    -0.297 C  
HETATM    3  C   UNL     1     -11.742  11.804  69.025  1.00  0.00    -0.328 C  
ENDROOT
BRANCH   3   4
HETATM    4  N   UNL     1     -10.610  11.263  68.230  1.00  0.00    -0.187 NA 
BRANCH   4   5
HETATM    5  C   UNL     1     -10.882  10.722  66.861  1.00  0.00    -0.229 C  
HETATM    6 CL   UNL     1     -10.418   7.982  66.961  1.00  0.00    -0.410 Cl 
HETATM    7  C   UNL     1     -10.045   9.583  66.277  1.00  0.00    -0.257 C  
ENDBRANCH   4   5
BRANCH   4   8
HETATM    8  C   UNL     1      -9.252  11.486  68.636  1.00  0.00    -0.132 C  
HETATM    9  C   UNL     1      -8.453  12.474  68.189  1.00  0.00    -0.180 C  
HETATM   10  N   UNL     1      -7.158  12.657  68.590  1.00  0.00    -0.093 N  
HETATM   11  C   UNL     1      -6.531  11.881  69.510  1.00  0.00    -0.113 C  
HETATM   12  H   UNL     1      -6.631  13.424  68.172  1.00  0.00     0.000 HD 
HETATM   13  O   UNL     1      -5.366  12.071  69.842  1.00  0.00    -0.074 OA 
HETATM   14  N   UNL     1      -7.285  10.879  70.033  1.00  0.00    -0.330 N  
HETATM   15  C   UNL     1      -8.565  10.565  69.660  1.00  0.00     0.043 C  
HETATM   16  H   UNL     1      -6.861  10.312  70.767  1.00  0.00     0.000 HD 
HETATM   17  O   UNL     1      -9.090   9.566  70.148  1.00  0.00    -0.208 OA 
ENDBRANCH   4   8
ENDBRANCH   3   4
TORSDOF 3
ENDMDL
MODEL      222
REMARK 921   NORMALIZED FREE ENERGY PREDICTED BY IDOCK:   -2.67 KCAL/MOL
REMARK 922        TOTAL FREE ENERGY PREDICTED BY IDOCK:   -3.58 KCAL/MOL
REMARK 923 INTER-LIGAND FREE ENERGY PREDICTED BY IDOCK:   -3.02 KCAL/MOL
REMARK 924 INTRA-LIGAND FREE ENERGY PREDICTED BY IDOCK:   -0.57 KCAL/MOL
REMARK 927      BINDING AFFINITY PREDICTED BY RF-SCORE:    0.00 PKD
ROOT
HETATM    1 CL   UNL     1      -8.489  10.972  68.661  1.00  0.00    -0.152 Cl 
HETATM    2  C   UNL     1     -10.257  11.044  68.457  1.00  0.00    -0.192 C  
HETATM    3  C   UNL     1     -10.835   9.817  67.743  1.00  0.00    -0.246 C  
ENDROOT
BRANCH   3   4
HETATM    4  N   UNL     1     -10.474   8.510  68.349  1.00  0.00    -0.200 NA 
BRANCH   4   5
HETATM    5  C   UNL     1     -10.726   8.298  69.810  1.00  0.00    -0.221 C  
HETATM    6 CL   UNL     1      -8.246   8.270  71.069  1.00  0.00    -0.107 Cl 
HETATM    7  C   UNL     1      -9.777   7.456  70.664  1.00  0.00    -0.175 C  
ENDBRANCH   4   5
BRANCH   4   8
HETATM    8  C   UNL     1     -10.139   7.384  67.527  1.00  0.00    -0.192 C  
HETATM    9  C   UNL     1     -11.010   6.466  67.065  1.00  0.00    -0.389 C  
HETATM   10  N   UNL     1     -10.660   5.396  66.286  1.00  0.00    -0.503 N  
HETATM   11  C   UNL     1      -9.395   5.149  65.862  1.00  0.00    -0.159 C  
HETATM   12  H   UNL     1     -11.395   4.746  66.008  1.00  0.00     0.000 HD 
HETATM   13  O   UNL     1      -9.116   4.176  65.169  1.00  0.00    -0.127 OA 
HETATM   14  N   UNL     1      -8.463   6.051  66.261  1.00  0.00    -0.125 N  
HETATM   15  C   UNL     1      -8.688   7.119  67.090  1.00  0.00    -0.121 C  
HETATM   16  H   UNL     1      -7.512   5.923  65.914  1.00  0.00     0.000 HD 
HETATM   17  O   UNL     1      -7.726   7.795  67.450  1.00  0.00    -0.108 OA 
ENDBRANCH   4   8
ENDBRANCH   3   4
TORSDOF 3
ENDMDL
MODEL      223
REMARK 921   NORMALIZED FREE ENERGY PREDICTED BY IDOCK:   -2.66 KCAL/MOL
REMARK 922        TOTAL FREE ENERGY PREDICTED BY IDOCK:   -3.58 KCAL/MOL
REMARK 923 INTER-LIGAND FREE ENERGY PREDICTED BY IDOCK:   -4.07 KCAL/MOL
REMARK 924 INTRA-LIGAND FREE ENERGY PREDICTED BY IDOCK:    0.49 KCAL/MOL
REMARK 927      BINDING AFFINITY PREDICTED BY RF-SCORE:    0.00 PKD
ROOT
HETATM    1 CL   UNL     1      -6.620  20.306  65.154  1.00  0.00    -0.316 Cl 
HETATM    2  C   UNL     1      -5.726  18.775  64.987  1.00  0.00    -0.252 C  
HETATM    3  C   UNL     1      -5.410  18.108  66.331  1.00  0.00    -0.157 C  
ENDROOT
BRANCH   3   4
HETATM    4  N   UNL     1      -6.584  17.886  67.212  1.00  0.00    -0.166 NA 
BRANCH   4   5
HETATM    5  C   UNL     1      -6.817  18.824  68.355  1.00  0.00    -0.249 C  
HETATM    6 CL   UNL     1      -9.494  18.588  69.069  1.00  0.00    -0.250 Cl 
HETATM    7  C   UNL     1      -8.135  19.587  68.500  1.00  0.00    -0.341 C  
ENDBRANCH   4   5
BRANCH   4   8
HETATM    8  C   UNL     1      -7.620  16.967  66.840  1.00  0.00    -0.215 C  
HETATM    9  C   UNL     1      -7.603  15.637  67.058  1.00  0.00    -0.210 C  
HETATM   10  N   UNL     1      -8.605  14.783  66.686  1.00  0.00    -0.426 N  
HETATM   11  C   UNL     1      -9.751  15.178  66.075  1.00  0.00    -0.330 C  
HETATM   12  H   UNL     1      -8.482  13.789  66.878  1.00  0.00     0.000 HD 
HETATM   13  O   UNL     1     -10.626  14.383  65.750  1.00  0.00    -0.295 OA 
HETATM   14  N   UNL     1      -9.857  16.513  65.850  1.00  0.00    -0.314 N  
HETATM   15  C   UNL     1      -8.893  17.448  66.122  1.00  0.00    -0.145 C  
HETATM   16  H   UNL     1     -10.730  16.848  65.442  1.00  0.00     0.000 HD 
HETATM   17  O   UNL     1      -9.087  18.610  65.769  1.00  0.00    -0.402 OA 
ENDBRANCH   4   8
ENDBRANCH   3   4
TORSDOF 3
ENDMDL
MODEL      224
REMARK 921   NORMALIZED FREE ENERGY PREDICTED BY IDOCK:   -2.65 KCAL/MOL
REMARK 922        TOTAL FREE ENERGY PREDICTED BY IDOCK:   -3.56 KCAL/MOL
REMARK 923 INTER-LIGAND FREE ENERGY PREDICTED BY IDOCK:   -3.17 KCAL/MOL
REMARK 924 INTRA-LIGAND FREE ENERGY PREDICTED BY IDOCK:   -0.39 KCAL/MOL
REMARK 927      BINDING AFFINITY PREDICTED BY RF-SCORE:    0.00 PKD
ROOT
HETATM    1 CL   UNL     1      -8.338   6.489  65.508  1.00  0.00    -0.145 Cl 
HETATM    2  C   UNL     1      -8.147   5.889  67.174  1.00  0.00    -0.102 C  
HETATM    3  C   UNL     1      -8.453   6.949  68.238  1.00  0.00    -0.125 C  
ENDROOT
BRANCH   3   4
HETATM    4  N   UNL     1      -9.781   7.601  68.111  1.00  0.00    -0.150 NA 
BRANCH   4   5
HETATM    5  C   UNL     1     -11.007   6.818  68.465  1.00  0.00    -0.192 C  
HETATM    6 CL   UNL     1     -11.204   6.824  71.239  1.00  0.00    -0.303 Cl 
HETATM    7  C   UNL     1     -11.048   5.928  69.708  1.00  0.00    -0.352 C  
ENDBRANCH   4   5
BRANCH   4   8
HETATM    8  C   UNL     1      -9.890   9.017  67.911  1.00  0.00    -0.171 C  
HETATM    9  C   UNL     1     -10.279   9.619  66.770  1.00  0.00    -0.239 C  
HETATM   10  N   UNL     1     -10.367  10.975  66.607  1.00  0.00    -0.232 N  
HETATM   11  C   UNL     1     -10.099  11.876  67.586  1.00  0.00    -0.191 C  
HETATM   12  H   UNL     1     -10.651  11.329  65.694  1.00  0.00     0.000 HD 
HETATM   13  O   UNL     1     -10.183  13.086  67.402  1.00  0.00    -0.228 OA 
HETATM   14  N   UNL     1      -9.730  11.343  68.779  1.00  0.00    -0.321 N  
HETATM   15  C   UNL     1      -9.548  10.009  69.036  1.00  0.00    -0.196 C  
HETATM   16  H   UNL     1      -9.574  11.992  69.550  1.00  0.00     0.000 HD 
HETATM   17  O   UNL     1      -9.112   9.679  70.137  1.00  0.00    -0.222 OA 
ENDBRANCH   4   8
ENDBRANCH   3   4
TORSDOF 3
ENDMDL
MODEL      225
REMARK 921   NORMALIZED FREE ENERGY PREDICTED BY IDOCK:   -2.64 KCAL/MOL
REMARK 922        TOTAL FREE ENERGY PREDICTED BY IDOCK:   -3.55 KCAL/MOL
REMARK 923 INTER-LIGAND FREE ENERGY PREDICTED BY IDOCK:   -3.84 KCAL/MOL
REMARK 924 INTRA-LIGAND FREE ENERGY PREDICTED BY IDOCK:    0.29 KCAL/MOL
REMARK 927      BINDING AFFINITY PREDICTED BY RF-SCORE:    0.00 PKD
ROOT
HETATM    1 CL   UNL     1      -7.841  11.082  68.491  1.00  0.00    -0.121 Cl 
HETATM    2  C   UNL     1      -7.573  11.295  66.743  1.00  0.00    -0.151 C  
HETATM    3  C   UNL     1      -8.850  11.137  65.911  1.00  0.00    -0.186 C  
ENDROOT
BRANCH   3   4
HETATM    4  N   UNL     1      -9.985  11.998  66.332  1.00  0.00    -0.214 NA 
BRANCH   4   5
HETATM    5  C   UNL     1     -11.183  11.357  66.961  1.00  0.00    -0.283 C  
HETATM    6 CL   UNL     1     -11.659  12.691  69.354  1.00  0.00    -0.363 Cl 
HETATM    7  C   UNL     1     -11.288  11.186  68.477  1.00  0.00    -0.282 C  
ENDBRANCH   4   5
BRANCH   4   8
HETATM    8  C   UNL     1      -9.846  13.424  66.387  1.00  0.00    -0.296 C  
HETATM    9  C   UNL     1      -8.763  14.089  66.835  1.00  0.00    -0.164 C  
HETATM   10  N   UNL     1      -8.662  15.453  66.881  1.00  0.00    -0.234 N  
HETATM   11  C   UNL     1      -9.632  16.301  66.453  1.00  0.00    -0.291 C  
HETATM   12  H   UNL     1      -7.806  15.857  67.260  1.00  0.00     0.000 HD 
HETATM   13  O   UNL     1      -9.510  17.520  66.516  1.00  0.00    -0.258 OA 
HETATM   14  N   UNL     1     -10.746  15.703  65.957  1.00  0.00    -0.324 N  
HETATM   15  C   UNL     1     -10.980  14.354  65.921  1.00  0.00    -0.312 C  
HETATM   16  H   UNL     1     -11.471  16.312  65.577  1.00  0.00     0.000 HD 
HETATM   17  O   UNL     1     -12.079  13.960  65.535  1.00  0.00    -0.363 OA 
ENDBRANCH   4   8
ENDBRANCH   3   4
TORSDOF 3
ENDMDL
MODEL      226
REMARK 921   NORMALIZED FREE ENERGY PREDICTED BY IDOCK:   -2.64 KCAL/MOL
REMARK 922        TOTAL FREE ENERGY PREDICTED BY IDOCK:   -3.55 KCAL/MOL
REMARK 923 INTER-LIGAND FREE ENERGY PREDICTED BY IDOCK:   -3.12 KCAL/MOL
REMARK 924 INTRA-LIGAND FREE ENERGY PREDICTED BY IDOCK:   -0.43 KCAL/MOL
REMARK 927      BINDING AFFINITY PREDICTED BY RF-SCORE:    0.00 PKD
ROOT
HETATM    1 CL   UNL     1      -8.365   3.885  69.528  1.00  0.00    -0.071 Cl 
HETATM    2  C   UNL     1      -8.685   4.222  71.248  1.00  0.00    -0.102 C  
HETATM    3  C   UNL     1      -8.765   5.719  71.567  1.00  0.00    -0.133 C  
ENDROOT
BRANCH   3   4
HETATM    4  N   UNL     1      -9.729   6.486  70.738  1.00  0.00    -0.179 NA 
BRANCH   4   5
HETATM    5  C   UNL     1     -11.175   6.102  70.772  1.00  0.00    -0.306 C  
HETATM    6 CL   UNL     1     -12.555   8.222  71.928  1.00  0.00    -0.355 Cl 
HETATM    7  C   UNL     1     -12.077   6.507  71.939  1.00  0.00    -0.339 C  
ENDBRANCH   4   5
BRANCH   4   8
HETATM    8  C   UNL     1      -9.349   7.726  70.125  1.00  0.00    -0.153 C  
HETATM    9  C   UNL     1      -9.118   7.910  68.810  1.00  0.00    -0.140 C  
HETATM   10  N   UNL     1      -8.750   9.104  68.253  1.00  0.00    -0.129 N  
HETATM   11  C   UNL     1      -8.601  10.255  68.957  1.00  0.00    -0.162 C  
HETATM   12  H   UNL     1      -8.577   9.131  67.249  1.00  0.00     0.000 HD 
HETATM   13  O   UNL     1      -8.263  11.308  68.425  1.00  0.00    -0.135 OA 
HETATM   14  N   UNL     1      -8.849  10.157  70.288  1.00  0.00    -0.293 N  
HETATM   15  C   UNL     1      -9.160   9.004  70.959  1.00  0.00    -0.257 C  
HETATM   16  H   UNL     1      -8.798  11.016  70.836  1.00  0.00     0.000 HD 
HETATM   17  O   UNL     1      -9.258   9.047  72.185  1.00  0.00    -0.365 OA 
ENDBRANCH   4   8
ENDBRANCH   3   4
TORSDOF 3
ENDMDL
MODEL      227
REMARK 921   NORMALIZED FREE ENERGY PREDICTED BY IDOCK:   -2.62 KCAL/MOL
REMARK 922        TOTAL FREE ENERGY PREDICTED BY IDOCK:   -3.52 KCAL/MOL
REMARK 923 INTER-LIGAND FREE ENERGY PREDICTED BY IDOCK:   -3.08 KCAL/MOL
REMARK 924 INTRA-LIGAND FREE ENERGY PREDICTED BY IDOCK:   -0.45 KCAL/MOL
REMARK 927      BINDING AFFINITY PREDICTED BY RF-SCORE:    0.00 PKD
ROOT
HETATM    1 CL   UNL     1     -10.345   7.257  67.310  1.00  0.00    -0.318 Cl 
HETATM    2  C   UNL     1      -8.652   7.241  67.861  1.00  0.00    -0.120 C  
HETATM    3  C   UNL     1      -7.939   8.584  67.664  1.00  0.00    -0.107 C  
ENDROOT
BRANCH   3   4
HETATM    4  N   UNL     1      -8.629   9.754  68.264  1.00  0.00    -0.118 NA 
BRANCH   4   5
HETATM    5  C   UNL     1      -8.526   9.975  69.741  1.00  0.00    -0.172 C  
HETATM    6 CL   UNL     1      -5.878  10.626  70.285  1.00  0.00    -0.083 Cl 
HETATM    7  C   UNL     1      -7.280   9.554  70.521  1.00  0.00    -0.135 C  
ENDBRANCH   4   5
BRANCH   4   8
HETATM    8  C   UNL     1      -9.160  10.799  67.436  1.00  0.00    -0.143 C  
HETATM    9  C   UNL     1     -10.432  10.880  66.999  1.00  0.00    -0.244 C  
HETATM   10  N   UNL     1     -10.909  11.887  66.204  1.00  0.00    -0.281 N  
HETATM   11  C   UNL     1     -10.164  12.940  65.784  1.00  0.00    -0.288 C  
HETATM   12  H   UNL     1     -11.884  11.842  65.910  1.00  0.00     0.000 HD 
HETATM   13  O   UNL     1     -10.623  13.822  65.066  1.00  0.00    -0.341 OA 
HETATM   14  N   UNL     1      -8.875  12.945  66.212  1.00  0.00    -0.431 N  
HETATM   15  C   UNL     1      -8.276  11.962  66.954  1.00  0.00    -0.157 C  
HETATM   16  H   UNL     1      -8.304  13.751  65.958  1.00  0.00     0.000 HD 
HETATM   17  O   UNL     1      -7.071  12.052  67.183  1.00  0.00    -0.137 OA 
ENDBRANCH   4   8
ENDBRANCH   3   4
TORSDOF 3
ENDMDL
MODEL      228
REMARK 921   NORMALIZED FREE ENERGY PREDICTED BY IDOCK:   -2.61 KCAL/MOL
REMARK 922        TOTAL FREE ENERGY PREDICTED BY IDOCK:   -3.51 KCAL/MOL
REMARK 923 INTER-LIGAND FREE ENERGY PREDICTED BY IDOCK:   -3.40 KCAL/MOL
REMARK 924 INTRA-LIGAND FREE ENERGY PREDICTED BY IDOCK:   -0.12 KCAL/MOL
REMARK 927      BINDING AFFINITY PREDICTED BY RF-SCORE:    0.00 PKD
ROOT
HETATM    1 CL   UNL     1      -9.694   8.173  72.708  1.00  0.00    -0.343 Cl 
HETATM    2  C   UNL     1     -11.441   8.255  72.374  1.00  0.00    -0.394 C  
HETATM    3  C   UNL     1     -11.763   8.617  70.920  1.00  0.00    -0.252 C  
ENDROOT
BRANCH   3   4
HETATM    4  N   UNL     1     -11.119   7.751  69.900  1.00  0.00    -0.192 NA 
BRANCH   4   5
HETATM    5  C   UNL     1     -11.527   6.314  69.812  1.00  0.00    -0.379 C  
HETATM    6 CL   UNL     1     -10.037   4.927  71.707  1.00  0.00    -0.258 Cl 
HETATM    7  C   UNL     1     -10.511   5.187  70.011  1.00  0.00    -0.235 C  
ENDBRANCH   4   5
BRANCH   4   8
HETATM    8  C   UNL     1     -10.323   8.318  68.850  1.00  0.00    -0.215 C  
HETATM    9  C   UNL     1     -10.599   8.246  67.533  1.00  0.00    -0.221 C  
HETATM   10  N   UNL     1      -9.816   8.791  66.552  1.00  0.00    -0.258 N  
HETATM   11  C   UNL     1      -8.680   9.495  66.792  1.00  0.00    -0.127 C  
HETATM   12  H   UNL     1     -10.104   8.661  65.583  1.00  0.00     0.000 HD 
HETATM   13  O   UNL     1      -7.999   9.965  65.886  1.00  0.00    -0.109 OA 
HETATM   14  N   UNL     1      -8.352   9.638  68.101  1.00  0.00    -0.117 N  
HETATM   15  C   UNL     1      -9.025   9.083  69.158  1.00  0.00    -0.140 C  
HETATM   16  H   UNL     1      -7.534  10.208  68.317  1.00  0.00     0.000 HD 
HETATM   17  O   UNL     1      -8.553   9.213  70.287  1.00  0.00    -0.157 OA 
ENDBRANCH   4   8
ENDBRANCH   3   4
TORSDOF 3
ENDMDL
MODEL      229
REMARK 921   NORMALIZED FREE ENERGY PREDICTED BY IDOCK:   -2.59 KCAL/MOL
REMARK 922        TOTAL FREE ENERGY PREDICTED BY IDOCK:   -3.49 KCAL/MOL
REMARK 923 INTER-LIGAND FREE ENERGY PREDICTED BY IDOCK:   -3.45 KCAL/MOL
REMARK 924 INTRA-LIGAND FREE ENERGY PREDICTED BY IDOCK:   -0.04 KCAL/MOL
REMARK 927      BINDING AFFINITY PREDICTED BY RF-SCORE:    0.00 PKD
ROOT
HETATM    1 CL   UNL     1     -10.670  13.334  68.471  1.00  0.00    -0.270 Cl 
HETATM    2  C   UNL     1     -11.881  12.031  68.371  1.00  0.00    -0.300 C  
HETATM    3  C   UNL     1     -11.280  10.674  67.990  1.00  0.00    -0.307 C  
ENDROOT
BRANCH   3   4
HETATM    4  N   UNL     1     -10.157  10.221  68.851  1.00  0.00    -0.193 NA 
BRANCH   4   5
HETATM    5  C   UNL     1      -8.816  10.865  68.684  1.00  0.00    -0.158 C  
HETATM    6 CL   UNL     1      -8.495  11.389  65.972  1.00  0.00    -0.113 Cl 
HETATM    7  C   UNL     1      -7.945  10.579  67.460  1.00  0.00    -0.107 C  
ENDBRANCH   4   5
BRANCH   4   8
HETATM    8  C   UNL     1     -10.394   9.384  69.990  1.00  0.00    -0.233 C  
HETATM    9  C   UNL     1     -11.146   9.711  71.060  1.00  0.00    -0.368 C  
HETATM   10  N   UNL     1     -11.349   8.892  72.137  1.00  0.00    -0.346 N  
HETATM   11  C   UNL     1     -10.838   7.639  72.245  1.00  0.00    -0.267 C  
HETATM   12  H   UNL     1     -11.918   9.245  72.906  1.00  0.00     0.000 HD 
HETATM   13  O   UNL     1     -11.036   6.935  73.229  1.00  0.00    -0.286 OA 
HETATM   14  N   UNL     1     -10.093   7.225  71.189  1.00  0.00    -0.187 N  
HETATM   15  C   UNL     1      -9.773   7.980  70.091  1.00  0.00    -0.176 C  
HETATM   16  H   UNL     1      -9.740   6.268  71.215  1.00  0.00     0.000 HD 
HETATM   17  O   UNL     1      -9.002   7.506  69.258  1.00  0.00    -0.136 OA 
ENDBRANCH   4   8
ENDBRANCH   3   4
TORSDOF 3
ENDMDL
MODEL      230
REMARK 921   NORMALIZED FREE ENERGY PREDICTED BY IDOCK:   -2.59 KCAL/MOL
REMARK 922        TOTAL FREE ENERGY PREDICTED BY IDOCK:   -3.49 KCAL/MOL
REMARK 923 INTER-LIGAND FREE ENERGY PREDICTED BY IDOCK:   -3.92 KCAL/MOL
REMARK 924 INTRA-LIGAND FREE ENERGY PREDICTED BY IDOCK:    0.44 KCAL/MOL
REMARK 927      BINDING AFFINITY PREDICTED BY RF-SCORE:    0.00 PKD
ROOT
HETATM    1 CL   UNL     1      -9.663  10.179  65.225  1.00  0.00    -0.341 Cl 
HETATM    2  C   UNL     1     -10.034  11.911  65.049  1.00  0.00    -0.248 C  
HETATM    3  C   UNL     1     -10.875  12.471  66.201  1.00  0.00    -0.272 C  
ENDROOT
BRANCH   3   4
HETATM    4  N   UNL     1     -10.319  12.234  67.557  1.00  0.00    -0.202 NA 
BRANCH   4   5
HETATM    5  C   UNL     1      -8.999  11.538  67.685  1.00  0.00    -0.160 C  
HETATM    6 CL   UNL     1      -7.180  13.411  68.642  1.00  0.00    -0.105 Cl 
HETATM    7  C   UNL     1      -7.688  12.262  67.380  1.00  0.00    -0.165 C  
ENDBRANCH   4   5
BRANCH   4   8
HETATM    8  C   UNL     1     -10.884  12.877  68.708  1.00  0.00    -0.242 C  
HETATM    9  C   UNL     1     -10.568  14.110  69.149  1.00  0.00    -0.158 C  
HETATM   10  N   UNL     1     -11.120  14.696  70.256  1.00  0.00    -0.457 N  
HETATM   11  C   UNL     1     -12.074  14.115  71.026  1.00  0.00    -0.335 C  
HETATM   12  H   UNL     1     -10.794  15.627  70.517  1.00  0.00     0.000 HD 
HETATM   13  O   UNL     1     -12.542  14.668  72.016  1.00  0.00    -0.317 OA 
HETATM   14  N   UNL     1     -12.469  12.879  70.625  1.00  0.00    -0.297 N  
HETATM   15  C   UNL     1     -11.942  12.174  69.575  1.00  0.00    -0.275 C  
HETATM   16  H   UNL     1     -13.223  12.438  71.151  1.00  0.00     0.000 HD 
HETATM   17  O   UNL     1     -12.329  11.021  69.390  1.00  0.00    -0.348 OA 
ENDBRANCH   4   8
ENDBRANCH   3   4
TORSDOF 3
ENDMDL
MODEL      231
REMARK 921   NORMALIZED FREE ENERGY PREDICTED BY IDOCK:   -2.58 KCAL/MOL
REMARK 922        TOTAL FREE ENERGY PREDICTED BY IDOCK:   -3.48 KCAL/MOL
REMARK 923 INTER-LIGAND FREE ENERGY PREDICTED BY IDOCK:   -3.39 KCAL/MOL
REMARK 924 INTRA-LIGAND FREE ENERGY PREDICTED BY IDOCK:   -0.10 KCAL/MOL
REMARK 927      BINDING AFFINITY PREDICTED BY RF-SCORE:    0.00 PKD
ROOT
HETATM    1 CL   UNL     1      -9.011   5.913  65.654  1.00  0.00    -0.137 Cl 
HETATM    2  C   UNL     1      -9.968   4.587  66.360  1.00  0.00    -0.245 C  
HETATM    3  C   UNL     1      -9.332   3.985  67.618  1.00  0.00    -0.181 C  
ENDROOT
BRANCH   3   4
HETATM    4  N   UNL     1      -9.005   4.964  68.686  1.00  0.00    -0.102 NA 
BRANCH   4   5
HETATM    5  C   UNL     1      -7.621   5.532  68.746  1.00  0.00    -0.083 C  
HETATM    6 CL   UNL     1      -7.678   7.625  70.576  1.00  0.00    -0.088 Cl 
HETATM    7  C   UNL     1      -7.386   7.032  68.923  1.00  0.00    -0.093 C  
ENDBRANCH   4   5
BRANCH   4   8
HETATM    8  C   UNL     1     -10.040   5.560  69.481  1.00  0.00    -0.234 C  
HETATM    9  C   UNL     1     -10.987   6.404  69.027  1.00  0.00    -0.348 C  
HETATM   10  N   UNL     1     -11.959   6.963  69.812  1.00  0.00    -0.610 N  
HETATM   11  C   UNL     1     -12.103   6.710  71.138  1.00  0.00    -0.335 C  
HETATM   12  H   UNL     1     -12.616   7.608  69.373  1.00  0.00     0.000 HD 
HETATM   13  O   UNL     1     -12.983   7.234  71.812  1.00  0.00    -0.345 OA 
HETATM   14  N   UNL     1     -11.202   5.841  71.662  1.00  0.00    -0.234 N  
HETATM   15  C   UNL     1     -10.153   5.273  70.988  1.00  0.00    -0.221 C  
HETATM   16  H   UNL     1     -11.316   5.588  72.644  1.00  0.00     0.000 HD 
HETATM   17  O   UNL     1      -9.355   4.582  71.619  1.00  0.00    -0.130 OA 
ENDBRANCH   4   8
ENDBRANCH   3   4
TORSDOF 3
ENDMDL
MODEL      232
REMARK 921   NORMALIZED FREE ENERGY PREDICTED BY IDOCK:   -2.56 KCAL/MOL
REMARK 922        TOTAL FREE ENERGY PREDICTED BY IDOCK:   -3.46 KCAL/MOL
REMARK 923 INTER-LIGAND FREE ENERGY PREDICTED BY IDOCK:   -3.13 KCAL/MOL
REMARK 924 INTRA-LIGAND FREE ENERGY PREDICTED BY IDOCK:   -0.33 KCAL/MOL
REMARK 927      BINDING AFFINITY PREDICTED BY RF-SCORE:    0.00 PKD
ROOT
HETATM    1 CL   UNL     1      -9.125   5.154  65.082  1.00  0.00    -0.138 Cl 
HETATM    2  C   UNL     1     -10.181   5.044  66.512  1.00  0.00    -0.271 C  
HETATM    3  C   UNL     1      -9.473   5.421  67.818  1.00  0.00    -0.120 C  
ENDROOT
BRANCH   3   4
HETATM    4  N   UNL     1      -8.810   6.750  67.811  1.00  0.00    -0.119 NA 
BRANCH   4   5
HETATM    5  C   UNL     1      -7.318   6.812  67.707  1.00  0.00    -0.096 C  
HETATM    6 CL   UNL     1      -6.412   4.197  67.435  1.00  0.00    -0.041 Cl 
HETATM    7  C   UNL     1      -6.433   5.733  68.334  1.00  0.00    -0.046 C  
ENDBRANCH   4   5
BRANCH   4   8
HETATM    8  C   UNL     1      -9.573   7.953  67.642  1.00  0.00    -0.150 C  
HETATM    9  C   UNL     1      -9.616   8.702  66.523  1.00  0.00    -0.237 C  
HETATM   10  N   UNL     1     -10.348   9.850  66.393  1.00  0.00    -0.208 N  
HETATM   11  C   UNL     1     -11.143  10.358  67.369  1.00  0.00    -0.226 C  
HETATM   12  H   UNL     1     -10.293  10.355  65.508  1.00  0.00     0.000 HD 
HETATM   13  O   UNL     1     -11.782  11.394  67.219  1.00  0.00    -0.577 OA 
HETATM   14  N   UNL     1     -11.178   9.639  68.520  1.00  0.00    -0.494 N  
HETATM   15  C   UNL     1     -10.439   8.514  68.782  1.00  0.00    -0.184 C  
HETATM   16  H   UNL     1     -11.807   9.964  69.253  1.00  0.00     0.000 HD 
HETATM   17  O   UNL     1     -10.496   8.025  69.909  1.00  0.00    -0.223 OA 
ENDBRANCH   4   8
ENDBRANCH   3   4
TORSDOF 3
ENDMDL
MODEL      233
REMARK 921   NORMALIZED FREE ENERGY PREDICTED BY IDOCK:   -2.56 KCAL/MOL
REMARK 922        TOTAL FREE ENERGY PREDICTED BY IDOCK:   -3.45 KCAL/MOL
REMARK 923 INTER-LIGAND FREE ENERGY PREDICTED BY IDOCK:   -3.16 KCAL/MOL
REMARK 924 INTRA-LIGAND FREE ENERGY PREDICTED BY IDOCK:   -0.29 KCAL/MOL
REMARK 927      BINDING AFFINITY PREDICTED BY RF-SCORE:    0.00 PKD
ROOT
HETATM    1 CL   UNL     1      -8.768  11.023  68.097  1.00  0.00    -0.135 Cl 
HETATM    2  C   UNL     1     -10.541  10.974  67.941  1.00  0.00    -0.205 C  
HETATM    3  C   UNL     1     -11.157   9.663  68.443  1.00  0.00    -0.037 C  
ENDROOT
BRANCH   3   4
HETATM    4  N   UNL     1     -10.785   9.285  69.830  1.00  0.00    -0.227 NA 
BRANCH   4   5
HETATM    5  C   UNL     1     -11.144  10.210  70.951  1.00  0.00    -0.253 C  
HETATM    6 CL   UNL     1     -13.707   9.524  71.784  1.00  0.00    -0.405 Cl 
HETATM    7  C   UNL     1     -12.572  10.728  71.126  1.00  0.00    -0.428 C  
ENDBRANCH   4   5
BRANCH   4   8
HETATM    8  C   UNL     1     -10.332   7.959  70.135  1.00  0.00    -0.215 C  
HETATM    9  C   UNL     1     -11.010   6.822  69.880  1.00  0.00    -0.291 C  
HETATM   10  N   UNL     1     -10.554   5.570  70.190  1.00  0.00    -0.302 N  
HETATM   11  C   UNL     1      -9.351   5.320  70.766  1.00  0.00    -0.159 C  
HETATM   12  H   UNL     1     -11.156   4.775  69.974  1.00  0.00     0.000 HD 
HETATM   13  O   UNL     1      -8.978   4.184  71.035  1.00  0.00    -0.100 OA 
HETATM   14  N   UNL     1      -8.594   6.418  71.025  1.00  0.00    -0.131 N  
HETATM   15  C   UNL     1      -8.975   7.717  70.817  1.00  0.00    -0.148 C  
HETATM   16  H   UNL     1      -7.662   6.260  71.408  1.00  0.00     0.000 HD 
HETATM   17  O   UNL     1      -8.224   8.616  71.195  1.00  0.00    -0.124 OA 
ENDBRANCH   4   8
ENDBRANCH   3   4
TORSDOF 3
ENDMDL
MODEL      234
REMARK 921   NORMALIZED FREE ENERGY PREDICTED BY IDOCK:   -2.55 KCAL/MOL
REMARK 922        TOTAL FREE ENERGY PREDICTED BY IDOCK:   -3.44 KCAL/MOL
REMARK 923 INTER-LIGAND FREE ENERGY PREDICTED BY IDOCK:   -3.12 KCAL/MOL
REMARK 924 INTRA-LIGAND FREE ENERGY PREDICTED BY IDOCK:   -0.32 KCAL/MOL
REMARK 927      BINDING AFFINITY PREDICTED BY RF-SCORE:    0.00 PKD
ROOT
HETATM    1 CL   UNL     1      -8.661   9.668  65.460  1.00  0.00    -0.149 Cl 
HETATM    2  C   UNL     1     -10.085  10.714  65.237  1.00  0.00    -0.297 C  
HETATM    3  C   UNL     1     -10.897  10.914  66.521  1.00  0.00    -0.171 C  
ENDROOT
BRANCH   3   4
HETATM    4  N   UNL     1     -10.117  11.405  67.686  1.00  0.00    -0.178 NA 
BRANCH   4   5
HETATM    5  C   UNL     1     -10.083  10.576  68.933  1.00  0.00    -0.202 C  
HETATM    6 CL   UNL     1      -9.644   7.945  68.150  1.00  0.00    -0.157 Cl 
HETATM    7  C   UNL     1     -10.661   9.161  68.960  1.00  0.00    -0.199 C  
ENDBRANCH   4   5
BRANCH   4   8
HETATM    8  C   UNL     1      -9.205  12.503  67.552  1.00  0.00    -0.188 C  
HETATM    9  C   UNL     1      -7.867  12.398  67.424  1.00  0.00    -0.174 C  
HETATM   10  N   UNL     1      -7.020  13.466  67.304  1.00  0.00    -0.330 N  
HETATM   11  C   UNL     1      -7.429  14.759  67.271  1.00  0.00    -0.141 C  
HETATM   12  H   UNL     1      -6.020  13.277  67.236  1.00  0.00     0.000 HD 
HETATM   13  O   UNL     1      -6.640  15.693  67.168  1.00  0.00    -0.269 OA 
HETATM   14  N   UNL     1      -8.771  14.945  67.362  1.00  0.00    -0.183 N  
HETATM   15  C   UNL     1      -9.703  13.958  67.548  1.00  0.00    -0.232 C  
HETATM   16  H   UNL     1      -9.115  15.902  67.285  1.00  0.00     0.000 HD 
HETATM   17  O   UNL     1     -10.877  14.284  67.716  1.00  0.00    -0.248 OA 
ENDBRANCH   4   8
ENDBRANCH   3   4
TORSDOF 3
ENDMDL
MODEL      235
REMARK 921   NORMALIZED FREE ENERGY PREDICTED BY IDOCK:   -2.52 KCAL/MOL
REMARK 922        TOTAL FREE ENERGY PREDICTED BY IDOCK:   -3.41 KCAL/MOL
REMARK 923 INTER-LIGAND FREE ENERGY PREDICTED BY IDOCK:   -3.07 KCAL/MOL
REMARK 924 INTRA-LIGAND FREE ENERGY PREDICTED BY IDOCK:   -0.34 KCAL/MOL
REMARK 927      BINDING AFFINITY PREDICTED BY RF-SCORE:    0.00 PKD
ROOT
HETATM    1 CL   UNL     1      -9.324   4.370  68.243  1.00  0.00    -0.183 Cl 
HETATM    2  C   UNL     1     -10.508   5.605  67.747  1.00  0.00    -0.211 C  
HETATM    3  C   UNL     1     -11.189   6.300  68.930  1.00  0.00    -0.309 C  
ENDROOT
BRANCH   3   4
HETATM    4  N   UNL     1     -10.263   6.894  69.928  1.00  0.00    -0.195 NA 
BRANCH   4   5
HETATM    5  C   UNL     1      -9.885   6.089  71.132  1.00  0.00    -0.179 C  
HETATM    6 CL   UNL     1     -10.111   7.767  73.338  1.00  0.00    -0.372 Cl 
HETATM    7  C   UNL     1      -9.119   6.716  72.297  1.00  0.00    -0.137 C  
ENDBRANCH   4   5
BRANCH   4   8
HETATM    8  C   UNL     1      -9.536   8.095  69.633  1.00  0.00    -0.159 C  
HETATM    9  C   UNL     1      -8.280   8.150  69.147  1.00  0.00    -0.123 C  
HETATM   10  N   UNL     1      -7.608   9.312  68.882  1.00  0.00    -0.075 N  
HETATM   11  C   UNL     1      -8.138  10.550  69.050  1.00  0.00    -0.143 C  
HETATM   12  H   UNL     1      -6.651   9.243  68.536  1.00  0.00     0.000 HD 
HETATM   13  O   UNL     1      -7.503  11.571  68.808  1.00  0.00    -0.110 OA 
HETATM   14  N   UNL     1      -9.415  10.576  69.508  1.00  0.00    -0.399 N  
HETATM   15  C   UNL     1     -10.158   9.482  69.866  1.00  0.00    -0.232 C  
HETATM   16  H   UNL     1      -9.861  11.490  69.594  1.00  0.00     0.000 HD 
HETATM   17  O   UNL     1     -11.269   9.664  70.362  1.00  0.00    -0.248 OA 
ENDBRANCH   4   8
ENDBRANCH   3   4
TORSDOF 3
ENDMDL
MODEL      236
REMARK 921   NORMALIZED FREE ENERGY PREDICTED BY IDOCK:   -2.47 KCAL/MOL
REMARK 922        TOTAL FREE ENERGY PREDICTED BY IDOCK:   -3.35 KCAL/MOL
REMARK 923 INTER-LIGAND FREE ENERGY PREDICTED BY IDOCK:   -3.30 KCAL/MOL
REMARK 924 INTRA-LIGAND FREE ENERGY PREDICTED BY IDOCK:   -0.05 KCAL/MOL
REMARK 927      BINDING AFFINITY PREDICTED BY RF-SCORE:    0.00 PKD
ROOT
HETATM    1 CL   UNL     1     -12.238  12.786  65.197  1.00  0.00    -0.497 Cl 
HETATM    2  C   UNL     1     -12.646  14.150  66.267  1.00  0.00    -0.260 C  
HETATM    3  C   UNL     1     -12.282  13.900  67.734  1.00  0.00    -0.182 C  
ENDROOT
BRANCH   3   4
HETATM    4  N   UNL     1     -10.869  13.508  67.972  1.00  0.00    -0.244 NA 
BRANCH   4   5
HETATM    5  C   UNL     1     -10.487  12.067  67.836  1.00  0.00    -0.202 C  
HETATM    6 CL   UNL     1      -7.784  11.879  68.459  1.00  0.00    -0.133 Cl 
HETATM    7  C   UNL     1      -9.116  11.657  67.298  1.00  0.00    -0.167 C  
ENDBRANCH   4   5
BRANCH   4   8
HETATM    8  C   UNL     1      -9.837  14.498  68.069  1.00  0.00    -0.222 C  
HETATM    9  C   UNL     1      -9.423  15.089  69.208  1.00  0.00    -0.170 C  
HETATM   10  N   UNL     1      -8.439  16.037  69.269  1.00  0.00    -0.251 N  
HETATM   11  C   UNL     1      -7.740  16.476  68.191  1.00  0.00    -0.166 C  
HETATM   12  H   UNL     1      -8.217  16.438  70.180  1.00  0.00     0.000 HD 
HETATM   13  O   UNL     1      -6.867  17.333  68.283  1.00  0.00    -0.172 OA 
HETATM   14  N   UNL     1      -8.078  15.902  67.008  1.00  0.00    -0.206 N  
HETATM   15  C   UNL     1      -9.086  14.993  66.821  1.00  0.00    -0.262 C  
HETATM   16  H   UNL     1      -7.534  16.170  66.188  1.00  0.00     0.000 HD 
HETATM   17  O   UNL     1      -9.346  14.635  65.674  1.00  0.00    -0.169 OA 
ENDBRANCH   4   8
ENDBRANCH   3   4
TORSDOF 3
ENDMDL
MODEL      237
REMARK 921   NORMALIZED FREE ENERGY PREDICTED BY IDOCK:   -2.46 KCAL/MOL
REMARK 922        TOTAL FREE ENERGY PREDICTED BY IDOCK:   -3.34 KCAL/MOL
REMARK 923 INTER-LIGAND FREE ENERGY PREDICTED BY IDOCK:   -2.86 KCAL/MOL
REMARK 924 INTRA-LIGAND FREE ENERGY PREDICTED BY IDOCK:   -0.48 KCAL/MOL
REMARK 927      BINDING AFFINITY PREDICTED BY RF-SCORE:    0.00 PKD
ROOT
HETATM    1 CL   UNL     1      -6.833   6.699  69.019  1.00  0.00    -0.056 Cl 
HETATM    2  C   UNL     1      -6.227   5.594  70.277  1.00  0.00    -0.027 C  
HETATM    3  C   UNL     1      -7.124   5.538  71.519  1.00  0.00    -0.072 C  
ENDROOT
BRANCH   3   4
HETATM    4  N   UNL     1      -8.550   5.224  71.249  1.00  0.00    -0.127 NA 
BRANCH   4   5
HETATM    5  C   UNL     1      -8.920   3.828  70.856  1.00  0.00    -0.092 C  
HETATM    6 CL   UNL     1      -8.089   3.475  68.225  1.00  0.00    -0.076 Cl 
HETATM    7  C   UNL     1      -9.392   3.501  69.438  1.00  0.00    -0.173 C  
ENDBRANCH   4   5
BRANCH   4   8
HETATM    8  C   UNL     1      -9.588   6.148  71.604  1.00  0.00    -0.151 C  
HETATM    9  C   UNL     1     -10.061   6.353  72.850  1.00  0.00    -0.183 C  
HETATM   10  N   UNL     1     -11.058   7.238  73.158  1.00  0.00    -0.526 N  
HETATM   11  C   UNL     1     -11.671   8.037  72.249  1.00  0.00    -0.371 C  
HETATM   12  H   UNL     1     -11.358   7.300  74.131  1.00  0.00     0.000 HD 
HETATM   13  O   UNL     1     -12.567   8.815  72.561  1.00  0.00    -0.391 OA 
HETATM   14  N   UNL     1     -11.225   7.911  70.973  1.00  0.00    -0.265 N  
HETATM   15  C   UNL     1     -10.281   7.017  70.541  1.00  0.00    -0.196 C  
HETATM   16  H   UNL     1     -11.628   8.537  70.275  1.00  0.00     0.000 HD 
HETATM   17  O   UNL     1     -10.049   6.945  69.335  1.00  0.00    -0.161 OA 
ENDBRANCH   4   8
ENDBRANCH   3   4
TORSDOF 3
ENDMDL
MODEL      238
REMARK 921   NORMALIZED FREE ENERGY PREDICTED BY IDOCK:   -2.45 KCAL/MOL
REMARK 922        TOTAL FREE ENERGY PREDICTED BY IDOCK:   -3.33 KCAL/MOL
REMARK 923 INTER-LIGAND FREE ENERGY PREDICTED BY IDOCK:   -3.24 KCAL/MOL
REMARK 924 INTRA-LIGAND FREE ENERGY PREDICTED BY IDOCK:   -0.09 KCAL/MOL
REMARK 927      BINDING AFFINITY PREDICTED BY RF-SCORE:    0.00 PKD
ROOT
HETATM    1 CL   UNL     1      -8.880   5.171  65.146  1.00  0.00    -0.154 Cl 
HETATM    2  C   UNL     1      -9.930   4.039  66.034  1.00  0.00    -0.124 C  
HETATM    3  C   UNL     1      -9.353   3.615  67.389  1.00  0.00    -0.203 C  
ENDROOT
BRANCH   3   4
HETATM    4  N   UNL     1      -8.982   4.735  68.291  1.00  0.00    -0.108 NA 
BRANCH   4   5
HETATM    5  C   UNL     1      -7.696   5.462  68.048  1.00  0.00    -0.091 C  
HETATM    6 CL   UNL     1      -5.846   4.478  69.876  1.00  0.00    -0.016 Cl 
HETATM    7  C   UNL     1      -6.769   5.844  69.203  1.00  0.00    -0.060 C  
ENDBRANCH   4   5
BRANCH   4   8
HETATM    8  C   UNL     1      -9.935   5.290  69.208  1.00  0.00    -0.215 C  
HETATM    9  C   UNL     1     -10.074   4.938  70.501  1.00  0.00    -0.242 C  
HETATM   10  N   UNL     1     -10.998   5.480  71.352  1.00  0.00    -0.189 N  
HETATM   11  C   UNL     1     -11.869   6.461  71.000  1.00  0.00    -0.258 C  
HETATM   12  H   UNL     1     -11.035   5.127  72.307  1.00  0.00     0.000 HD 
HETATM   13  O   UNL     1     -12.689   6.920  71.788  1.00  0.00    -0.357 OA 
HETATM   14  N   UNL     1     -11.768   6.893  69.717  1.00  0.00    -0.615 N  
HETATM   15  C   UNL     1     -10.927   6.379  68.765  1.00  0.00    -0.334 C  
HETATM   16  H   UNL     1     -12.371   7.666  69.437  1.00  0.00     0.000 HD 
HETATM   17  O   UNL     1     -11.017   6.802  67.614  1.00  0.00    -0.273 OA 
ENDBRANCH   4   8
ENDBRANCH   3   4
TORSDOF 3
ENDMDL
MODEL      239
REMARK 921   NORMALIZED FREE ENERGY PREDICTED BY IDOCK:   -2.45 KCAL/MOL
REMARK 922        TOTAL FREE ENERGY PREDICTED BY IDOCK:   -3.32 KCAL/MOL
REMARK 923 INTER-LIGAND FREE ENERGY PREDICTED BY IDOCK:   -3.17 KCAL/MOL
REMARK 924 INTRA-LIGAND FREE ENERGY PREDICTED BY IDOCK:   -0.15 KCAL/MOL
REMARK 927      BINDING AFFINITY PREDICTED BY RF-SCORE:    0.00 PKD
ROOT
HETATM    1 CL   UNL     1      -7.472  14.005  68.648  1.00  0.00    -0.121 Cl 
HETATM    2  C   UNL     1      -8.722  13.000  67.874  1.00  0.00    -0.189 C  
HETATM    3  C   UNL     1     -10.048  12.983  68.643  1.00  0.00    -0.136 C  
ENDROOT
BRANCH   3   4
HETATM    4  N   UNL     1     -10.620  14.322  68.935  1.00  0.00    -0.246 NA 
BRANCH   4   5
HETATM    5  C   UNL     1     -10.886  14.698  70.360  1.00  0.00     0.092 C  
HETATM    6 CL   UNL     1     -12.626  12.792  71.394  1.00  0.00    -0.371 Cl 
HETATM    7  C   UNL     1     -12.262  14.488  70.993  1.00  0.00    -0.339 C  
ENDBRANCH   4   5
BRANCH   4   8
HETATM    8  C   UNL     1     -10.676  15.336  67.923  1.00  0.00    -0.275 C  
HETATM    9  C   UNL     1     -11.335  15.237  66.752  1.00  0.00    -0.183 C  
HETATM   10  N   UNL     1     -11.365  16.221  65.800  1.00  0.00     0.228 N  
HETATM   11  C   UNL     1     -10.757  17.426  65.936  1.00  0.00    -0.123 C  
HETATM   12  H   UNL     1     -11.876  16.036  64.937  1.00  0.00     0.000 HD 
HETATM   13  O   UNL     1     -10.800  18.283  65.059  1.00  0.00    -0.679 OA 
HETATM   14  N   UNL     1     -10.097  17.614  67.108  1.00  0.00    -0.315 N  
HETATM   15  C   UNL     1      -9.948  16.680  68.099  1.00  0.00    -0.259 C  
HETATM   16  H   UNL     1      -9.675  18.529  67.263  1.00  0.00     0.000 HD 
HETATM   17  O   UNL     1      -9.236  16.956  69.063  1.00  0.00    -0.252 OA 
ENDBRANCH   4   8
ENDBRANCH   3   4
TORSDOF 3
ENDMDL
MODEL      240
REMARK 921   NORMALIZED FREE ENERGY PREDICTED BY IDOCK:   -2.44 KCAL/MOL
REMARK 922        TOTAL FREE ENERGY PREDICTED BY IDOCK:   -3.31 KCAL/MOL
REMARK 923 INTER-LIGAND FREE ENERGY PREDICTED BY IDOCK:   -3.26 KCAL/MOL
REMARK 924 INTRA-LIGAND FREE ENERGY PREDICTED BY IDOCK:   -0.05 KCAL/MOL
REMARK 927      BINDING AFFINITY PREDICTED BY RF-SCORE:    0.00 PKD
ROOT
HETATM    1 CL   UNL     1      -6.804  19.569  65.174  1.00  0.00    -0.237 Cl 
HETATM    2  C   UNL     1      -5.751  18.134  65.231  1.00  0.00    -0.112 C  
HETATM    3  C   UNL     1      -5.863  17.352  66.544  1.00  0.00    -0.208 C  
ENDROOT
BRANCH   3   4
HETATM    4  N   UNL     1      -7.243  16.951  66.919  1.00  0.00    -0.192 NA 
BRANCH   4   5
HETATM    5  C   UNL     1      -7.578  15.493  66.987  1.00  0.00    -0.193 C  
HETATM    6 CL   UNL     1      -8.079  14.896  69.656  1.00  0.00    -0.066 Cl 
HETATM    7  C   UNL     1      -7.135  14.631  68.170  1.00  0.00    -0.124 C  
ENDBRANCH   4   5
BRANCH   4   8
HETATM    8  C   UNL     1      -8.166  17.906  67.460  1.00  0.00    -0.227 C  
HETATM    9  C   UNL     1      -8.034  18.540  68.642  1.00  0.00    -0.309 C  
HETATM   10  N   UNL     1      -8.936  19.442  69.136  1.00  0.00    -0.234 N  
HETATM   11  C   UNL     1     -10.059  19.829  68.480  1.00  0.00    -0.445 C  
HETATM   12  H   UNL     1      -8.752  19.849  70.053  1.00  0.00     0.000 HD 
HETATM   13  O   UNL     1     -10.850  20.637  68.956  1.00  0.00     0.304 OA 
HETATM   14  N   UNL     1     -10.246  19.256  67.263  1.00  0.00    -0.383 N  
HETATM   15  C   UNL     1      -9.445  18.297  66.701  1.00  0.00    -0.308 C  
HETATM   16  H   UNL     1     -11.053  19.566  66.721  1.00  0.00     0.000 HD 
HETATM   17  O   UNL     1      -9.794  17.793  65.634  1.00  0.00    -0.528 OA 
ENDBRANCH   4   8
ENDBRANCH   3   4
TORSDOF 3
ENDMDL
MODEL      241
REMARK 921   NORMALIZED FREE ENERGY PREDICTED BY IDOCK:   -2.42 KCAL/MOL
REMARK 922        TOTAL FREE ENERGY PREDICTED BY IDOCK:   -3.29 KCAL/MOL
REMARK 923 INTER-LIGAND FREE ENERGY PREDICTED BY IDOCK:   -2.90 KCAL/MOL
REMARK 924 INTRA-LIGAND FREE ENERGY PREDICTED BY IDOCK:   -0.38 KCAL/MOL
REMARK 927      BINDING AFFINITY PREDICTED BY RF-SCORE:    0.00 PKD
ROOT
HETATM    1 CL   UNL     1      -5.799   5.821  67.249  1.00  0.00    -0.017 Cl 
HETATM    2  C   UNL     1      -7.217   5.684  68.318  1.00  0.00    -0.075 C  
HETATM    3  C   UNL     1      -8.164   6.885  68.224  1.00  0.00    -0.123 C  
ENDROOT
BRANCH   3   4
HETATM    4  N   UNL     1      -8.627   7.213  66.851  1.00  0.00    -0.121 NA 
BRANCH   4   5
HETATM    5  C   UNL     1      -8.252   8.537  66.260  1.00  0.00    -0.109 C  
HETATM    6 CL   UNL     1      -9.957  10.435  67.367  1.00  0.00    -0.212 Cl 
HETATM    7  C   UNL     1      -9.313   9.590  65.938  1.00  0.00    -0.226 C  
ENDBRANCH   4   5
BRANCH   4   8
HETATM    8  C   UNL     1      -9.190   6.203  66.003  1.00  0.00    -0.095 C  
HETATM    9  C   UNL     1      -8.603   5.685  64.906  1.00  0.00    -0.085 C  
HETATM   10  N   UNL     1      -9.168   4.726  64.111  1.00  0.00    -0.329 N  
HETATM   11  C   UNL     1     -10.379   4.160  64.349  1.00  0.00    -0.138 C  
HETATM   12  H   UNL     1      -8.648   4.418  63.290  1.00  0.00     0.000 HD 
HETATM   13  O   UNL     1     -10.858   3.306  63.611  1.00  0.00    -0.255 OA 
HETATM   14  N   UNL     1     -11.020   4.609  65.458  1.00  0.00    -0.893 N  
HETATM   15  C   UNL     1     -10.579   5.607  66.287  1.00  0.00    -0.111 C  
HETATM   16  H   UNL     1     -11.907   4.165  65.695  1.00  0.00     0.000 HD 
HETATM   17  O   UNL     1     -11.315   5.980  67.199  1.00  0.00    -0.115 OA 
ENDBRANCH   4   8
ENDBRANCH   3   4
TORSDOF 3
ENDMDL
MODEL      242
REMARK 921   NORMALIZED FREE ENERGY PREDICTED BY IDOCK:   -2.41 KCAL/MOL
REMARK 922        TOTAL FREE ENERGY PREDICTED BY IDOCK:   -3.28 KCAL/MOL
REMARK 923 INTER-LIGAND FREE ENERGY PREDICTED BY IDOCK:   -3.31 KCAL/MOL
REMARK 924 INTRA-LIGAND FREE ENERGY PREDICTED BY IDOCK:    0.03 KCAL/MOL
REMARK 927      BINDING AFFINITY PREDICTED BY RF-SCORE:    0.00 PKD
ROOT
HETATM    1 CL   UNL     1      -8.877  10.803  65.288  1.00  0.00    -0.201 Cl 
HETATM    2  C   UNL     1     -10.160   9.768  65.962  1.00  0.00    -0.251 C  
HETATM    3  C   UNL     1      -9.848   9.260  67.374  1.00  0.00    -0.178 C  
ENDROOT
BRANCH   3   4
HETATM    4  N   UNL     1      -9.514  10.317  68.362  1.00  0.00    -0.142 NA 
BRANCH   4   5
HETATM    5  C   UNL     1      -8.326  10.124  69.252  1.00  0.00    -0.158 C  
HETATM    6 CL   UNL     1      -8.531   7.575  70.343  1.00  0.00    -0.139 Cl 
HETATM    7  C   UNL     1      -8.433   9.339  70.560  1.00  0.00    -0.216 C  
ENDBRANCH   4   5
BRANCH   4   8
HETATM    8  C   UNL     1     -10.138  11.607  68.300  1.00  0.00    -0.202 C  
HETATM    9  C   UNL     1     -11.450  11.851  68.486  1.00  0.00    -0.295 C  
HETATM   10  N   UNL     1     -12.020  13.093  68.413  1.00  0.00    -0.333 N  
HETATM   11  C   UNL     1     -11.324  14.234  68.174  1.00  0.00    -0.288 C  
HETATM   12  H   UNL     1     -13.028  13.166  68.548  1.00  0.00     0.000 HD 
HETATM   13  O   UNL     1     -11.869  15.331  68.110  1.00  0.00    -0.330 OA 
HETATM   14  N   UNL     1      -9.986  14.072  68.007  1.00  0.00    -0.229 N  
HETATM   15  C   UNL     1      -9.322  12.874  67.995  1.00  0.00    -0.213 C  
HETATM   16  H   UNL     1      -9.428  14.916  67.879  1.00  0.00     0.000 HD 
HETATM   17  O   UNL     1      -8.121  12.873  67.731  1.00  0.00    -0.140 OA 
ENDBRANCH   4   8
ENDBRANCH   3   4
TORSDOF 3
ENDMDL
MODEL      243
REMARK 921   NORMALIZED FREE ENERGY PREDICTED BY IDOCK:   -2.40 KCAL/MOL
REMARK 922        TOTAL FREE ENERGY PREDICTED BY IDOCK:   -3.26 KCAL/MOL
REMARK 923 INTER-LIGAND FREE ENERGY PREDICTED BY IDOCK:   -3.44 KCAL/MOL
REMARK 924 INTRA-LIGAND FREE ENERGY PREDICTED BY IDOCK:    0.18 KCAL/MOL
REMARK 927      BINDING AFFINITY PREDICTED BY RF-SCORE:    0.00 PKD
ROOT
HETATM    1 CL   UNL     1     -10.101  19.028  69.175  1.00  0.00    -0.360 Cl 
HETATM    2  C   UNL     1     -10.676  17.982  67.852  1.00  0.00    -0.313 C  
HETATM    3  C   UNL     1      -9.784  18.036  66.607  1.00  0.00    -0.332 C  
ENDROOT
BRANCH   3   4
HETATM    4  N   UNL     1      -8.346  17.756  66.852  1.00  0.00    -0.230 NA 
BRANCH   4   5
HETATM    5  C   UNL     1      -7.687  16.648  66.092  1.00  0.00    -0.113 C  
HETATM    6 CL   UNL     1      -8.906  14.278  66.886  1.00  0.00    -0.247 Cl 
HETATM    7  C   UNL     1      -7.443  15.281  66.734  1.00  0.00     0.238 C  
ENDBRANCH   4   5
BRANCH   4   8
HETATM    8  C   UNL     1      -7.533  18.676  67.593  1.00  0.00    -0.229 C  
HETATM    9  C   UNL     1      -7.105  19.875  67.150  1.00  0.00    -0.224 C  
HETATM   10  N   UNL     1      -6.323  20.730  67.877  1.00  0.00    -0.305 N  
HETATM   11  C   UNL     1      -5.907  20.484  69.146  1.00  0.00    -0.357 C  
HETATM   12  H   UNL     1      -6.035  21.604  67.440  1.00  0.00     0.000 HD 
HETATM   13  O   UNL     1      -5.201  21.272  69.767  1.00  0.00    -0.433 OA 
HETATM   14  N   UNL     1      -6.326  19.306  69.675  1.00  0.00    -0.292 N  
HETATM   15  C   UNL     1      -7.055  18.350  69.018  1.00  0.00    -0.245 C  
HETATM   16  H   UNL     1      -6.076  19.116  70.645  1.00  0.00     0.000 HD 
HETATM   17  O   UNL     1      -7.277  17.284  69.591  1.00  0.00    -0.000 OA 
ENDBRANCH   4   8
ENDBRANCH   3   4
TORSDOF 3
ENDMDL
MODEL      244
REMARK 921   NORMALIZED FREE ENERGY PREDICTED BY IDOCK:   -2.38 KCAL/MOL
REMARK 922        TOTAL FREE ENERGY PREDICTED BY IDOCK:   -3.25 KCAL/MOL
REMARK 923 INTER-LIGAND FREE ENERGY PREDICTED BY IDOCK:   -2.83 KCAL/MOL
REMARK 924 INTRA-LIGAND FREE ENERGY PREDICTED BY IDOCK:   -0.42 KCAL/MOL
REMARK 927      BINDING AFFINITY PREDICTED BY RF-SCORE:    0.00 PKD
ROOT
HETATM    1 CL   UNL     1      -6.099   6.613  71.884  1.00  0.00    -0.038 Cl 
HETATM    2  C   UNL     1      -6.917   7.833  72.891  1.00  0.00    -0.077 C  
HETATM    3  C   UNL     1      -7.956   8.656  72.122  1.00  0.00    -0.035 C  
ENDROOT
BRANCH   3   4
HETATM    4  N   UNL     1      -8.983   7.857  71.404  1.00  0.00    -0.132 NA 
BRANCH   4   5
HETATM    5  C   UNL     1      -9.885   6.963  72.196  1.00  0.00    -0.147 C  
HETATM    6 CL   UNL     1     -12.324   8.276  72.440  1.00  0.00    -0.400 Cl 
HETATM    7  C   UNL     1     -10.892   7.534  73.195  1.00  0.00    -0.395 C  
ENDBRANCH   4   5
BRANCH   4   8
HETATM    8  C   UNL     1      -9.291   8.121  70.028  1.00  0.00    -0.159 C  
HETATM    9  C   UNL     1      -8.875   7.386  68.978  1.00  0.00    -0.132 C  
HETATM   10  N   UNL     1      -9.180   7.666  67.674  1.00  0.00    -0.135 N  
HETATM   11  C   UNL     1      -9.964   8.703  67.284  1.00  0.00    -0.219 C  
HETATM   12  H   UNL     1      -8.795   7.057  66.952  1.00  0.00     0.000 HD 
HETATM   13  O   UNL     1     -10.211   8.928  66.104  1.00  0.00    -0.259 OA 
HETATM   14  N   UNL     1     -10.449   9.473  68.291  1.00  0.00    -0.214 N  
HETATM   15  C   UNL     1     -10.158   9.325  69.622  1.00  0.00    -0.197 C  
HETATM   16  H   UNL     1     -11.085  10.229  68.035  1.00  0.00     0.000 HD 
HETATM   17  O   UNL     1     -10.589  10.161  70.414  1.00  0.00    -0.290 OA 
ENDBRANCH   4   8
ENDBRANCH   3   4
TORSDOF 3
ENDMDL
MODEL      245
REMARK 921   NORMALIZED FREE ENERGY PREDICTED BY IDOCK:   -2.35 KCAL/MOL
REMARK 922        TOTAL FREE ENERGY PREDICTED BY IDOCK:   -3.21 KCAL/MOL
REMARK 923 INTER-LIGAND FREE ENERGY PREDICTED BY IDOCK:   -2.80 KCAL/MOL
REMARK 924 INTRA-LIGAND FREE ENERGY PREDICTED BY IDOCK:   -0.41 KCAL/MOL
REMARK 927      BINDING AFFINITY PREDICTED BY RF-SCORE:    0.00 PKD
ROOT
HETATM    1 CL   UNL     1      -9.075  10.563  69.150  1.00  0.00    -0.189 Cl 
HETATM    2  C   UNL     1     -10.607  10.545  70.058  1.00  0.00    -0.169 C  
HETATM    3  C   UNL     1     -11.220   9.146  70.184  1.00  0.00    -0.187 C  
ENDROOT
BRANCH   3   4
HETATM    4  N   UNL     1     -10.314   8.113  70.747  1.00  0.00    -0.195 NA 
BRANCH   4   5
HETATM    5  C   UNL     1     -10.071   8.093  72.224  1.00  0.00    -0.269 C  
HETATM    6 CL   UNL     1     -10.810   5.574  73.138  1.00  0.00    -0.301 Cl 
HETATM    7  C   UNL     1     -11.006   7.343  73.173  1.00  0.00    -0.359 C  
ENDBRANCH   4   5
BRANCH   4   8
HETATM    8  C   UNL     1      -9.886   6.997  69.954  1.00  0.00    -0.170 C  
HETATM    9  C   UNL     1     -10.667   5.974  69.555  1.00  0.00    -0.335 C  
HETATM   10  N   UNL     1     -10.228   4.918  68.803  1.00  0.00    -0.103 N  
HETATM   11  C   UNL     1      -8.958   4.790  68.344  1.00  0.00    -0.111 C  
HETATM   12  H   UNL     1     -10.897   4.183  68.575  1.00  0.00     0.000 HD 
HETATM   13  O   UNL     1      -8.598   3.826  67.676  1.00  0.00    -0.094 OA 
HETATM   14  N   UNL     1      -8.116   5.802  68.678  1.00  0.00    -0.101 N  
HETATM   15  C   UNL     1      -8.429   6.871  69.476  1.00  0.00    -0.133 C  
HETATM   16  H   UNL     1      -7.169   5.762  68.302  1.00  0.00     0.000 HD 
HETATM   17  O   UNL     1      -7.535   7.659  69.778  1.00  0.00    -0.086 OA 
ENDBRANCH   4   8
ENDBRANCH   3   4
TORSDOF 3
ENDMDL
MODEL      246
REMARK 921   NORMALIZED FREE ENERGY PREDICTED BY IDOCK:   -2.34 KCAL/MOL
REMARK 922        TOTAL FREE ENERGY PREDICTED BY IDOCK:   -3.19 KCAL/MOL
REMARK 923 INTER-LIGAND FREE ENERGY PREDICTED BY IDOCK:   -2.86 KCAL/MOL
REMARK 924 INTRA-LIGAND FREE ENERGY PREDICTED BY IDOCK:   -0.34 KCAL/MOL
REMARK 927      BINDING AFFINITY PREDICTED BY RF-SCORE:    0.00 PKD
ROOT
HETATM    1 CL   UNL     1      -8.768   5.340  65.584  1.00  0.00    -0.142 Cl 
HETATM    2  C   UNL     1     -10.395   5.130  66.277  1.00  0.00    -0.268 C  
HETATM    3  C   UNL     1     -10.524   5.685  67.699  1.00  0.00    -0.219 C  
ENDROOT
BRANCH   3   4
HETATM    4  N   UNL     1     -10.112   7.102  67.860  1.00  0.00    -0.164 NA 
BRANCH   4   5
HETATM    5  C   UNL     1     -10.599   8.113  66.869  1.00  0.00    -0.241 C  
HETATM    6 CL   UNL     1      -8.365   9.077  65.523  1.00  0.00    -0.127 Cl 
HETATM    7  C   UNL     1      -9.787   9.370  66.553  1.00  0.00    -0.258 C  
ENDBRANCH   4   5
BRANCH   4   8
HETATM    8  C   UNL     1      -9.485   7.554  69.068  1.00  0.00    -0.145 C  
HETATM    9  C   UNL     1      -8.223   7.274  69.448  1.00  0.00    -0.131 C  
HETATM   10  N   UNL     1      -7.653   7.715  70.611  1.00  0.00    -0.079 N  
HETATM   11  C   UNL     1      -8.284   8.512  71.511  1.00  0.00    -0.155 C  
HETATM   12  H   UNL     1      -6.697   7.427  70.815  1.00  0.00     0.000 HD 
HETATM   13  O   UNL     1      -7.745   8.883  72.548  1.00  0.00    -0.362 OA 
HETATM   14  N   UNL     1      -9.554   8.865  71.182  1.00  0.00    -0.246 N  
HETATM   15  C   UNL     1     -10.243   8.432  70.079  1.00  0.00    -0.202 C  
HETATM   16  H   UNL     1     -10.036   9.507  71.810  1.00  0.00     0.000 HD 
HETATM   17  O   UNL     1     -11.424   8.754  69.963  1.00  0.00    -0.116 OA 
ENDBRANCH   4   8
ENDBRANCH   3   4
TORSDOF 3
ENDMDL
MODEL      247
REMARK 921   NORMALIZED FREE ENERGY PREDICTED BY IDOCK:   -2.32 KCAL/MOL
REMARK 922        TOTAL FREE ENERGY PREDICTED BY IDOCK:   -3.17 KCAL/MOL
REMARK 923 INTER-LIGAND FREE ENERGY PREDICTED BY IDOCK:   -2.84 KCAL/MOL
REMARK 924 INTRA-LIGAND FREE ENERGY PREDICTED BY IDOCK:   -0.32 KCAL/MOL
REMARK 927      BINDING AFFINITY PREDICTED BY RF-SCORE:    0.00 PKD
ROOT
HETATM    1 CL   UNL     1      -8.858   5.624  67.552  1.00  0.00    -0.107 Cl 
HETATM    2  C   UNL     1      -7.335   6.369  68.095  1.00  0.00    -0.089 C  
HETATM    3  C   UNL     1      -7.090   7.757  67.491  1.00  0.00    -0.083 C  
ENDROOT
BRANCH   3   4
HETATM    4  N   UNL     1      -8.196   8.729  67.683  1.00  0.00    -0.110 NA 
BRANCH   4   5
HETATM    5  C   UNL     1      -8.598   9.099  69.076  1.00  0.00    -0.133 C  
HETATM    6 CL   UNL     1     -11.201  10.068  68.942  1.00  0.00    -0.218 Cl 
HETATM    7  C   UNL     1      -9.486  10.314  69.349  1.00  0.00    -0.206 C  
ENDBRANCH   4   5
BRANCH   4   8
HETATM    8  C   UNL     1      -8.698   9.499  66.582  1.00  0.00    -0.134 C  
HETATM    9  C   UNL     1      -9.802   9.212  65.865  1.00  0.00    -0.235 C  
HETATM   10  N   UNL     1     -10.254   9.964  64.814  1.00  0.00    -0.270 N  
HETATM   11  C   UNL     1      -9.658  11.106  64.386  1.00  0.00    -0.250 C  
HETATM   12  H   UNL     1     -11.089   9.646  64.323  1.00  0.00     0.000 HD 
HETATM   13  O   UNL     1     -10.088  11.751  63.436  1.00  0.00    -0.388 OA 
HETATM   14  N   UNL     1      -8.554  11.479  65.083  1.00  0.00    -0.325 N  
HETATM   15  C   UNL     1      -7.978  10.773  66.106  1.00  0.00    -0.157 C  
HETATM   16  H   UNL     1      -8.114  12.361  64.821  1.00  0.00     0.000 HD 
HETATM   17  O   UNL     1      -6.919  11.182  66.578  1.00  0.00    -0.138 OA 
ENDBRANCH   4   8
ENDBRANCH   3   4
TORSDOF 3
ENDMDL
MODEL      248
REMARK 921   NORMALIZED FREE ENERGY PREDICTED BY IDOCK:   -2.30 KCAL/MOL
REMARK 922        TOTAL FREE ENERGY PREDICTED BY IDOCK:   -3.15 KCAL/MOL
REMARK 923 INTER-LIGAND FREE ENERGY PREDICTED BY IDOCK:   -2.75 KCAL/MOL
REMARK 924 INTRA-LIGAND FREE ENERGY PREDICTED BY IDOCK:   -0.40 KCAL/MOL
REMARK 927      BINDING AFFINITY PREDICTED BY RF-SCORE:    0.00 PKD
ROOT
HETATM    1 CL   UNL     1     -10.808   8.367  69.455  1.00  0.00    -0.153 Cl 
HETATM    2  C   UNL     1     -10.630   9.431  70.871  1.00  0.00    -0.320 C  
HETATM    3  C   UNL     1     -10.421   8.665  72.182  1.00  0.00    -0.340 C  
ENDROOT
BRANCH   3   4
HETATM    4  N   UNL     1      -9.299   7.692  72.168  1.00  0.00    -0.139 NA 
BRANCH   4   5
HETATM    5  C   UNL     1      -7.911   8.185  72.433  1.00  0.00    -0.138 C  
HETATM    6 CL   UNL     1      -6.810   6.518  74.367  1.00  0.00    -0.088 Cl 
HETATM    7  C   UNL     1      -7.309   8.143  73.838  1.00  0.00    -0.162 C  
ENDBRANCH   4   5
BRANCH   4   8
HETATM    8  C   UNL     1      -9.550   6.280  72.164  1.00  0.00    -0.150 C  
HETATM    9  C   UNL     1      -9.358   5.453  71.117  1.00  0.00    -0.150 C  
HETATM   10  N   UNL     1      -9.612   4.109  71.141  1.00  0.00    -0.167 N  
HETATM   11  C   UNL     1     -10.064   3.441  72.234  1.00  0.00    -0.149 C  
HETATM   12  H   UNL     1      -9.453   3.576  70.286  1.00  0.00     0.000 HD 
HETATM   13  O   UNL     1     -10.287   2.236  72.217  1.00  0.00    -0.157 OA 
HETATM   14  N   UNL     1     -10.252   4.204  73.341  1.00  0.00    -0.142 N  
HETATM   15  C   UNL     1     -10.091   5.562  73.413  1.00  0.00    -0.186 C  
HETATM   16  H   UNL     1     -10.539   3.723  74.194  1.00  0.00     0.000 HD 
HETATM   17  O   UNL     1     -10.397   6.135  74.457  1.00  0.00    -0.305 OA 
ENDBRANCH   4   8
ENDBRANCH   3   4
TORSDOF 3
ENDMDL
MODEL      249
REMARK 921   NORMALIZED FREE ENERGY PREDICTED BY IDOCK:   -2.29 KCAL/MOL
REMARK 922        TOTAL FREE ENERGY PREDICTED BY IDOCK:   -3.14 KCAL/MOL
REMARK 923 INTER-LIGAND FREE ENERGY PREDICTED BY IDOCK:   -3.24 KCAL/MOL
REMARK 924 INTRA-LIGAND FREE ENERGY PREDICTED BY IDOCK:    0.10 KCAL/MOL
REMARK 927      BINDING AFFINITY PREDICTED BY RF-SCORE:    0.00 PKD
ROOT
HETATM    1 CL   UNL     1     -12.813   9.739  71.712  1.00  0.00    -0.493 Cl 
HETATM    2  C   UNL     1     -12.338   8.047  71.425  1.00  0.00    -0.306 C  
HETATM    3  C   UNL     1     -10.989   7.910  70.710  1.00  0.00    -0.252 C  
ENDROOT
BRANCH   3   4
HETATM    4  N   UNL     1      -9.860   8.623  71.358  1.00  0.00    -0.230 NA 
BRANCH   4   5
HETATM    5  C   UNL     1      -9.501   8.276  72.769  1.00  0.00    -0.273 C  
HETATM    6 CL   UNL     1      -9.187   5.515  72.874  1.00  0.00    -0.135 Cl 
HETATM    7  C   UNL     1     -10.013   6.993  73.426  1.00  0.00    -0.259 C  
ENDBRANCH   4   5
BRANCH   4   8
HETATM    8  C   UNL     1      -8.962   9.433  70.588  1.00  0.00    -0.228 C  
HETATM    9  C   UNL     1      -7.616   9.394  70.658  1.00  0.00    -0.144 C  
HETATM   10  N   UNL     1      -6.784  10.185  69.914  1.00  0.00    -0.093 N  
HETATM   11  C   UNL     1      -7.214  11.086  68.994  1.00  0.00    -0.111 C  
HETATM   12  H   UNL     1      -5.779  10.092  70.059  1.00  0.00     0.000 HD 
HETATM   13  O   UNL     1      -6.439  11.783  68.349  1.00  0.00    -0.050 OA 
HETATM   14  N   UNL     1      -8.562  11.161  68.843  1.00  0.00    -0.308 N  
HETATM   15  C   UNL     1      -9.487  10.466  69.576  1.00  0.00    -0.139 C  
HETATM   16  H   UNL     1      -8.915  11.789  68.121  1.00  0.00     0.000 HD 
HETATM   17  O   UNL     1     -10.679  10.711  69.399  1.00  0.00    -0.216 OA 
ENDBRANCH   4   8
ENDBRANCH   3   4
TORSDOF 3
ENDMDL
MODEL      250
REMARK 921   NORMALIZED FREE ENERGY PREDICTED BY IDOCK:   -2.27 KCAL/MOL
REMARK 922        TOTAL FREE ENERGY PREDICTED BY IDOCK:   -3.12 KCAL/MOL
REMARK 923 INTER-LIGAND FREE ENERGY PREDICTED BY IDOCK:   -2.77 KCAL/MOL
REMARK 924 INTRA-LIGAND FREE ENERGY PREDICTED BY IDOCK:   -0.35 KCAL/MOL
REMARK 927      BINDING AFFINITY PREDICTED BY RF-SCORE:    0.00 PKD
ROOT
HETATM    1 CL   UNL     1      -6.781   9.243  70.813  1.00  0.00    -0.084 Cl 
HETATM    2  C   UNL     1      -7.730   9.413  69.316  1.00  0.00    -0.083 C  
HETATM    3  C   UNL     1      -7.857   8.105  68.527  1.00  0.00    -0.118 C  
ENDROOT
BRANCH   3   4
HETATM    4  N   UNL     1      -8.385   6.954  69.303  1.00  0.00    -0.128 NA 
BRANCH   4   5
HETATM    5  C   UNL     1      -7.433   5.889  69.752  1.00  0.00    -0.080 C  
HETATM    6 CL   UNL     1      -8.238   3.516  68.545  1.00  0.00    -0.080 Cl 
HETATM    7  C   UNL     1      -7.909   4.461  70.019  1.00  0.00    -0.053 C  
ENDBRANCH   4   5
BRANCH   4   8
HETATM    8  C   UNL     1      -9.714   6.976  69.842  1.00  0.00    -0.163 C  
HETATM    9  C   UNL     1     -10.847   6.792  69.137  1.00  0.00    -0.258 C  
HETATM   10  N   UNL     1     -12.104   6.825  69.678  1.00  0.00    -0.465 N  
HETATM   11  C   UNL     1     -12.357   7.020  70.998  1.00  0.00    -0.356 C  
HETATM   12  H   UNL     1     -12.898   6.696  69.052  1.00  0.00     0.000 HD 
HETATM   13  O   UNL     1     -13.497   7.051  71.447  1.00  0.00    -0.345 OA 
HETATM   14  N   UNL     1     -11.259   7.183  71.780  1.00  0.00    -0.241 N  
HETATM   15  C   UNL     1      -9.963   7.231  71.338  1.00  0.00    -0.187 C  
HETATM   16  H   UNL     1     -11.413   7.277  72.784  1.00  0.00     0.000 HD 
HETATM   17  O   UNL     1      -9.076   7.486  72.151  1.00  0.00    -0.129 OA 
ENDBRANCH   4   8
ENDBRANCH   3   4
TORSDOF 3
ENDMDL
MODEL      251
REMARK 921   NORMALIZED FREE ENERGY PREDICTED BY IDOCK:   -2.27 KCAL/MOL
REMARK 922        TOTAL FREE ENERGY PREDICTED BY IDOCK:   -3.11 KCAL/MOL
REMARK 923 INTER-LIGAND FREE ENERGY PREDICTED BY IDOCK:   -3.65 KCAL/MOL
REMARK 924 INTRA-LIGAND FREE ENERGY PREDICTED BY IDOCK:    0.54 KCAL/MOL
REMARK 927      BINDING AFFINITY PREDICTED BY RF-SCORE:    0.00 PKD
ROOT
HETATM    1 CL   UNL     1     -10.116  15.451  69.852  1.00  0.00    -0.280 Cl 
HETATM    2  C   UNL     1     -11.365  14.185  69.943  1.00  0.00    -0.173 C  
HETATM    3  C   UNL     1     -12.083  13.945  68.611  1.00  0.00    -0.302 C  
ENDROOT
BRANCH   3   4
HETATM    4  N   UNL     1     -11.189  13.657  67.460  1.00  0.00    -0.284 NA 
BRANCH   4   5
HETATM    5  C   UNL     1     -11.576  12.578  66.497  1.00  0.00    -0.388 C  
HETATM    6 CL   UNL     1     -10.398  13.202  64.057  1.00  0.00    -0.326 Cl 
HETATM    7  C   UNL     1     -11.858  12.890  65.027  1.00  0.00    -0.372 C  
ENDBRANCH   4   5
BRANCH   4   8
HETATM    8  C   UNL     1     -10.121  14.551  67.116  1.00  0.00    -0.252 C  
HETATM    9  C   UNL     1      -8.807  14.301  67.282  1.00  0.00    -0.214 C  
HETATM   10  N   UNL     1      -7.810  15.177  66.950  1.00  0.00    -0.305 N  
HETATM   11  C   UNL     1      -8.024  16.393  66.386  1.00  0.00    -0.294 C  
HETATM   12  H   UNL     1      -6.847  14.899  67.138  1.00  0.00     0.000 HD 
HETATM   13  O   UNL     1      -7.105  17.155  66.107  1.00  0.00    -0.265 OA 
HETATM   14  N   UNL     1      -9.326  16.704  66.157  1.00  0.00    -0.293 N  
HETATM   15  C   UNL     1     -10.404  15.934  66.506  1.00  0.00    -0.300 C  
HETATM   16  H   UNL     1      -9.517  17.587  65.684  1.00  0.00     0.000 HD 
HETATM   17  O   UNL     1     -11.532  16.390  66.327  1.00  0.00     0.398 OA 
ENDBRANCH   4   8
ENDBRANCH   3   4
TORSDOF 3
ENDMDL
MODEL      252
REMARK 921   NORMALIZED FREE ENERGY PREDICTED BY IDOCK:   -2.26 KCAL/MOL
REMARK 922        TOTAL FREE ENERGY PREDICTED BY IDOCK:   -3.11 KCAL/MOL
REMARK 923 INTER-LIGAND FREE ENERGY PREDICTED BY IDOCK:   -3.37 KCAL/MOL
REMARK 924 INTRA-LIGAND FREE ENERGY PREDICTED BY IDOCK:    0.26 KCAL/MOL
REMARK 927      BINDING AFFINITY PREDICTED BY RF-SCORE:    0.00 PKD
ROOT
HETATM    1 CL   UNL     1      -9.852  19.069  69.077  1.00  0.00    -0.442 Cl 
HETATM    2  C   UNL     1     -10.172  18.728  67.358  1.00  0.00    -0.395 C  
HETATM    3  C   UNL     1      -9.114  19.314  66.417  1.00  0.00    -0.352 C  
ENDROOT
BRANCH   3   4
HETATM    4  N   UNL     1      -7.714  18.931  66.731  1.00  0.00    -0.233 NA 
BRANCH   4   5
HETATM    5  C   UNL     1      -6.839  18.425  65.627  1.00  0.00    -0.243 C  
HETATM    6 CL   UNL     1      -5.273  20.563  64.785  1.00  0.00    -0.192 Cl 
HETATM    7  C   UNL     1      -6.483  19.307  64.429  1.00  0.00     0.290 C  
ENDBRANCH   4   5
BRANCH   4   8
HETATM    8  C   UNL     1      -7.121  19.278  67.990  1.00  0.00    -0.255 C  
HETATM    9  C   UNL     1      -6.852  20.530  68.411  1.00  0.00    -0.177 C  
HETATM   10  N   UNL     1      -6.278  20.830  69.617  1.00  0.00    -0.231 N  
HETATM   11  C   UNL     1      -5.937  19.902  70.546  1.00  0.00    -0.309 C  
HETATM   12  H   UNL     1      -6.096  21.810  69.829  1.00  0.00     0.000 HD 
HETATM   13  O   UNL     1      -5.418  20.207  71.615  1.00  0.00    -0.346 OA 
HETATM   14  N   UNL     1      -6.208  18.615  70.207  1.00  0.00    -0.051 N  
HETATM   15  C   UNL     1      -6.719  18.196  69.007  1.00  0.00    -0.254 C  
HETATM   16  H   UNL     1      -6.013  17.898  70.907  1.00  0.00     0.000 HD 
HETATM   17  O   UNL     1      -6.817  16.987  68.802  1.00  0.00    -0.177 OA 
ENDBRANCH   4   8
ENDBRANCH   3   4
TORSDOF 3
ENDMDL
MODEL      253
REMARK 921   NORMALIZED FREE ENERGY PREDICTED BY IDOCK:   -2.25 KCAL/MOL
REMARK 922        TOTAL FREE ENERGY PREDICTED BY IDOCK:   -3.10 KCAL/MOL
REMARK 923 INTER-LIGAND FREE ENERGY PREDICTED BY IDOCK:   -2.83 KCAL/MOL
REMARK 924 INTRA-LIGAND FREE ENERGY PREDICTED BY IDOCK:   -0.26 KCAL/MOL
REMARK 927      BINDING AFFINITY PREDICTED BY RF-SCORE:    0.00 PKD
ROOT
HETATM    1 CL   UNL     1     -10.980  11.865  66.641  1.00  0.00    -0.316 Cl 
HETATM    2  C   UNL     1     -10.831  10.201  67.258  1.00  0.00    -0.230 C  
HETATM    3  C   UNL     1      -9.715   9.400  66.577  1.00  0.00    -0.236 C  
ENDROOT
BRANCH   3   4
HETATM    4  N   UNL     1      -8.377  10.044  66.599  1.00  0.00    -0.125 NA 
BRANCH   4   5
HETATM    5  C   UNL     1      -7.849  10.655  65.339  1.00  0.00    -0.070 C  
HETATM    6 CL   UNL     1      -9.953  10.727  63.524  1.00  0.00    -0.397 Cl 
HETATM    7  C   UNL     1      -8.320  10.175  63.966  1.00  0.00    -0.172 C  
ENDBRANCH   4   5
BRANCH   4   8
HETATM    8  C   UNL     1      -7.712  10.315  67.840  1.00  0.00    -0.089 C  
HETATM    9  C   UNL     1      -7.105   9.398  68.620  1.00  0.00    -0.070 C  
HETATM   10  N   UNL     1      -6.483   9.686  69.805  1.00  0.00    -0.045 N  
HETATM   11  C   UNL     1      -6.377  10.937  70.322  1.00  0.00    -0.135 C  
HETATM   12  H   UNL     1      -6.074   8.914  70.330  1.00  0.00     0.000 HD 
HETATM   13  O   UNL     1      -5.817  11.157  71.390  1.00  0.00    -0.355 OA 
HETATM   14  N   UNL     1      -6.938  11.922  69.575  1.00  0.00    -0.329 N  
HETATM   15  C   UNL     1      -7.638  11.742  68.411  1.00  0.00    -0.123 C  
HETATM   16  H   UNL     1      -6.828  12.879  69.909  1.00  0.00     0.000 HD 
HETATM   17  O   UNL     1      -8.179  12.718  67.894  1.00  0.00    -0.144 OA 
ENDBRANCH   4   8
ENDBRANCH   3   4
TORSDOF 3
ENDMDL
MODEL      254
REMARK 921   NORMALIZED FREE ENERGY PREDICTED BY IDOCK:   -2.25 KCAL/MOL
REMARK 922        TOTAL FREE ENERGY PREDICTED BY IDOCK:   -3.09 KCAL/MOL
REMARK 923 INTER-LIGAND FREE ENERGY PREDICTED BY IDOCK:   -2.79 KCAL/MOL
REMARK 924 INTRA-LIGAND FREE ENERGY PREDICTED BY IDOCK:   -0.31 KCAL/MOL
REMARK 927      BINDING AFFINITY PREDICTED BY RF-SCORE:    0.00 PKD
ROOT
HETATM    1 CL   UNL     1      -8.660   5.511  67.501  1.00  0.00    -0.109 Cl 
HETATM    2  C   UNL     1     -10.086   6.372  66.870  1.00  0.00    -0.187 C  
HETATM    3  C   UNL     1     -11.082   6.774  67.963  1.00  0.00    -0.158 C  
ENDROOT
BRANCH   3   4
HETATM    4  N   UNL     1     -10.503   7.559  69.083  1.00  0.00    -0.216 NA 
BRANCH   4   5
HETATM    5  C   UNL     1     -10.100   6.843  70.334  1.00  0.00    -0.187 C  
HETATM    6 CL   UNL     1     -11.321   8.162  72.456  1.00  0.00    -0.454 Cl 
HETATM    7  C   UNL     1      -9.842   7.603  71.635  1.00  0.00    -0.162 C  
ENDBRANCH   4   5
BRANCH   4   8
HETATM    8  C   UNL     1     -10.089   8.919  68.892  1.00  0.00    -0.197 C  
HETATM    9  C   UNL     1     -10.885  10.001  68.993  1.00  0.00    -0.222 C  
HETATM   10  N   UNL     1     -10.463  11.288  68.799  1.00  0.00    -0.202 N  
HETATM   11  C   UNL     1      -9.182  11.631  68.508  1.00  0.00    -0.163 C  
HETATM   12  H   UNL     1     -11.152  12.035  68.877  1.00  0.00     0.000 HD 
HETATM   13  O   UNL     1      -8.840  12.795  68.334  1.00  0.00    -0.179 OA 
HETATM   14  N   UNL     1      -8.310  10.593  68.420  1.00  0.00    -0.121 N  
HETATM   15  C   UNL     1      -8.634   9.266  68.533  1.00  0.00    -0.128 C  
HETATM   16  H   UNL     1      -7.330  10.821  68.256  1.00  0.00     0.000 HD 
HETATM   17  O   UNL     1      -7.756   8.429  68.329  1.00  0.00    -0.102 OA 
ENDBRANCH   4   8
ENDBRANCH   3   4
TORSDOF 3
ENDMDL
MODEL      255
REMARK 921   NORMALIZED FREE ENERGY PREDICTED BY IDOCK:   -2.25 KCAL/MOL
REMARK 922        TOTAL FREE ENERGY PREDICTED BY IDOCK:   -3.09 KCAL/MOL
REMARK 923 INTER-LIGAND FREE ENERGY PREDICTED BY IDOCK:   -2.93 KCAL/MOL
REMARK 924 INTRA-LIGAND FREE ENERGY PREDICTED BY IDOCK:   -0.16 KCAL/MOL
REMARK 927      BINDING AFFINITY PREDICTED BY RF-SCORE:    0.00 PKD
ROOT
HETATM    1 CL   UNL     1      -7.667   8.115  73.251  1.00  0.00    -0.207 Cl 
HETATM    2  C   UNL     1      -8.879   6.871  73.645  1.00  0.00    -0.143 C  
HETATM    3  C   UNL     1      -9.792   6.519  72.465  1.00  0.00    -0.165 C  
ENDROOT
BRANCH   3   4
HETATM    4  N   UNL     1      -9.084   6.126  71.220  1.00  0.00    -0.143 NA 
BRANCH   4   5
HETATM    5  C   UNL     1      -8.241   4.889  71.229  1.00  0.00    -0.110 C  
HETATM    6 CL   UNL     1      -9.891   2.772  70.503  1.00  0.00    -0.050 Cl 
HETATM    7  C   UNL     1      -8.808   3.545  71.686  1.00  0.00    -0.095 C  
ENDBRANCH   4   5
BRANCH   4   8
HETATM    8  C   UNL     1      -9.398   6.749  69.967  1.00  0.00    -0.158 C  
HETATM    9  C   UNL     1      -8.509   7.329  69.137  1.00  0.00    -0.133 C  
HETATM   10  N   UNL     1      -8.839   7.922  67.949  1.00  0.00    -0.124 N  
HETATM   11  C   UNL     1     -10.101   7.972  67.450  1.00  0.00    -0.228 C  
HETATM   12  H   UNL     1      -8.092   8.353  67.405  1.00  0.00     0.000 HD 
HETATM   13  O   UNL     1     -10.361   8.518  66.383  1.00  0.00    -0.246 OA 
HETATM   14  N   UNL     1     -11.051   7.378  68.218  1.00  0.00    -0.449 N  
HETATM   15  C   UNL     1     -10.845   6.813  69.448  1.00  0.00    -0.271 C  
HETATM   16  H   UNL     1     -12.000   7.351  67.845  1.00  0.00     0.000 HD 
HETATM   17  O   UNL     1     -11.820   6.402  70.076  1.00  0.00    -0.404 OA 
ENDBRANCH   4   8
ENDBRANCH   3   4
TORSDOF 3
ENDMDL
MODEL      256
REMARK 921   NORMALIZED FREE ENERGY PREDICTED BY IDOCK:   -2.23 KCAL/MOL
REMARK 922        TOTAL FREE ENERGY PREDICTED BY IDOCK:   -3.07 KCAL/MOL
REMARK 923 INTER-LIGAND FREE ENERGY PREDICTED BY IDOCK:   -2.67 KCAL/MOL
REMARK 924 INTRA-LIGAND FREE ENERGY PREDICTED BY IDOCK:   -0.40 KCAL/MOL
REMARK 927      BINDING AFFINITY PREDICTED BY RF-SCORE:    0.00 PKD
ROOT
HETATM    1 CL   UNL     1      -6.800   6.961  70.855  1.00  0.00    -0.054 Cl 
HETATM    2  C   UNL     1      -7.684   8.392  70.270  1.00  0.00    -0.080 C  
HETATM    3  C   UNL     1      -8.502   8.122  69.003  1.00  0.00    -0.129 C  
ENDROOT
BRANCH   3   4
HETATM    4  N   UNL     1      -9.445   6.979  69.096  1.00  0.00    -0.143 NA 
BRANCH   4   5
HETATM    5  C   UNL     1     -10.630   7.092  70.004  1.00  0.00    -0.230 C  
HETATM    6 CL   UNL     1     -10.045   5.626  72.293  1.00  0.00    -0.213 Cl 
HETATM    7  C   UNL     1     -11.079   5.916  70.873  1.00  0.00    -0.242 C  
ENDBRANCH   4   5
BRANCH   4   8
HETATM    8  C   UNL     1      -9.386   5.897  68.156  1.00  0.00    -0.115 C  
HETATM    9  C   UNL     1      -8.425   4.953  68.108  1.00  0.00    -0.102 C  
HETATM   10  N   UNL     1      -8.391   3.936  67.194  1.00  0.00    -0.099 N  
HETATM   11  C   UNL     1      -9.339   3.738  66.243  1.00  0.00    -0.182 C  
HETATM   12  H   UNL     1      -7.606   3.286  67.230  1.00  0.00     0.000 HD 
HETATM   13  O   UNL     1      -9.273   2.818  65.435  1.00  0.00    -0.151 OA 
HETATM   14  N   UNL     1     -10.360   4.633  66.248  1.00  0.00    -0.323 N  
HETATM   15  C   UNL     1     -10.463   5.723  67.072  1.00  0.00    -0.280 C  
HETATM   16  H   UNL     1     -11.116   4.480  65.581  1.00  0.00     0.000 HD 
HETATM   17  O   UNL     1     -11.395   6.506  66.895  1.00  0.00    -0.330 OA 
ENDBRANCH   4   8
ENDBRANCH   3   4
TORSDOF 3
ENDMDL
MODEL      257
REMARK 921   NORMALIZED FREE ENERGY PREDICTED BY IDOCK:   -2.23 KCAL/MOL
REMARK 922        TOTAL FREE ENERGY PREDICTED BY IDOCK:   -3.07 KCAL/MOL
REMARK 923 INTER-LIGAND FREE ENERGY PREDICTED BY IDOCK:   -2.72 KCAL/MOL
REMARK 924 INTRA-LIGAND FREE ENERGY PREDICTED BY IDOCK:   -0.34 KCAL/MOL
REMARK 927      BINDING AFFINITY PREDICTED BY RF-SCORE:    0.00 PKD
ROOT
HETATM    1 CL   UNL     1      -7.771   8.973  71.122  1.00  0.00    -0.156 Cl 
HETATM    2  C   UNL     1      -8.627   7.433  71.376  1.00  0.00    -0.117 C  
HETATM    3  C   UNL     1      -9.447   6.988  70.160  1.00  0.00    -0.162 C  
ENDROOT
BRANCH   3   4
HETATM    4  N   UNL     1      -8.689   6.913  68.885  1.00  0.00    -0.130 NA 
BRANCH   4   5
HETATM    5  C   UNL     1      -7.887   5.683  68.594  1.00  0.00    -0.096 C  
HETATM    6 CL   UNL     1      -9.535   3.499  69.086  1.00  0.00    -0.246 Cl 
HETATM    7  C   UNL     1      -8.047   4.414  69.431  1.00  0.00    -0.060 C  
ENDBRANCH   4   5
BRANCH   4   8
HETATM    8  C   UNL     1      -8.918   7.864  67.836  1.00  0.00    -0.129 C  
HETATM    9  C   UNL     1      -8.156   8.945  67.580  1.00  0.00    -0.109 C  
HETATM   10  N   UNL     1      -8.403   9.840  66.574  1.00  0.00    -0.123 N  
HETATM   11  C   UNL     1      -9.431   9.728  65.695  1.00  0.00    -0.246 C  
HETATM   12  H   UNL     1      -7.776  10.638  66.480  1.00  0.00     0.000 HD 
HETATM   13  O   UNL     1      -9.626  10.553  64.809  1.00  0.00    -0.233 OA 
HETATM   14  N   UNL     1     -10.227   8.642  65.869  1.00  0.00    -0.253 N  
HETATM   15  C   UNL     1     -10.112   7.721  66.877  1.00  0.00    -0.286 C  
HETATM   16  H   UNL     1     -10.976   8.501  65.192  1.00  0.00     0.000 HD 
HETATM   17  O   UNL     1     -10.969   6.844  66.970  1.00  0.00    -0.379 OA 
ENDBRANCH   4   8
ENDBRANCH   3   4
TORSDOF 3
ENDMDL
MODEL      258
REMARK 921   NORMALIZED FREE ENERGY PREDICTED BY IDOCK:   -2.23 KCAL/MOL
REMARK 922        TOTAL FREE ENERGY PREDICTED BY IDOCK:   -3.06 KCAL/MOL
REMARK 923 INTER-LIGAND FREE ENERGY PREDICTED BY IDOCK:   -2.87 KCAL/MOL
REMARK 924 INTRA-LIGAND FREE ENERGY PREDICTED BY IDOCK:   -0.19 KCAL/MOL
REMARK 927      BINDING AFFINITY PREDICTED BY RF-SCORE:    0.00 PKD
ROOT
HETATM    1 CL   UNL     1      -8.210   9.628  66.549  1.00  0.00    -0.119 Cl 
HETATM    2  C   UNL     1      -7.672   7.945  66.331  1.00  0.00    -0.096 C  
HETATM    3  C   UNL     1      -8.121   7.014  67.462  1.00  0.00    -0.113 C  
ENDROOT
BRANCH   3   4
HETATM    4  N   UNL     1      -9.580   7.021  67.740  1.00  0.00    -0.123 NA 
BRANCH   4   5
HETATM    5  C   UNL     1     -10.460   6.062  67.002  1.00  0.00    -0.270 C  
HETATM    6 CL   UNL     1      -9.462   3.510  67.476  1.00  0.00    -0.247 Cl 
HETATM    7  C   UNL     1      -9.887   4.810  66.336  1.00  0.00    -0.219 C  
ENDBRANCH   4   5
BRANCH   4   8
HETATM    8  C   UNL     1     -10.111   7.733  68.866  1.00  0.00    -0.195 C  
HETATM    9  C   UNL     1     -10.023   7.342  70.152  1.00  0.00    -0.184 C  
HETATM   10  N   UNL     1     -10.546   8.039  71.207  1.00  0.00    -0.207 N  
HETATM   11  C   UNL     1     -11.195   9.225  71.085  1.00  0.00    -0.343 C  
HETATM   12  H   UNL     1     -10.443   7.643  72.141  1.00  0.00     0.000 HD 
HETATM   13  O   UNL     1     -11.657   9.820  72.052  1.00  0.00    -0.152 OA 
HETATM   14  N   UNL     1     -11.296   9.702  69.818  1.00  0.00    -0.403 N  
HETATM   15  C   UNL     1     -10.867   9.060  68.686  1.00  0.00    -0.017 C  
HETATM   16  H   UNL     1     -11.730  10.618  69.698  1.00  0.00     0.000 HD 
HETATM   17  O   UNL     1     -11.118   9.567  67.594  1.00  0.00    -0.183 OA 
ENDBRANCH   4   8
ENDBRANCH   3   4
TORSDOF 3
ENDMDL
MODEL      259
REMARK 921   NORMALIZED FREE ENERGY PREDICTED BY IDOCK:   -2.23 KCAL/MOL
REMARK 922        TOTAL FREE ENERGY PREDICTED BY IDOCK:   -3.06 KCAL/MOL
REMARK 923 INTER-LIGAND FREE ENERGY PREDICTED BY IDOCK:   -3.05 KCAL/MOL
REMARK 924 INTRA-LIGAND FREE ENERGY PREDICTED BY IDOCK:   -0.01 KCAL/MOL
REMARK 927      BINDING AFFINITY PREDICTED BY RF-SCORE:    0.00 PKD
ROOT
HETATM    1 CL   UNL     1      -9.203  10.880  64.770  1.00  0.00    -0.224 Cl 
HETATM    2  C   UNL     1      -7.999  10.010  65.752  1.00  0.00    -0.126 C  
HETATM    3  C   UNL     1      -7.828  10.595  67.158  1.00  0.00    -0.117 C  
ENDROOT
BRANCH   3   4
HETATM    4  N   UNL     1      -9.083  10.727  67.941  1.00  0.00    -0.147 NA 
BRANCH   4   5
HETATM    5  C   UNL     1     -10.032  11.834  67.602  1.00  0.00    -0.194 C  
HETATM    6 CL   UNL     1      -8.506  14.128  67.229  1.00  0.00    -0.219 Cl 
HETATM    7  C   UNL     1      -9.795  13.261  68.098  1.00  0.00    -0.231 C  
ENDBRANCH   4   5
BRANCH   4   8
HETATM    8  C   UNL     1      -9.516   9.679  68.820  1.00  0.00    -0.148 C  
HETATM    9  C   UNL     1     -10.598   8.898  68.633  1.00  0.00    -0.147 C  
HETATM   10  N   UNL     1     -10.991   7.909  69.494  1.00  0.00    -0.429 N  
HETATM   11  C   UNL     1     -10.320   7.578  70.626  1.00  0.00    -0.208 C  
HETATM   12  H   UNL     1     -11.839   7.390  69.270  1.00  0.00     0.000 HD 
HETATM   13  O   UNL     1     -10.705   6.690  71.379  1.00  0.00    -0.222 OA 
HETATM   14  N   UNL     1      -9.197   8.303  70.867  1.00  0.00    -0.150 N  
HETATM   15  C   UNL     1      -8.746   9.353  70.111  1.00  0.00    -0.221 C  
HETATM   16  H   UNL     1      -8.641   8.042  71.681  1.00  0.00     0.000 HD 
HETATM   17  O   UNL     1      -7.767   9.983  70.507  1.00  0.00    -0.264 OA 
ENDBRANCH   4   8
ENDBRANCH   3   4
TORSDOF 3
ENDMDL
MODEL      260
REMARK 921   NORMALIZED FREE ENERGY PREDICTED BY IDOCK:   -2.22 KCAL/MOL
REMARK 922        TOTAL FREE ENERGY PREDICTED BY IDOCK:   -3.06 KCAL/MOL
REMARK 923 INTER-LIGAND FREE ENERGY PREDICTED BY IDOCK:   -2.65 KCAL/MOL
REMARK 924 INTRA-LIGAND FREE ENERGY PREDICTED BY IDOCK:   -0.40 KCAL/MOL
REMARK 927      BINDING AFFINITY PREDICTED BY RF-SCORE:    0.00 PKD
ROOT
HETATM    1 CL   UNL     1      -6.447  18.061  66.705  1.00  0.00    -0.205 Cl 
HETATM    2  C   UNL     1      -8.180  17.991  66.301  1.00  0.00    -0.208 C  
HETATM    3  C   UNL     1      -8.738  16.564  66.273  1.00  0.00    -0.333 C  
ENDROOT
BRANCH   3   4
HETATM    4  N   UNL     1      -8.499  15.772  67.506  1.00  0.00    -0.162 NA 
BRANCH   4   5
HETATM    5  C   UNL     1      -8.817  16.387  68.832  1.00  0.00    -0.256 C  
HETATM    6 CL   UNL     1     -11.439  15.692  69.445  1.00  0.00    -0.325 Cl 
HETATM    7  C   UNL     1     -10.210  16.942  69.136  1.00  0.00    -0.292 C  
ENDBRANCH   4   5
BRANCH   4   8
HETATM    8  C   UNL     1      -8.222  14.366  67.436  1.00  0.00    -0.199 C  
HETATM    9  C   UNL     1      -9.132  13.382  67.575  1.00  0.00    -0.215 C  
HETATM   10  N   UNL     1      -8.837  12.047  67.511  1.00  0.00    -0.165 N  
HETATM   11  C   UNL     1      -7.595  11.555  67.268  1.00  0.00    -0.143 C  
HETATM   12  H   UNL     1      -9.596  11.382  67.653  1.00  0.00     0.000 HD 
HETATM   13  O   UNL     1      -7.366  10.351  67.223  1.00  0.00    -0.088 OA 
HETATM   14  N   UNL     1      -6.628  12.490  67.084  1.00  0.00    -0.321 N  
HETATM   15  C   UNL     1      -6.796  13.845  67.190  1.00  0.00     0.450 C  
HETATM   16  H   UNL     1      -5.695  12.153  66.846  1.00  0.00     0.000 HD 
HETATM   17  O   UNL     1      -5.805  14.568  67.097  1.00  0.00    -0.190 OA 
ENDBRANCH   4   8
ENDBRANCH   3   4
TORSDOF 3
ENDMDL
MODEL      261
REMARK 921   NORMALIZED FREE ENERGY PREDICTED BY IDOCK:   -2.22 KCAL/MOL
REMARK 922        TOTAL FREE ENERGY PREDICTED BY IDOCK:   -3.05 KCAL/MOL
REMARK 923 INTER-LIGAND FREE ENERGY PREDICTED BY IDOCK:   -2.73 KCAL/MOL
REMARK 924 INTRA-LIGAND FREE ENERGY PREDICTED BY IDOCK:   -0.32 KCAL/MOL
REMARK 927      BINDING AFFINITY PREDICTED BY RF-SCORE:    0.00 PKD
ROOT
HETATM    1 CL   UNL     1      -6.175   5.185  67.546  1.00  0.00    -0.037 Cl 
HETATM    2  C   UNL     1      -7.077   3.724  68.020  1.00  0.00    -0.051 C  
HETATM    3  C   UNL     1      -8.578   3.972  68.203  1.00  0.00    -0.096 C  
ENDROOT
BRANCH   3   4
HETATM    4  N   UNL     1      -9.256   4.600  67.041  1.00  0.00    -0.121 NA 
BRANCH   4   5
HETATM    5  C   UNL     1      -9.810   3.719  65.965  1.00  0.00    -0.067 C  
HETATM    6 CL   UNL     1      -7.699   2.192  64.995  1.00  0.00    -0.068 Cl 
HETATM    7  C   UNL     1      -8.994   3.381  64.717  1.00  0.00    -0.130 C  
ENDBRANCH   4   5
BRANCH   4   8
HETATM    8  C   UNL     1      -9.613   5.989  67.059  1.00  0.00    -0.133 C  
HETATM    9  C   UNL     1      -9.089   6.943  66.264  1.00  0.00    -0.141 C  
HETATM   10  N   UNL     1      -9.445   8.263  66.309  1.00  0.00    -0.287 N  
HETATM   11  C   UNL     1     -10.391   8.766  67.142  1.00  0.00    -0.293 C  
HETATM   12  H   UNL     1      -8.970   8.908  65.678  1.00  0.00     0.000 HD 
HETATM   13  O   UNL     1     -10.680   9.958  67.159  1.00  0.00    -0.253 OA 
HETATM   14  N   UNL     1     -10.990   7.858  67.954  1.00  0.00    -0.478 N  
HETATM   15  C   UNL     1     -10.669   6.528  68.039  1.00  0.00    -0.283 C  
HETATM   16  H   UNL     1     -11.743   8.195  68.554  1.00  0.00     0.000 HD 
HETATM   17  O   UNL     1     -11.227   5.844  68.895  1.00  0.00    -0.291 OA 
ENDBRANCH   4   8
ENDBRANCH   3   4
TORSDOF 3
ENDMDL
MODEL      262
REMARK 921   NORMALIZED FREE ENERGY PREDICTED BY IDOCK:   -2.21 KCAL/MOL
REMARK 922        TOTAL FREE ENERGY PREDICTED BY IDOCK:   -3.04 KCAL/MOL
REMARK 923 INTER-LIGAND FREE ENERGY PREDICTED BY IDOCK:   -3.24 KCAL/MOL
REMARK 924 INTRA-LIGAND FREE ENERGY PREDICTED BY IDOCK:    0.19 KCAL/MOL
REMARK 927      BINDING AFFINITY PREDICTED BY RF-SCORE:    0.00 PKD
ROOT
HETATM    1 CL   UNL     1      -9.144   9.326  62.657  1.00  0.00    -0.171 Cl 
HETATM    2  C   UNL     1      -7.604   9.192  63.540  1.00  0.00    -0.109 C  
HETATM    3  C   UNL     1      -7.532  10.099  64.774  1.00  0.00    -0.136 C  
ENDROOT
BRANCH   3   4
HETATM    4  N   UNL     1      -8.653   9.941  65.735  1.00  0.00    -0.135 NA 
BRANCH   4   5
HETATM    5  C   UNL     1      -8.569   8.865  66.772  1.00  0.00    -0.115 C  
HETATM    6 CL   UNL     1      -8.534   6.434  65.422  1.00  0.00    -0.147 Cl 
HETATM    7  C   UNL     1      -9.300   7.534  66.595  1.00  0.00    -0.174 C  
ENDBRANCH   4   5
BRANCH   4   8
HETATM    8  C   UNL     1      -9.670  10.946  65.851  1.00  0.00    -0.224 C  
HETATM    9  C   UNL     1     -10.183  11.663  64.831  1.00  0.00    -0.270 C  
HETATM   10  N   UNL     1     -11.149  12.621  64.973  1.00  0.00    -0.284 N  
HETATM   11  C   UNL     1     -11.729  12.943  66.157  1.00  0.00    -0.396 C  
HETATM   12  H   UNL     1     -11.452  13.122  64.139  1.00  0.00     0.000 HD 
HETATM   13  O   UNL     1     -12.590  13.813  66.249  1.00  0.00    -0.416 OA 
HETATM   14  N   UNL     1     -11.287  12.239  67.230  1.00  0.00    -0.306 N  
HETATM   15  C   UNL     1     -10.283  11.306  67.215  1.00  0.00    -0.194 C  
HETATM   16  H   UNL     1     -11.741  12.420  68.125  1.00  0.00     0.000 HD 
HETATM   17  O   UNL     1      -9.918  10.820  68.284  1.00  0.00    -0.159 OA 
ENDBRANCH   4   8
ENDBRANCH   3   4
TORSDOF 3
ENDMDL
MODEL      263
REMARK 921   NORMALIZED FREE ENERGY PREDICTED BY IDOCK:   -2.20 KCAL/MOL
REMARK 922        TOTAL FREE ENERGY PREDICTED BY IDOCK:   -3.03 KCAL/MOL
REMARK 923 INTER-LIGAND FREE ENERGY PREDICTED BY IDOCK:   -2.84 KCAL/MOL
REMARK 924 INTRA-LIGAND FREE ENERGY PREDICTED BY IDOCK:   -0.19 KCAL/MOL
REMARK 927      BINDING AFFINITY PREDICTED BY RF-SCORE:    0.00 PKD
ROOT
HETATM    1 CL   UNL     1      -8.885   4.876  65.003  1.00  0.00    -0.152 Cl 
HETATM    2  C   UNL     1      -8.289   4.969  66.679  1.00  0.00    -0.107 C  
HETATM    3  C   UNL     1      -7.417   6.201  66.944  1.00  0.00    -0.087 C  
ENDROOT
BRANCH   3   4
HETATM    4  N   UNL     1      -8.039   7.500  66.582  1.00  0.00    -0.119 NA 
BRANCH   4   5
HETATM    5  C   UNL     1      -8.063   7.913  65.144  1.00  0.00    -0.144 C  
HETATM    6 CL   UNL     1      -6.694  10.326  64.966  1.00  0.00    -0.125 Cl 
HETATM    7  C   UNL     1      -8.187   9.383  64.742  1.00  0.00    -0.145 C  
ENDBRANCH   4   5
BRANCH   4   8
HETATM    8  C   UNL     1      -8.832   8.226  67.531  1.00  0.00    -0.135 C  
HETATM    9  C   UNL     1      -8.357   9.086  68.454  1.00  0.00    -0.124 C  
HETATM   10  N   UNL     1      -9.139   9.760  69.352  1.00  0.00    -0.187 N  
HETATM   11  C   UNL     1     -10.492   9.665  69.402  1.00  0.00    -0.220 C  
HETATM   12  H   UNL     1      -8.676  10.371  70.024  1.00  0.00     0.000 HD 
HETATM   13  O   UNL     1     -11.161  10.280  70.226  1.00  0.00    -0.282 OA 
HETATM   14  N   UNL     1     -11.049   8.839  68.480  1.00  0.00    -0.412 N  
HETATM   15  C   UNL     1     -10.362   8.069  67.578  1.00  0.00    -0.261 C  
HETATM   16  H   UNL     1     -12.067   8.787  68.456  1.00  0.00     0.000 HD 
HETATM   17  O   UNL     1     -10.996   7.289  66.870  1.00  0.00    -0.343 OA 
ENDBRANCH   4   8
ENDBRANCH   3   4
TORSDOF 3
ENDMDL
MODEL      264
REMARK 921   NORMALIZED FREE ENERGY PREDICTED BY IDOCK:   -2.19 KCAL/MOL
REMARK 922        TOTAL FREE ENERGY PREDICTED BY IDOCK:   -3.02 KCAL/MOL
REMARK 923 INTER-LIGAND FREE ENERGY PREDICTED BY IDOCK:   -2.60 KCAL/MOL
REMARK 924 INTRA-LIGAND FREE ENERGY PREDICTED BY IDOCK:   -0.42 KCAL/MOL
REMARK 927      BINDING AFFINITY PREDICTED BY RF-SCORE:    0.00 PKD
ROOT
HETATM    1 CL   UNL     1      -7.982   8.381  72.206  1.00  0.00    -0.181 Cl 
HETATM    2  C   UNL     1      -9.295   7.261  71.766  1.00  0.00    -0.149 C  
HETATM    3  C   UNL     1     -10.092   7.715  70.538  1.00  0.00    -0.189 C  
ENDROOT
BRANCH   3   4
HETATM    4  N   UNL     1      -9.276   7.998  69.330  1.00  0.00    -0.152 NA 
BRANCH   4   5
HETATM    5  C   UNL     1      -8.433   6.902  68.755  1.00  0.00    -0.121 C  
HETATM    6 CL   UNL     1      -5.779   7.676  69.051  1.00  0.00    -0.026 Cl 
HETATM    7  C   UNL     1      -7.139   7.209  68.001  1.00  0.00    -0.085 C  
ENDBRANCH   4   5
BRANCH   4   8
HETATM    8  C   UNL     1      -9.478   9.196  68.568  1.00  0.00    -0.146 C  
HETATM    9  C   UNL     1      -9.051  10.426  68.916  1.00  0.00    -0.173 C  
HETATM   10  N   UNL     1      -9.265  11.554  68.171  1.00  0.00    -0.175 N  
HETATM   11  C   UNL     1      -9.910  11.564  66.977  1.00  0.00    -0.192 C  
HETATM   12  H   UNL     1      -8.919  12.441  68.536  1.00  0.00     0.000 HD 
HETATM   13  O   UNL     1     -10.090  12.596  66.339  1.00  0.00    -0.242 OA 
HETATM   14  N   UNL     1     -10.344  10.353  66.543  1.00  0.00    -0.237 N  
HETATM   15  C   UNL     1     -10.241   9.173  67.233  1.00  0.00    -0.254 C  
HETATM   16  H   UNL     1     -10.784  10.318  65.623  1.00  0.00     0.000 HD 
HETATM   17  O   UNL     1     -10.771   8.169  66.760  1.00  0.00    -0.278 OA 
ENDBRANCH   4   8
ENDBRANCH   3   4
TORSDOF 3
ENDMDL
MODEL      265
REMARK 921   NORMALIZED FREE ENERGY PREDICTED BY IDOCK:   -2.14 KCAL/MOL
REMARK 922        TOTAL FREE ENERGY PREDICTED BY IDOCK:   -2.96 KCAL/MOL
REMARK 923 INTER-LIGAND FREE ENERGY PREDICTED BY IDOCK:   -2.75 KCAL/MOL
REMARK 924 INTRA-LIGAND FREE ENERGY PREDICTED BY IDOCK:   -0.21 KCAL/MOL
REMARK 927      BINDING AFFINITY PREDICTED BY RF-SCORE:    0.00 PKD
ROOT
HETATM    1 CL   UNL     1      -7.209   8.543  71.706  1.00  0.00    -0.104 Cl 
HETATM    2  C   UNL     1      -8.553   8.224  72.830  1.00  0.00    -0.203 C  
HETATM    3  C   UNL     1      -9.851   8.940  72.440  1.00  0.00     0.016 C  
ENDROOT
BRANCH   3   4
HETATM    4  N   UNL     1     -10.314   8.688  71.052  1.00  0.00    -0.205 NA 
BRANCH   4   5
HETATM    5  C   UNL     1     -10.978   7.384  70.738  1.00  0.00    -0.255 C  
HETATM    6 CL   UNL     1      -9.175   5.373  71.401  1.00  0.00    -0.163 Cl 
HETATM    7  C   UNL     1     -10.181   6.200  70.187  1.00  0.00    -0.199 C  
ENDBRANCH   4   5
BRANCH   4   8
HETATM    8  C   UNL     1     -10.373   9.751  70.091  1.00  0.00    -0.282 C  
HETATM    9  C   UNL     1     -11.070  10.896  70.231  1.00  0.00    -0.093 C  
HETATM   10  N   UNL     1     -11.112  11.890  69.292  1.00  0.00    -0.368 N  
HETATM   11  C   UNL     1     -10.432  11.855  68.118  1.00  0.00    -0.207 C  
HETATM   12  H   UNL     1     -11.690  12.708  69.487  1.00  0.00     0.000 HD 
HETATM   13  O   UNL     1     -10.498  12.764  67.297  1.00  0.00    -0.231 OA 
HETATM   14  N   UNL     1      -9.678  10.744  67.918  1.00  0.00    -0.164 N  
HETATM   15  C   UNL     1      -9.612   9.662  68.757  1.00  0.00    -0.152 C  
HETATM   16  H   UNL     1      -9.112  10.712  67.070  1.00  0.00     0.000 HD 
HETATM   17  O   UNL     1      -8.965   8.680  68.397  1.00  0.00    -0.141 OA 
ENDBRANCH   4   8
ENDBRANCH   3   4
TORSDOF 3
ENDMDL
MODEL      266
REMARK 921   NORMALIZED FREE ENERGY PREDICTED BY IDOCK:   -2.13 KCAL/MOL
REMARK 922        TOTAL FREE ENERGY PREDICTED BY IDOCK:   -2.95 KCAL/MOL
REMARK 923 INTER-LIGAND FREE ENERGY PREDICTED BY IDOCK:   -3.18 KCAL/MOL
REMARK 924 INTRA-LIGAND FREE ENERGY PREDICTED BY IDOCK:    0.23 KCAL/MOL
REMARK 927      BINDING AFFINITY PREDICTED BY RF-SCORE:    0.00 PKD
ROOT
HETATM    1 CL   UNL     1      -5.456  15.590  67.590  1.00  0.00    -0.124 Cl 
HETATM    2  C   UNL     1      -7.128  15.743  66.998  1.00  0.00    -0.134 C  
HETATM    3  C   UNL     1      -7.979  16.708  67.831  1.00  0.00    -0.171 C  
ENDROOT
BRANCH   3   4
HETATM    4  N   UNL     1      -7.403  18.065  68.003  1.00  0.00    -0.226 NA 
BRANCH   4   5
HETATM    5  C   UNL     1      -7.058  18.534  69.382  1.00  0.00    -0.065 C  
HETATM    6 CL   UNL     1      -5.293  20.665  69.100  1.00  0.00    -0.333 Cl 
HETATM    7  C   UNL     1      -5.654  19.036  69.721  1.00  0.00    -0.217 C  
ENDBRANCH   4   5
BRANCH   4   8
HETATM    8  C   UNL     1      -6.938  18.816  66.873  1.00  0.00    -0.200 C  
HETATM    9  C   UNL     1      -5.658  18.901  66.462  1.00  0.00    -0.156 C  
HETATM   10  N   UNL     1      -5.242  19.632  65.382  1.00  0.00    -0.158 N  
HETATM   11  C   UNL     1      -6.077  20.337  64.577  1.00  0.00    -0.283 C  
HETATM   12  H   UNL     1      -4.245  19.647  65.170  1.00  0.00     0.000 HD 
HETATM   13  O   UNL     1      -5.669  20.987  63.620  1.00  0.00    -0.240 OA 
HETATM   14  N   UNL     1      -7.392  20.274  64.909  1.00  0.00    -0.181 N  
HETATM   15  C   UNL     1      -7.911  19.629  66.000  1.00  0.00    -0.326 C  
HETATM   16  H   UNL     1      -8.051  20.749  64.292  1.00  0.00     0.000 HD 
HETATM   17  O   UNL     1      -9.113  19.742  66.232  1.00  0.00    -0.365 OA 
ENDBRANCH   4   8
ENDBRANCH   3   4
TORSDOF 3
ENDMDL
MODEL      267
REMARK 921   NORMALIZED FREE ENERGY PREDICTED BY IDOCK:   -2.10 KCAL/MOL
REMARK 922        TOTAL FREE ENERGY PREDICTED BY IDOCK:   -2.92 KCAL/MOL
REMARK 923 INTER-LIGAND FREE ENERGY PREDICTED BY IDOCK:   -2.45 KCAL/MOL
REMARK 924 INTRA-LIGAND FREE ENERGY PREDICTED BY IDOCK:   -0.47 KCAL/MOL
REMARK 927      BINDING AFFINITY PREDICTED BY RF-SCORE:    0.00 PKD
ROOT
HETATM    1 CL   UNL     1      -7.957  11.321  69.038  1.00  0.00    -0.105 Cl 
HETATM    2  C   UNL     1      -6.460  10.412  69.362  1.00  0.00    -0.057 C  
HETATM    3  C   UNL     1      -6.653   9.260  70.354  1.00  0.00    -0.068 C  
ENDROOT
BRANCH   3   4
HETATM    4  N   UNL     1      -7.731   8.302  70.000  1.00  0.00    -0.092 NA 
BRANCH   4   5
HETATM    5  C   UNL     1      -7.842   7.831  68.584  1.00  0.00    -0.120 C  
HETATM    6 CL   UNL     1     -10.403   8.474  67.711  1.00  0.00    -0.289 Cl 
HETATM    7  C   UNL     1      -9.150   7.253  68.040  1.00  0.00    -0.133 C  
ENDBRANCH   4   5
BRANCH   4   8
HETATM    8  C   UNL     1      -8.485   7.633  71.020  1.00  0.00    -0.116 C  
HETATM    9  C   UNL     1      -8.219   6.408  71.514  1.00  0.00    -0.117 C  
HETATM   10  N   UNL     1      -8.962   5.791  72.484  1.00  0.00    -0.133 N  
HETATM   11  C   UNL     1     -10.041   6.353  73.086  1.00  0.00    -0.189 C  
HETATM   12  H   UNL     1      -8.688   4.852  72.771  1.00  0.00     0.000 HD 
HETATM   13  O   UNL     1     -10.687   5.768  73.948  1.00  0.00    -0.264 OA 
HETATM   14  N   UNL     1     -10.353   7.605  72.663  1.00  0.00    -0.249 N  
HETATM   15  C   UNL     1      -9.721   8.290  71.659  1.00  0.00    -0.197 C  
HETATM   16  H   UNL     1     -11.125   8.076  73.134  1.00  0.00     0.000 HD 
HETATM   17  O   UNL     1     -10.178   9.378  71.313  1.00  0.00    -0.315 OA 
ENDBRANCH   4   8
ENDBRANCH   3   4
TORSDOF 3
ENDMDL
MODEL      268
REMARK 921   NORMALIZED FREE ENERGY PREDICTED BY IDOCK:   -2.10 KCAL/MOL
REMARK 922        TOTAL FREE ENERGY PREDICTED BY IDOCK:   -2.91 KCAL/MOL
REMARK 923 INTER-LIGAND FREE ENERGY PREDICTED BY IDOCK:   -3.46 KCAL/MOL
REMARK 924 INTRA-LIGAND FREE ENERGY PREDICTED BY IDOCK:    0.55 KCAL/MOL
REMARK 927      BINDING AFFINITY PREDICTED BY RF-SCORE:    0.00 PKD
ROOT
HETATM    1 CL   UNL     1     -11.898  14.059  68.175  1.00  0.00    -0.392 Cl 
HETATM    2  C   UNL     1     -10.513  14.619  67.206  1.00  0.00    -0.266 C  
HETATM    3  C   UNL     1      -9.653  13.474  66.660  1.00  0.00    -0.278 C  
ENDROOT
BRANCH   3   4
HETATM    4  N   UNL     1     -10.396  12.445  65.888  1.00  0.00    -0.251 NA 
BRANCH   4   5
HETATM    5  C   UNL     1     -11.848  12.666  65.601  1.00  0.00    -0.437 C  
HETATM    6 CL   UNL     1     -12.075  13.156  62.873  1.00  0.00    -0.059 Cl 
HETATM    7  C   UNL     1     -12.305  13.686  64.557  1.00  0.00    -0.356 C  
ENDBRANCH   4   5
BRANCH   4   8
HETATM    8  C   UNL     1      -9.700  11.394  65.204  1.00  0.00    -0.244 C  
HETATM    9  C   UNL     1      -9.592  11.268  63.867  1.00  0.00    -0.245 C  
HETATM   10  N   UNL     1      -8.927  10.249  63.241  1.00  0.00    -0.215 N  
HETATM   11  C   UNL     1      -8.271   9.257  63.895  1.00  0.00    -0.165 C  
HETATM   12  H   UNL     1      -8.924  10.235  62.221  1.00  0.00     0.000 HD 
HETATM   13  O   UNL     1      -7.689   8.355  63.301  1.00  0.00    -0.125 OA 
HETATM   14  N   UNL     1      -8.307   9.333  65.250  1.00  0.00    -0.137 N  
HETATM   15  C   UNL     1      -8.993  10.269  65.979  1.00  0.00    -0.152 C  
HETATM   16  H   UNL     1      -7.778   8.633  65.770  1.00  0.00     0.000 HD 
HETATM   17  O   UNL     1      -9.020  10.154  67.203  1.00  0.00    -0.135 OA 
ENDBRANCH   4   8
ENDBRANCH   3   4
TORSDOF 3
ENDMDL
MODEL      269
REMARK 921   NORMALIZED FREE ENERGY PREDICTED BY IDOCK:   -2.07 KCAL/MOL
REMARK 922        TOTAL FREE ENERGY PREDICTED BY IDOCK:   -2.88 KCAL/MOL
REMARK 923 INTER-LIGAND FREE ENERGY PREDICTED BY IDOCK:   -2.69 KCAL/MOL
REMARK 924 INTRA-LIGAND FREE ENERGY PREDICTED BY IDOCK:   -0.19 KCAL/MOL
REMARK 927      BINDING AFFINITY PREDICTED BY RF-SCORE:    0.00 PKD
ROOT
HETATM    1 CL   UNL     1      -6.941   8.981  71.094  1.00  0.00    -0.092 Cl 
HETATM    2  C   UNL     1      -7.537  10.305  70.063  1.00  0.00    -0.103 C  
HETATM    3  C   UNL     1      -8.269   9.814  68.810  1.00  0.00    -0.108 C  
ENDROOT
BRANCH   3   4
HETATM    4  N   UNL     1      -9.382   8.864  69.065  1.00  0.00    -0.144 NA 
BRANCH   4   5
HETATM    5  C   UNL     1     -10.583   9.345  69.818  1.00  0.00    -0.231 C  
HETATM    6 CL   UNL     1     -11.416  11.704  68.605  1.00  0.00    -0.314 Cl 
HETATM    7  C   UNL     1     -10.832  10.836  70.046  1.00  0.00    -0.153 C  
ENDBRANCH   4   5
BRANCH   4   8
HETATM    8  C   UNL     1      -9.440   7.600  68.390  1.00  0.00    -0.150 C  
HETATM    9  C   UNL     1      -9.074   6.415  68.915  1.00  0.00    -0.129 C  
HETATM   10  N   UNL     1      -9.134   5.224  68.244  1.00  0.00    -0.109 N  
HETATM   11  C   UNL     1      -9.599   5.090  66.976  1.00  0.00    -0.152 C  
HETATM   12  H   UNL     1      -8.810   4.386  68.727  1.00  0.00     0.000 HD 
HETATM   13  O   UNL     1      -9.633   4.006  66.403  1.00  0.00    -0.185 OA 
HETATM   14  N   UNL     1     -10.019   6.240  66.389  1.00  0.00    -0.358 N  
HETATM   15  C   UNL     1      -9.945   7.492  66.941  1.00  0.00    -0.248 C  
HETATM   16  H   UNL     1     -10.425   6.165  65.456  1.00  0.00     0.000 HD 
HETATM   17  O   UNL     1     -10.270   8.457  66.251  1.00  0.00    -0.212 OA 
ENDBRANCH   4   8
ENDBRANCH   3   4
TORSDOF 3
ENDMDL
MODEL      270
REMARK 921   NORMALIZED FREE ENERGY PREDICTED BY IDOCK:   -2.05 KCAL/MOL
REMARK 922        TOTAL FREE ENERGY PREDICTED BY IDOCK:   -2.86 KCAL/MOL
REMARK 923 INTER-LIGAND FREE ENERGY PREDICTED BY IDOCK:   -2.52 KCAL/MOL
REMARK 924 INTRA-LIGAND FREE ENERGY PREDICTED BY IDOCK:   -0.34 KCAL/MOL
REMARK 927      BINDING AFFINITY PREDICTED BY RF-SCORE:    0.00 PKD
ROOT
HETATM    1 CL   UNL     1      -9.412   7.998  73.248  1.00  0.00    -0.346 Cl 
HETATM    2  C   UNL     1     -11.079   7.580  72.781  1.00  0.00    -0.366 C  
HETATM    3  C   UNL     1     -11.174   6.924  71.399  1.00  0.00    -0.259 C  
ENDROOT
BRANCH   3   4
HETATM    4  N   UNL     1     -10.308   5.733  71.208  1.00  0.00    -0.215 NA 
BRANCH   4   5
HETATM    5  C   UNL     1     -10.430   4.590  72.167  1.00  0.00    -0.122 C  
HETATM    6 CL   UNL     1      -8.288   4.772  73.931  1.00  0.00    -0.104 Cl 
HETATM    7  C   UNL     1      -9.194   3.862  72.697  1.00  0.00    -0.109 C  
ENDBRANCH   4   5
BRANCH   4   8
HETATM    8  C   UNL     1      -9.560   5.553  69.998  1.00  0.00    -0.165 C  
HETATM    9  C   UNL     1      -9.670   4.505  69.158  1.00  0.00    -0.179 C  
HETATM   10  N   UNL     1      -8.937   4.356  68.012  1.00  0.00    -0.113 N  
HETATM   11  C   UNL     1      -8.030   5.264  67.569  1.00  0.00    -0.100 C  
HETATM   12  H   UNL     1      -9.081   3.513  67.458  1.00  0.00     0.000 HD 
HETATM   13  O   UNL     1      -7.386   5.095  66.539  1.00  0.00    -0.082 OA 
HETATM   14  N   UNL     1      -7.886   6.367  68.347  1.00  0.00    -0.104 N  
HETATM   15  C   UNL     1      -8.518   6.589  69.543  1.00  0.00    -0.131 C  
HETATM   16  H   UNL     1      -7.252   7.092  68.013  1.00  0.00     0.000 HD 
HETATM   17  O   UNL     1      -8.212   7.589  70.190  1.00  0.00    -0.127 OA 
ENDBRANCH   4   8
ENDBRANCH   3   4
TORSDOF 3
ENDMDL
MODEL      271
REMARK 921   NORMALIZED FREE ENERGY PREDICTED BY IDOCK:   -2.03 KCAL/MOL
REMARK 922        TOTAL FREE ENERGY PREDICTED BY IDOCK:   -2.83 KCAL/MOL
REMARK 923 INTER-LIGAND FREE ENERGY PREDICTED BY IDOCK:   -2.90 KCAL/MOL
REMARK 924 INTRA-LIGAND FREE ENERGY PREDICTED BY IDOCK:    0.07 KCAL/MOL
REMARK 927      BINDING AFFINITY PREDICTED BY RF-SCORE:    0.00 PKD
ROOT
HETATM    1 CL   UNL     1      -9.685   8.740  70.692  1.00  0.00    -0.219 Cl 
HETATM    2  C   UNL     1      -9.171   8.465  72.375  1.00  0.00    -0.275 C  
HETATM    3  C   UNL     1     -10.205   7.699  73.206  1.00  0.00    -0.339 C  
ENDROOT
BRANCH   3   4
HETATM    4  N   UNL     1     -10.650   6.408  72.621  1.00  0.00    -0.214 NA 
BRANCH   4   5
HETATM    5  C   UNL     1     -11.948   6.361  71.878  1.00  0.00    -0.329 C  
HETATM    6 CL   UNL     1     -11.332   6.112  69.178  1.00  0.00    -0.425 Cl 
HETATM    7  C   UNL     1     -12.101   7.017  70.505  1.00  0.00    -0.229 C  
ENDBRANCH   4   5
BRANCH   4   8
HETATM    8  C   UNL     1      -9.752   5.293  72.532  1.00  0.00    -0.150 C  
HETATM    9  C   UNL     1      -8.849   5.091  71.552  1.00  0.00    -0.132 C  
HETATM   10  N   UNL     1      -8.010   4.012  71.490  1.00  0.00    -0.075 N  
HETATM   11  C   UNL     1      -7.967   3.029  72.425  1.00  0.00    -0.059 C  
HETATM   12  H   UNL     1      -7.378   3.943  70.693  1.00  0.00     0.000 HD 
HETATM   13  O   UNL     1      -7.205   2.072  72.333  1.00  0.00    -0.029 OA 
HETATM   14  N   UNL     1      -8.829   3.179  73.463  1.00  0.00    -0.080 N  
HETATM   15  C   UNL     1      -9.754   4.181  73.595  1.00  0.00    -0.112 C  
HETATM   16  H   UNL     1      -8.783   2.485  74.210  1.00  0.00     0.000 HD 
HETATM   17  O   UNL     1     -10.539   4.133  74.540  1.00  0.00    -0.233 OA 
ENDBRANCH   4   8
ENDBRANCH   3   4
TORSDOF 3
ENDMDL
MODEL      272
REMARK 921   NORMALIZED FREE ENERGY PREDICTED BY IDOCK:   -2.02 KCAL/MOL
REMARK 922        TOTAL FREE ENERGY PREDICTED BY IDOCK:   -2.82 KCAL/MOL
REMARK 923 INTER-LIGAND FREE ENERGY PREDICTED BY IDOCK:   -2.70 KCAL/MOL
REMARK 924 INTRA-LIGAND FREE ENERGY PREDICTED BY IDOCK:   -0.12 KCAL/MOL
REMARK 927      BINDING AFFINITY PREDICTED BY RF-SCORE:    0.00 PKD
ROOT
HETATM    1 CL   UNL     1      -6.455   8.274  73.245  1.00  0.00    -0.109 Cl 
HETATM    2  C   UNL     1      -7.858   7.448  73.965  1.00  0.00    -0.130 C  
HETATM    3  C   UNL     1      -9.201   7.953  73.426  1.00  0.00    -0.286 C  
ENDROOT
BRANCH   3   4
HETATM    4  N   UNL     1      -9.334   7.927  71.948  1.00  0.00    -0.145 NA 
BRANCH   4   5
HETATM    5  C   UNL     1      -9.211   9.211  71.188  1.00  0.00    -0.231 C  
HETATM    6 CL   UNL     1      -8.542   8.549  68.571  1.00  0.00    -0.137 Cl 
HETATM    7  C   UNL     1      -8.157   9.388  70.094  1.00  0.00    -0.157 C  
ENDBRANCH   4   5
BRANCH   4   8
HETATM    8  C   UNL     1      -9.316   6.685  71.229  1.00  0.00    -0.158 C  
HETATM    9  C   UNL     1      -8.268   5.842  71.149  1.00  0.00    -0.122 C  
HETATM   10  N   UNL     1      -8.278   4.666  70.449  1.00  0.00    -0.074 N  
HETATM   11  C   UNL     1      -9.357   4.195  69.774  1.00  0.00    -0.167 C  
HETATM   12  H   UNL     1      -7.423   4.111  70.434  1.00  0.00     0.000 HD 
HETATM   13  O   UNL     1      -9.328   3.138  69.151  1.00  0.00    -0.151 OA 
HETATM   14  N   UNL     1     -10.466   4.976  69.834  1.00  0.00    -0.238 N  
HETATM   15  C   UNL     1     -10.549   6.198  70.449  1.00  0.00    -0.257 C  
HETATM   16  H   UNL     1     -11.309   4.623  69.383  1.00  0.00     0.000 HD 
HETATM   17  O   UNL     1     -11.591   6.841  70.336  1.00  0.00    -0.339 OA 
ENDBRANCH   4   8
ENDBRANCH   3   4
TORSDOF 3
ENDMDL
MODEL      273
REMARK 921   NORMALIZED FREE ENERGY PREDICTED BY IDOCK:   -1.95 KCAL/MOL
REMARK 922        TOTAL FREE ENERGY PREDICTED BY IDOCK:   -2.73 KCAL/MOL
REMARK 923 INTER-LIGAND FREE ENERGY PREDICTED BY IDOCK:   -2.33 KCAL/MOL
REMARK 924 INTRA-LIGAND FREE ENERGY PREDICTED BY IDOCK:   -0.40 KCAL/MOL
REMARK 927      BINDING AFFINITY PREDICTED BY RF-SCORE:    0.00 PKD
ROOT
HETATM    1 CL   UNL     1     -13.456   9.892  70.370  1.00  0.00     0.092 Cl 
HETATM    2  C   UNL     1     -12.756  11.266  71.261  1.00  0.00    -0.405 C  
HETATM    3  C   UNL     1     -11.425  11.752  70.676  1.00  0.00     0.547 C  
ENDROOT
BRANCH   3   4
HETATM    4  N   UNL     1     -11.460  12.085  69.229  1.00  0.00    -0.282 NA 
BRANCH   4   5
HETATM    5  C   UNL     1     -12.146  13.341  68.793  1.00  0.00    -0.219 C  
HETATM    6 CL   UNL     1     -10.749  15.466  69.918  1.00  0.00    -0.292 Cl 
HETATM    7  C   UNL     1     -12.262  14.547  69.726  1.00  0.00    -0.312 C  
ENDBRANCH   4   5
BRANCH   4   8
HETATM    8  C   UNL     1     -10.640  11.375  68.290  1.00  0.00    -0.195 C  
HETATM    9  C   UNL     1     -10.936  10.183  67.737  1.00  0.00    -0.277 C  
HETATM   10  N   UNL     1     -10.130   9.525  66.848  1.00  0.00    -0.213 N  
HETATM   11  C   UNL     1      -8.945  10.010  66.395  1.00  0.00    -0.144 C  
HETATM   12  H   UNL     1     -10.438   8.615  66.505  1.00  0.00     0.000 HD 
HETATM   13  O   UNL     1      -8.245   9.390  65.602  1.00  0.00    -0.115 OA 
HETATM   14  N   UNL     1      -8.592  11.226  66.885  1.00  0.00    -0.144 N  
HETATM   15  C   UNL     1      -9.288  11.942  67.823  1.00  0.00    -0.184 C  
HETATM   16  H   UNL     1      -7.735  11.643  66.523  1.00  0.00     0.000 HD 
HETATM   17  O   UNL     1      -8.795  12.985  68.250  1.00  0.00    -0.189 OA 
ENDBRANCH   4   8
ENDBRANCH   3   4
TORSDOF 3
ENDMDL
MODEL      274
REMARK 921   NORMALIZED FREE ENERGY PREDICTED BY IDOCK:   -1.92 KCAL/MOL
REMARK 922        TOTAL FREE ENERGY PREDICTED BY IDOCK:   -2.70 KCAL/MOL
REMARK 923 INTER-LIGAND FREE ENERGY PREDICTED BY IDOCK:   -2.93 KCAL/MOL
REMARK 924 INTRA-LIGAND FREE ENERGY PREDICTED BY IDOCK:    0.23 KCAL/MOL
REMARK 927      BINDING AFFINITY PREDICTED BY RF-SCORE:    0.00 PKD
ROOT
HETATM    1 CL   UNL     1      -9.293  16.638  65.999  1.00  0.00    -0.301 Cl 
HETATM    2  C   UNL     1     -10.108  16.366  67.559  1.00  0.00    -0.261 C  
HETATM    3  C   UNL     1      -9.809  14.992  68.167  1.00  0.00    -0.216 C  
ENDROOT
BRANCH   3   4
HETATM    4  N   UNL     1      -8.366  14.672  68.316  1.00  0.00    -0.141 NA 
BRANCH   4   5
HETATM    5  C   UNL     1      -7.573  15.384  69.367  1.00  0.00    -0.224 C  
HETATM    6 CL   UNL     1      -7.167  17.981  68.461  1.00  0.00    -0.254 Cl 
HETATM    7  C   UNL     1      -6.508  16.416  68.995  1.00  0.00    -0.171 C  
ENDBRANCH   4   5
BRANCH   4   8
HETATM    8  C   UNL     1      -7.794  13.531  67.662  1.00  0.00    -0.175 C  
HETATM    9  C   UNL     1      -6.518  13.115  67.787  1.00  0.00    -0.153 C  
HETATM   10  N   UNL     1      -5.998  12.025  67.144  1.00  0.00    -0.146 N  
HETATM   11  C   UNL     1      -6.714  11.214  66.324  1.00  0.00    -0.064 C  
HETATM   12  H   UNL     1      -5.012  11.809  67.290  1.00  0.00     0.000 HD 
HETATM   13  O   UNL     1      -6.212  10.248  65.759  1.00  0.00    -0.090 OA 
HETATM   14  N   UNL     1      -8.020  11.551  66.172  1.00  0.00    -0.375 N  
HETATM   15  C   UNL     1      -8.629  12.652  66.715  1.00  0.00    -0.098 C  
HETATM   16  H   UNL     1      -8.598  10.931  65.606  1.00  0.00     0.000 HD 
HETATM   17  O   UNL     1      -9.797  12.887  66.408  1.00  0.00    -0.256 OA 
ENDBRANCH   4   8
ENDBRANCH   3   4
TORSDOF 3
ENDMDL
MODEL      275
REMARK 921   NORMALIZED FREE ENERGY PREDICTED BY IDOCK:   -1.89 KCAL/MOL
REMARK 922        TOTAL FREE ENERGY PREDICTED BY IDOCK:   -2.67 KCAL/MOL
REMARK 923 INTER-LIGAND FREE ENERGY PREDICTED BY IDOCK:   -3.32 KCAL/MOL
REMARK 924 INTRA-LIGAND FREE ENERGY PREDICTED BY IDOCK:    0.65 KCAL/MOL
REMARK 927      BINDING AFFINITY PREDICTED BY RF-SCORE:    0.00 PKD
ROOT
HETATM    1 CL   UNL     1     -10.191   9.022  66.480  1.00  0.00    -0.343 Cl 
HETATM    2  C   UNL     1     -10.206   7.333  67.041  1.00  0.00    -0.278 C  
HETATM    3  C   UNL     1      -9.028   6.989  67.959  1.00  0.00    -0.126 C  
ENDROOT
BRANCH   3   4
HETATM    4  N   UNL     1      -8.864   7.884  69.133  1.00  0.00    -0.141 NA 
BRANCH   4   5
HETATM    5  C   UNL     1      -7.734   8.866  69.140  1.00  0.00    -0.092 C  
HETATM    6 CL   UNL     1      -6.792   9.043  66.530  1.00  0.00    -0.078 Cl 
HETATM    7  C   UNL     1      -6.508   8.671  68.248  1.00  0.00    -0.060 C  
ENDBRANCH   4   5
BRANCH   4   8
HETATM    8  C   UNL     1      -9.900   8.003  70.118  1.00  0.00    -0.184 C  
HETATM    9  C   UNL     1     -11.177   7.602  69.964  1.00  0.00    -0.134 C  
HETATM   10  N   UNL     1     -12.146   7.735  70.921  1.00  0.00    -0.463 N  
HETATM   11  C   UNL     1     -11.929   8.263  72.152  1.00  0.00    -0.369 C  
HETATM   12  H   UNL     1     -13.089   7.419  70.694  1.00  0.00     0.000 HD 
HETATM   13  O   UNL     1     -12.824   8.372  72.984  1.00  0.00    -0.147 OA 
HETATM   14  N   UNL     1     -10.654   8.662  72.395  1.00  0.00    -0.304 N  
HETATM   15  C   UNL     1      -9.623   8.635  71.493  1.00  0.00    -0.257 C  
HETATM   16  H   UNL     1     -10.446   9.012  73.330  1.00  0.00     0.000 HD 
HETATM   17  O   UNL     1      -8.544   9.125  71.821  1.00  0.00    -0.340 OA 
ENDBRANCH   4   8
ENDBRANCH   3   4
TORSDOF 3
ENDMDL
MODEL      276
REMARK 921   NORMALIZED FREE ENERGY PREDICTED BY IDOCK:   -1.86 KCAL/MOL
REMARK 922        TOTAL FREE ENERGY PREDICTED BY IDOCK:   -2.63 KCAL/MOL
REMARK 923 INTER-LIGAND FREE ENERGY PREDICTED BY IDOCK:   -2.73 KCAL/MOL
REMARK 924 INTRA-LIGAND FREE ENERGY PREDICTED BY IDOCK:    0.10 KCAL/MOL
REMARK 927      BINDING AFFINITY PREDICTED BY RF-SCORE:    0.00 PKD
ROOT
HETATM    1 CL   UNL     1      -8.645   4.636  68.768  1.00  0.00    -0.092 Cl 
HETATM    2  C   UNL     1     -10.005   5.728  68.406  1.00  0.00    -0.153 C  
HETATM    3  C   UNL     1     -10.948   5.935  69.596  1.00  0.00    -0.377 C  
ENDROOT
BRANCH   3   4
HETATM    4  N   UNL     1     -10.290   6.386  70.848  1.00  0.00    -0.199 NA 
BRANCH   4   5
HETATM    5  C   UNL     1     -10.390   7.827  71.239  1.00  0.00    -0.198 C  
HETATM    6 CL   UNL     1      -9.067   8.107  73.668  1.00  0.00    -0.298 Cl 
HETATM    7  C   UNL     1     -10.555   8.243  72.701  1.00  0.00    -0.308 C  
ENDBRANCH   4   5
BRANCH   4   8
HETATM    8  C   UNL     1      -9.793   5.436  71.802  1.00  0.00    -0.174 C  
HETATM    9  C   UNL     1      -8.516   5.017  71.898  1.00  0.00    -0.124 C  
HETATM   10  N   UNL     1      -8.073   4.103  72.815  1.00  0.00    -0.091 N  
HETATM   11  C   UNL     1      -8.863   3.531  73.759  1.00  0.00    -0.088 C  
HETATM   12  H   UNL     1      -7.089   3.837  72.788  1.00  0.00     0.000 HD 
HETATM   13  O   UNL     1      -8.432   2.711  74.562  1.00  0.00    -0.066 OA 
HETATM   14  N   UNL     1     -10.161   3.929  73.747  1.00  0.00    -0.140 N  
HETATM   15  C   UNL     1     -10.726   4.785  72.838  1.00  0.00    -0.232 C  
HETATM   16  H   UNL     1     -10.768   3.559  74.478  1.00  0.00     0.000 HD 
HETATM   17  O   UNL     1     -11.940   4.976  72.888  1.00  0.00    -0.191 OA 
ENDBRANCH   4   8
ENDBRANCH   3   4
TORSDOF 3
ENDMDL
MODEL      277
REMARK 921   NORMALIZED FREE ENERGY PREDICTED BY IDOCK:   -1.84 KCAL/MOL
REMARK 922        TOTAL FREE ENERGY PREDICTED BY IDOCK:   -2.61 KCAL/MOL
REMARK 923 INTER-LIGAND FREE ENERGY PREDICTED BY IDOCK:   -3.59 KCAL/MOL
REMARK 924 INTRA-LIGAND FREE ENERGY PREDICTED BY IDOCK:    0.98 KCAL/MOL
REMARK 927      BINDING AFFINITY PREDICTED BY RF-SCORE:    0.00 PKD
ROOT
HETATM    1 CL   UNL     1      -7.554   9.878  67.700  1.00  0.00    -0.091 Cl 
HETATM    2  C   UNL     1      -7.131   8.154  67.564  1.00  0.00    -0.083 C  
HETATM    3  C   UNL     1      -7.221   7.401  68.896  1.00  0.00    -0.089 C  
ENDROOT
BRANCH   3   4
HETATM    4  N   UNL     1      -8.523   7.523  69.599  1.00  0.00    -0.134 NA 
BRANCH   4   5
HETATM    5  C   UNL     1      -8.760   6.701  70.827  1.00  0.00    -0.143 C  
HETATM    6 CL   UNL     1      -9.953   4.329  70.002  1.00  0.00    -0.271 Cl 
HETATM    7  C   UNL     1     -10.005   5.824  70.967  1.00  0.00    -0.190 C  
ENDBRANCH   4   5
BRANCH   4   8
HETATM    8  C   UNL     1      -9.435   8.583  69.280  1.00  0.00    -0.158 C  
HETATM    9  C   UNL     1      -9.516   9.766  69.921  1.00  0.00    -0.231 C  
HETATM   10  N   UNL     1     -10.403  10.757  69.599  1.00  0.00    -0.424 N  
HETATM   11  C   UNL     1     -11.289  10.678  68.574  1.00  0.00    -0.284 C  
HETATM   12  H   UNL     1     -10.397  11.606  70.163  1.00  0.00     0.000 HD 
HETATM   13  O   UNL     1     -12.074  11.584  68.317  1.00  0.00    -0.580 OA 
HETATM   14  N   UNL     1     -11.246   9.525  67.858  1.00  0.00    -0.489 N  
HETATM   15  C   UNL     1     -10.447   8.445  68.130  1.00  0.00    -0.174 C  
HETATM   16  H   UNL     1     -11.862   9.456  67.048  1.00  0.00     0.000 HD 
HETATM   17  O   UNL     1     -10.588   7.427  67.455  1.00  0.00    -0.247 OA 
ENDBRANCH   4   8
ENDBRANCH   3   4
TORSDOF 3
ENDMDL
MODEL      278
REMARK 921   NORMALIZED FREE ENERGY PREDICTED BY IDOCK:   -1.82 KCAL/MOL
REMARK 922        TOTAL FREE ENERGY PREDICTED BY IDOCK:   -2.58 KCAL/MOL
REMARK 923 INTER-LIGAND FREE ENERGY PREDICTED BY IDOCK:   -2.14 KCAL/MOL
REMARK 924 INTRA-LIGAND FREE ENERGY PREDICTED BY IDOCK:   -0.44 KCAL/MOL
REMARK 927      BINDING AFFINITY PREDICTED BY RF-SCORE:    0.00 PKD
ROOT
HETATM    1 CL   UNL     1      -7.883   6.850  70.999  1.00  0.00    -0.096 Cl 
HETATM    2  C   UNL     1      -9.464   6.040  71.123  1.00  0.00    -0.164 C  
HETATM    3  C   UNL     1     -10.118   5.777  69.762  1.00  0.00    -0.209 C  
ENDROOT
BRANCH   3   4
HETATM    4  N   UNL     1      -9.272   5.036  68.792  1.00  0.00    -0.116 NA 
BRANCH   4   5
HETATM    5  C   UNL     1      -9.125   3.554  68.947  1.00  0.00    -0.145 C  
HETATM    6 CL   UNL     1      -6.473   3.064  69.622  1.00  0.00    -0.032 Cl 
HETATM    7  C   UNL     1      -7.847   2.834  68.514  1.00  0.00    -0.054 C  
ENDBRANCH   4   5
BRANCH   4   8
HETATM    8  C   UNL     1      -8.817   5.661  67.585  1.00  0.00    -0.105 C  
HETATM    9  C   UNL     1      -7.682   6.377  67.453  1.00  0.00    -0.104 C  
HETATM   10  N   UNL     1      -7.277   6.968  66.288  1.00  0.00    -0.073 N  
HETATM   11  C   UNL     1      -7.956   6.881  65.116  1.00  0.00    -0.125 C  
HETATM   12  H   UNL     1      -6.411   7.507  66.301  1.00  0.00     0.000 HD 
HETATM   13  O   UNL     1      -7.565   7.430  64.091  1.00  0.00    -0.095 OA 
HETATM   14  N   UNL     1      -9.097   6.147  65.161  1.00  0.00    -0.355 N  
HETATM   15  C   UNL     1      -9.629   5.566  66.282  1.00  0.00    -0.156 C  
HETATM   16  H   UNL     1      -9.602   6.017  64.284  1.00  0.00     0.000 HD 
HETATM   17  O   UNL     1     -10.726   5.015  66.193  1.00  0.00    -0.315 OA 
ENDBRANCH   4   8
ENDBRANCH   3   4
TORSDOF 3
ENDMDL
MODEL      279
REMARK 921   NORMALIZED FREE ENERGY PREDICTED BY IDOCK:   -1.79 KCAL/MOL
REMARK 922        TOTAL FREE ENERGY PREDICTED BY IDOCK:   -2.55 KCAL/MOL
REMARK 923 INTER-LIGAND FREE ENERGY PREDICTED BY IDOCK:   -2.36 KCAL/MOL
REMARK 924 INTRA-LIGAND FREE ENERGY PREDICTED BY IDOCK:   -0.19 KCAL/MOL
REMARK 927      BINDING AFFINITY PREDICTED BY RF-SCORE:    0.00 PKD
ROOT
HETATM    1 CL   UNL     1      -9.537   4.481  68.179  1.00  0.00    -0.203 Cl 
HETATM    2  C   UNL     1     -10.845   5.637  67.828  1.00  0.00    -0.083 C  
HETATM    3  C   UNL     1     -11.275   6.454  69.051  1.00  0.00    -0.331 C  
ENDROOT
BRANCH   3   4
HETATM    4  N   UNL     1     -10.175   7.169  69.747  1.00  0.00    -0.202 NA 
BRANCH   4   5
HETATM    5  C   UNL     1      -9.869   6.813  71.169  1.00  0.00    -0.177 C  
HETATM    6 CL   UNL     1      -9.902   4.037  71.339  1.00  0.00    -0.258 Cl 
HETATM    7  C   UNL     1     -10.540   5.619  71.850  1.00  0.00    -0.232 C  
ENDBRANCH   4   5
BRANCH   4   8
HETATM    8  C   UNL     1      -9.252   7.988  69.018  1.00  0.00    -0.148 C  
HETATM    9  C   UNL     1      -9.538   9.177  68.452  1.00  0.00    -0.151 C  
HETATM   10  N   UNL     1      -8.636   9.935  67.755  1.00  0.00    -0.121 N  
HETATM   11  C   UNL     1      -7.336   9.592  67.575  1.00  0.00    -0.090 C  
HETATM   12  H   UNL     1      -8.962  10.811  67.347  1.00  0.00     0.000 HD 
HETATM   13  O   UNL     1      -6.556  10.293  66.939  1.00  0.00    -0.072 OA 
HETATM   14  N   UNL     1      -6.962   8.418  68.146  1.00  0.00    -0.079 N  
HETATM   15  C   UNL     1      -7.792   7.552  68.808  1.00  0.00    -0.121 C  
HETATM   16  H   UNL     1      -5.978   8.158  68.075  1.00  0.00     0.000 HD 
HETATM   17  O   UNL     1      -7.334   6.474  69.185  1.00  0.00    -0.088 OA 
ENDBRANCH   4   8
ENDBRANCH   3   4
TORSDOF 3
ENDMDL
MODEL      280
REMARK 921   NORMALIZED FREE ENERGY PREDICTED BY IDOCK:   -1.77 KCAL/MOL
REMARK 922        TOTAL FREE ENERGY PREDICTED BY IDOCK:   -2.53 KCAL/MOL
REMARK 923 INTER-LIGAND FREE ENERGY PREDICTED BY IDOCK:   -3.51 KCAL/MOL
REMARK 924 INTRA-LIGAND FREE ENERGY PREDICTED BY IDOCK:    0.98 KCAL/MOL
REMARK 927      BINDING AFFINITY PREDICTED BY RF-SCORE:    0.00 PKD
ROOT
HETATM    1 CL   UNL     1      -8.415   8.392  68.587  1.00  0.00    -0.127 Cl 
HETATM    2  C   UNL     1      -7.877   6.702  68.423  1.00  0.00    -0.107 C  
HETATM    3  C   UNL     1      -7.604   6.021  69.768  1.00  0.00    -0.081 C  
ENDROOT
BRANCH   3   4
HETATM    4  N   UNL     1      -8.726   6.077  70.739  1.00  0.00    -0.134 NA 
BRANCH   4   5
HETATM    5  C   UNL     1      -8.794   5.048  71.825  1.00  0.00    -0.133 C  
HETATM    6 CL   UNL     1     -11.383   5.102  72.838  1.00  0.00    -0.360 Cl 
HETATM    7  C   UNL     1      -9.629   5.278  73.085  1.00  0.00    -0.145 C  
ENDBRANCH   4   5
BRANCH   4   8
HETATM    8  C   UNL     1      -9.580   7.227  70.813  1.00  0.00    -0.171 C  
HETATM    9  C   UNL     1      -9.301   8.368  71.473  1.00  0.00    -0.200 C  
HETATM   10  N   UNL     1     -10.140   9.448  71.531  1.00  0.00    -0.229 N  
HETATM   11  C   UNL     1     -11.342   9.509  70.905  1.00  0.00    -0.341 C  
HETATM   12  H   UNL     1      -9.842  10.256  72.078  1.00  0.00     0.000 HD 
HETATM   13  O   UNL     1     -12.071  10.493  70.984  1.00  0.00    -0.339 OA 
HETATM   14  N   UNL     1     -11.680   8.406  70.190  1.00  0.00    -0.454 N  
HETATM   15  C   UNL     1     -10.951   7.248  70.115  1.00  0.00    -0.260 C  
HETATM   16  H   UNL     1     -12.553   8.441  69.664  1.00  0.00     0.000 HD 
HETATM   17  O   UNL     1     -11.431   6.291  69.510  1.00  0.00    -0.428 OA 
ENDBRANCH   4   8
ENDBRANCH   3   4
TORSDOF 3
ENDMDL
MODEL      281
REMARK 921   NORMALIZED FREE ENERGY PREDICTED BY IDOCK:   -1.77 KCAL/MOL
REMARK 922        TOTAL FREE ENERGY PREDICTED BY IDOCK:   -2.53 KCAL/MOL
REMARK 923 INTER-LIGAND FREE ENERGY PREDICTED BY IDOCK:   -2.24 KCAL/MOL
REMARK 924 INTRA-LIGAND FREE ENERGY PREDICTED BY IDOCK:   -0.29 KCAL/MOL
REMARK 927      BINDING AFFINITY PREDICTED BY RF-SCORE:    0.00 PKD
ROOT
HETATM    1 CL   UNL     1      -6.037   6.534  71.290  1.00  0.00    -0.039 Cl 
HETATM    2  C   UNL     1      -6.948   7.921  71.937  1.00  0.00    -0.070 C  
HETATM    3  C   UNL     1      -7.651   8.743  70.852  1.00  0.00    -0.102 C  
ENDROOT
BRANCH   3   4
HETATM    4  N   UNL     1      -8.537   7.965  69.950  1.00  0.00    -0.138 NA 
BRANCH   4   5
HETATM    5  C   UNL     1      -9.585   7.081  70.552  1.00  0.00    -0.169 C  
HETATM    6 CL   UNL     1     -11.282   6.308  68.489  1.00  0.00    -0.400 Cl 
HETATM    7  C   UNL     1     -11.031   7.115  70.057  1.00  0.00    -0.262 C  
ENDBRANCH   4   5
BRANCH   4   8
HETATM    8  C   UNL     1      -8.578   8.238  68.542  1.00  0.00    -0.133 C  
HETATM    9  C   UNL     1      -9.102   9.342  67.975  1.00  0.00    -0.127 C  
HETATM   10  N   UNL     1      -9.134   9.573  66.626  1.00  0.00    -0.145 N  
HETATM   11  C   UNL     1      -8.613   8.729  65.700  1.00  0.00    -0.172 C  
HETATM   12  H   UNL     1      -9.575  10.432  66.298  1.00  0.00     0.000 HD 
HETATM   13  O   UNL     1      -8.665   8.966  64.497  1.00  0.00    -0.168 OA 
HETATM   14  N   UNL     1      -8.037   7.606  66.198  1.00  0.00    -0.112 N  
HETATM   15  C   UNL     1      -8.005   7.243  67.519  1.00  0.00    -0.113 C  
HETATM   16  H   UNL     1      -7.589   6.977  65.532  1.00  0.00     0.000 HD 
HETATM   17  O   UNL     1      -7.537   6.145  67.815  1.00  0.00    -0.093 OA 
ENDBRANCH   4   8
ENDBRANCH   3   4
TORSDOF 3
ENDMDL
MODEL      282
REMARK 921   NORMALIZED FREE ENERGY PREDICTED BY IDOCK:   -1.77 KCAL/MOL
REMARK 922        TOTAL FREE ENERGY PREDICTED BY IDOCK:   -2.53 KCAL/MOL
REMARK 923 INTER-LIGAND FREE ENERGY PREDICTED BY IDOCK:   -2.89 KCAL/MOL
REMARK 924 INTRA-LIGAND FREE ENERGY PREDICTED BY IDOCK:    0.36 KCAL/MOL
REMARK 927      BINDING AFFINITY PREDICTED BY RF-SCORE:    0.00 PKD
ROOT
HETATM    1 CL   UNL     1      -8.630   5.674  67.465  1.00  0.00    -0.109 Cl 
HETATM    2  C   UNL     1      -9.681   6.782  66.549  1.00  0.00    -0.125 C  
HETATM    3  C   UNL     1     -10.827   7.361  67.386  1.00  0.00    -0.229 C  
ENDROOT
BRANCH   3   4
HETATM    4  N   UNL     1     -10.411   8.025  68.647  1.00  0.00    -0.207 NA 
BRANCH   4   5
HETATM    5  C   UNL     1     -10.676   7.335  69.948  1.00  0.00    -0.242 C  
HETATM    6 CL   UNL     1      -9.790   4.713  69.675  1.00  0.00    -0.284 Cl 
HETATM    7  C   UNL     1     -11.107   5.868  69.995  1.00  0.00    -0.341 C  
ENDBRANCH   4   5
BRANCH   4   8
HETATM    8  C   UNL     1      -9.544   9.168  68.625  1.00  0.00    -0.152 C  
HETATM    9  C   UNL     1      -8.198   9.129  68.570  1.00  0.00    -0.115 C  
HETATM   10  N   UNL     1      -7.396  10.237  68.558  1.00  0.00    -0.080 N  
HETATM   11  C   UNL     1      -7.863  11.512  68.572  1.00  0.00    -0.140 C  
HETATM   12  H   UNL     1      -6.387  10.097  68.537  1.00  0.00     0.000 HD 
HETATM   13  O   UNL     1      -7.114  12.483  68.566  1.00  0.00    -0.094 OA 
HETATM   14  N   UNL     1      -9.215  11.633  68.595  1.00  0.00    -0.338 N  
HETATM   15  C   UNL     1     -10.109  10.598  68.673  1.00  0.00    -0.183 C  
HETATM   16  H   UNL     1      -9.598  12.577  68.552  1.00  0.00     0.000 HD 
HETATM   17  O   UNL     1     -11.304  10.863  68.790  1.00  0.00    -0.248 OA 
ENDBRANCH   4   8
ENDBRANCH   3   4
TORSDOF 3
ENDMDL
MODEL      283
REMARK 921   NORMALIZED FREE ENERGY PREDICTED BY IDOCK:   -1.76 KCAL/MOL
REMARK 922        TOTAL FREE ENERGY PREDICTED BY IDOCK:   -2.51 KCAL/MOL
REMARK 923 INTER-LIGAND FREE ENERGY PREDICTED BY IDOCK:   -2.40 KCAL/MOL
REMARK 924 INTRA-LIGAND FREE ENERGY PREDICTED BY IDOCK:   -0.11 KCAL/MOL
REMARK 927      BINDING AFFINITY PREDICTED BY RF-SCORE:    0.00 PKD
ROOT
HETATM    1 CL   UNL     1      -6.802   5.841  71.584  1.00  0.00    -0.065 Cl 
HETATM    2  C   UNL     1      -7.993   6.995  72.232  1.00  0.00    -0.092 C  
HETATM    3  C   UNL     1      -8.843   7.662  71.146  1.00  0.00    -0.137 C  
ENDROOT
BRANCH   3   4
HETATM    4  N   UNL     1      -9.534   6.724  70.225  1.00  0.00    -0.162 NA 
BRANCH   4   5
HETATM    5  C   UNL     1     -10.914   6.257  70.571  1.00  0.00    -0.312 C  
HETATM    6 CL   UNL     1     -11.862   7.934  72.577  1.00  0.00    -0.402 Cl 
HETATM    7  C   UNL     1     -11.429   6.302  72.010  1.00  0.00    -0.310 C  
ENDBRANCH   4   5
BRANCH   4   8
HETATM    8  C   UNL     1      -9.020   6.470  68.911  1.00  0.00    -0.128 C  
HETATM    9  C   UNL     1      -8.315   5.382  68.542  1.00  0.00    -0.097 C  
HETATM   10  N   UNL     1      -7.831   5.169  67.280  1.00  0.00    -0.096 N  
HETATM   11  C   UNL     1      -8.027   6.018  66.240  1.00  0.00    -0.106 C  
HETATM   12  H   UNL     1      -7.290   4.322  67.112  1.00  0.00     0.000 HD 
HETATM   13  O   UNL     1      -7.572   5.799  65.122  1.00  0.00    -0.079 OA 
HETATM   14  N   UNL     1      -8.757   7.127  66.526  1.00  0.00    -0.128 N  
HETATM   15  C   UNL     1      -9.236   7.471  67.762  1.00  0.00    -0.135 C  
HETATM   16  H   UNL     1      -8.968   7.757  65.752  1.00  0.00     0.000 HD 
HETATM   17  O   UNL     1      -9.796   8.558  67.893  1.00  0.00    -0.157 OA 
ENDBRANCH   4   8
ENDBRANCH   3   4
TORSDOF 3
ENDMDL
MODEL      284
REMARK 921   NORMALIZED FREE ENERGY PREDICTED BY IDOCK:   -1.73 KCAL/MOL
REMARK 922        TOTAL FREE ENERGY PREDICTED BY IDOCK:   -2.47 KCAL/MOL
REMARK 923 INTER-LIGAND FREE ENERGY PREDICTED BY IDOCK:   -1.93 KCAL/MOL
REMARK 924 INTRA-LIGAND FREE ENERGY PREDICTED BY IDOCK:   -0.55 KCAL/MOL
REMARK 927      BINDING AFFINITY PREDICTED BY RF-SCORE:    0.00 PKD
ROOT
HETATM    1 CL   UNL     1      -7.655   5.189  70.489  1.00  0.00    -0.069 Cl 
HETATM    2  C   UNL     1      -9.413   4.913  70.431  1.00  0.00    -0.167 C  
HETATM    3  C   UNL     1      -9.991   4.981  69.012  1.00  0.00    -0.181 C  
ENDROOT
BRANCH   3   4
HETATM    4  N   UNL     1      -9.331   4.092  68.023  1.00  0.00    -0.157 NA 
BRANCH   4   5
HETATM    5  C   UNL     1      -9.345   2.613  68.259  1.00  0.00    -0.201 C  
HETATM    6 CL   UNL     1      -6.931   1.961  69.476  1.00  0.00    -0.033 Cl 
HETATM    7  C   UNL     1      -8.072   1.776  68.122  1.00  0.00    -0.057 C  
ENDBRANCH   4   5
BRANCH   4   8
HETATM    8  C   UNL     1      -8.920   4.591  66.743  1.00  0.00    -0.115 C  
HETATM    9  C   UNL     1      -9.709   4.706  65.657  1.00  0.00    -0.192 C  
HETATM   10  N   UNL     1      -9.286   5.180  64.445  1.00  0.00    -0.350 N  
HETATM   11  C   UNL     1      -8.026   5.620  64.200  1.00  0.00    -0.121 C  
HETATM   12  H   UNL     1      -9.960   5.205  63.680  1.00  0.00     0.000 HD 
HETATM   13  O   UNL     1      -7.680   6.034  63.099  1.00  0.00    -0.081 OA 
HETATM   14  N   UNL     1      -7.178   5.566  65.259  1.00  0.00    -0.066 N  
HETATM   15  C   UNL     1      -7.474   5.053  66.494  1.00  0.00    -0.087 C  
HETATM   16  H   UNL     1      -6.238   5.940  65.122  1.00  0.00     0.000 HD 
HETATM   17  O   UNL     1      -6.573   4.976  67.328  1.00  0.00    -0.050 OA 
ENDBRANCH   4   8
ENDBRANCH   3   4
TORSDOF 3
ENDMDL
MODEL      285
REMARK 921   NORMALIZED FREE ENERGY PREDICTED BY IDOCK:   -1.70 KCAL/MOL
REMARK 922        TOTAL FREE ENERGY PREDICTED BY IDOCK:   -2.44 KCAL/MOL
REMARK 923 INTER-LIGAND FREE ENERGY PREDICTED BY IDOCK:   -1.98 KCAL/MOL
REMARK 924 INTRA-LIGAND FREE ENERGY PREDICTED BY IDOCK:   -0.46 KCAL/MOL
REMARK 927      BINDING AFFINITY PREDICTED BY RF-SCORE:    0.00 PKD
ROOT
HETATM    1 CL   UNL     1      -7.863   2.984  68.498  1.00  0.00    -0.057 Cl 
HETATM    2  C   UNL     1      -6.863   3.596  69.838  1.00  0.00    -0.034 C  
HETATM    3  C   UNL     1      -6.782   5.126  69.884  1.00  0.00    -0.040 C  
ENDROOT
BRANCH   3   4
HETATM    4  N   UNL     1      -8.093   5.823  69.905  1.00  0.00    -0.105 NA 
BRANCH   4   5
HETATM    5  C   UNL     1      -8.865   5.871  71.187  1.00  0.00    -0.136 C  
HETATM    6 CL   UNL     1      -9.829   3.305  71.654  1.00  0.00    -0.239 Cl 
HETATM    7  C   UNL     1     -10.133   5.038  71.381  1.00  0.00    -0.199 C  
ENDBRANCH   4   5
BRANCH   4   8
HETATM    8  C   UNL     1      -8.501   6.657  68.812  1.00  0.00    -0.123 C  
HETATM    9  C   UNL     1      -9.123   6.234  67.694  1.00  0.00    -0.117 C  
HETATM   10  N   UNL     1      -9.494   7.054  66.663  1.00  0.00    -0.163 N  
HETATM   11  C   UNL     1      -9.306   8.398  66.657  1.00  0.00    -0.191 C  
HETATM   12  H   UNL     1      -9.940   6.628  65.851  1.00  0.00     0.000 HD 
HETATM   13  O   UNL     1      -9.647   9.102  65.712  1.00  0.00    -0.262 OA 
HETATM   14  N   UNL     1      -8.712   8.905  67.767  1.00  0.00    -0.125 N  
HETATM   15  C   UNL     1      -8.243   8.174  68.827  1.00  0.00    -0.125 C  
HETATM   16  H   UNL     1      -8.606   9.918  67.817  1.00  0.00     0.000 HD 
HETATM   17  O   UNL     1      -7.634   8.760  69.720  1.00  0.00    -0.068 OA 
ENDBRANCH   4   8
ENDBRANCH   3   4
TORSDOF 3
ENDMDL
MODEL      286
REMARK 921   NORMALIZED FREE ENERGY PREDICTED BY IDOCK:   -1.69 KCAL/MOL
REMARK 922        TOTAL FREE ENERGY PREDICTED BY IDOCK:   -2.43 KCAL/MOL
REMARK 923 INTER-LIGAND FREE ENERGY PREDICTED BY IDOCK:   -2.47 KCAL/MOL
REMARK 924 INTRA-LIGAND FREE ENERGY PREDICTED BY IDOCK:    0.04 KCAL/MOL
REMARK 927      BINDING AFFINITY PREDICTED BY RF-SCORE:    0.00 PKD
ROOT
HETATM    1 CL   UNL     1      -9.769   8.122  66.444  1.00  0.00    -0.296 Cl 
HETATM    2  C   UNL     1      -9.836   6.490  67.154  1.00  0.00    -0.148 C  
HETATM    3  C   UNL     1      -8.557   6.103  67.905  1.00  0.00    -0.114 C  
ENDROOT
BRANCH   3   4
HETATM    4  N   UNL     1      -8.127   7.066  68.951  1.00  0.00    -0.119 NA 
BRANCH   4   5
HETATM    5  C   UNL     1      -7.191   8.171  68.574  1.00  0.00    -0.088 C  
HETATM    6 CL   UNL     1      -6.431   9.434  70.932  1.00  0.00    -0.089 Cl 
HETATM    7  C   UNL     1      -7.193   9.504  69.325  1.00  0.00    -0.063 C  
ENDBRANCH   4   5
BRANCH   4   8
HETATM    8  C   UNL     1      -8.784   7.110  70.225  1.00  0.00    -0.144 C  
HETATM    9  C   UNL     1      -8.517   6.305  71.272  1.00  0.00    -0.124 C  
HETATM   10  N   UNL     1      -9.166   6.367  72.475  1.00  0.00    -0.140 N  
HETATM   11  C   UNL     1     -10.139   7.267  72.768  1.00  0.00    -0.210 C  
HETATM   12  H   UNL     1      -8.902   5.695  73.196  1.00  0.00     0.000 HD 
HETATM   13  O   UNL     1     -10.704   7.289  73.856  1.00  0.00    -0.318 OA 
HETATM   14  N   UNL     1     -10.442   8.136  71.770  1.00  0.00    -0.227 N  
HETATM   15  C   UNL     1      -9.904   8.126  70.510  1.00  0.00    -0.186 C  
HETATM   16  H   UNL     1     -11.131   8.860  71.976  1.00  0.00     0.000 HD 
HETATM   17  O   UNL     1     -10.350   8.911  69.675  1.00  0.00    -0.201 OA 
ENDBRANCH   4   8
ENDBRANCH   3   4
TORSDOF 3
ENDMDL
MODEL      287
REMARK 921   NORMALIZED FREE ENERGY PREDICTED BY IDOCK:   -1.65 KCAL/MOL
REMARK 922        TOTAL FREE ENERGY PREDICTED BY IDOCK:   -2.39 KCAL/MOL
REMARK 923 INTER-LIGAND FREE ENERGY PREDICTED BY IDOCK:   -1.84 KCAL/MOL
REMARK 924 INTRA-LIGAND FREE ENERGY PREDICTED BY IDOCK:   -0.54 KCAL/MOL
REMARK 927      BINDING AFFINITY PREDICTED BY RF-SCORE:    0.00 PKD
ROOT
HETATM    1 CL   UNL     1      -7.771   3.085  69.279  1.00  0.00    -0.047 Cl 
HETATM    2  C   UNL     1      -7.907   2.177  70.805  1.00  0.00    -0.039 C  
HETATM    3  C   UNL     1      -7.677   3.043  72.048  1.00  0.00    -0.054 C  
ENDROOT
BRANCH   3   4
HETATM    4  N   UNL     1      -8.528   4.257  72.133  1.00  0.00    -0.105 NA 
BRANCH   4   5
HETATM    5  C   UNL     1     -10.015   4.101  72.077  1.00  0.00    -0.180 C  
HETATM    6 CL   UNL     1     -10.910   5.594  69.908  1.00  0.00    -0.404 Cl 
HETATM    7  C   UNL     1     -10.920   5.261  71.657  1.00  0.00    -0.050 C  
ENDBRANCH   4   5
BRANCH   4   8
HETATM    8  C   UNL     1      -7.972   5.520  72.523  1.00  0.00    -0.103 C  
HETATM    9  C   UNL     1      -7.826   5.954  73.790  1.00  0.00    -0.099 C  
HETATM   10  N   UNL     1      -7.297   7.169  74.132  1.00  0.00    -0.097 N  
HETATM   11  C   UNL     1      -6.829   8.072  73.234  1.00  0.00    -0.101 C  
HETATM   12  H   UNL     1      -7.253   7.410  75.122  1.00  0.00     0.000 HD 
HETATM   13  O   UNL     1      -6.367   9.156  73.576  1.00  0.00    -0.324 OA 
HETATM   14  N   UNL     1      -6.912   7.693  71.933  1.00  0.00    -0.061 N  
HETATM   15  C   UNL     1      -7.479   6.532  71.474  1.00  0.00    -0.089 C  
HETATM   16  H   UNL     1      -6.519   8.326  71.237  1.00  0.00     0.000 HD 
HETATM   17  O   UNL     1      -7.575   6.367  70.259  1.00  0.00    -0.092 OA 
ENDBRANCH   4   8
ENDBRANCH   3   4
TORSDOF 3
ENDMDL
MODEL      288
REMARK 921   NORMALIZED FREE ENERGY PREDICTED BY IDOCK:   -1.57 KCAL/MOL
REMARK 922        TOTAL FREE ENERGY PREDICTED BY IDOCK:   -2.29 KCAL/MOL
REMARK 923 INTER-LIGAND FREE ENERGY PREDICTED BY IDOCK:   -3.05 KCAL/MOL
REMARK 924 INTRA-LIGAND FREE ENERGY PREDICTED BY IDOCK:    0.76 KCAL/MOL
REMARK 927      BINDING AFFINITY PREDICTED BY RF-SCORE:    0.00 PKD
ROOT
HETATM    1 CL   UNL     1     -12.396  14.930  69.258  1.00  0.00    -0.200 Cl 
HETATM    2  C   UNL     1     -11.102  15.702  68.309  1.00  0.00    -0.336 C  
HETATM    3  C   UNL     1      -9.848  14.831  68.174  1.00  0.00    -0.221 C  
ENDROOT
BRANCH   3   4
HETATM    4  N   UNL     1     -10.087  13.466  67.642  1.00  0.00    -0.225 NA 
BRANCH   4   5
HETATM    5  C   UNL     1     -11.350  13.196  66.885  1.00  0.00    -0.318 C  
HETATM    6 CL   UNL     1     -10.754  13.466  64.182  1.00  0.00    -0.360 Cl 
HETATM    7  C   UNL     1     -11.691  13.968  65.610  1.00  0.00    -0.354 C  
ENDBRANCH   4   5
BRANCH   4   8
HETATM    8  C   UNL     1      -9.034  12.492  67.613  1.00  0.00    -0.185 C  
HETATM    9  C   UNL     1      -7.722  12.752  67.777  1.00  0.00    -0.152 C  
HETATM   10  N   UNL     1      -6.738  11.802  67.738  1.00  0.00    -0.075 N  
HETATM   11  C   UNL     1      -6.969  10.477  67.557  1.00  0.00    -0.080 C  
HETATM   12  H   UNL     1      -5.772  12.109  67.852  1.00  0.00     0.000 HD 
HETATM   13  O   UNL     1      -6.061   9.654  67.522  1.00  0.00    -0.051 OA 
HETATM   14  N   UNL     1      -8.275  10.131  67.416  1.00  0.00    -0.114 N  
HETATM   15  C   UNL     1      -9.332  11.002  67.375  1.00  0.00    -0.155 C  
HETATM   16  H   UNL     1      -8.486   9.137  67.333  1.00  0.00     0.000 HD 
HETATM   17  O   UNL     1     -10.452  10.553  67.139  1.00  0.00    -0.222 OA 
ENDBRANCH   4   8
ENDBRANCH   3   4
TORSDOF 3
ENDMDL
MODEL      289
REMARK 921   NORMALIZED FREE ENERGY PREDICTED BY IDOCK:   -1.47 KCAL/MOL
REMARK 922        TOTAL FREE ENERGY PREDICTED BY IDOCK:   -2.17 KCAL/MOL
REMARK 923 INTER-LIGAND FREE ENERGY PREDICTED BY IDOCK:   -2.14 KCAL/MOL
REMARK 924 INTRA-LIGAND FREE ENERGY PREDICTED BY IDOCK:   -0.04 KCAL/MOL
REMARK 927      BINDING AFFINITY PREDICTED BY RF-SCORE:    0.00 PKD
ROOT
HETATM    1 CL   UNL     1      -7.673   8.252  73.282  1.00  0.00    -0.200 Cl 
HETATM    2  C   UNL     1      -8.752   6.879  72.932  1.00  0.00    -0.122 C  
HETATM    3  C   UNL     1      -9.519   7.034  71.614  1.00  0.00    -0.156 C  
ENDROOT
BRANCH   3   4
HETATM    4  N   UNL     1      -8.673   7.297  70.422  1.00  0.00    -0.145 NA 
BRANCH   4   5
HETATM    5  C   UNL     1      -8.301   6.151  69.533  1.00  0.00    -0.120 C  
HETATM    6 CL   UNL     1      -9.966   6.273  67.309  1.00  0.00    -0.161 Cl 
HETATM    7  C   UNL     1      -9.360   5.392  68.733  1.00  0.00    -0.128 C  
ENDBRANCH   4   5
BRANCH   4   8
HETATM    8  C   UNL     1      -8.429   8.637  69.974  1.00  0.00    -0.130 C  
HETATM    9  C   UNL     1      -9.331   9.638  69.972  1.00  0.00    -0.241 C  
HETATM   10  N   UNL     1      -9.072  10.907  69.530  1.00  0.00    -0.383 N  
HETATM   11  C   UNL     1      -7.863  11.317  69.068  1.00  0.00    -0.079 C  
HETATM   12  H   UNL     1      -9.833  11.586  69.551  1.00  0.00     0.000 HD 
HETATM   13  O   UNL     1      -7.668  12.462  68.675  1.00  0.00    -0.118 OA 
HETATM   14  N   UNL     1      -6.890  10.370  69.070  1.00  0.00    -0.060 N  
HETATM   15  C   UNL     1      -7.054   9.058  69.427  1.00  0.00    -0.056 C  
HETATM   16  H   UNL     1      -5.957  10.661  68.779  1.00  0.00     0.000 HD 
HETATM   17  O   UNL     1      -6.106   8.288  69.281  1.00  0.00    -0.037 OA 
ENDBRANCH   4   8
ENDBRANCH   3   4
TORSDOF 3
ENDMDL
MODEL      290
REMARK 921   NORMALIZED FREE ENERGY PREDICTED BY IDOCK:   -1.36 KCAL/MOL
REMARK 922        TOTAL FREE ENERGY PREDICTED BY IDOCK:   -2.04 KCAL/MOL
REMARK 923 INTER-LIGAND FREE ENERGY PREDICTED BY IDOCK:   -2.33 KCAL/MOL
REMARK 924 INTRA-LIGAND FREE ENERGY PREDICTED BY IDOCK:    0.29 KCAL/MOL
REMARK 927      BINDING AFFINITY PREDICTED BY RF-SCORE:    0.00 PKD
ROOT
HETATM    1 CL   UNL     1      -7.857   6.166  70.528  1.00  0.00    -0.104 Cl 
HETATM    2  C   UNL     1      -9.236   5.314  71.266  1.00  0.00    -0.146 C  
HETATM    3  C   UNL     1     -10.196   4.710  70.236  1.00  0.00    -0.135 C  
ENDROOT
BRANCH   3   4
HETATM    4  N   UNL     1      -9.561   3.817  69.234  1.00  0.00    -0.178 NA 
BRANCH   4   5
HETATM    5  C   UNL     1      -9.498   2.348  69.512  1.00  0.00    -0.049 C  
HETATM    6 CL   UNL     1      -9.968   2.014  72.233  1.00  0.00    -0.210 Cl 
HETATM    7  C   UNL     1      -8.907   1.812  70.817  1.00  0.00    -0.061 C  
ENDBRANCH   4   5
BRANCH   4   8
HETATM    8  C   UNL     1      -9.248   4.292  67.917  1.00  0.00    -0.142 C  
HETATM    9  C   UNL     1      -8.254   3.831  67.133  1.00  0.00    -0.095 C  
HETATM   10  N   UNL     1      -7.975   4.310  65.882  1.00  0.00    -0.094 N  
HETATM   11  C   UNL     1      -8.687   5.289  65.268  1.00  0.00    -0.151 C  
HETATM   12  H   UNL     1      -7.185   3.906  65.380  1.00  0.00     0.000 HD 
HETATM   13  O   UNL     1      -8.405   5.698  64.147  1.00  0.00    -0.127 OA 
HETATM   14  N   UNL     1      -9.730   5.783  65.985  1.00  0.00    -0.342 N  
HETATM   15  C   UNL     1     -10.060   5.425  67.265  1.00  0.00    -0.193 C  
HETATM   16  H   UNL     1     -10.317   6.482  65.530  1.00  0.00     0.000 HD 
HETATM   17  O   UNL     1     -10.970   6.032  67.827  1.00  0.00    -0.304 OA 
ENDBRANCH   4   8
ENDBRANCH   3   4
TORSDOF 3
ENDMDL
MODEL      291
REMARK 921   NORMALIZED FREE ENERGY PREDICTED BY IDOCK:   -1.04 KCAL/MOL
REMARK 922        TOTAL FREE ENERGY PREDICTED BY IDOCK:   -1.66 KCAL/MOL
REMARK 923 INTER-LIGAND FREE ENERGY PREDICTED BY IDOCK:   -1.59 KCAL/MOL
REMARK 924 INTRA-LIGAND FREE ENERGY PREDICTED BY IDOCK:   -0.08 KCAL/MOL
REMARK 927      BINDING AFFINITY PREDICTED BY RF-SCORE:    0.00 PKD
ROOT
HETATM    1 CL   UNL     1      -7.947   3.349  69.375  1.00  0.00    -0.054 Cl 
HETATM    2  C   UNL     1      -8.133   3.748  71.100  1.00  0.00    -0.064 C  
HETATM    3  C   UNL     1      -7.762   5.197  71.431  1.00  0.00    -0.105 C  
ENDROOT
BRANCH   3   4
HETATM    4  N   UNL     1      -8.464   6.225  70.621  1.00  0.00    -0.133 NA 
BRANCH   4   5
HETATM    5  C   UNL     1      -9.913   6.489  70.889  1.00  0.00    -0.184 C  
HETATM    6 CL   UNL     1     -10.276   9.243  70.769  1.00  0.00    -0.327 Cl 
HETATM    7  C   UNL     1     -10.363   7.717  71.681  1.00  0.00    -0.197 C  
ENDBRANCH   4   5
BRANCH   4   8
HETATM    8  C   UNL     1      -7.732   7.132  69.786  1.00  0.00    -0.108 C  
HETATM    9  C   UNL     1      -8.029   7.433  68.507  1.00  0.00    -0.124 C  
HETATM   10  N   UNL     1      -7.306   8.298  67.732  1.00  0.00    -0.091 N  
HETATM   11  C   UNL     1      -6.218   8.981  68.170  1.00  0.00    -0.054 C  
HETATM   12  H   UNL     1      -7.604   8.439  66.767  1.00  0.00     0.000 HD 
HETATM   13  O   UNL     1      -5.590   9.746  67.444  1.00  0.00    -0.039 OA 
HETATM   14  N   UNL     1      -5.874   8.755  69.464  1.00  0.00    -0.033 N  
HETATM   15  C   UNL     1      -6.484   7.866  70.308  1.00  0.00    -0.037 C  
HETATM   16  H   UNL     1      -5.093   9.294  69.839  1.00  0.00     0.000 HD 
HETATM   17  O   UNL     1      -6.000   7.691  71.425  1.00  0.00    -0.035 OA 
ENDBRANCH   4   8
ENDBRANCH   3   4
TORSDOF 3
ENDMDL
MODEL      292
REMARK 921   NORMALIZED FREE ENERGY PREDICTED BY IDOCK:    2.33 KCAL/MOL
REMARK 922        TOTAL FREE ENERGY PREDICTED BY IDOCK:    2.29 KCAL/MOL
REMARK 923 INTER-LIGAND FREE ENERGY PREDICTED BY IDOCK:    1.79 KCAL/MOL
REMARK 924 INTRA-LIGAND FREE ENERGY PREDICTED BY IDOCK:    0.51 KCAL/MOL
REMARK 927      BINDING AFFINITY PREDICTED BY RF-SCORE:    0.00 PKD
ROOT
HETATM    1 CL   UNL     1     -10.941  21.215  68.928  1.00  0.00     1.048 Cl 
HETATM    2  C   UNL     1     -10.441  20.310  70.378  1.00  0.00     1.362 C  
HETATM    3  C   UNL     1     -10.577  18.792  70.221  1.00  0.00     1.928 C  
ENDROOT
BRANCH   3   4
HETATM    4  N   UNL     1      -9.890  18.219  69.036  1.00  0.00    -0.303 NA 
BRANCH   4   5
HETATM    5  C   UNL     1      -8.541  18.746  68.658  1.00  0.00    -0.323 C  
HETATM    6 CL   UNL     1      -8.959  20.994  67.076  1.00  0.00    -0.124 Cl 
HETATM    7  C   UNL     1      -8.286  19.359  67.281  1.00  0.00    -0.281 C  
ENDBRANCH   4   5
BRANCH   4   8
HETATM    8  C   UNL     1     -10.369  17.017  68.417  1.00  0.00    -0.351 C  
HETATM    9  C   UNL     1     -10.396  15.798  68.991  1.00  0.00    -0.223 C  
HETATM   10  N   UNL     1     -10.853  14.666  68.372  1.00  0.00    -0.239 N  
HETATM   11  C   UNL     1     -11.362  14.642  67.114  1.00  0.00    -0.356 C  
HETATM   12  H   UNL     1     -10.809  13.788  68.888  1.00  0.00     0.000 HD 
HETATM   13  O   UNL     1     -11.757  13.607  66.588  1.00  0.00    -0.348 OA 
HETATM   14  N   UNL     1     -11.398  15.843  66.480  1.00  0.00     0.088 N  
HETATM   15  C   UNL     1     -10.911  17.023  66.977  1.00  0.00    -0.048 C  
HETATM   16  H   UNL     1     -11.824  15.868  65.554  1.00  0.00     0.000 HD 
HETATM   17  O   UNL     1     -10.919  18.014  66.248  1.00  0.00    -0.043 OA 
ENDBRANCH   4   8
ENDBRANCH   3   4
TORSDOF 3
ENDMDL
