MODEL        1
REMARK 921   NORMALIZED FREE ENERGY PREDICTED BY IDOCK:   -6.75 KCAL/MOL
REMARK 922        TOTAL FREE ENERGY PREDICTED BY IDOCK:  -11.31 KCAL/MOL
REMARK 923 INTER-LIGAND FREE ENERGY PREDICTED BY IDOCK:   -9.90 KCAL/MOL
REMARK 924 INTRA-LIGAND FREE ENERGY PREDICTED BY IDOCK:   -1.41 KCAL/MOL
REMARK 927      BINDING AFFINITY PREDICTED BY RF-SCORE:    0.00 PKD
ROOT
HETATM    1  C   UNL     1     -13.421   9.188  72.100  1.00  0.00    -0.530 C  
HETATM    2  C   UNL     1     -12.863  10.518  71.699  1.00  0.00    -0.475 C  
HETATM    3  O   UNL     1     -13.333  11.596  72.031  1.00  0.00    -0.481 OA 
ENDROOT
BRANCH   2   4
HETATM    4  O   UNL     1     -11.766  10.348  70.910  1.00  0.00    -0.335 OA 
BRANCH   4   5
HETATM    5  C   UNL     1     -11.537  11.387  69.954  1.00  0.00    -0.323 C  
BRANCH   5   6
HETATM    6  C   UNL     1     -11.724  10.918  68.510  1.00  0.00    -0.237 C  
HETATM    7  O   UNL     1     -12.138  12.043  67.729  1.00  0.00    -0.537 OA 
HETATM    8  C   UNL     1     -11.697  11.811  66.387  1.00  0.00    -0.051 C  
HETATM    9  C   UNL     1     -10.394  11.004  66.479  1.00  0.00    -0.245 C  
HETATM   10  C   UNL     1     -10.455  10.351  67.867  1.00  0.00    -0.209 C  
BRANCH   8  11
HETATM   11  N   UNL     1     -11.567  13.098  65.699  1.00  0.00    -0.325 N  
HETATM   12  N   UNL     1     -12.163  14.505  63.930  1.00  0.00    -1.006 N  
HETATM   13  C   UNL     1     -10.798  14.117  66.232  1.00  0.00    -0.300 C  
HETATM   14  O   UNL     1     -11.567  16.705  63.964  1.00  0.00    -1.197 OA 
HETATM   15  H   UNL     1     -12.618  14.633  63.027  1.00  0.00     0.000 HD 
HETATM   16  C   UNL     1     -10.740  15.329  65.679  1.00  0.00    -0.376 C  
HETATM   17  C   UNL     1     -12.259  13.263  64.507  1.00  0.00    -0.400 C  
HETATM   18  C   UNL     1     -11.515  15.584  64.455  1.00  0.00    -0.308 C  
HETATM   19  O   UNL     1     -12.940  12.385  63.982  1.00  0.00    -0.748 OA 
ENDBRANCH   8  11
BRANCH   9  20
HETATM   20  O   UNL     1     -10.342  10.011  65.435  1.00  0.00    -0.245 OA 
BRANCH  20  21
HETATM   21  C   UNL     1      -9.641  10.319  64.315  1.00  0.00    -0.313 C  
HETATM   22  C   UNL     1      -8.202   9.925  64.469  1.00  0.00    -0.162 C  
HETATM   23  O   UNL     1     -10.103  10.850  63.316  1.00  0.00    -0.332 OA 
ENDBRANCH  20  21
ENDBRANCH   9  20
BRANCH  10  24
HETATM   24  O   UNL     1     -10.583   8.917  67.765  1.00  0.00    -0.243 OA 
BRANCH  24  25
HETATM   25  C   UNL     1      -9.867   8.161  68.638  1.00  0.00    -0.183 C  
HETATM   26  O   UNL     1     -10.332   7.501  69.554  1.00  0.00    -0.205 OA 
HETATM   27  C   UNL     1      -8.401   8.289  68.349  1.00  0.00    -0.132 C  
ENDBRANCH  24  25
ENDBRANCH  10  24
ENDBRANCH   5   6
ENDBRANCH   4   5
ENDBRANCH   2   4
TORSDOF 8
ENDMDL
MODEL        2
REMARK 921   NORMALIZED FREE ENERGY PREDICTED BY IDOCK:   -6.74 KCAL/MOL
REMARK 922        TOTAL FREE ENERGY PREDICTED BY IDOCK:  -11.29 KCAL/MOL
REMARK 923 INTER-LIGAND FREE ENERGY PREDICTED BY IDOCK:   -9.96 KCAL/MOL
REMARK 924 INTRA-LIGAND FREE ENERGY PREDICTED BY IDOCK:   -1.33 KCAL/MOL
REMARK 927      BINDING AFFINITY PREDICTED BY RF-SCORE:    0.00 PKD
ROOT
HETATM    1  C   UNL     1     -13.392   9.386  72.196  1.00  0.00    -0.545 C  
HETATM    2  C   UNL     1     -12.898  10.625  71.518  1.00  0.00    -0.462 C  
HETATM    3  O   UNL     1     -13.311  11.752  71.747  1.00  0.00    -0.407 OA 
ENDROOT
BRANCH   2   4
HETATM    4  O   UNL     1     -11.931  10.310  70.612  1.00  0.00    -0.291 OA 
BRANCH   4   5
HETATM    5  C   UNL     1     -11.556  11.372  69.729  1.00  0.00    -0.332 C  
BRANCH   5   6
HETATM    6  C   UNL     1     -11.741  11.011  68.254  1.00  0.00    -0.229 C  
HETATM    7  O   UNL     1     -12.102  12.202  67.548  1.00  0.00    -0.534 OA 
HETATM    8  C   UNL     1     -11.651  12.046  66.198  1.00  0.00    -0.304 C  
HETATM    9  C   UNL     1     -10.380  11.185  66.248  1.00  0.00    -0.249 C  
HETATM   10  C   UNL     1     -10.485  10.441  67.587  1.00  0.00    -0.233 C  
BRANCH   8  11
HETATM   11  N   UNL     1     -11.464  13.371  65.602  1.00  0.00    -0.311 N  
HETATM   12  N   UNL     1     -11.970  14.912  63.920  1.00  0.00    -0.892 N  
HETATM   13  C   UNL     1     -10.678  14.327  66.221  1.00  0.00    -0.297 C  
HETATM   14  O   UNL     1     -11.308  17.084  64.117  1.00  0.00    -1.164 OA 
HETATM   15  H   UNL     1     -12.398  15.116  63.016  1.00  0.00     0.000 HD 
HETATM   16  C   UNL     1     -10.568  15.570  65.753  1.00  0.00    -0.370 C  
HETATM   17  C   UNL     1     -12.119  13.639  64.408  1.00  0.00    -0.427 C  
HETATM   18  C   UNL     1     -11.303  15.932  64.532  1.00  0.00    -0.309 C  
HETATM   19  O   UNL     1     -12.813  12.820  63.808  1.00  0.00    -0.695 OA 
ENDBRANCH   8  11
BRANCH   9  20
HETATM   20  O   UNL     1     -10.352  10.266  65.139  1.00  0.00    -0.286 OA 
BRANCH  20  21
HETATM   21  C   UNL     1      -9.320  10.374  64.265  1.00  0.00    -0.277 C  
HETATM   22  C   UNL     1      -9.753  11.098  63.024  1.00  0.00    -0.384 C  
HETATM   23  O   UNL     1      -8.192   9.940  64.446  1.00  0.00    -0.145 OA 
ENDBRANCH  20  21
ENDBRANCH   9  20
BRANCH  10  24
HETATM   24  O   UNL     1     -10.665   9.023  67.385  1.00  0.00    -0.271 OA 
BRANCH  24  25
HETATM   25  C   UNL     1     -10.143   8.187  68.318  1.00  0.00    -0.197 C  
HETATM   26  O   UNL     1     -10.701   7.205  68.784  1.00  0.00    -0.212 OA 
HETATM   27  C   UNL     1      -8.787   8.668  68.743  1.00  0.00    -0.139 C  
ENDBRANCH  24  25
ENDBRANCH  10  24
ENDBRANCH   5   6
ENDBRANCH   4   5
ENDBRANCH   2   4
TORSDOF 8
ENDMDL
MODEL        3
REMARK 921   NORMALIZED FREE ENERGY PREDICTED BY IDOCK:   -6.69 KCAL/MOL
REMARK 922        TOTAL FREE ENERGY PREDICTED BY IDOCK:  -11.23 KCAL/MOL
REMARK 923 INTER-LIGAND FREE ENERGY PREDICTED BY IDOCK:   -9.87 KCAL/MOL
REMARK 924 INTRA-LIGAND FREE ENERGY PREDICTED BY IDOCK:   -1.36 KCAL/MOL
REMARK 927      BINDING AFFINITY PREDICTED BY RF-SCORE:    0.00 PKD
ROOT
HETATM    1  C   UNL     1     -13.498  13.080  72.094  1.00  0.00    -0.638 C  
HETATM    2  C   UNL     1     -12.890  14.052  71.132  1.00  0.00    -0.357 C  
HETATM    3  O   UNL     1     -13.162  15.243  71.086  1.00  0.00    -0.433 OA 
ENDROOT
BRANCH   2   4
HETATM    4  O   UNL     1     -12.002  13.416  70.320  1.00  0.00    -0.331 OA 
BRANCH   4   5
HETATM    5  C   UNL     1     -12.058  11.986  70.360  1.00  0.00    -0.321 C  
BRANCH   5   6
HETATM    6  C   UNL     1     -12.001  11.351  68.969  1.00  0.00    -0.320 C  
HETATM    7  O   UNL     1     -12.395  12.341  68.014  1.00  0.00    -0.260 OA 
HETATM    8  C   UNL     1     -11.752  12.014  66.777  1.00  0.00    -0.264 C  
HETATM    9  C   UNL     1     -10.411  11.354  67.131  1.00  0.00    -0.224 C  
HETATM   10  C   UNL     1     -10.612  10.848  68.567  1.00  0.00    -0.190 C  
BRANCH   8  11
HETATM   11  N   UNL     1     -11.636  13.227  65.964  1.00  0.00    -0.335 N  
HETATM   12  N   UNL     1     -12.363  14.517  64.156  1.00  0.00    -0.858 N  
HETATM   13  C   UNL     1     -10.754  14.236  66.310  1.00  0.00    -0.297 C  
HETATM   14  O   UNL     1     -11.649  16.669  63.921  1.00  0.00    -1.204 OA 
HETATM   15  H   UNL     1     -12.916  14.599  63.303  1.00  0.00     0.000 HD 
HETATM   16  C   UNL     1     -10.697  15.391  65.647  1.00  0.00    -0.381 C  
HETATM   17  C   UNL     1     -12.456  13.337  64.850  1.00  0.00    -0.409 C  
HETATM   18  C   UNL     1     -11.599  15.592  64.503  1.00  0.00    -0.283 C  
HETATM   19  O   UNL     1     -13.243  12.464  64.488  1.00  0.00    -0.834 OA 
ENDBRANCH   8  11
BRANCH   9  20
HETATM   20  O   UNL     1     -10.131  10.267  66.227  1.00  0.00    -0.222 OA 
BRANCH  20  21
HETATM   21  C   UNL     1      -9.247  10.502  65.225  1.00  0.00    -0.200 C  
HETATM   22  C   UNL     1      -9.965  10.659  63.916  1.00  0.00    -0.390 C  
HETATM   23  O   UNL     1      -8.034  10.570  65.353  1.00  0.00    -0.152 OA 
ENDBRANCH  20  21
ENDBRANCH   9  20
BRANCH  10  24
HETATM   24  O   UNL     1     -10.603   9.406  68.619  1.00  0.00    -0.214 OA 
BRANCH  24  25
HETATM   25  C   UNL     1     -10.322   8.825  69.814  1.00  0.00    -0.211 C  
HETATM   26  O   UNL     1     -11.032   8.019  70.396  1.00  0.00    -0.246 OA 
HETATM   27  C   UNL     1      -9.027   9.354  70.355  1.00  0.00    -0.294 C  
ENDBRANCH  24  25
ENDBRANCH  10  24
ENDBRANCH   5   6
ENDBRANCH   4   5
ENDBRANCH   2   4
TORSDOF 8
ENDMDL
MODEL        4
REMARK 921   NORMALIZED FREE ENERGY PREDICTED BY IDOCK:   -6.60 KCAL/MOL
REMARK 922        TOTAL FREE ENERGY PREDICTED BY IDOCK:  -11.10 KCAL/MOL
REMARK 923 INTER-LIGAND FREE ENERGY PREDICTED BY IDOCK:   -9.89 KCAL/MOL
REMARK 924 INTRA-LIGAND FREE ENERGY PREDICTED BY IDOCK:   -1.21 KCAL/MOL
REMARK 927      BINDING AFFINITY PREDICTED BY RF-SCORE:    0.00 PKD
ROOT
HETATM    1  C   UNL     1      -9.907  18.643  66.786  1.00  0.00    -0.365 C  
HETATM    2  C   UNL     1     -10.430  17.479  66.004  1.00  0.00    -0.274 C  
HETATM    3  O   UNL     1     -10.925  17.560  64.890  1.00  0.00    -0.887 OA 
ENDROOT
BRANCH   2   4
HETATM    4  O   UNL     1     -10.277  16.329  66.716  1.00  0.00    -0.267 OA 
BRANCH   4   5
HETATM    5  C   UNL     1     -11.122  16.208  67.864  1.00  0.00    -0.293 C  
BRANCH   5   6
HETATM    6  C   UNL     1     -11.923  14.904  67.878  1.00  0.00    -0.176 C  
HETATM    7  O   UNL     1     -11.804  14.298  66.587  1.00  0.00    -0.390 OA 
HETATM    8  C   UNL     1     -11.955  12.886  66.768  1.00  0.00    -0.350 C  
HETATM    9  C   UNL     1     -11.389  12.550  68.156  1.00  0.00    -0.295 C  
HETATM   10  C   UNL     1     -11.441  13.885  68.914  1.00  0.00    -0.301 C  
BRANCH   8  11
HETATM   11  N   UNL     1     -11.298  12.190  65.659  1.00  0.00    -0.340 N  
HETATM   12  N   UNL     1     -11.291  11.530  63.417  1.00  0.00    -0.778 N  
HETATM   13  C   UNL     1     -10.042  11.630  65.813  1.00  0.00    -0.240 C  
HETATM   14  O   UNL     1      -9.408  10.644  62.487  1.00  0.00    -0.278 OA 
HETATM   15  H   UNL     1     -11.787  11.427  62.532  1.00  0.00     0.000 HD 
HETATM   16  C   UNL     1      -9.380  11.077  64.796  1.00  0.00    -0.239 C  
HETATM   17  C   UNL     1     -11.970  12.132  64.446  1.00  0.00    -0.361 C  
HETATM   18  C   UNL     1     -10.014  11.057  63.470  1.00  0.00    -0.370 C  
HETATM   19  O   UNL     1     -13.094  12.597  64.262  1.00  0.00    -0.741 OA 
ENDBRANCH   8  11
BRANCH   9  20
HETATM   20  O   UNL     1     -12.199  11.549  68.801  1.00  0.00    -0.457 OA 
BRANCH  20  21
HETATM   21  C   UNL     1     -11.558  10.488  69.354  1.00  0.00    -0.246 C  
HETATM   22  C   UNL     1     -12.049  10.246  70.751  1.00  0.00    -0.451 C  
HETATM   23  O   UNL     1     -10.696   9.819  68.805  1.00  0.00    -0.216 OA 
ENDBRANCH  20  21
ENDBRANCH   9  20
BRANCH  10  24
HETATM   24  O   UNL     1     -12.393  13.833  69.997  1.00  0.00    -0.330 OA 
BRANCH  24  25
HETATM   25  C   UNL     1     -12.384  14.859  70.887  1.00  0.00    -0.328 C  
HETATM   26  O   UNL     1     -11.386  15.365  71.378  1.00  0.00    -0.356 OA 
HETATM   27  C   UNL     1     -13.789  15.260  71.228  1.00  0.00    -0.562 C  
ENDBRANCH  24  25
ENDBRANCH  10  24
ENDBRANCH   5   6
ENDBRANCH   4   5
ENDBRANCH   2   4
TORSDOF 8
ENDMDL
MODEL        5
REMARK 921   NORMALIZED FREE ENERGY PREDICTED BY IDOCK:   -6.43 KCAL/MOL
REMARK 922        TOTAL FREE ENERGY PREDICTED BY IDOCK:  -10.84 KCAL/MOL
REMARK 923 INTER-LIGAND FREE ENERGY PREDICTED BY IDOCK:   -9.56 KCAL/MOL
REMARK 924 INTRA-LIGAND FREE ENERGY PREDICTED BY IDOCK:   -1.28 KCAL/MOL
REMARK 927      BINDING AFFINITY PREDICTED BY RF-SCORE:    0.00 PKD
ROOT
HETATM    1  C   UNL     1     -12.492  15.610  74.558  1.00  0.00    -0.749 C  
HETATM    2  C   UNL     1     -12.902  15.891  73.147  1.00  0.00    -0.537 C  
HETATM    3  O   UNL     1     -14.050  15.828  72.733  1.00  0.00    -0.576 OA 
ENDROOT
BRANCH   2   4
HETATM    4  O   UNL     1     -11.813  16.220  72.398  1.00  0.00    -0.509 OA 
BRANCH   4   5
HETATM    5  C   UNL     1     -11.376  15.210  71.484  1.00  0.00    -0.330 C  
BRANCH   5   6
HETATM    6  C   UNL     1     -11.691  15.551  70.027  1.00  0.00    -0.346 C  
HETATM    7  O   UNL     1     -11.115  16.828  69.736  1.00  0.00    -0.243 OA 
HETATM    8  C   UNL     1     -10.830  16.854  68.333  1.00  0.00    -0.347 C  
HETATM    9  C   UNL     1     -10.486  15.416  67.921  1.00  0.00    -0.256 C  
HETATM   10  C   UNL     1     -11.128  14.549  69.014  1.00  0.00    -0.262 C  
BRANCH   8  11
HETATM   11  N   UNL     1      -9.767  17.830  68.081  1.00  0.00    -0.299 N  
HETATM   12  N   UNL     1      -9.114  19.959  67.373  1.00  0.00    -0.328 N  
HETATM   13  C   UNL     1      -8.450  17.548  68.400  1.00  0.00    -0.275 C  
HETATM   14  O   UNL     1      -6.980  20.679  67.719  1.00  0.00    -0.306 OA 
HETATM   15  H   UNL     1      -9.348  20.843  66.920  1.00  0.00     0.000 HD 
HETATM   16  C   UNL     1      -7.478  18.452  68.272  1.00  0.00    -0.293 C  
HETATM   17  C   UNL     1     -10.131  19.051  67.531  1.00  0.00    -0.373 C  
HETATM   18  C   UNL     1      -7.820  19.789  67.766  1.00  0.00    -0.291 C  
HETATM   19  O   UNL     1     -11.281  19.344  67.212  1.00  0.00    -0.362 OA 
ENDBRANCH   8  11
BRANCH   9  20
HETATM   20  O   UNL     1     -11.040  15.118  66.624  1.00  0.00    -0.328 OA 
BRANCH  20  21
HETATM   21  C   UNL     1     -10.169  14.945  65.598  1.00  0.00    -0.358 C  
HETATM   22  C   UNL     1     -10.545  13.741  64.785  1.00  0.00    -0.444 C  
HETATM   23  O   UNL     1      -9.205  15.658  65.362  1.00  0.00    -0.182 OA 
ENDBRANCH  20  21
ENDBRANCH   9  20
BRANCH  10  24
HETATM   24  O   UNL     1     -12.213  13.759  68.485  1.00  0.00    -0.348 OA 
BRANCH  24  25
HETATM   25  C   UNL     1     -12.022  12.417  68.392  1.00  0.00    -0.216 C  
HETATM   26  O   UNL     1     -11.928  11.783  67.353  1.00  0.00    -0.617 OA 
HETATM   27  C   UNL     1     -11.991  11.804  69.761  1.00  0.00    -0.392 C  
ENDBRANCH  24  25
ENDBRANCH  10  24
ENDBRANCH   5   6
ENDBRANCH   4   5
ENDBRANCH   2   4
TORSDOF 8
ENDMDL
MODEL        6
REMARK 921   NORMALIZED FREE ENERGY PREDICTED BY IDOCK:   -6.36 KCAL/MOL
REMARK 922        TOTAL FREE ENERGY PREDICTED BY IDOCK:  -10.73 KCAL/MOL
REMARK 923 INTER-LIGAND FREE ENERGY PREDICTED BY IDOCK:   -9.33 KCAL/MOL
REMARK 924 INTRA-LIGAND FREE ENERGY PREDICTED BY IDOCK:   -1.40 KCAL/MOL
REMARK 927      BINDING AFFINITY PREDICTED BY RF-SCORE:    0.00 PKD
ROOT
HETATM    1  C   UNL     1     -12.434  12.755  64.848  1.00  0.00    -0.563 C  
HETATM    2  C   UNL     1     -12.001  14.152  64.527  1.00  0.00    -0.458 C  
HETATM    3  O   UNL     1     -12.688  14.971  63.935  1.00  0.00    -0.775 OA 
ENDROOT
BRANCH   2   4
HETATM    4  O   UNL     1     -10.737  14.367  64.983  1.00  0.00    -0.372 OA 
BRANCH   4   5
HETATM    5  C   UNL     1     -10.207  13.333  65.819  1.00  0.00    -0.292 C  
BRANCH   5   6
HETATM    6  C   UNL     1      -9.878  13.822  67.231  1.00  0.00    -0.241 C  
HETATM    7  O   UNL     1      -9.368  15.155  67.131  1.00  0.00    -0.201 OA 
HETATM    8  C   UNL     1      -9.671  15.817  68.364  1.00  0.00    -0.203 C  
HETATM    9  C   UNL     1     -10.989  15.219  68.880  1.00  0.00    -0.261 C  
HETATM   10  C   UNL     1     -11.082  13.856  68.177  1.00  0.00    -0.256 C  
BRANCH   8  11
HETATM   11  N   UNL     1      -9.709  17.263  68.132  1.00  0.00    -0.273 N  
HETATM   12  N   UNL     1      -8.671  19.352  68.269  1.00  0.00    -0.325 N  
HETATM   13  C   UNL     1     -10.781  17.853  67.486  1.00  0.00    -0.321 C  
HETATM   14  O   UNL     1      -9.569  21.151  67.196  1.00  0.00    -0.282 OA 
HETATM   15  H   UNL     1      -7.912  19.932  68.624  1.00  0.00     0.000 HD 
HETATM   16  C   UNL     1     -10.798  19.149  67.175  1.00  0.00    -0.507 C  
HETATM   17  C   UNL     1      -8.625  18.013  68.565  1.00  0.00    -0.297 C  
HETATM   18  C   UNL     1      -9.640  19.978  67.541  1.00  0.00    -0.393 C  
HETATM   19  O   UNL     1      -7.658  17.541  69.160  1.00  0.00    -0.196 OA 
ENDBRANCH   8  11
BRANCH   9  20
HETATM   20  O   UNL     1     -10.946  15.068  70.312  1.00  0.00    -0.252 OA 
BRANCH  20  21
HETATM   21  C   UNL     1     -12.052  15.430  71.011  1.00  0.00    -0.365 C  
HETATM   22  C   UNL     1     -11.677  16.292  72.180  1.00  0.00    -0.531 C  
HETATM   23  O   UNL     1     -13.197  15.102  70.741  1.00  0.00    -0.412 OA 
ENDBRANCH  20  21
ENDBRANCH   9  20
BRANCH  10  24
HETATM   24  O   UNL     1     -10.965  12.773  69.123  1.00  0.00    -0.216 OA 
BRANCH  24  25
HETATM   25  C   UNL     1     -11.879  11.771  69.041  1.00  0.00    -0.317 C  
HETATM   26  O   UNL     1     -12.279  11.257  68.008  1.00  0.00    -0.621 OA 
HETATM   27  C   UNL     1     -12.373  11.409  70.411  1.00  0.00    -0.404 C  
ENDBRANCH  24  25
ENDBRANCH  10  24
ENDBRANCH   5   6
ENDBRANCH   4   5
ENDBRANCH   2   4
TORSDOF 8
ENDMDL
MODEL        7
REMARK 921   NORMALIZED FREE ENERGY PREDICTED BY IDOCK:   -6.22 KCAL/MOL
REMARK 922        TOTAL FREE ENERGY PREDICTED BY IDOCK:  -10.53 KCAL/MOL
REMARK 923 INTER-LIGAND FREE ENERGY PREDICTED BY IDOCK:   -9.57 KCAL/MOL
REMARK 924 INTRA-LIGAND FREE ENERGY PREDICTED BY IDOCK:   -0.96 KCAL/MOL
REMARK 927      BINDING AFFINITY PREDICTED BY RF-SCORE:    0.00 PKD
ROOT
HETATM    1  C   UNL     1     -10.380  19.630  67.846  1.00  0.00    -0.583 C  
HETATM    2  C   UNL     1     -10.606  18.588  66.795  1.00  0.00    -0.354 C  
HETATM    3  O   UNL     1     -10.633  18.811  65.594  1.00  0.00    -0.596 OA 
ENDROOT
BRANCH   2   4
HETATM    4  O   UNL     1     -10.779  17.369  67.373  1.00  0.00    -0.333 OA 
BRANCH   4   5
HETATM    5  C   UNL     1     -10.402  16.251  66.563  1.00  0.00    -0.307 C  
BRANCH   5   6
HETATM    6  C   UNL     1     -11.383  15.082  66.669  1.00  0.00    -0.289 C  
HETATM    7  O   UNL     1     -11.222  14.262  65.508  1.00  0.00    -0.305 OA 
HETATM    8  C   UNL     1     -11.597  12.930  65.876  1.00  0.00    -0.377 C  
HETATM    9  C   UNL     1     -11.232  12.757  67.358  1.00  0.00    -0.294 C  
HETATM   10  C   UNL     1     -11.166  14.193  67.897  1.00  0.00    -0.279 C  
BRANCH   8  11
HETATM   11  N   UNL     1     -10.938  11.982  64.974  1.00  0.00    -0.298 N  
HETATM   12  N   UNL     1     -10.746  11.025  62.850  1.00  0.00    -0.792 N  
HETATM   13  C   UNL     1      -9.849  11.238  65.392  1.00  0.00    -0.237 C  
HETATM   14  O   UNL     1      -8.959   9.704  62.345  1.00  0.00    -0.235 OA 
HETATM   15  H   UNL     1     -11.123  10.888  61.913  1.00  0.00     0.000 HD 
HETATM   16  C   UNL     1      -9.171  10.443  64.565  1.00  0.00    -0.287 C  
HETATM   17  C   UNL     1     -11.433  11.874  63.681  1.00  0.00    -0.461 C  
HETATM   18  C   UNL     1      -9.604  10.348  63.163  1.00  0.00    -0.303 C  
HETATM   19  O   UNL     1     -12.408  12.497  63.266  1.00  0.00    -0.559 OA 
ENDBRANCH   8  11
BRANCH   9  20
HETATM   20  O   UNL     1     -12.243  11.988  68.039  1.00  0.00    -0.454 OA 
BRANCH  20  21
HETATM   21  C   UNL     1     -11.879  11.346  69.177  1.00  0.00    -0.345 C  
HETATM   22  C   UNL     1     -10.882  10.266  68.876  1.00  0.00    -0.263 C  
HETATM   23  O   UNL     1     -12.301  11.596  70.296  1.00  0.00    -0.301 OA 
ENDBRANCH  20  21
ENDBRANCH   9  20
BRANCH  10  24
HETATM   24  O   UNL     1     -12.221  14.443  68.849  1.00  0.00    -0.281 OA 
BRANCH  24  25
HETATM   25  C   UNL     1     -11.907  15.163  69.957  1.00  0.00    -0.325 C  
HETATM   26  O   UNL     1     -12.709  15.669  70.727  1.00  0.00    -0.458 OA 
HETATM   27  C   UNL     1     -10.418  15.295  70.082  1.00  0.00    -0.252 C  
ENDBRANCH  24  25
ENDBRANCH  10  24
ENDBRANCH   5   6
ENDBRANCH   4   5
ENDBRANCH   2   4
TORSDOF 8
ENDMDL
MODEL        8
REMARK 921   NORMALIZED FREE ENERGY PREDICTED BY IDOCK:   -6.15 KCAL/MOL
REMARK 922        TOTAL FREE ENERGY PREDICTED BY IDOCK:  -10.43 KCAL/MOL
REMARK 923 INTER-LIGAND FREE ENERGY PREDICTED BY IDOCK:   -9.29 KCAL/MOL
REMARK 924 INTRA-LIGAND FREE ENERGY PREDICTED BY IDOCK:   -1.14 KCAL/MOL
REMARK 927      BINDING AFFINITY PREDICTED BY RF-SCORE:    0.00 PKD
ROOT
HETATM    1  C   UNL     1      -7.940  19.809  68.040  1.00  0.00    -0.337 C  
HETATM    2  C   UNL     1      -9.163  19.093  68.521  1.00  0.00    -0.376 C  
HETATM    3  O   UNL     1     -10.253  19.619  68.688  1.00  0.00    -0.433 OA 
ENDROOT
BRANCH   2   4
HETATM    4  O   UNL     1      -8.879  17.781  68.748  1.00  0.00    -0.279 OA 
BRANCH   4   5
HETATM    5  C   UNL     1     -10.011  16.954  69.034  1.00  0.00    -0.265 C  
BRANCH   5   6
HETATM    6  C   UNL     1     -10.002  15.642  68.247  1.00  0.00    -0.213 C  
HETATM    7  O   UNL     1     -10.219  14.570  69.170  1.00  0.00    -0.226 OA 
HETATM    8  C   UNL     1     -10.841  13.505  68.442  1.00  0.00    -0.267 C  
HETATM    9  C   UNL     1     -11.699  14.154  67.346  1.00  0.00    -0.391 C  
HETATM   10  C   UNL     1     -11.086  15.551  67.169  1.00  0.00    -0.256 C  
BRANCH   8  11
HETATM   11  N   UNL     1     -11.587  12.660  69.377  1.00  0.00    -0.303 N  
HETATM   12  N   UNL     1     -12.297  10.536  70.046  1.00  0.00    -0.481 N  
HETATM   13  C   UNL     1     -12.193  13.200  70.498  1.00  0.00    -0.328 C  
HETATM   14  O   UNL     1     -13.277  10.243  72.083  1.00  0.00    -0.452 OA 
HETATM   15  H   UNL     1     -12.400   9.542  69.844  1.00  0.00     0.000 HD 
HETATM   16  C   UNL     1     -12.794  12.443  71.416  1.00  0.00    -0.360 C  
HETATM   17  C   UNL     1     -11.646  11.299  69.110  1.00  0.00    -0.319 C  
HETATM   18  C   UNL     1     -12.819  10.986  71.222  1.00  0.00    -0.425 C  
HETATM   19  O   UNL     1     -11.141  10.772  68.120  1.00  0.00    -0.237 OA 
ENDBRANCH   8  11
BRANCH   9  20
HETATM   20  O   UNL     1     -11.622  13.389  66.127  1.00  0.00    -0.322 OA 
BRANCH  20  21
HETATM   21  C   UNL     1     -12.717  13.379  65.326  1.00  0.00    -0.422 C  
HETATM   22  C   UNL     1     -12.640  12.248  64.343  1.00  0.00    -0.447 C  
HETATM   23  O   UNL     1     -13.641  14.176  65.382  1.00  0.00    -0.568 OA 
ENDBRANCH  20  21
ENDBRANCH   9  20
BRANCH  10  24
HETATM   24  O   UNL     1     -10.469  15.690  65.872  1.00  0.00    -0.307 OA 
BRANCH  24  25
HETATM   25  C   UNL     1     -10.987  16.621  65.029  1.00  0.00    -0.162 C  
HETATM   26  O   UNL     1     -11.518  16.389  63.954  1.00  0.00    -1.063 OA 
HETATM   27  C   UNL     1     -10.772  17.998  65.585  1.00  0.00    -0.049 C  
ENDBRANCH  24  25
ENDBRANCH  10  24
ENDBRANCH   5   6
ENDBRANCH   4   5
ENDBRANCH   2   4
TORSDOF 8
ENDMDL
MODEL        9
REMARK 921   NORMALIZED FREE ENERGY PREDICTED BY IDOCK:   -6.12 KCAL/MOL
REMARK 922        TOTAL FREE ENERGY PREDICTED BY IDOCK:  -10.39 KCAL/MOL
REMARK 923 INTER-LIGAND FREE ENERGY PREDICTED BY IDOCK:   -9.46 KCAL/MOL
REMARK 924 INTRA-LIGAND FREE ENERGY PREDICTED BY IDOCK:   -0.93 KCAL/MOL
REMARK 927      BINDING AFFINITY PREDICTED BY RF-SCORE:    0.00 PKD
ROOT
HETATM    1  C   UNL     1     -11.746   6.536  70.835  1.00  0.00    -0.416 C  
HETATM    2  C   UNL     1     -11.495   7.931  71.317  1.00  0.00    -0.265 C  
HETATM    3  O   UNL     1     -11.624   8.297  72.476  1.00  0.00    -0.383 OA 
ENDROOT
BRANCH   2   4
HETATM    4  O   UNL     1     -11.110   8.724  70.280  1.00  0.00    -0.245 OA 
BRANCH   4   5
HETATM    5  C   UNL     1     -10.842  10.087  70.623  1.00  0.00    -0.297 C  
BRANCH   5   6
HETATM    6  C   UNL     1     -11.820  11.067  69.971  1.00  0.00    -0.355 C  
HETATM    7  O   UNL     1     -12.312  11.944  70.988  1.00  0.00    -0.352 OA 
HETATM    8  C   UNL     1     -12.660  13.178  70.350  1.00  0.00    -0.116 C  
HETATM    9  C   UNL     1     -11.695  13.357  69.168  1.00  0.00    -0.326 C  
HETATM   10  C   UNL     1     -11.197  11.935  68.873  1.00  0.00    -0.254 C  
BRANCH   8  11
HETATM   11  N   UNL     1     -12.614  14.256  71.340  1.00  0.00    -0.340 N  
HETATM   12  N   UNL     1     -13.375  15.181  73.348  1.00  0.00    -0.495 N  
HETATM   13  C   UNL     1     -11.707  15.295  71.223  1.00  0.00    -0.372 C  
HETATM   14  O   UNL     1     -12.289  16.955  74.278  1.00  0.00    -0.588 OA 
HETATM   15  H   UNL     1     -14.049  15.181  74.113  1.00  0.00     0.000 HD 
HETATM   16  C   UNL     1     -11.577  16.236  72.158  1.00  0.00    -0.411 C  
HETATM   17  C   UNL     1     -13.497  14.187  72.409  1.00  0.00    -0.517 C  
HETATM   18  C   UNL     1     -12.435  16.168  73.350  1.00  0.00    -0.555 C  
HETATM   19  O   UNL     1     -14.334  13.298  72.551  1.00  0.00    -0.662 OA 
ENDBRANCH   8  11
BRANCH   9  20
HETATM   20  O   UNL     1     -12.387  13.916  68.035  1.00  0.00    -0.239 OA 
BRANCH  20  21
HETATM   21  C   UNL     1     -11.648  14.613  67.134  1.00  0.00    -0.378 C  
HETATM   22  C   UNL     1     -10.640  15.476  67.835  1.00  0.00    -0.274 C  
HETATM   23  O   UNL     1     -11.779  14.560  65.920  1.00  0.00    -0.361 OA 
ENDBRANCH  20  21
ENDBRANCH   9  20
BRANCH  10  24
HETATM   24  O   UNL     1     -11.667  11.473  67.589  1.00  0.00    -0.538 OA 
BRANCH  24  25
HETATM   25  C   UNL     1     -10.808  10.738  66.836  1.00  0.00    -0.229 C  
HETATM   26  O   UNL     1     -10.165   9.776  67.228  1.00  0.00    -0.203 OA 
HETATM   27  C   UNL     1     -10.717  11.306  65.451  1.00  0.00    -0.291 C  
ENDBRANCH  24  25
ENDBRANCH  10  24
ENDBRANCH   5   6
ENDBRANCH   4   5
ENDBRANCH   2   4
TORSDOF 8
ENDMDL
MODEL       10
REMARK 921   NORMALIZED FREE ENERGY PREDICTED BY IDOCK:   -6.05 KCAL/MOL
REMARK 922        TOTAL FREE ENERGY PREDICTED BY IDOCK:  -10.28 KCAL/MOL
REMARK 923 INTER-LIGAND FREE ENERGY PREDICTED BY IDOCK:   -8.62 KCAL/MOL
REMARK 924 INTRA-LIGAND FREE ENERGY PREDICTED BY IDOCK:   -1.65 KCAL/MOL
REMARK 927      BINDING AFFINITY PREDICTED BY RF-SCORE:    0.00 PKD
ROOT
HETATM    1  C   UNL     1     -11.265  11.669  63.800  1.00  0.00    -0.498 C  
HETATM    2  C   UNL     1     -12.289  12.761  63.791  1.00  0.00    -0.446 C  
HETATM    3  O   UNL     1     -12.520  13.486  62.835  1.00  0.00    -0.601 OA 
ENDROOT
BRANCH   2   4
HETATM    4  O   UNL     1     -12.914  12.827  64.999  1.00  0.00    -0.811 OA 
BRANCH   4   5
HETATM    5  C   UNL     1     -12.728  14.053  65.713  1.00  0.00    -0.450 C  
BRANCH   5   6
HETATM    6  C   UNL     1     -11.808  13.900  66.926  1.00  0.00    -0.423 C  
HETATM    7  O   UNL     1     -11.952  12.567  67.426  1.00  0.00    -0.456 OA 
HETATM    8  C   UNL     1     -10.719  12.221  68.066  1.00  0.00    -0.218 C  
HETATM    9  C   UNL     1      -9.602  12.959  67.314  1.00  0.00    -0.220 C  
HETATM   10  C   UNL     1     -10.324  14.121  66.617  1.00  0.00    -0.277 C  
BRANCH   8  11
HETATM   11  N   UNL     1     -10.582  10.763  68.080  1.00  0.00    -0.189 N  
HETATM   12  N   UNL     1     -10.813   8.729  69.209  1.00  0.00    -0.399 N  
HETATM   13  C   UNL     1     -10.179  10.074  66.950  1.00  0.00    -0.238 C  
HETATM   14  O   UNL     1     -10.599   6.761  68.080  1.00  0.00    -0.191 OA 
HETATM   15  H   UNL     1     -10.982   8.223  70.077  1.00  0.00     0.000 HD 
HETATM   16  C   UNL     1     -10.139   8.742  66.905  1.00  0.00    -0.348 C  
HETATM   17  C   UNL     1     -10.890  10.098  69.259  1.00  0.00    -0.235 C  
HETATM   18  C   UNL     1     -10.530   7.984  68.102  1.00  0.00    -0.167 C  
HETATM   19  O   UNL     1     -11.235  10.663  70.295  1.00  0.00    -0.298 OA 
ENDBRANCH   8  11
BRANCH   9  20
HETATM   20  O   UNL     1      -8.605  13.440  68.237  1.00  0.00    -0.169 OA 
BRANCH  20  21
HETATM   21  C   UNL     1      -7.335  12.993  68.073  1.00  0.00    -0.123 C  
HETATM   22  C   UNL     1      -7.078  11.802  68.947  1.00  0.00    -0.114 C  
HETATM   23  O   UNL     1      -6.503  13.487  67.326  1.00  0.00    -0.276 OA 
ENDBRANCH  20  21
ENDBRANCH   9  20
BRANCH  10  24
HETATM   24  O   UNL     1      -9.917  15.393  67.164  1.00  0.00    -0.231 OA 
BRANCH  24  25
HETATM   25  C   UNL     1      -9.462  16.331  66.294  1.00  0.00    -0.316 C  
HETATM   26  O   UNL     1     -10.133  16.896  65.443  1.00  0.00    -0.586 OA 
HETATM   27  C   UNL     1      -7.991  16.548  66.489  1.00  0.00    -0.345 C  
ENDBRANCH  24  25
ENDBRANCH  10  24
ENDBRANCH   5   6
ENDBRANCH   4   5
ENDBRANCH   2   4
TORSDOF 8
ENDMDL
MODEL       11
REMARK 921   NORMALIZED FREE ENERGY PREDICTED BY IDOCK:   -6.00 KCAL/MOL
REMARK 922        TOTAL FREE ENERGY PREDICTED BY IDOCK:  -10.22 KCAL/MOL
REMARK 923 INTER-LIGAND FREE ENERGY PREDICTED BY IDOCK:   -9.28 KCAL/MOL
REMARK 924 INTRA-LIGAND FREE ENERGY PREDICTED BY IDOCK:   -0.94 KCAL/MOL
REMARK 927      BINDING AFFINITY PREDICTED BY RF-SCORE:    0.00 PKD
ROOT
HETATM    1  C   UNL     1     -14.402   8.601  72.512  1.00  0.00    -0.347 C  
HETATM    2  C   UNL     1     -13.018   9.161  72.406  1.00  0.00    -0.398 C  
HETATM    3  O   UNL     1     -11.995   8.514  72.573  1.00  0.00    -0.389 OA 
ENDROOT
BRANCH   2   4
HETATM    4  O   UNL     1     -13.070  10.487  72.104  1.00  0.00    -0.459 OA 
BRANCH   4   5
HETATM    5  C   UNL     1     -12.955  10.799  70.712  1.00  0.00    -0.262 C  
BRANCH   5   6
HETATM    6  C   UNL     1     -11.982  11.948  70.439  1.00  0.00    -0.311 C  
HETATM    7  O   UNL     1     -11.400  11.739  69.149  1.00  0.00    -0.239 OA 
HETATM    8  C   UNL     1     -11.046  13.026  68.631  1.00  0.00    -0.269 C  
HETATM    9  C   UNL     1     -12.071  14.027  69.185  1.00  0.00    -0.337 C  
HETATM   10  C   UNL     1     -12.635  13.333  70.433  1.00  0.00    -0.141 C  
BRANCH   8  11
HETATM   11  N   UNL     1     -10.996  12.954  67.169  1.00  0.00    -0.256 N  
HETATM   12  N   UNL     1      -9.747  12.739  65.205  1.00  0.00    -0.487 N  
HETATM   13  C   UNL     1     -12.156  12.949  66.415  1.00  0.00    -0.329 C  
HETATM   14  O   UNL     1     -10.795  12.373  63.214  1.00  0.00    -0.432 OA 
HETATM   15  H   UNL     1      -8.840  12.731  64.739  1.00  0.00     0.000 HD 
HETATM   16  C   UNL     1     -12.144  12.787  65.091  1.00  0.00    -0.498 C  
HETATM   17  C   UNL     1      -9.746  12.872  66.571  1.00  0.00    -0.257 C  
HETATM   18  C   UNL     1     -10.851  12.617  64.413  1.00  0.00    -0.356 C  
HETATM   19  O   UNL     1      -8.686  12.891  67.192  1.00  0.00    -0.195 OA 
ENDBRANCH   8  11
BRANCH   9  20
HETATM   20  O   UNL     1     -11.426  15.271  69.524  1.00  0.00    -0.264 OA 
BRANCH  20  21
HETATM   21  C   UNL     1     -10.528  15.770  68.637  1.00  0.00    -0.231 C  
HETATM   22  C   UNL     1      -9.153  15.789  69.236  1.00  0.00    -0.263 C  
HETATM   23  O   UNL     1     -10.790  16.160  67.510  1.00  0.00    -0.323 OA 
ENDBRANCH  20  21
ENDBRANCH   9  20
BRANCH  10  24
HETATM   24  O   UNL     1     -12.258  14.034  71.637  1.00  0.00    -0.285 OA 
BRANCH  24  25
HETATM   25  C   UNL     1     -13.208  14.188  72.595  1.00  0.00    -0.518 C  
HETATM   26  O   UNL     1     -14.226  13.521  72.699  1.00  0.00    -0.751 OA 
HETATM   27  C   UNL     1     -12.856  15.337  73.492  1.00  0.00    -0.681 C  
ENDBRANCH  24  25
ENDBRANCH  10  24
ENDBRANCH   5   6
ENDBRANCH   4   5
ENDBRANCH   2   4
TORSDOF 8
ENDMDL
MODEL       12
REMARK 921   NORMALIZED FREE ENERGY PREDICTED BY IDOCK:   -5.97 KCAL/MOL
REMARK 922        TOTAL FREE ENERGY PREDICTED BY IDOCK:  -10.17 KCAL/MOL
REMARK 923 INTER-LIGAND FREE ENERGY PREDICTED BY IDOCK:   -9.01 KCAL/MOL
REMARK 924 INTRA-LIGAND FREE ENERGY PREDICTED BY IDOCK:   -1.17 KCAL/MOL
REMARK 927      BINDING AFFINITY PREDICTED BY RF-SCORE:    0.00 PKD
ROOT
HETATM    1  C   UNL     1      -9.291  11.110  62.927  1.00  0.00    -0.385 C  
HETATM    2  C   UNL     1     -10.563  11.533  63.593  1.00  0.00    -0.429 C  
HETATM    3  O   UNL     1     -11.312  12.400  63.169  1.00  0.00    -0.386 OA 
ENDROOT
BRANCH   2   4
HETATM    4  O   UNL     1     -10.754  10.817  64.735  1.00  0.00    -0.270 OA 
BRANCH   4   5
HETATM    5  C   UNL     1     -10.299  11.451  65.935  1.00  0.00    -0.250 C  
BRANCH   5   6
HETATM    6  C   UNL     1     -11.415  11.649  66.962  1.00  0.00    -0.262 C  
HETATM    7  O   UNL     1     -11.380  10.547  67.873  1.00  0.00    -0.330 OA 
HETATM    8  C   UNL     1     -11.910  11.011  69.119  1.00  0.00    -0.337 C  
HETATM    9  C   UNL     1     -11.542  12.498  69.236  1.00  0.00    -0.319 C  
HETATM   10  C   UNL     1     -11.287  12.934  67.785  1.00  0.00    -0.299 C  
BRANCH   8  11
HETATM   11  N   UNL     1     -11.392  10.170  70.201  1.00  0.00    -0.282 N  
HETATM   12  N   UNL     1     -11.784   8.846  72.087  1.00  0.00    -0.362 N  
HETATM   13  C   UNL     1     -10.046   9.858  70.279  1.00  0.00    -0.237 C  
HETATM   14  O   UNL     1     -10.112   7.563  72.955  1.00  0.00    -0.211 OA 
HETATM   15  H   UNL     1     -12.422   8.520  72.811  1.00  0.00     0.000 HD 
HETATM   16  C   UNL     1      -9.562   9.017  71.194  1.00  0.00    -0.356 C  
HETATM   17  C   UNL     1     -12.301   9.683  71.130  1.00  0.00    -0.339 C  
HETATM   18  C   UNL     1     -10.493   8.411  72.157  1.00  0.00    -0.326 C  
HETATM   19  O   UNL     1     -13.502   9.945  71.117  1.00  0.00    -0.367 OA 
ENDBRANCH   8  11
BRANCH   9  20
HETATM   20  O   UNL     1     -12.628  13.241  69.823  1.00  0.00    -0.095 OA 
BRANCH  20  21
HETATM   21  C   UNL     1     -12.404  13.826  71.027  1.00  0.00    -0.372 C  
HETATM   22  C   UNL     1     -13.378  13.319  72.048  1.00  0.00    -0.582 C  
HETATM   23  O   UNL     1     -11.538  14.657  71.258  1.00  0.00    -0.301 OA 
ENDBRANCH  20  21
ENDBRANCH   9  20
BRANCH  10  24
HETATM   24  O   UNL     1     -12.285  13.877  67.340  1.00  0.00    -0.378 OA 
BRANCH  24  25
HETATM   25  C   UNL     1     -12.219  14.295  66.050  1.00  0.00    -0.404 C  
HETATM   26  O   UNL     1     -13.053  14.069  65.186  1.00  0.00    -0.776 OA 
HETATM   27  C   UNL     1     -10.940  15.043  65.814  1.00  0.00    -0.351 C  
ENDBRANCH  24  25
ENDBRANCH  10  24
ENDBRANCH   5   6
ENDBRANCH   4   5
ENDBRANCH   2   4
TORSDOF 8
ENDMDL
MODEL       13
REMARK 921   NORMALIZED FREE ENERGY PREDICTED BY IDOCK:   -5.94 KCAL/MOL
REMARK 922        TOTAL FREE ENERGY PREDICTED BY IDOCK:  -10.12 KCAL/MOL
REMARK 923 INTER-LIGAND FREE ENERGY PREDICTED BY IDOCK:   -8.80 KCAL/MOL
REMARK 924 INTRA-LIGAND FREE ENERGY PREDICTED BY IDOCK:   -1.32 KCAL/MOL
REMARK 927      BINDING AFFINITY PREDICTED BY RF-SCORE:    0.00 PKD
ROOT
HETATM    1  C   UNL     1     -11.528  11.598  63.602  1.00  0.00    -0.458 C  
HETATM    2  C   UNL     1     -12.487  12.741  63.717  1.00  0.00    -0.383 C  
HETATM    3  O   UNL     1     -12.692  13.564  62.837  1.00  0.00    -0.569 OA 
ENDROOT
BRANCH   2   4
HETATM    4  O   UNL     1     -13.086  12.730  64.939  1.00  0.00    -0.833 OA 
BRANCH   4   5
HETATM    5  C   UNL     1     -12.764  13.838  65.785  1.00  0.00    -0.446 C  
BRANCH   5   6
HETATM    6  C   UNL     1     -11.259  13.993  66.014  1.00  0.00    -0.310 C  
HETATM    7  O   UNL     1     -10.915  15.363  65.784  1.00  0.00    -0.330 OA 
HETATM    8  C   UNL     1      -9.760  15.648  66.582  1.00  0.00    -0.249 C  
HETATM    9  C   UNL     1      -9.860  14.773  67.841  1.00  0.00    -0.212 C  
HETATM   10  C   UNL     1     -10.801  13.632  67.430  1.00  0.00    -0.273 C  
BRANCH   8  11
HETATM   11  N   UNL     1      -9.706  17.088  66.844  1.00  0.00    -0.252 N  
HETATM   12  N   UNL     1      -8.606  19.137  66.613  1.00  0.00    -0.306 N  
HETATM   13  C   UNL     1     -10.745  17.735  67.490  1.00  0.00    -0.307 C  
HETATM   14  O   UNL     1      -9.658  21.075  67.186  1.00  0.00    -0.360 OA 
HETATM   15  H   UNL     1      -7.771  19.659  66.348  1.00  0.00     0.000 HD 
HETATM   16  C   UNL     1     -10.766  19.057  67.655  1.00  0.00    -0.495 C  
HETATM   17  C   UNL     1      -8.586  17.780  66.405  1.00  0.00    -0.231 C  
HETATM   18  C   UNL     1      -9.640  19.851  67.141  1.00  0.00    -0.381 C  
HETATM   19  O   UNL     1      -7.628  17.251  65.845  1.00  0.00    -0.442 OA 
ENDBRANCH   8  11
BRANCH   9  20
HETATM   20  O   UNL     1      -8.560  14.273  68.210  1.00  0.00    -0.162 OA 
BRANCH  20  21
HETATM   21  C   UNL     1      -7.867  14.968  69.147  1.00  0.00    -0.188 C  
HETATM   22  C   UNL     1      -6.624  14.226  69.541  1.00  0.00    -0.134 C  
HETATM   23  O   UNL     1      -8.201  16.044  69.619  1.00  0.00    -0.115 OA 
ENDBRANCH  20  21
ENDBRANCH   9  20
BRANCH  10  24
HETATM   24  O   UNL     1     -10.104  12.369  67.388  1.00  0.00    -0.200 OA 
BRANCH  24  25
HETATM   25  C   UNL     1     -10.854  11.238  67.439  1.00  0.00    -0.262 C  
HETATM   26  O   UNL     1     -11.947  11.134  67.974  1.00  0.00    -0.625 OA 
HETATM   27  C   UNL     1     -10.125  10.104  66.781  1.00  0.00    -0.277 C  
ENDBRANCH  24  25
ENDBRANCH  10  24
ENDBRANCH   5   6
ENDBRANCH   4   5
ENDBRANCH   2   4
TORSDOF 8
ENDMDL
MODEL       14
REMARK 921   NORMALIZED FREE ENERGY PREDICTED BY IDOCK:   -5.89 KCAL/MOL
REMARK 922        TOTAL FREE ENERGY PREDICTED BY IDOCK:  -10.04 KCAL/MOL
REMARK 923 INTER-LIGAND FREE ENERGY PREDICTED BY IDOCK:   -8.59 KCAL/MOL
REMARK 924 INTRA-LIGAND FREE ENERGY PREDICTED BY IDOCK:   -1.46 KCAL/MOL
REMARK 927      BINDING AFFINITY PREDICTED BY RF-SCORE:    0.00 PKD
ROOT
HETATM    1  C   UNL     1     -11.652  15.782  71.623  1.00  0.00    -0.537 C  
HETATM    2  C   UNL     1     -12.878  15.489  70.815  1.00  0.00    -0.458 C  
HETATM    3  O   UNL     1     -14.021  15.713  71.185  1.00  0.00    -0.564 OA 
ENDROOT
BRANCH   2   4
HETATM    4  O   UNL     1     -12.532  14.936  69.621  1.00  0.00    -0.241 OA 
BRANCH   4   5
HETATM    5  C   UNL     1     -11.696  15.751  68.792  1.00  0.00    -0.378 C  
BRANCH   5   6
HETATM    6  C   UNL     1     -10.633  14.944  68.046  1.00  0.00    -0.248 C  
HETATM    7  O   UNL     1     -10.247  13.844  68.876  1.00  0.00    -0.213 OA 
HETATM    8  C   UNL     1      -9.806  12.794  68.009  1.00  0.00    -0.226 C  
HETATM    9  C   UNL     1     -10.624  12.911  66.714  1.00  0.00    -0.257 C  
HETATM   10  C   UNL     1     -11.108  14.369  66.708  1.00  0.00    -0.323 C  
BRANCH   8  11
HETATM   11  N   UNL     1      -9.948  11.511  68.703  1.00  0.00    -0.213 N  
HETATM   12  N   UNL     1      -9.047   9.444  69.318  1.00  0.00    -0.145 N  
HETATM   13  C   UNL     1     -11.077  11.226  69.450  1.00  0.00    -0.257 C  
HETATM   14  O   UNL     1     -10.098   8.154  70.876  1.00  0.00    -0.186 OA 
HETATM   15  H   UNL     1      -8.317   8.740  69.215  1.00  0.00     0.000 HD 
HETATM   16  C   UNL     1     -11.190  10.110  70.170  1.00  0.00    -0.377 C  
HETATM   17  C   UNL     1      -8.903  10.604  68.599  1.00  0.00    -0.151 C  
HETATM   18  C   UNL     1     -10.079   9.147  70.159  1.00  0.00    -0.202 C  
HETATM   19  O   UNL     1      -7.888  10.800  67.934  1.00  0.00    -0.105 OA 
ENDBRANCH   8  11
BRANCH   9  20
HETATM   20  O   UNL     1      -9.795  12.630  65.569  1.00  0.00    -0.242 OA 
BRANCH  20  21
HETATM   21  C   UNL     1     -10.056  11.495  64.873  1.00  0.00    -0.268 C  
HETATM   22  C   UNL     1     -10.386  11.817  63.445  1.00  0.00    -0.481 C  
HETATM   23  O   UNL     1     -10.037  10.363  65.333  1.00  0.00    -0.277 OA 
ENDBRANCH  20  21
ENDBRANCH   9  20
BRANCH  10  24
HETATM   24  O   UNL     1     -10.501  15.117  65.634  1.00  0.00    -0.309 OA 
BRANCH  24  25
HETATM   25  C   UNL     1     -11.329  15.675  64.714  1.00  0.00    -0.343 C  
HETATM   26  O   UNL     1     -11.243  16.812  64.277  1.00  0.00    -1.163 OA 
HETATM   27  C   UNL     1     -12.411  14.706  64.338  1.00  0.00    -0.420 C  
ENDBRANCH  24  25
ENDBRANCH  10  24
ENDBRANCH   5   6
ENDBRANCH   4   5
ENDBRANCH   2   4
TORSDOF 8
ENDMDL
MODEL       15
REMARK 921   NORMALIZED FREE ENERGY PREDICTED BY IDOCK:   -5.87 KCAL/MOL
REMARK 922        TOTAL FREE ENERGY PREDICTED BY IDOCK:  -10.03 KCAL/MOL
REMARK 923 INTER-LIGAND FREE ENERGY PREDICTED BY IDOCK:   -8.67 KCAL/MOL
REMARK 924 INTRA-LIGAND FREE ENERGY PREDICTED BY IDOCK:   -1.36 KCAL/MOL
REMARK 927      BINDING AFFINITY PREDICTED BY RF-SCORE:    0.00 PKD
ROOT
HETATM    1  C   UNL     1      -9.274   9.835  64.241  1.00  0.00    -0.286 C  
HETATM    2  C   UNL     1      -9.812  10.987  63.450  1.00  0.00    -0.363 C  
HETATM    3  O   UNL     1      -9.177  11.606  62.609  1.00  0.00    -0.349 OA 
ENDROOT
BRANCH   2   4
HETATM    4  O   UNL     1     -11.099  11.243  63.811  1.00  0.00    -0.380 OA 
BRANCH   4   5
HETATM    5  C   UNL     1     -11.464  12.627  63.824  1.00  0.00    -0.470 C  
BRANCH   5   6
HETATM    6  C   UNL     1     -11.931  13.105  65.200  1.00  0.00    -0.394 C  
HETATM    7  O   UNL     1     -12.094  11.955  66.036  1.00  0.00    -0.500 OA 
HETATM    8  C   UNL     1     -11.884  12.382  67.387  1.00  0.00    -0.289 C  
HETATM    9  C   UNL     1     -10.859  13.524  67.340  1.00  0.00    -0.269 C  
HETATM   10  C   UNL     1     -10.950  14.050  65.900  1.00  0.00    -0.286 C  
BRANCH   8  11
HETATM   11  N   UNL     1     -11.473  11.229  68.193  1.00  0.00    -0.298 N  
HETATM   12  N   UNL     1     -11.338  10.171  70.272  1.00  0.00    -0.293 N  
HETATM   13  C   UNL     1     -10.922  10.106  67.601  1.00  0.00    -0.268 C  
HETATM   14  O   UNL     1     -10.731   7.978  70.406  1.00  0.00    -0.225 OA 
HETATM   15  H   UNL     1     -11.427  10.217  71.287  1.00  0.00     0.000 HD 
HETATM   16  C   UNL     1     -10.630   9.007  68.296  1.00  0.00    -0.213 C  
HETATM   17  C   UNL     1     -11.675  11.297  69.564  1.00  0.00    -0.345 C  
HETATM   18  C   UNL     1     -10.896   8.995  69.742  1.00  0.00    -0.205 C  
HETATM   19  O   UNL     1     -12.143  12.277  70.141  1.00  0.00    -0.327 OA 
ENDBRANCH   8  11
BRANCH   9  20
HETATM   20  O   UNL     1     -11.202  14.548  68.295  1.00  0.00    -0.256 OA 
BRANCH  20  21
HETATM   21  C   UNL     1     -10.255  14.899  69.201  1.00  0.00    -0.242 C  
HETATM   22  C   UNL     1     -10.885  15.560  70.392  1.00  0.00    -0.356 C  
HETATM   23  O   UNL     1      -9.053  14.716  69.075  1.00  0.00    -0.175 OA 
ENDBRANCH  20  21
ENDBRANCH   9  20
BRANCH  10  24
HETATM   24  O   UNL     1     -11.486  15.390  65.866  1.00  0.00    -0.189 OA 
BRANCH  24  25
HETATM   25  C   UNL     1     -10.772  16.332  65.199  1.00  0.00    -0.331 C  
HETATM   26  O   UNL     1     -11.056  16.796  64.105  1.00  0.00    -1.061 OA 
HETATM   27  C   UNL     1      -9.543  16.697  65.978  1.00  0.00    -0.298 C  
ENDBRANCH  24  25
ENDBRANCH  10  24
ENDBRANCH   5   6
ENDBRANCH   4   5
ENDBRANCH   2   4
TORSDOF 8
ENDMDL
MODEL       16
REMARK 921   NORMALIZED FREE ENERGY PREDICTED BY IDOCK:   -5.86 KCAL/MOL
REMARK 922        TOTAL FREE ENERGY PREDICTED BY IDOCK:  -10.01 KCAL/MOL
REMARK 923 INTER-LIGAND FREE ENERGY PREDICTED BY IDOCK:   -8.64 KCAL/MOL
REMARK 924 INTRA-LIGAND FREE ENERGY PREDICTED BY IDOCK:   -1.37 KCAL/MOL
REMARK 927      BINDING AFFINITY PREDICTED BY RF-SCORE:    0.00 PKD
ROOT
HETATM    1  C   UNL     1     -10.824   5.970  69.027  1.00  0.00    -0.412 C  
HETATM    2  C   UNL     1     -10.902   7.003  67.946  1.00  0.00    -0.183 C  
HETATM    3  O   UNL     1     -11.362   6.806  66.831  1.00  0.00    -0.318 OA 
ENDROOT
BRANCH   2   4
HETATM    4  O   UNL     1     -10.384   8.182  68.386  1.00  0.00    -0.205 OA 
BRANCH   4   5
HETATM    5  C   UNL     1     -10.780   9.338  67.640  1.00  0.00    -0.209 C  
BRANCH   5   6
HETATM    6  C   UNL     1     -10.516  10.646  68.387  1.00  0.00    -0.188 C  
HETATM    7  O   UNL     1     -10.273  11.669  67.417  1.00  0.00    -0.199 OA 
HETATM    8  C   UNL     1     -10.667  12.913  68.006  1.00  0.00    -0.228 C  
HETATM    9  C   UNL     1     -11.834  12.607  68.957  1.00  0.00    -0.294 C  
HETATM   10  C   UNL     1     -11.682  11.111  69.266  1.00  0.00    -0.331 C  
BRANCH   8  11
HETATM   11  N   UNL     1     -10.986  13.866  66.940  1.00  0.00    -0.293 N  
HETATM   12  N   UNL     1     -10.603  15.921  65.894  1.00  0.00    -0.336 N  
HETATM   13  C   UNL     1     -11.899  13.549  65.950  1.00  0.00    -0.372 C  
HETATM   14  O   UNL     1     -11.520  16.358  63.854  1.00  0.00    -1.063 OA 
HETATM   15  H   UNL     1     -10.170  16.844  65.908  1.00  0.00     0.000 HD 
HETATM   16  C   UNL     1     -12.136  14.355  64.915  1.00  0.00    -0.442 C  
HETATM   17  C   UNL     1     -10.324  15.086  66.947  1.00  0.00    -0.266 C  
HETATM   18  C   UNL     1     -11.406  15.628  64.832  1.00  0.00    -0.315 C  
HETATM   19  O   UNL     1      -9.519  15.424  67.812  1.00  0.00    -0.203 OA 
ENDBRANCH   8  11
BRANCH   9  20
HETATM   20  O   UNL     1     -11.729  13.403  70.154  1.00  0.00    -0.275 OA 
BRANCH  20  21
HETATM   21  C   UNL     1     -12.535  14.490  70.253  1.00  0.00    -0.348 C  
HETATM   22  C   UNL     1     -13.622  14.249  71.259  1.00  0.00    -0.355 C  
HETATM   23  O   UNL     1     -12.409  15.524  69.614  1.00  0.00    -0.313 OA 
ENDBRANCH  20  21
ENDBRANCH   9  20
BRANCH  10  24
HETATM   24  O   UNL     1     -11.338  10.896  70.651  1.00  0.00    -0.256 OA 
BRANCH  24  25
HETATM   25  C   UNL     1     -12.154  10.091  71.380  1.00  0.00    -0.407 C  
HETATM   26  O   UNL     1     -13.237  10.410  71.845  1.00  0.00    -0.439 OA 
HETATM   27  C   UNL     1     -11.511   8.750  71.581  1.00  0.00    -0.386 C  
ENDBRANCH  24  25
ENDBRANCH  10  24
ENDBRANCH   5   6
ENDBRANCH   4   5
ENDBRANCH   2   4
TORSDOF 8
ENDMDL
MODEL       17
REMARK 921   NORMALIZED FREE ENERGY PREDICTED BY IDOCK:   -5.85 KCAL/MOL
REMARK 922        TOTAL FREE ENERGY PREDICTED BY IDOCK:   -9.99 KCAL/MOL
REMARK 923 INTER-LIGAND FREE ENERGY PREDICTED BY IDOCK:   -9.24 KCAL/MOL
REMARK 924 INTRA-LIGAND FREE ENERGY PREDICTED BY IDOCK:   -0.75 KCAL/MOL
REMARK 927      BINDING AFFINITY PREDICTED BY RF-SCORE:    0.00 PKD
ROOT
HETATM    1  C   UNL     1     -11.055   6.082  69.090  1.00  0.00    -0.405 C  
HETATM    2  C   UNL     1     -10.789   6.850  67.834  1.00  0.00    -0.218 C  
HETATM    3  O   UNL     1     -11.089   6.469  66.712  1.00  0.00    -0.362 OA 
ENDROOT
BRANCH   2   4
HETATM    4  O   UNL     1     -10.163   8.024  68.125  1.00  0.00    -0.194 OA 
BRANCH   4   5
HETATM    5  C   UNL     1     -10.657   9.168  67.422  1.00  0.00    -0.244 C  
BRANCH   5   6
HETATM    6  C   UNL     1     -10.372  10.482  68.150  1.00  0.00    -0.172 C  
HETATM    7  O   UNL     1     -10.058  11.474  67.168  1.00  0.00    -0.194 OA 
HETATM    8  C   UNL     1     -10.426  12.744  67.718  1.00  0.00    -0.223 C  
HETATM    9  C   UNL     1     -11.635  12.501  68.633  1.00  0.00    -0.314 C  
HETATM   10  C   UNL     1     -11.548  11.007  68.978  1.00  0.00    -0.323 C  
BRANCH   8  11
HETATM   11  N   UNL     1     -10.674  13.684  66.622  1.00  0.00    -0.279 N  
HETATM   12  N   UNL     1     -11.932  14.316  64.756  1.00  0.00    -0.417 N  
HETATM   13  C   UNL     1      -9.933  14.846  66.497  1.00  0.00    -0.265 C  
HETATM   14  O   UNL     1     -11.658  16.383  63.834  1.00  0.00    -1.100 OA 
HETATM   15  H   UNL     1     -12.637  14.088  64.056  1.00  0.00     0.000 HD 
HETATM   16  C   UNL     1     -10.200  15.765  65.569  1.00  0.00    -0.407 C  
HETATM   17  C   UNL     1     -11.690  13.377  65.727  1.00  0.00    -0.349 C  
HETATM   18  C   UNL     1     -11.316  15.527  64.642  1.00  0.00    -0.357 C  
HETATM   19  O   UNL     1     -12.365  12.351  65.782  1.00  0.00    -0.644 OA 
ENDBRANCH   8  11
BRANCH   9  20
HETATM   20  O   UNL     1     -11.542  13.318  69.817  1.00  0.00    -0.276 OA 
BRANCH  20  21
HETATM   21  C   UNL     1     -12.285  14.453  69.851  1.00  0.00    -0.340 C  
HETATM   22  C   UNL     1     -13.268  14.406  70.983  1.00  0.00    -0.395 C  
HETATM   23  O   UNL     1     -12.183  15.388  69.071  1.00  0.00    -0.257 OA 
ENDBRANCH  20  21
ENDBRANCH   9  20
BRANCH  10  24
HETATM   24  O   UNL     1     -11.260  10.810  70.379  1.00  0.00    -0.292 OA 
BRANCH  24  25
HETATM   25  C   UNL     1     -12.101  10.010  71.084  1.00  0.00    -0.380 C  
HETATM   26  O   UNL     1     -12.106   8.789  71.061  1.00  0.00    -0.289 OA 
HETATM   27  C   UNL     1     -13.071  10.843  71.869  1.00  0.00    -0.537 C  
ENDBRANCH  24  25
ENDBRANCH  10  24
ENDBRANCH   5   6
ENDBRANCH   4   5
ENDBRANCH   2   4
TORSDOF 8
ENDMDL
MODEL       18
REMARK 921   NORMALIZED FREE ENERGY PREDICTED BY IDOCK:   -5.84 KCAL/MOL
REMARK 922        TOTAL FREE ENERGY PREDICTED BY IDOCK:   -9.97 KCAL/MOL
REMARK 923 INTER-LIGAND FREE ENERGY PREDICTED BY IDOCK:   -9.58 KCAL/MOL
REMARK 924 INTRA-LIGAND FREE ENERGY PREDICTED BY IDOCK:   -0.39 KCAL/MOL
REMARK 927      BINDING AFFINITY PREDICTED BY RF-SCORE:    0.00 PKD
ROOT
HETATM    1  C   UNL     1     -12.169  11.649  63.259  1.00  0.00    -0.265 C  
HETATM    2  C   UNL     1     -12.525  12.982  63.840  1.00  0.00    -0.296 C  
HETATM    3  O   UNL     1     -12.509  14.035  63.219  1.00  0.00    -0.795 OA 
ENDROOT
BRANCH   2   4
HETATM    4  O   UNL     1     -12.858  12.848  65.153  1.00  0.00    -0.702 OA 
BRANCH   4   5
HETATM    5  C   UNL     1     -12.387  13.892  66.010  1.00  0.00    -0.475 C  
BRANCH   5   6
HETATM    6  C   UNL     1     -11.501  13.375  67.145  1.00  0.00    -0.339 C  
HETATM    7  O   UNL     1     -11.620  14.279  68.248  1.00  0.00    -0.288 OA 
HETATM    8  C   UNL     1     -11.370  13.527  69.440  1.00  0.00    -0.233 C  
HETATM    9  C   UNL     1     -11.869  12.098  69.180  1.00  0.00    -0.305 C  
HETATM   10  C   UNL     1     -11.882  11.979  67.649  1.00  0.00    -0.224 C  
BRANCH   8  11
HETATM   11  N   UNL     1     -12.014  14.199  70.571  1.00  0.00    -0.319 N  
HETATM   12  N   UNL     1     -12.319  16.123  71.862  1.00  0.00    -0.573 N  
HETATM   13  C   UNL     1     -12.972  13.553  71.333  1.00  0.00    -0.339 C  
HETATM   14  O   UNL     1     -14.001  16.219  73.398  1.00  0.00    -0.500 OA 
HETATM   15  H   UNL     1     -12.027  17.068  72.111  1.00  0.00     0.000 HD 
HETATM   16  C   UNL     1     -13.643  14.171  72.305  1.00  0.00    -0.596 C  
HETATM   17  C   UNL     1     -11.644  15.510  70.837  1.00  0.00    -0.375 C  
HETATM   18  C   UNL     1     -13.346  15.584  72.580  1.00  0.00    -0.497 C  
HETATM   19  O   UNL     1     -10.787  16.122  70.204  1.00  0.00    -0.332 OA 
ENDBRANCH   8  11
BRANCH   9  20
HETATM   20  O   UNL     1     -10.974  11.137  69.773  1.00  0.00    -0.233 OA 
BRANCH  20  21
HETATM   21  C   UNL     1     -11.512  10.222  70.619  1.00  0.00    -0.349 C  
HETATM   22  C   UNL     1     -10.432   9.416  71.278  1.00  0.00    -0.385 C  
HETATM   23  O   UNL     1     -12.706  10.062  70.820  1.00  0.00    -0.315 OA 
ENDBRANCH  20  21
ENDBRANCH   9  20
BRANCH  10  24
HETATM   24  O   UNL     1     -10.896  11.031  67.190  1.00  0.00    -0.253 OA 
BRANCH  24  25
HETATM   25  C   UNL     1      -9.772  11.528  66.612  1.00  0.00    -0.199 C  
HETATM   26  O   UNL     1      -9.640  11.790  65.426  1.00  0.00    -0.233 OA 
HETATM   27  C   UNL     1      -8.682  11.666  67.633  1.00  0.00    -0.156 C  
ENDBRANCH  24  25
ENDBRANCH  10  24
ENDBRANCH   5   6
ENDBRANCH   4   5
ENDBRANCH   2   4
TORSDOF 8
ENDMDL
MODEL       19
REMARK 921   NORMALIZED FREE ENERGY PREDICTED BY IDOCK:   -5.82 KCAL/MOL
REMARK 922        TOTAL FREE ENERGY PREDICTED BY IDOCK:   -9.95 KCAL/MOL
REMARK 923 INTER-LIGAND FREE ENERGY PREDICTED BY IDOCK:   -8.74 KCAL/MOL
REMARK 924 INTRA-LIGAND FREE ENERGY PREDICTED BY IDOCK:   -1.21 KCAL/MOL
REMARK 927      BINDING AFFINITY PREDICTED BY RF-SCORE:    0.00 PKD
ROOT
HETATM    1  C   UNL     1     -11.665  12.192  63.922  1.00  0.00    -0.546 C  
HETATM    2  C   UNL     1     -10.375  11.541  64.314  1.00  0.00    -0.323 C  
HETATM    3  O   UNL     1      -9.807  10.680  63.660  1.00  0.00    -0.303 OA 
ENDROOT
BRANCH   2   4
HETATM    4  O   UNL     1      -9.938  12.044  65.501  1.00  0.00    -0.236 OA 
BRANCH   4   5
HETATM    5  C   UNL     1     -10.293  13.407  65.753  1.00  0.00    -0.293 C  
BRANCH   5   6
HETATM    6  C   UNL     1      -9.908  13.871  67.159  1.00  0.00    -0.241 C  
HETATM    7  O   UNL     1      -9.376  15.195  67.057  1.00  0.00    -0.213 OA 
HETATM    8  C   UNL     1      -9.625  15.848  68.308  1.00  0.00    -0.205 C  
HETATM    9  C   UNL     1     -10.936  15.270  68.860  1.00  0.00    -0.261 C  
HETATM   10  C   UNL     1     -11.079  13.918  68.145  1.00  0.00    -0.256 C  
BRANCH   8  11
HETATM   11  N   UNL     1      -9.642  17.297  68.094  1.00  0.00    -0.274 N  
HETATM   12  N   UNL     1      -8.523  19.349  68.112  1.00  0.00    -0.322 N  
HETATM   13  C   UNL     1     -10.766  17.931  67.595  1.00  0.00    -0.331 C  
HETATM   14  O   UNL     1      -9.488  21.190  67.178  1.00  0.00    -0.256 OA 
HETATM   15  H   UNL     1      -7.705  19.899  68.372  1.00  0.00     0.000 HD 
HETATM   16  C   UNL     1     -10.778  19.231  67.299  1.00  0.00    -0.594 C  
HETATM   17  C   UNL     1      -8.486  18.006  68.390  1.00  0.00    -0.298 C  
HETATM   18  C   UNL     1      -9.555  20.016  67.521  1.00  0.00    -0.393 C  
HETATM   19  O   UNL     1      -7.468  17.494  68.852  1.00  0.00    -0.261 OA 
ENDBRANCH   8  11
BRANCH   9  20
HETATM   20  O   UNL     1     -10.849  15.100  70.288  1.00  0.00    -0.265 OA 
BRANCH  20  21
HETATM   21  C   UNL     1     -11.946  15.416  71.022  1.00  0.00    -0.359 C  
HETATM   22  C   UNL     1     -11.594  15.525  72.476  1.00  0.00    -0.531 C  
HETATM   23  O   UNL     1     -13.071  15.583  70.575  1.00  0.00    -0.402 OA 
ENDBRANCH  20  21
ENDBRANCH   9  20
BRANCH  10  24
HETATM   24  O   UNL     1     -10.953  12.820  69.073  1.00  0.00    -0.242 OA 
BRANCH  24  25
HETATM   25  C   UNL     1     -11.826  11.788  68.944  1.00  0.00    -0.320 C  
HETATM   26  O   UNL     1     -12.154  11.262  67.891  1.00  0.00    -0.634 OA 
HETATM   27  C   UNL     1     -12.379  11.407  70.286  1.00  0.00    -0.379 C  
ENDBRANCH  24  25
ENDBRANCH  10  24
ENDBRANCH   5   6
ENDBRANCH   4   5
ENDBRANCH   2   4
TORSDOF 8
ENDMDL
MODEL       20
REMARK 921   NORMALIZED FREE ENERGY PREDICTED BY IDOCK:   -5.76 KCAL/MOL
REMARK 922        TOTAL FREE ENERGY PREDICTED BY IDOCK:   -9.86 KCAL/MOL
REMARK 923 INTER-LIGAND FREE ENERGY PREDICTED BY IDOCK:   -9.10 KCAL/MOL
REMARK 924 INTRA-LIGAND FREE ENERGY PREDICTED BY IDOCK:   -0.76 KCAL/MOL
REMARK 927      BINDING AFFINITY PREDICTED BY RF-SCORE:    0.00 PKD
ROOT
HETATM    1  C   UNL     1     -12.165  12.583  63.492  1.00  0.00    -0.652 C  
HETATM    2  C   UNL     1     -10.775  12.127  63.806  1.00  0.00    -0.437 C  
HETATM    3  O   UNL     1     -10.120  11.369  63.106  1.00  0.00    -0.351 OA 
ENDROOT
BRANCH   2   4
HETATM    4  O   UNL     1     -10.356  12.673  64.980  1.00  0.00    -0.289 OA 
BRANCH   4   5
HETATM    5  C   UNL     1     -10.408  11.798  66.111  1.00  0.00    -0.230 C  
BRANCH   5   6
HETATM    6  C   UNL     1     -11.532  12.153  67.086  1.00  0.00    -0.346 C  
HETATM    7  O   UNL     1     -11.806  10.999  67.886  1.00  0.00    -0.600 OA 
HETATM    8  C   UNL     1     -12.320  11.465  69.139  1.00  0.00    -0.031 C  
HETATM    9  C   UNL     1     -11.651  12.818  69.420  1.00  0.00    -0.298 C  
HETATM   10  C   UNL     1     -11.195  13.305  68.037  1.00  0.00    -0.276 C  
BRANCH   8  11
HETATM   11  N   UNL     1     -12.081  10.444  70.162  1.00  0.00    -0.272 N  
HETATM   12  N   UNL     1     -10.595   9.050  71.307  1.00  0.00    -0.280 N  
HETATM   13  C   UNL     1     -13.105  10.001  70.980  1.00  0.00    -0.356 C  
HETATM   14  O   UNL     1     -11.274   7.942  73.179  1.00  0.00    -0.382 OA 
HETATM   15  H   UNL     1      -9.667   8.636  71.388  1.00  0.00     0.000 HD 
HETATM   16  C   UNL     1     -12.896   9.147  71.982  1.00  0.00    -0.483 C  
HETATM   17  C   UNL     1     -10.789   9.955  70.293  1.00  0.00    -0.310 C  
HETATM   18  C   UNL     1     -11.531   8.654  72.216  1.00  0.00    -0.353 C  
HETATM   19  O   UNL     1      -9.848  10.301  69.581  1.00  0.00    -0.230 OA 
ENDBRANCH   8  11
BRANCH   9  20
HETATM   20  O   UNL     1     -12.594  13.732  70.013  1.00  0.00    -0.275 OA 
BRANCH  20  21
HETATM   21  C   UNL     1     -12.375  14.108  71.298  1.00  0.00    -0.369 C  
HETATM   22  C   UNL     1     -13.381  13.472  72.212  1.00  0.00    -0.628 C  
HETATM   23  O   UNL     1     -11.491  14.865  71.673  1.00  0.00    -0.344 OA 
ENDBRANCH  20  21
ENDBRANCH   9  20
BRANCH  10  24
HETATM   24  O   UNL     1     -11.929  14.479  67.628  1.00  0.00    -0.374 OA 
BRANCH  24  25
HETATM   25  C   UNL     1     -11.266  15.664  67.633  1.00  0.00    -0.274 C  
HETATM   26  O   UNL     1     -11.276  16.480  68.542  1.00  0.00    -0.360 OA 
HETATM   27  C   UNL     1     -10.549  15.861  66.330  1.00  0.00    -0.298 C  
ENDBRANCH  24  25
ENDBRANCH  10  24
ENDBRANCH   5   6
ENDBRANCH   4   5
ENDBRANCH   2   4
TORSDOF 8
ENDMDL
MODEL       21
REMARK 921   NORMALIZED FREE ENERGY PREDICTED BY IDOCK:   -5.74 KCAL/MOL
REMARK 922        TOTAL FREE ENERGY PREDICTED BY IDOCK:   -9.84 KCAL/MOL
REMARK 923 INTER-LIGAND FREE ENERGY PREDICTED BY IDOCK:   -9.06 KCAL/MOL
REMARK 924 INTRA-LIGAND FREE ENERGY PREDICTED BY IDOCK:   -0.78 KCAL/MOL
REMARK 927      BINDING AFFINITY PREDICTED BY RF-SCORE:    0.00 PKD
ROOT
HETATM    1  C   UNL     1     -13.961  15.215  71.581  1.00  0.00    -0.618 C  
HETATM    2  C   UNL     1     -12.603  15.470  71.004  1.00  0.00    -0.454 C  
HETATM    3  O   UNL     1     -11.781  16.237  71.482  1.00  0.00    -0.469 OA 
ENDROOT
BRANCH   2   4
HETATM    4  O   UNL     1     -12.427  14.731  69.875  1.00  0.00    -0.306 OA 
BRANCH   4   5
HETATM    5  C   UNL     1     -11.941  15.457  68.742  1.00  0.00    -0.253 C  
BRANCH   5   6
HETATM    6  C   UNL     1     -10.792  14.743  68.027  1.00  0.00    -0.260 C  
HETATM    7  O   UNL     1     -10.399  13.624  68.828  1.00  0.00    -0.231 OA 
HETATM    8  C   UNL     1      -9.851  12.642  67.941  1.00  0.00    -0.218 C  
HETATM    9  C   UNL     1     -10.592  12.783  66.604  1.00  0.00    -0.256 C  
HETATM   10  C   UNL     1     -11.153  14.213  66.636  1.00  0.00    -0.312 C  
BRANCH   8  11
HETATM   11  N   UNL     1      -9.966  11.321  68.563  1.00  0.00    -0.197 N  
HETATM   12  N   UNL     1     -11.305   9.556  69.309  1.00  0.00    -0.446 N  
HETATM   13  C   UNL     1      -8.840  10.588  68.896  1.00  0.00    -0.165 C  
HETATM   14  O   UNL     1     -10.358   7.570  69.904  1.00  0.00    -0.212 OA 
HETATM   15  H   UNL     1     -12.230   9.192  69.533  1.00  0.00     0.000 HD 
HETATM   16  C   UNL     1      -8.915   9.345  69.372  1.00  0.00    -0.157 C  
HETATM   17  C   UNL     1     -11.243  10.823  68.787  1.00  0.00    -0.272 C  
HETATM   18  C   UNL     1     -10.241   8.739  69.557  1.00  0.00    -0.208 C  
HETATM   19  O   UNL     1     -12.274  11.440  68.527  1.00  0.00    -0.557 OA 
ENDBRANCH   8  11
BRANCH   9  20
HETATM   20  O   UNL     1      -9.681  12.603  65.502  1.00  0.00    -0.208 OA 
BRANCH  20  21
HETATM   21  C   UNL     1     -10.026  11.701  64.548  1.00  0.00    -0.253 C  
HETATM   22  C   UNL     1      -9.916  10.303  65.081  1.00  0.00    -0.395 C  
HETATM   23  O   UNL     1     -10.373  11.975  63.409  1.00  0.00    -0.430 OA 
ENDBRANCH  20  21
ENDBRANCH   9  20
BRANCH  10  24
HETATM   24  O   UNL     1     -10.521  15.044  65.640  1.00  0.00    -0.302 OA 
BRANCH  24  25
HETATM   25  C   UNL     1     -11.323  15.621  64.708  1.00  0.00    -0.343 C  
HETATM   26  O   UNL     1     -11.223  16.766  64.295  1.00  0.00    -1.163 OA 
HETATM   27  C   UNL     1     -12.395  14.661  64.282  1.00  0.00    -0.375 C  
ENDBRANCH  24  25
ENDBRANCH  10  24
ENDBRANCH   5   6
ENDBRANCH   4   5
ENDBRANCH   2   4
TORSDOF 8
ENDMDL
MODEL       22
REMARK 921   NORMALIZED FREE ENERGY PREDICTED BY IDOCK:   -5.73 KCAL/MOL
REMARK 922        TOTAL FREE ENERGY PREDICTED BY IDOCK:   -9.82 KCAL/MOL
REMARK 923 INTER-LIGAND FREE ENERGY PREDICTED BY IDOCK:   -8.46 KCAL/MOL
REMARK 924 INTRA-LIGAND FREE ENERGY PREDICTED BY IDOCK:   -1.36 KCAL/MOL
REMARK 927      BINDING AFFINITY PREDICTED BY RF-SCORE:    0.00 PKD
ROOT
HETATM    1  C   UNL     1     -13.425  15.349  71.457  1.00  0.00    -0.601 C  
HETATM    2  C   UNL     1     -12.306  15.348  70.462  1.00  0.00    -0.408 C  
HETATM    3  O   UNL     1     -11.469  16.232  70.359  1.00  0.00    -0.355 OA 
ENDROOT
BRANCH   2   4
HETATM    4  O   UNL     1     -12.364  14.226  69.692  1.00  0.00    -0.329 OA 
BRANCH   4   5
HETATM    5  C   UNL     1     -12.014  14.413  68.317  1.00  0.00    -0.288 C  
BRANCH   5   6
HETATM    6  C   UNL     1     -11.050  13.344  67.800  1.00  0.00    -0.268 C  
HETATM    7  O   UNL     1     -10.544  12.621  68.926  1.00  0.00    -0.212 OA 
HETATM    8  C   UNL     1     -10.210  11.306  68.469  1.00  0.00    -0.205 C  
HETATM    9  C   UNL     1     -11.195  10.961  67.341  1.00  0.00    -0.273 C  
HETATM   10  C   UNL     1     -11.693  12.329  66.850  1.00  0.00    -0.334 C  
BRANCH   8  11
HETATM   11  N   UNL     1     -10.243  10.383  69.607  1.00  0.00    -0.230 N  
HETATM   12  N   UNL     1      -9.133   8.892  71.023  1.00  0.00    -0.222 N  
HETATM   13  C   UNL     1     -11.392  10.222  70.361  1.00  0.00    -0.332 C  
HETATM   14  O   UNL     1     -10.147   8.142  72.921  1.00  0.00    -0.299 OA 
HETATM   15  H   UNL     1      -8.305   8.335  71.234  1.00  0.00     0.000 HD 
HETATM   16  C   UNL     1     -11.422   9.465  71.459  1.00  0.00    -0.467 C  
HETATM   17  C   UNL     1      -9.077   9.694  69.911  1.00  0.00    -0.225 C  
HETATM   18  C   UNL     1     -10.193   8.772  71.872  1.00  0.00    -0.345 C  
HETATM   19  O   UNL     1      -8.037   9.786  69.262  1.00  0.00    -0.096 OA 
ENDBRANCH   8  11
BRANCH   9  20
HETATM   20  O   UNL     1     -10.523  10.240  66.290  1.00  0.00    -0.215 OA 
BRANCH  20  21
HETATM   21  C   UNL     1     -10.207   8.942  66.528  1.00  0.00    -0.249 C  
HETATM   22  C   UNL     1      -8.894   8.595  65.890  1.00  0.00    -0.221 C  
HETATM   23  O   UNL     1     -10.889   8.153  67.164  1.00  0.00    -0.261 OA 
ENDBRANCH  20  21
ENDBRANCH   9  20
BRANCH  10  24
HETATM   24  O   UNL     1     -11.243  12.596  65.505  1.00  0.00    -0.286 OA 
BRANCH  24  25
HETATM   25  C   UNL     1     -12.160  13.067  64.621  1.00  0.00    -0.409 C  
HETATM   26  O   UNL     1     -12.786  14.111  64.734  1.00  0.00    -0.650 OA 
HETATM   27  C   UNL     1     -12.340  12.094  63.494  1.00  0.00    -0.682 C  
ENDBRANCH  24  25
ENDBRANCH  10  24
ENDBRANCH   5   6
ENDBRANCH   4   5
ENDBRANCH   2   4
TORSDOF 8
ENDMDL
MODEL       23
REMARK 921   NORMALIZED FREE ENERGY PREDICTED BY IDOCK:   -5.72 KCAL/MOL
REMARK 922        TOTAL FREE ENERGY PREDICTED BY IDOCK:   -9.80 KCAL/MOL
REMARK 923 INTER-LIGAND FREE ENERGY PREDICTED BY IDOCK:   -8.45 KCAL/MOL
REMARK 924 INTRA-LIGAND FREE ENERGY PREDICTED BY IDOCK:   -1.36 KCAL/MOL
REMARK 927      BINDING AFFINITY PREDICTED BY RF-SCORE:    0.00 PKD
ROOT
HETATM    1  C   UNL     1     -10.658  14.728  65.093  1.00  0.00    -0.439 C  
HETATM    2  C   UNL     1     -12.123  14.578  64.824  1.00  0.00    -0.445 C  
HETATM    3  O   UNL     1     -12.656  14.802  63.747  1.00  0.00    -0.806 OA 
ENDROOT
BRANCH   2   4
HETATM    4  O   UNL     1     -12.767  14.164  65.949  1.00  0.00    -0.487 OA 
BRANCH   4   5
HETATM    5  C   UNL     1     -11.936  14.013  67.105  1.00  0.00    -0.430 C  
BRANCH   5   6
HETATM    6  C   UNL     1     -12.023  12.615  67.720  1.00  0.00    -0.243 C  
HETATM    7  O   UNL     1     -11.548  11.675  66.752  1.00  0.00    -0.503 OA 
HETATM    8  C   UNL     1     -11.023  10.554  67.474  1.00  0.00    -0.303 C  
HETATM    9  C   UNL     1     -10.457  11.099  68.794  1.00  0.00    -0.203 C  
HETATM   10  C   UNL     1     -11.184  12.437  68.989  1.00  0.00    -0.266 C  
BRANCH   8  11
HETATM   11  N   UNL     1     -10.044   9.862  66.633  1.00  0.00    -0.223 N  
HETATM   12  N   UNL     1      -9.172   7.866  65.785  1.00  0.00    -0.396 N  
HETATM   13  C   UNL     1      -9.151  10.569  65.847  1.00  0.00    -0.168 C  
HETATM   14  O   UNL     1      -7.662   7.908  64.078  1.00  0.00    -0.119 OA 
HETATM   15  H   UNL     1      -9.127   6.848  65.811  1.00  0.00     0.000 HD 
HETATM   16  C   UNL     1      -8.317   9.967  65.000  1.00  0.00    -0.151 C  
HETATM   17  C   UNL     1     -10.059   8.473  66.637  1.00  0.00    -0.294 C  
HETATM   18  C   UNL     1      -8.343   8.500  64.907  1.00  0.00    -0.160 C  
HETATM   19  O   UNL     1     -10.818   7.798  67.329  1.00  0.00    -0.284 OA 
ENDBRANCH   8  11
BRANCH   9  20
HETATM   20  O   UNL     1     -10.736  10.188  69.875  1.00  0.00    -0.255 OA 
BRANCH  20  21
HETATM   21  C   UNL     1      -9.693   9.488  70.387  1.00  0.00    -0.271 C  
HETATM   22  C   UNL     1     -10.105   8.765  71.635  1.00  0.00    -0.390 C  
HETATM   23  O   UNL     1      -8.567   9.449  69.913  1.00  0.00    -0.153 OA 
ENDBRANCH  20  21
ENDBRANCH   9  20
BRANCH  10  24
HETATM   24  O   UNL     1     -12.066  12.391  70.131  1.00  0.00    -0.335 OA 
BRANCH  24  25
HETATM   25  C   UNL     1     -12.218  13.533  70.850  1.00  0.00    -0.305 C  
HETATM   26  O   UNL     1     -11.616  14.579  70.659  1.00  0.00    -0.276 OA 
HETATM   27  C   UNL     1     -13.204  13.317  71.960  1.00  0.00    -0.541 C  
ENDBRANCH  24  25
ENDBRANCH  10  24
ENDBRANCH   5   6
ENDBRANCH   4   5
ENDBRANCH   2   4
TORSDOF 8
ENDMDL
MODEL       24
REMARK 921   NORMALIZED FREE ENERGY PREDICTED BY IDOCK:   -5.67 KCAL/MOL
REMARK 922        TOTAL FREE ENERGY PREDICTED BY IDOCK:   -9.73 KCAL/MOL
REMARK 923 INTER-LIGAND FREE ENERGY PREDICTED BY IDOCK:   -8.16 KCAL/MOL
REMARK 924 INTRA-LIGAND FREE ENERGY PREDICTED BY IDOCK:   -1.57 KCAL/MOL
REMARK 927      BINDING AFFINITY PREDICTED BY RF-SCORE:    0.00 PKD
ROOT
HETATM    1  C   UNL     1     -12.667  11.745  63.333  1.00  0.00    -0.395 C  
HETATM    2  C   UNL     1     -11.395  12.519  63.490  1.00  0.00    -0.486 C  
HETATM    3  O   UNL     1     -10.280  12.072  63.266  1.00  0.00    -0.438 OA 
ENDROOT
BRANCH   2   4
HETATM    4  O   UNL     1     -11.665  13.783  63.919  1.00  0.00    -0.363 OA 
BRANCH   4   5
HETATM    5  C   UNL     1     -12.748  13.891  64.848  1.00  0.00    -0.278 C  
BRANCH   5   6
HETATM    6  C   UNL     1     -12.277  14.057  66.294  1.00  0.00    -0.462 C  
HETATM    7  O   UNL     1     -12.397  12.789  66.947  1.00  0.00    -0.412 OA 
HETATM    8  C   UNL     1     -11.416  12.756  67.989  1.00  0.00    -0.318 C  
HETATM    9  C   UNL     1     -10.222  13.593  67.506  1.00  0.00    -0.241 C  
HETATM   10  C   UNL     1     -10.820  14.510  66.429  1.00  0.00    -0.318 C  
BRANCH   8  11
HETATM   11  N   UNL     1     -11.095  11.361  68.297  1.00  0.00    -0.223 N  
HETATM   12  N   UNL     1     -11.248   9.531  69.743  1.00  0.00    -0.381 N  
HETATM   13  C   UNL     1     -10.418  10.567  67.388  1.00  0.00    -0.244 C  
HETATM   14  O   UNL     1     -10.590   7.462  69.049  1.00  0.00    -0.214 OA 
HETATM   15  H   UNL     1     -11.496   9.154  70.658  1.00  0.00     0.000 HD 
HETATM   16  C   UNL     1     -10.199   9.269  67.601  1.00  0.00    -0.285 C  
HETATM   17  C   UNL     1     -11.511  10.859  69.523  1.00  0.00    -0.301 C  
HETATM   18  C   UNL     1     -10.686   8.667  68.850  1.00  0.00    -0.082 C  
HETATM   19  O   UNL     1     -12.098  11.526  70.373  1.00  0.00    -0.350 OA 
ENDBRANCH   8  11
BRANCH   9  20
HETATM   20  O   UNL     1      -9.669  14.356  68.596  1.00  0.00    -0.217 OA 
BRANCH  20  21
HETATM   21  C   UNL     1      -8.317  14.398  68.705  1.00  0.00    -0.126 C  
HETATM   22  C   UNL     1      -7.692  13.265  67.946  1.00  0.00    -0.152 C  
HETATM   23  O   UNL     1      -7.684  15.231  69.337  1.00  0.00    -0.200 OA 
ENDBRANCH  20  21
ENDBRANCH   9  20
BRANCH  10  24
HETATM   24  O   UNL     1     -10.797  15.891  66.847  1.00  0.00    -0.314 OA 
BRANCH  24  25
HETATM   25  C   UNL     1     -10.327  16.805  65.959  1.00  0.00    -0.335 C  
HETATM   26  O   UNL     1     -10.856  17.103  64.898  1.00  0.00    -0.751 OA 
HETATM   27  C   UNL     1      -9.025  17.373  66.441  1.00  0.00    -0.274 C  
ENDBRANCH  24  25
ENDBRANCH  10  24
ENDBRANCH   5   6
ENDBRANCH   4   5
ENDBRANCH   2   4
TORSDOF 8
ENDMDL
MODEL       25
REMARK 921   NORMALIZED FREE ENERGY PREDICTED BY IDOCK:   -5.67 KCAL/MOL
REMARK 922        TOTAL FREE ENERGY PREDICTED BY IDOCK:   -9.73 KCAL/MOL
REMARK 923 INTER-LIGAND FREE ENERGY PREDICTED BY IDOCK:   -8.46 KCAL/MOL
REMARK 924 INTRA-LIGAND FREE ENERGY PREDICTED BY IDOCK:   -1.28 KCAL/MOL
REMARK 927      BINDING AFFINITY PREDICTED BY RF-SCORE:    0.00 PKD
ROOT
HETATM    1  C   UNL     1      -6.029  16.792  67.513  1.00  0.00    -0.177 C  
HETATM    2  C   UNL     1      -6.743  16.748  68.827  1.00  0.00    -0.185 C  
HETATM    3  O   UNL     1      -6.245  16.362  69.874  1.00  0.00    -0.208 OA 
ENDROOT
BRANCH   2   4
HETATM    4  O   UNL     1      -8.021  17.193  68.681  1.00  0.00    -0.248 OA 
BRANCH   4   5
HETATM    5  C   UNL     1      -9.038  16.249  69.029  1.00  0.00    -0.255 C  
BRANCH   5   6
HETATM    6  C   UNL     1      -9.224  15.160  67.970  1.00  0.00    -0.185 C  
HETATM    7  O   UNL     1      -9.366  13.906  68.645  1.00  0.00    -0.187 OA 
HETATM    8  C   UNL     1     -10.151  13.058  67.799  1.00  0.00    -0.229 C  
HETATM    9  C   UNL     1     -11.123  13.967  67.032  1.00  0.00    -0.304 C  
HETATM   10  C   UNL     1     -10.460  15.352  67.086  1.00  0.00    -0.290 C  
BRANCH   8  11
HETATM   11  N   UNL     1     -10.799  12.033  68.621  1.00  0.00    -0.228 N  
HETATM   12  N   UNL     1     -11.076   9.782  69.185  1.00  0.00    -0.387 N  
HETATM   13  C   UNL     1     -11.662  12.381  69.645  1.00  0.00    -0.307 C  
HETATM   14  O   UNL     1     -12.229   9.203  71.064  1.00  0.00    -0.294 OA 
HETATM   15  H   UNL     1     -10.914   8.798  68.971  1.00  0.00     0.000 HD 
HETATM   16  C   UNL     1     -12.188  11.476  70.471  1.00  0.00    -0.469 C  
HETATM   17  C   UNL     1     -10.500  10.705  68.349  1.00  0.00    -0.188 C  
HETATM   18  C   UNL     1     -11.844  10.060  70.276  1.00  0.00    -0.216 C  
HETATM   19  O   UNL     1      -9.756  10.342  67.441  1.00  0.00    -0.155 OA 
ENDBRANCH   8  11
BRANCH   9  20
HETATM   20  O   UNL     1     -11.273  13.511  65.674  1.00  0.00    -0.293 OA 
BRANCH  20  21
HETATM   21  C   UNL     1     -12.536  13.328  65.213  1.00  0.00    -0.489 C  
HETATM   22  C   UNL     1     -12.571  12.224  64.197  1.00  0.00    -0.493 C  
HETATM   23  O   UNL     1     -13.515  13.969  65.561  1.00  0.00    -0.677 OA 
ENDBRANCH  20  21
ENDBRANCH   9  20
BRANCH  10  24
HETATM   24  O   UNL     1     -10.036  15.779  65.775  1.00  0.00    -0.313 OA 
BRANCH  24  25
HETATM   25  C   UNL     1     -10.706  16.815  65.207  1.00  0.00    -0.169 C  
HETATM   26  O   UNL     1     -11.347  16.763  64.168  1.00  0.00    -1.194 OA 
HETATM   27  C   UNL     1     -10.509  18.063  66.016  1.00  0.00    -0.317 C  
ENDBRANCH  24  25
ENDBRANCH  10  24
ENDBRANCH   5   6
ENDBRANCH   4   5
ENDBRANCH   2   4
TORSDOF 8
ENDMDL
MODEL       26
REMARK 921   NORMALIZED FREE ENERGY PREDICTED BY IDOCK:   -5.65 KCAL/MOL
REMARK 922        TOTAL FREE ENERGY PREDICTED BY IDOCK:   -9.69 KCAL/MOL
REMARK 923 INTER-LIGAND FREE ENERGY PREDICTED BY IDOCK:   -8.35 KCAL/MOL
REMARK 924 INTRA-LIGAND FREE ENERGY PREDICTED BY IDOCK:   -1.34 KCAL/MOL
REMARK 927      BINDING AFFINITY PREDICTED BY RF-SCORE:    0.00 PKD
ROOT
HETATM    1  C   UNL     1      -8.342   8.534  64.748  1.00  0.00    -0.163 C  
HETATM    2  C   UNL     1      -9.116   9.711  64.242  1.00  0.00    -0.218 C  
HETATM    3  O   UNL     1      -9.226  10.013  63.064  1.00  0.00    -0.262 OA 
ENDROOT
BRANCH   2   4
HETATM    4  O   UNL     1      -9.668  10.392  65.284  1.00  0.00    -0.234 OA 
BRANCH   4   5
HETATM    5  C   UNL     1     -10.526  11.476  64.916  1.00  0.00    -0.291 C  
BRANCH   5   6
HETATM    6  C   UNL     1     -11.501  11.866  66.028  1.00  0.00    -0.281 C  
HETATM    7  O   UNL     1     -11.428  10.868  67.051  1.00  0.00    -0.392 OA 
HETATM    8  C   UNL     1     -11.781  11.502  68.286  1.00  0.00    -0.301 C  
HETATM    9  C   UNL     1     -11.311  12.961  68.189  1.00  0.00    -0.289 C  
HETATM   10  C   UNL     1     -11.200  13.219  66.679  1.00  0.00    -0.306 C  
BRANCH   8  11
HETATM   11  N   UNL     1     -11.193  10.746  69.395  1.00  0.00    -0.253 N  
HETATM   12  N   UNL     1     -11.415   9.765  71.504  1.00  0.00    -0.366 N  
HETATM   13  C   UNL     1      -9.906  10.245  69.313  1.00  0.00    -0.228 C  
HETATM   14  O   UNL     1      -9.795   8.371  72.297  1.00  0.00    -0.259 OA 
HETATM   15  H   UNL     1     -11.953   9.641  72.361  1.00  0.00     0.000 HD 
HETATM   16  C   UNL     1      -9.381   9.472  70.264  1.00  0.00    -0.305 C  
HETATM   17  C   UNL     1     -11.980  10.533  70.518  1.00  0.00    -0.342 C  
HETATM   18  C   UNL     1     -10.199   9.151  71.443  1.00  0.00    -0.332 C  
HETATM   19  O   UNL     1     -13.121  10.971  70.649  1.00  0.00    -0.204 OA 
ENDBRANCH   8  11
BRANCH   9  20
HETATM   20  O   UNL     1     -12.273  13.841  68.802  1.00  0.00    -0.350 OA 
BRANCH  20  21
HETATM   21  C   UNL     1     -11.803  14.774  69.667  1.00  0.00    -0.319 C  
HETATM   22  C   UNL     1     -12.173  14.420  71.077  1.00  0.00    -0.422 C  
HETATM   23  O   UNL     1     -11.172  15.773  69.355  1.00  0.00    -0.277 OA 
ENDBRANCH  20  21
ENDBRANCH   9  20
BRANCH  10  24
HETATM   24  O   UNL     1     -12.183  14.179  66.240  1.00  0.00    -0.437 OA 
BRANCH  24  25
HETATM   25  C   UNL     1     -11.978  14.778  65.038  1.00  0.00    -0.318 C  
HETATM   26  O   UNL     1     -12.760  14.772  64.100  1.00  0.00    -0.758 OA 
HETATM   27  C   UNL     1     -10.621  15.415  65.002  1.00  0.00    -0.445 C  
ENDBRANCH  24  25
ENDBRANCH  10  24
ENDBRANCH   5   6
ENDBRANCH   4   5
ENDBRANCH   2   4
TORSDOF 8
ENDMDL
MODEL       27
REMARK 921   NORMALIZED FREE ENERGY PREDICTED BY IDOCK:   -5.63 KCAL/MOL
REMARK 922        TOTAL FREE ENERGY PREDICTED BY IDOCK:   -9.68 KCAL/MOL
REMARK 923 INTER-LIGAND FREE ENERGY PREDICTED BY IDOCK:   -8.44 KCAL/MOL
REMARK 924 INTRA-LIGAND FREE ENERGY PREDICTED BY IDOCK:   -1.24 KCAL/MOL
REMARK 927      BINDING AFFINITY PREDICTED BY RF-SCORE:    0.00 PKD
ROOT
HETATM    1  C   UNL     1     -10.609   6.857  67.074  1.00  0.00    -0.403 C  
HETATM    2  C   UNL     1     -10.079   8.256  67.019  1.00  0.00    -0.283 C  
HETATM    3  O   UNL     1      -9.266   8.656  66.200  1.00  0.00    -0.184 OA 
ENDROOT
BRANCH   2   4
HETATM    4  O   UNL     1     -10.629   9.006  68.013  1.00  0.00    -0.229 OA 
BRANCH   4   5
HETATM    5  C   UNL     1     -11.087  10.301  67.616  1.00  0.00    -0.251 C  
BRANCH   5   6
HETATM    6  C   UNL     1     -10.762  11.387  68.643  1.00  0.00    -0.206 C  
HETATM    7  O   UNL     1     -10.285  12.537  67.936  1.00  0.00    -0.207 OA 
HETATM    8  C   UNL     1     -10.597  13.683  68.735  1.00  0.00    -0.231 C  
HETATM    9  C   UNL     1     -11.897  13.363  69.488  1.00  0.00    -0.332 C  
HETATM   10  C   UNL     1     -11.961  11.829  69.487  1.00  0.00    -0.300 C  
BRANCH   8  11
HETATM   11  N   UNL     1     -10.671  14.862  67.868  1.00  0.00    -0.260 N  
HETATM   12  N   UNL     1     -10.388  17.163  67.569  1.00  0.00    -0.331 N  
HETATM   13  C   UNL     1     -11.009  14.744  66.532  1.00  0.00    -0.325 C  
HETATM   14  O   UNL     1     -10.481  18.067  65.479  1.00  0.00    -0.636 OA 
HETATM   15  H   UNL     1     -10.224  18.086  67.971  1.00  0.00     0.000 HD 
HETATM   16  C   UNL     1     -10.989  15.785  65.698  1.00  0.00    -0.248 C  
HETATM   17  C   UNL     1     -10.371  16.095  68.431  1.00  0.00    -0.257 C  
HETATM   18  C   UNL     1     -10.603  17.102  66.224  1.00  0.00    -0.185 C  
HETATM   19  O   UNL     1     -10.084  16.257  69.615  1.00  0.00    -0.242 OA 
ENDBRANCH   8  11
BRANCH   9  20
HETATM   20  O   UNL     1     -11.843  13.885  70.830  1.00  0.00    -0.288 OA 
BRANCH  20  21
HETATM   21  C   UNL     1     -12.920  14.583  71.272  1.00  0.00    -0.333 C  
HETATM   22  C   UNL     1     -13.721  13.760  72.237  1.00  0.00    -0.673 C  
HETATM   23  O   UNL     1     -13.213  15.720  70.934  1.00  0.00    -0.560 OA 
ENDBRANCH  20  21
ENDBRANCH   9  20
BRANCH  10  24
HETATM   24  O   UNL     1     -11.814  11.300  70.822  1.00  0.00    -0.322 OA 
BRANCH  24  25
HETATM   25  C   UNL     1     -12.393  10.100  71.087  1.00  0.00    -0.385 C  
HETATM   26  O   UNL     1     -13.589   9.859  71.022  1.00  0.00    -0.329 OA 
HETATM   27  C   UNL     1     -11.354   9.110  71.523  1.00  0.00    -0.439 C  
ENDBRANCH  24  25
ENDBRANCH  10  24
ENDBRANCH   5   6
ENDBRANCH   4   5
ENDBRANCH   2   4
TORSDOF 8
ENDMDL
MODEL       28
REMARK 921   NORMALIZED FREE ENERGY PREDICTED BY IDOCK:   -5.61 KCAL/MOL
REMARK 922        TOTAL FREE ENERGY PREDICTED BY IDOCK:   -9.63 KCAL/MOL
REMARK 923 INTER-LIGAND FREE ENERGY PREDICTED BY IDOCK:   -8.53 KCAL/MOL
REMARK 924 INTRA-LIGAND FREE ENERGY PREDICTED BY IDOCK:   -1.11 KCAL/MOL
REMARK 927      BINDING AFFINITY PREDICTED BY RF-SCORE:    0.00 PKD
ROOT
HETATM    1  C   UNL     1     -10.214   8.105  68.516  1.00  0.00    -0.233 C  
HETATM    2  C   UNL     1      -9.204   8.646  69.480  1.00  0.00    -0.150 C  
HETATM    3  O   UNL     1      -8.213   8.039  69.857  1.00  0.00    -0.115 OA 
ENDROOT
BRANCH   2   4
HETATM    4  O   UNL     1      -9.556   9.901  69.872  1.00  0.00    -0.222 OA 
BRANCH   4   5
HETATM    5  C   UNL     1     -10.824  10.001  70.527  1.00  0.00    -0.314 C  
BRANCH   5   6
HETATM    6  C   UNL     1     -11.750  11.030  69.875  1.00  0.00    -0.346 C  
HETATM    7  O   UNL     1     -12.304  11.847  70.911  1.00  0.00    -0.373 OA 
HETATM    8  C   UNL     1     -12.600  13.122  70.330  1.00  0.00    -0.116 C  
HETATM    9  C   UNL     1     -11.557  13.364  69.229  1.00  0.00    -0.310 C  
HETATM   10  C   UNL     1     -11.050  11.958  68.878  1.00  0.00    -0.247 C  
BRANCH   8  11
HETATM   11  N   UNL     1     -12.613  14.135  71.388  1.00  0.00    -0.350 N  
HETATM   12  N   UNL     1     -13.456  14.907  73.427  1.00  0.00    -0.293 N  
HETATM   13  C   UNL     1     -11.736  15.205  71.362  1.00  0.00    -0.374 C  
HETATM   14  O   UNL     1     -12.449  16.649  74.498  1.00  0.00    -0.737 OA 
HETATM   15  H   UNL     1     -14.149  14.839  74.171  1.00  0.00     0.000 HD 
HETATM   16  C   UNL     1     -11.660  16.087  72.358  1.00  0.00    -0.442 C  
HETATM   17  C   UNL     1     -13.522  13.973  72.424  1.00  0.00    -0.539 C  
HETATM   18  C   UNL     1     -12.547  15.919  73.519  1.00  0.00    -0.578 C  
HETATM   19  O   UNL     1     -14.334  13.052  72.486  1.00  0.00    -0.548 OA 
ENDBRANCH   8  11
BRANCH   9  20
HETATM   20  O   UNL     1     -12.168  14.000  68.089  1.00  0.00    -0.325 OA 
BRANCH  20  21
HETATM   21  C   UNL     1     -11.368  14.753  67.292  1.00  0.00    -0.357 C  
HETATM   22  C   UNL     1     -10.515  15.671  68.117  1.00  0.00    -0.259 C  
HETATM   23  O   UNL     1     -11.341  14.705  66.071  1.00  0.00    -0.339 OA 
ENDBRANCH  20  21
ENDBRANCH   9  20
BRANCH  10  24
HETATM   24  O   UNL     1     -11.435  11.583  67.539  1.00  0.00    -0.379 OA 
BRANCH  24  25
HETATM   25  C   UNL     1     -10.450  11.183  66.694  1.00  0.00    -0.250 C  
HETATM   26  O   UNL     1     -10.583  10.395  65.770  1.00  0.00    -0.154 OA 
HETATM   27  C   UNL     1      -9.146  11.814  67.084  1.00  0.00    -0.175 C  
ENDBRANCH  24  25
ENDBRANCH  10  24
ENDBRANCH   5   6
ENDBRANCH   4   5
ENDBRANCH   2   4
TORSDOF 8
ENDMDL
MODEL       29
REMARK 921   NORMALIZED FREE ENERGY PREDICTED BY IDOCK:   -5.59 KCAL/MOL
REMARK 922        TOTAL FREE ENERGY PREDICTED BY IDOCK:   -9.61 KCAL/MOL
REMARK 923 INTER-LIGAND FREE ENERGY PREDICTED BY IDOCK:   -8.29 KCAL/MOL
REMARK 924 INTRA-LIGAND FREE ENERGY PREDICTED BY IDOCK:   -1.32 KCAL/MOL
REMARK 927      BINDING AFFINITY PREDICTED BY RF-SCORE:    0.00 PKD
ROOT
HETATM    1  C   UNL     1      -9.362   8.907  65.514  1.00  0.00    -0.214 C  
HETATM    2  C   UNL     1      -9.259   7.921  66.636  1.00  0.00    -0.177 C  
HETATM    3  O   UNL     1      -8.711   6.831  66.552  1.00  0.00    -0.125 OA 
ENDROOT
BRANCH   2   4
HETATM    4  O   UNL     1      -9.866   8.413  67.750  1.00  0.00    -0.159 OA 
BRANCH   4   5
HETATM    5  C   UNL     1     -10.842   9.431  67.512  1.00  0.00    -0.138 C  
BRANCH   5   6
HETATM    6  C   UNL     1     -10.553  10.723  68.278  1.00  0.00    -0.200 C  
HETATM    7  O   UNL     1     -10.303  11.758  67.322  1.00  0.00    -0.201 OA 
HETATM    8  C   UNL     1     -10.673  12.998  67.936  1.00  0.00    -0.235 C  
HETATM    9  C   UNL     1     -11.836  12.693  68.892  1.00  0.00    -0.302 C  
HETATM   10  C   UNL     1     -11.703  11.190  69.175  1.00  0.00    -0.338 C  
BRANCH   8  11
HETATM   11  N   UNL     1     -10.988  13.973  66.888  1.00  0.00    -0.294 N  
HETATM   12  N   UNL     1     -10.562  16.024  65.853  1.00  0.00    -0.335 N  
HETATM   13  C   UNL     1     -11.940  13.699  65.922  1.00  0.00    -0.405 C  
HETATM   14  O   UNL     1     -11.520  16.516  63.844  1.00  0.00    -1.145 OA 
HETATM   15  H   UNL     1     -10.096  16.932  65.863  1.00  0.00     0.000 HD 
HETATM   16  C   UNL     1     -12.177  14.525  64.903  1.00  0.00    -0.409 C  
HETATM   17  C   UNL     1     -10.283  15.169  66.889  1.00  0.00    -0.259 C  
HETATM   18  C   UNL     1     -11.404  15.772  64.811  1.00  0.00    -0.314 C  
HETATM   19  O   UNL     1      -9.442  15.469  67.734  1.00  0.00    -0.203 OA 
ENDBRANCH   8  11
BRANCH   9  20
HETATM   20  O   UNL     1     -11.708  13.467  70.101  1.00  0.00    -0.278 OA 
BRANCH  20  21
HETATM   21  C   UNL     1     -12.489  14.570  70.222  1.00  0.00    -0.348 C  
HETATM   22  C   UNL     1     -13.569  14.343  71.238  1.00  0.00    -0.389 C  
HETATM   23  O   UNL     1     -12.348  15.608  69.592  1.00  0.00    -0.314 OA 
ENDBRANCH  20  21
ENDBRANCH   9  20
BRANCH  10  24
HETATM   24  O   UNL     1     -11.350  10.946  70.553  1.00  0.00    -0.290 OA 
BRANCH  24  25
HETATM   25  C   UNL     1     -11.901   9.863  71.158  1.00  0.00    -0.386 C  
HETATM   26  O   UNL     1     -11.479   8.719  71.089  1.00  0.00    -0.263 OA 
HETATM   27  C   UNL     1     -13.147  10.260  71.894  1.00  0.00    -0.568 C  
ENDBRANCH  24  25
ENDBRANCH  10  24
ENDBRANCH   5   6
ENDBRANCH   4   5
ENDBRANCH   2   4
TORSDOF 8
ENDMDL
MODEL       30
REMARK 921   NORMALIZED FREE ENERGY PREDICTED BY IDOCK:   -5.57 KCAL/MOL
REMARK 922        TOTAL FREE ENERGY PREDICTED BY IDOCK:   -9.58 KCAL/MOL
REMARK 923 INTER-LIGAND FREE ENERGY PREDICTED BY IDOCK:   -8.46 KCAL/MOL
REMARK 924 INTRA-LIGAND FREE ENERGY PREDICTED BY IDOCK:   -1.13 KCAL/MOL
REMARK 927      BINDING AFFINITY PREDICTED BY RF-SCORE:    0.00 PKD
ROOT
HETATM    1  C   UNL     1     -10.672  12.395  63.957  1.00  0.00    -0.441 C  
HETATM    2  C   UNL     1     -11.401  12.098  65.230  1.00  0.00    -0.336 C  
HETATM    3  O   UNL     1     -12.541  12.462  65.477  1.00  0.00    -0.616 OA 
ENDROOT
BRANCH   2   4
HETATM    4  O   UNL     1     -10.607  11.375  66.067  1.00  0.00    -0.255 OA 
BRANCH   4   5
HETATM    5  C   UNL     1     -11.192  11.053  67.333  1.00  0.00    -0.285 C  
BRANCH   5   6
HETATM    6  C   UNL     1     -10.791  12.032  68.439  1.00  0.00    -0.233 C  
HETATM    7  O   UNL     1     -10.238  13.197  67.819  1.00  0.00    -0.223 OA 
HETATM    8  C   UNL     1     -10.469  14.297  68.706  1.00  0.00    -0.249 C  
HETATM    9  C   UNL     1     -11.787  14.009  69.442  1.00  0.00    -0.333 C  
HETATM   10  C   UNL     1     -11.955  12.487  69.324  1.00  0.00    -0.250 C  
BRANCH   8  11
HETATM   11  N   UNL     1     -10.465  15.542  67.934  1.00  0.00    -0.260 N  
HETATM   12  N   UNL     1     -10.040  17.837  67.815  1.00  0.00    -0.327 N  
HETATM   13  C   UNL     1     -10.798  15.549  66.591  1.00  0.00    -0.285 C  
HETATM   14  O   UNL     1     -10.061  18.905  65.802  1.00  0.00    -0.508 OA 
HETATM   15  H   UNL     1      -9.823  18.714  68.288  1.00  0.00     0.000 HD 
HETATM   16  C   UNL     1     -10.708  16.647  65.841  1.00  0.00    -0.179 C  
HETATM   17  C   UNL     1     -10.095  16.707  68.592  1.00  0.00    -0.270 C  
HETATM   18  C   UNL     1     -10.248  17.894  66.469  1.00  0.00    -0.379 C  
HETATM   19  O   UNL     1      -9.808  16.759  69.786  1.00  0.00     0.016 OA 
ENDBRANCH   8  11
BRANCH   9  20
HETATM   20  O   UNL     1     -11.694  14.420  70.819  1.00  0.00    -0.293 OA 
BRANCH  20  21
HETATM   21  C   UNL     1     -12.661  15.248  71.290  1.00  0.00    -0.401 C  
HETATM   22  C   UNL     1     -12.146  16.057  72.444  1.00  0.00    -0.629 C  
HETATM   23  O   UNL     1     -13.798  15.329  70.849  1.00  0.00    -0.382 OA 
ENDBRANCH  20  21
ENDBRANCH   9  20
BRANCH  10  24
HETATM   24  O   UNL     1     -11.841  11.847  70.612  1.00  0.00    -0.280 OA 
BRANCH  24  25
HETATM   25  C   UNL     1     -12.254  10.557  70.709  1.00  0.00    -0.369 C  
HETATM   26  O   UNL     1     -13.393  10.159  70.518  1.00  0.00    -0.245 OA 
HETATM   27  C   UNL     1     -11.114   9.680  71.136  1.00  0.00    -0.444 C  
ENDBRANCH  24  25
ENDBRANCH  10  24
ENDBRANCH   5   6
ENDBRANCH   4   5
ENDBRANCH   2   4
TORSDOF 8
ENDMDL
MODEL       31
REMARK 921   NORMALIZED FREE ENERGY PREDICTED BY IDOCK:   -5.56 KCAL/MOL
REMARK 922        TOTAL FREE ENERGY PREDICTED BY IDOCK:   -9.57 KCAL/MOL
REMARK 923 INTER-LIGAND FREE ENERGY PREDICTED BY IDOCK:   -8.82 KCAL/MOL
REMARK 924 INTRA-LIGAND FREE ENERGY PREDICTED BY IDOCK:   -0.75 KCAL/MOL
REMARK 927      BINDING AFFINITY PREDICTED BY RF-SCORE:    0.00 PKD
ROOT
HETATM    1  C   UNL     1     -10.026  20.118  66.694  1.00  0.00    -0.595 C  
HETATM    2  C   UNL     1     -10.293  18.645  66.661  1.00  0.00    -0.415 C  
HETATM    3  O   UNL     1      -9.956  17.901  65.753  1.00  0.00    -0.551 OA 
ENDROOT
BRANCH   2   4
HETATM    4  O   UNL     1     -10.967  18.266  67.781  1.00  0.00    -0.321 OA 
BRANCH   4   5
HETATM    5  C   UNL     1     -10.466  17.089  68.423  1.00  0.00    -0.370 C  
BRANCH   5   6
HETATM    6  C   UNL     1     -11.418  15.898  68.307  1.00  0.00    -0.320 C  
HETATM    7  O   UNL     1     -10.971  15.077  67.224  1.00  0.00    -0.309 OA 
HETATM    8  C   UNL     1     -11.393  13.738  67.507  1.00  0.00    -0.309 C  
HETATM    9  C   UNL     1     -11.383  13.579  69.035  1.00  0.00    -0.288 C  
HETATM   10  C   UNL     1     -11.476  15.019  69.561  1.00  0.00    -0.294 C  
BRANCH   8  11
HETATM   11  N   UNL     1     -10.520  12.802  66.794  1.00  0.00    -0.240 N  
HETATM   12  N   UNL     1      -8.371  12.011  66.325  1.00  0.00    -0.393 N  
HETATM   13  C   UNL     1     -11.047  11.798  66.002  1.00  0.00    -0.312 C  
HETATM   14  O   UNL     1      -8.092  10.056  65.186  1.00  0.00    -0.131 OA 
HETATM   15  H   UNL     1      -7.360  12.129  66.387  1.00  0.00     0.000 HD 
HETATM   16  C   UNL     1     -10.281  10.874  65.420  1.00  0.00    -0.339 C  
HETATM   17  C   UNL     1      -9.149  12.948  66.957  1.00  0.00    -0.228 C  
HETATM   18  C   UNL     1      -8.826  10.934  65.623  1.00  0.00    -0.190 C  
HETATM   19  O   UNL     1      -8.629  13.833  67.634  1.00  0.00    -0.163 OA 
ENDBRANCH   8  11
BRANCH   9  20
HETATM   20  O   UNL     1     -12.509  12.790  69.466  1.00  0.00    -0.035 OA 
BRANCH  20  21
HETATM   21  C   UNL     1     -12.263  11.771  70.328  1.00  0.00    -0.299 C  
HETATM   22  C   UNL     1     -11.202  10.863  69.782  1.00  0.00    -0.351 C  
HETATM   23  O   UNL     1     -12.825  11.602  71.400  1.00  0.00    -0.409 OA 
ENDBRANCH  20  21
ENDBRANCH   9  20
BRANCH  10  24
HETATM   24  O   UNL     1     -12.731  15.248  70.235  1.00  0.00    -0.366 OA 
BRANCH  24  25
HETATM   25  C   UNL     1     -12.682  15.788  71.481  1.00  0.00    -0.450 C  
HETATM   26  O   UNL     1     -11.732  16.389  71.958  1.00  0.00    -0.499 OA 
HETATM   27  C   UNL     1     -13.956  15.500  72.219  1.00  0.00    -0.642 C  
ENDBRANCH  24  25
ENDBRANCH  10  24
ENDBRANCH   5   6
ENDBRANCH   4   5
ENDBRANCH   2   4
TORSDOF 8
ENDMDL
MODEL       32
REMARK 921   NORMALIZED FREE ENERGY PREDICTED BY IDOCK:   -5.54 KCAL/MOL
REMARK 922        TOTAL FREE ENERGY PREDICTED BY IDOCK:   -9.54 KCAL/MOL
REMARK 923 INTER-LIGAND FREE ENERGY PREDICTED BY IDOCK:   -8.66 KCAL/MOL
REMARK 924 INTRA-LIGAND FREE ENERGY PREDICTED BY IDOCK:   -0.89 KCAL/MOL
REMARK 927      BINDING AFFINITY PREDICTED BY RF-SCORE:    0.00 PKD
ROOT
HETATM    1  C   UNL     1     -12.058  16.303  73.184  1.00  0.00    -0.608 C  
HETATM    2  C   UNL     1     -12.359  16.054  71.739  1.00  0.00    -0.435 C  
HETATM    3  O   UNL     1     -13.467  15.784  71.298  1.00  0.00    -0.555 OA 
ENDROOT
BRANCH   2   4
HETATM    4  O   UNL     1     -11.223  16.167  70.997  1.00  0.00    -0.352 OA 
BRANCH   4   5
HETATM    5  C   UNL     1     -11.419  16.157  69.579  1.00  0.00    -0.292 C  
BRANCH   5   6
HETATM    6  C   UNL     1     -10.741  14.969  68.894  1.00  0.00    -0.240 C  
HETATM    7  O   UNL     1     -10.842  13.838  69.765  1.00  0.00     0.009 OA 
HETATM    8  C   UNL     1     -10.830  12.667  68.941  1.00  0.00    -0.197 C  
HETATM    9  C   UNL     1     -11.500  13.049  67.613  1.00  0.00    -0.324 C  
HETATM   10  C   UNL     1     -11.370  14.578  67.554  1.00  0.00    -0.340 C  
BRANCH   8  11
HETATM   11  N   UNL     1     -11.484  11.572  69.660  1.00  0.00    -0.294 N  
HETATM   12  N   UNL     1     -11.749   9.279  70.028  1.00  0.00    -0.456 N  
HETATM   13  C   UNL     1     -12.374  11.825  70.689  1.00  0.00    -0.328 C  
HETATM   14  O   UNL     1     -12.937   8.535  71.825  1.00  0.00    -0.326 OA 
HETATM   15  H   UNL     1     -11.572   8.318  69.737  1.00  0.00     0.000 HD 
HETATM   16  C   UNL     1     -12.909  10.849  71.424  1.00  0.00    -0.554 C  
HETATM   17  C   UNL     1     -11.165  10.274  69.285  1.00  0.00    -0.228 C  
HETATM   18  C   UNL     1     -12.545   9.458  71.120  1.00  0.00    -0.282 C  
HETATM   19  O   UNL     1     -10.397   9.995  68.367  1.00  0.00    -0.173 OA 
ENDBRANCH   8  11
BRANCH   9  20
HETATM   20  O   UNL     1     -10.821  12.421  66.508  1.00  0.00    -0.239 OA 
BRANCH  20  21
HETATM   21  C   UNL     1     -11.516  12.269  65.353  1.00  0.00    -0.354 C  
HETATM   22  C   UNL     1     -10.615  11.782  64.256  1.00  0.00    -0.386 C  
HETATM   23  O   UNL     1     -12.707  12.500  65.209  1.00  0.00    -0.654 OA 
ENDBRANCH  20  21
ENDBRANCH   9  20
BRANCH  10  24
HETATM   24  O   UNL     1     -10.488  14.986  66.486  1.00  0.00    -0.273 OA 
BRANCH  24  25
HETATM   25  C   UNL     1     -10.853  16.070  65.755  1.00  0.00    -0.230 C  
HETATM   26  O   UNL     1     -10.535  17.226  65.991  1.00  0.00    -0.356 OA 
HETATM   27  C   UNL     1     -11.751  15.655  64.627  1.00  0.00    -0.190 C  
ENDBRANCH  24  25
ENDBRANCH  10  24
ENDBRANCH   5   6
ENDBRANCH   4   5
ENDBRANCH   2   4
TORSDOF 8
ENDMDL
MODEL       33
REMARK 921   NORMALIZED FREE ENERGY PREDICTED BY IDOCK:   -5.54 KCAL/MOL
REMARK 922        TOTAL FREE ENERGY PREDICTED BY IDOCK:   -9.54 KCAL/MOL
REMARK 923 INTER-LIGAND FREE ENERGY PREDICTED BY IDOCK:   -8.61 KCAL/MOL
REMARK 924 INTRA-LIGAND FREE ENERGY PREDICTED BY IDOCK:   -0.93 KCAL/MOL
REMARK 927      BINDING AFFINITY PREDICTED BY RF-SCORE:    0.00 PKD
ROOT
HETATM    1  C   UNL     1     -10.465  19.691  65.923  1.00  0.00    -0.591 C  
HETATM    2  C   UNL     1      -9.005  19.700  66.251  1.00  0.00    -0.375 C  
HETATM    3  O   UNL     1      -8.124  20.054  65.482  1.00  0.00    -0.281 OA 
ENDROOT
BRANCH   2   4
HETATM    4  O   UNL     1      -8.807  19.252  67.521  1.00  0.00    -0.291 OA 
BRANCH   4   5
HETATM    5  C   UNL     1      -9.980  18.779  68.190  1.00  0.00    -0.366 C  
BRANCH   5   6
HETATM    6  C   UNL     1      -9.887  17.303  68.580  1.00  0.00    -0.307 C  
HETATM    7  O   UNL     1     -10.885  16.587  67.846  1.00  0.00    -0.342 OA 
HETATM    8  C   UNL     1     -10.413  15.244  67.688  1.00  0.00    -0.263 C  
HETATM    9  C   UNL     1      -8.881  15.317  67.604  1.00  0.00    -0.175 C  
HETATM   10  C   UNL     1      -8.533  16.657  68.269  1.00  0.00    -0.203 C  
BRANCH   8  11
HETATM   11  N   UNL     1     -11.058  14.647  66.517  1.00  0.00    -0.323 N  
HETATM   12  N   UNL     1     -11.474  14.668  64.217  1.00  0.00    -0.639 N  
HETATM   13  C   UNL     1     -11.770  13.465  66.620  1.00  0.00    -0.385 C  
HETATM   14  O   UNL     1     -12.465  12.877  63.214  1.00  0.00    -0.685 OA 
HETATM   15  H   UNL     1     -11.426  15.154  63.322  1.00  0.00     0.000 HD 
HETATM   16  C   UNL     1     -12.283  12.848  65.555  1.00  0.00    -0.527 C  
HETATM   17  C   UNL     1     -10.911  15.297  65.299  1.00  0.00    -0.393 C  
HETATM   18  C   UNL     1     -12.092  13.453  64.229  1.00  0.00    -0.424 C  
HETATM   19  O   UNL     1     -10.306  16.357  65.156  1.00  0.00    -0.610 OA 
ENDBRANCH   8  11
BRANCH   9  20
HETATM   20  O   UNL     1      -8.285  14.212  68.312  1.00  0.00    -0.133 OA 
BRANCH  20  21
HETATM   21  C   UNL     1      -7.629  13.280  67.575  1.00  0.00    -0.164 C  
HETATM   22  C   UNL     1      -8.512  12.095  67.317  1.00  0.00    -0.178 C  
HETATM   23  O   UNL     1      -6.478  13.377  67.177  1.00  0.00    -0.220 OA 
ENDBRANCH  20  21
ENDBRANCH   9  20
BRANCH  10  24
HETATM   24  O   UNL     1      -7.815  16.457  69.505  1.00  0.00    -0.139 OA 
BRANCH  24  25
HETATM   25  C   UNL     1      -6.527  16.885  69.556  1.00  0.00    -0.223 C  
HETATM   26  O   UNL     1      -6.122  17.968  69.162  1.00  0.00    -0.212 OA 
HETATM   27  C   UNL     1      -5.648  15.811  70.125  1.00  0.00    -0.158 C  
ENDBRANCH  24  25
ENDBRANCH  10  24
ENDBRANCH   5   6
ENDBRANCH   4   5
ENDBRANCH   2   4
TORSDOF 8
ENDMDL
MODEL       34
REMARK 921   NORMALIZED FREE ENERGY PREDICTED BY IDOCK:   -5.49 KCAL/MOL
REMARK 922        TOTAL FREE ENERGY PREDICTED BY IDOCK:   -9.46 KCAL/MOL
REMARK 923 INTER-LIGAND FREE ENERGY PREDICTED BY IDOCK:   -9.35 KCAL/MOL
REMARK 924 INTRA-LIGAND FREE ENERGY PREDICTED BY IDOCK:   -0.12 KCAL/MOL
REMARK 927      BINDING AFFINITY PREDICTED BY RF-SCORE:    0.00 PKD
ROOT
HETATM    1  C   UNL     1     -11.131  11.974  63.435  1.00  0.00    -0.476 C  
HETATM    2  C   UNL     1     -11.892  13.131  64.003  1.00  0.00    -0.453 C  
HETATM    3  O   UNL     1     -12.589  13.890  63.347  1.00  0.00    -0.853 OA 
ENDROOT
BRANCH   2   4
HETATM    4  O   UNL     1     -11.689  13.212  65.347  1.00  0.00    -0.323 OA 
BRANCH   4   5
HETATM    5  C   UNL     1     -11.344  14.513  65.833  1.00  0.00    -0.341 C  
BRANCH   5   6
HETATM    6  C   UNL     1     -11.839  14.765  67.258  1.00  0.00    -0.293 C  
HETATM    7  O   UNL     1     -12.191  13.504  67.834  1.00  0.00    -0.305 OA 
HETATM    8  C   UNL     1     -12.019  13.623  69.251  1.00  0.00    -0.336 C  
HETATM    9  C   UNL     1     -10.864  14.609  69.479  1.00  0.00    -0.217 C  
HETATM   10  C   UNL     1     -10.799  15.418  68.175  1.00  0.00    -0.285 C  
BRANCH   8  11
HETATM   11  N   UNL     1     -11.802  12.291  69.819  1.00  0.00    -0.329 N  
HETATM   12  N   UNL     1     -10.491  10.363  69.987  1.00  0.00    -0.419 N  
HETATM   13  C   UNL     1     -12.660  11.773  70.773  1.00  0.00    -0.253 C  
HETATM   14  O   UNL     1     -10.932   8.813  71.599  1.00  0.00    -0.271 OA 
HETATM   15  H   UNL     1      -9.716   9.797  69.643  1.00  0.00     0.000 HD 
HETATM   16  C   UNL     1     -12.433  10.607  71.377  1.00  0.00    -0.496 C  
HETATM   17  C   UNL     1     -10.695  11.577  69.381  1.00  0.00    -0.068 C  
HETATM   18  C   UNL     1     -11.232   9.843  71.007  1.00  0.00    -0.364 C  
HETATM   19  O   UNL     1      -9.912  11.982  68.523  1.00  0.00    -0.209 OA 
ENDBRANCH   8  11
BRANCH   9  20
HETATM   20  O   UNL     1     -11.144  15.459  70.608  1.00  0.00    -0.302 OA 
BRANCH  20  21
HETATM   21  C   UNL     1     -12.380  15.374  71.163  1.00  0.00    -0.385 C  
HETATM   22  C   UNL     1     -12.295  14.822  72.555  1.00  0.00    -0.388 C  
HETATM   23  O   UNL     1     -13.424  15.691  70.614  1.00  0.00    -0.476 OA 
ENDBRANCH  20  21
ENDBRANCH   9  20
BRANCH  10  24
HETATM   24  O   UNL     1     -11.169  16.795  68.395  1.00  0.00    -0.332 OA 
BRANCH  24  25
HETATM   25  C   UNL     1     -10.208  17.737  68.213  1.00  0.00    -0.382 C  
HETATM   26  O   UNL     1      -9.053  17.660  68.605  1.00  0.00    -0.282 OA 
HETATM   27  C   UNL     1     -10.778  18.926  67.497  1.00  0.00    -0.509 C  
ENDBRANCH  24  25
ENDBRANCH  10  24
ENDBRANCH   5   6
ENDBRANCH   4   5
ENDBRANCH   2   4
TORSDOF 8
ENDMDL
MODEL       35
REMARK 921   NORMALIZED FREE ENERGY PREDICTED BY IDOCK:   -5.45 KCAL/MOL
REMARK 922        TOTAL FREE ENERGY PREDICTED BY IDOCK:   -9.41 KCAL/MOL
REMARK 923 INTER-LIGAND FREE ENERGY PREDICTED BY IDOCK:   -8.12 KCAL/MOL
REMARK 924 INTRA-LIGAND FREE ENERGY PREDICTED BY IDOCK:   -1.29 KCAL/MOL
REMARK 927      BINDING AFFINITY PREDICTED BY RF-SCORE:    0.00 PKD
ROOT
HETATM    1  C   UNL     1     -10.320  16.593  66.100  1.00  0.00    -0.340 C  
HETATM    2  C   UNL     1     -10.982  15.930  64.933  1.00  0.00    -0.411 C  
HETATM    3  O   UNL     1     -11.568  16.524  64.040  1.00  0.00    -1.154 OA 
ENDROOT
BRANCH   2   4
HETATM    4  O   UNL     1     -10.840  14.579  65.018  1.00  0.00    -0.362 OA 
BRANCH   4   5
HETATM    5  C   UNL     1     -11.144  14.015  66.298  1.00  0.00    -0.307 C  
BRANCH   5   6
HETATM    6  C   UNL     1     -10.210  12.864  66.676  1.00  0.00    -0.247 C  
HETATM    7  O   UNL     1     -10.460  12.521  68.042  1.00  0.00    -0.207 OA 
HETATM    8  C   UNL     1     -10.125  11.138  68.199  1.00  0.00    -0.179 C  
HETATM    9  C   UNL     1     -10.427  10.450  66.859  1.00  0.00    -0.240 C  
HETATM   10  C   UNL     1     -10.407  11.597  65.838  1.00  0.00    -0.248 C  
BRANCH   8  11
HETATM   11  N   UNL     1     -10.865  10.594  69.341  1.00  0.00    -0.230 N  
HETATM   12  N   UNL     1     -10.920   9.239  71.244  1.00  0.00    -0.323 N  
HETATM   13  C   UNL     1     -12.158  11.004  69.613  1.00  0.00    -0.340 C  
HETATM   14  O   UNL     1     -12.681   9.359  72.686  1.00  0.00    -0.265 OA 
HETATM   15  H   UNL     1     -10.484   8.521  71.822  1.00  0.00     0.000 HD 
HETATM   16  C   UNL     1     -12.819  10.602  70.698  1.00  0.00    -0.404 C  
HETATM   17  C   UNL     1     -10.215   9.671  70.149  1.00  0.00    -0.264 C  
HETATM   18  C   UNL     1     -12.150   9.683  71.631  1.00  0.00    -0.402 C  
HETATM   19  O   UNL     1      -9.075   9.260  69.941  1.00  0.00    -0.161 OA 
ENDBRANCH   8  11
BRANCH   9  20
HETATM   20  O   UNL     1      -9.418   9.465  66.561  1.00  0.00    -0.163 OA 
BRANCH  20  21
HETATM   21  C   UNL     1      -9.783   8.160  66.620  1.00  0.00    -0.248 C  
HETATM   22  C   UNL     1      -8.776   7.298  65.918  1.00  0.00    -0.150 C  
HETATM   23  O   UNL     1     -10.793   7.732  67.160  1.00  0.00    -0.313 OA 
ENDBRANCH  20  21
ENDBRANCH   9  20
BRANCH  10  24
HETATM   24  O   UNL     1      -9.298  11.463  64.924  1.00  0.00    -0.203 OA 
BRANCH  24  25
HETATM   25  C   UNL     1      -9.589  11.300  63.607  1.00  0.00    -0.274 C  
HETATM   26  O   UNL     1      -8.799  10.950  62.743  1.00  0.00    -0.242 OA 
HETATM   27  C   UNL     1     -11.022  11.659  63.346  1.00  0.00    -0.442 C  
ENDBRANCH  24  25
ENDBRANCH  10  24
ENDBRANCH   5   6
ENDBRANCH   4   5
ENDBRANCH   2   4
TORSDOF 8
ENDMDL
MODEL       36
REMARK 921   NORMALIZED FREE ENERGY PREDICTED BY IDOCK:   -5.42 KCAL/MOL
REMARK 922        TOTAL FREE ENERGY PREDICTED BY IDOCK:   -9.37 KCAL/MOL
REMARK 923 INTER-LIGAND FREE ENERGY PREDICTED BY IDOCK:   -8.28 KCAL/MOL
REMARK 924 INTRA-LIGAND FREE ENERGY PREDICTED BY IDOCK:   -1.09 KCAL/MOL
REMARK 927      BINDING AFFINITY PREDICTED BY RF-SCORE:    0.00 PKD
ROOT
HETATM    1  C   UNL     1     -10.676  19.709  65.646  1.00  0.00    -0.428 C  
HETATM    2  C   UNL     1      -9.279  19.991  66.103  1.00  0.00    -0.303 C  
HETATM    3  O   UNL     1      -8.280  19.828  65.419  1.00  0.00    -0.252 OA 
ENDROOT
BRANCH   2   4
HETATM    4  O   UNL     1      -9.288  20.445  67.386  1.00  0.00    -0.379 OA 
BRANCH   4   5
HETATM    5  C   UNL     1     -10.256  19.830  68.243  1.00  0.00    -0.447 C  
BRANCH   5   6
HETATM    6  C   UNL     1      -9.793  18.477  68.786  1.00  0.00    -0.376 C  
HETATM    7  O   UNL     1     -10.749  17.490  68.390  1.00  0.00    -0.356 OA 
HETATM    8  C   UNL     1     -10.055  16.240  68.303  1.00  0.00    -0.243 C  
HETATM    9  C   UNL     1      -8.616  16.558  67.872  1.00  0.00    -0.183 C  
HETATM   10  C   UNL     1      -8.423  18.030  68.267  1.00  0.00    -0.287 C  
BRANCH   8  11
HETATM   11  N   UNL     1     -10.781  15.354  67.390  1.00  0.00    -0.291 N  
HETATM   12  N   UNL     1     -12.503  13.817  67.020  1.00  0.00    -0.424 N  
HETATM   13  C   UNL     1     -10.469  15.307  66.043  1.00  0.00    -0.317 C  
HETATM   14  O   UNL     1     -13.054  13.202  64.895  1.00  0.00    -0.744 OA 
HETATM   15  H   UNL     1     -13.223  13.201  67.394  1.00  0.00     0.000 HD 
HETATM   16  C   UNL     1     -11.175  14.585  65.173  1.00  0.00    -0.367 C  
HETATM   17  C   UNL     1     -11.805  14.582  67.921  1.00  0.00    -0.336 C  
HETATM   18  C   UNL     1     -12.320  13.806  65.669  1.00  0.00    -0.482 C  
HETATM   19  O   UNL     1     -12.111  14.573  69.112  1.00  0.00    -0.308 OA 
ENDBRANCH   8  11
BRANCH   9  20
HETATM   20  O   UNL     1      -7.683  15.704  68.564  1.00  0.00    -0.122 OA 
BRANCH  20  21
HETATM   21  C   UNL     1      -6.857  14.940  67.806  1.00  0.00    -0.174 C  
HETATM   22  C   UNL     1      -7.550  13.680  67.378  1.00  0.00    -0.144 C  
HETATM   23  O   UNL     1      -5.705  15.222  67.512  1.00  0.00    -0.303 OA 
ENDBRANCH  20  21
ENDBRANCH   9  20
BRANCH  10  24
HETATM   24  O   UNL     1      -7.453  18.164  69.326  1.00  0.00    -0.139 OA 
BRANCH  24  25
HETATM   25  C   UNL     1      -6.581  19.202  69.248  1.00  0.00    -0.306 C  
HETATM   26  O   UNL     1      -6.381  20.030  70.125  1.00  0.00    -0.349 OA 
HETATM   27  C   UNL     1      -5.923  19.224  67.901  1.00  0.00    -0.215 C  
ENDBRANCH  24  25
ENDBRANCH  10  24
ENDBRANCH   5   6
ENDBRANCH   4   5
ENDBRANCH   2   4
TORSDOF 8
ENDMDL
MODEL       37
REMARK 921   NORMALIZED FREE ENERGY PREDICTED BY IDOCK:   -5.41 KCAL/MOL
REMARK 922        TOTAL FREE ENERGY PREDICTED BY IDOCK:   -9.35 KCAL/MOL
REMARK 923 INTER-LIGAND FREE ENERGY PREDICTED BY IDOCK:   -8.04 KCAL/MOL
REMARK 924 INTRA-LIGAND FREE ENERGY PREDICTED BY IDOCK:   -1.31 KCAL/MOL
REMARK 927      BINDING AFFINITY PREDICTED BY RF-SCORE:    0.00 PKD
ROOT
HETATM    1  C   UNL     1      -8.693   8.577  71.093  1.00  0.00    -0.215 C  
HETATM    2  C   UNL     1     -10.006   9.294  71.056  1.00  0.00    -0.293 C  
HETATM    3  O   UNL     1     -10.876   9.190  71.908  1.00  0.00    -0.359 OA 
ENDROOT
BRANCH   2   4
HETATM    4  O   UNL     1     -10.088  10.067  69.939  1.00  0.00    -0.235 OA 
BRANCH   4   5
HETATM    5  C   UNL     1     -11.416  10.344  69.486  1.00  0.00    -0.246 C  
BRANCH   5   6
HETATM    6  C   UNL     1     -11.535  10.348  67.961  1.00  0.00    -0.082 C  
HETATM    7  O   UNL     1     -11.795  11.690  67.540  1.00  0.00    -0.591 OA 
HETATM    8  C   UNL     1     -11.277  11.825  66.212  1.00  0.00    -0.312 C  
HETATM    9  C   UNL     1     -10.056  10.898  66.113  1.00  0.00    -0.239 C  
HETATM   10  C   UNL     1     -10.274   9.871  67.234  1.00  0.00    -0.222 C  
BRANCH   8  11
HETATM   11  N   UNL     1     -10.990  13.238  65.953  1.00  0.00    -0.274 N  
HETATM   12  N   UNL     1     -10.923  15.039  64.466  1.00  0.00    -0.647 N  
HETATM   13  C   UNL     1     -10.607  14.087  66.976  1.00  0.00    -0.279 C  
HETATM   14  O   UNL     1     -10.596  17.157  65.243  1.00  0.00    -0.662 OA 
HETATM   15  H   UNL     1     -10.971  15.389  63.509  1.00  0.00     0.000 HD 
HETATM   16  C   UNL     1     -10.434  15.395  66.788  1.00  0.00    -0.299 C  
HETATM   17  C   UNL     1     -11.136  13.697  64.651  1.00  0.00    -0.381 C  
HETATM   18  C   UNL     1     -10.651  15.949  65.444  1.00  0.00    -0.419 C  
HETATM   19  O   UNL     1     -11.456  12.981  63.704  1.00  0.00    -0.432 OA 
ENDBRANCH   8  11
BRANCH   9  20
HETATM   20  O   UNL     1     -10.011  10.262  64.821  1.00  0.00    -0.331 OA 
BRANCH  20  21
HETATM   21  C   UNL     1      -8.789  10.057  64.268  1.00  0.00    -0.220 C  
HETATM   22  C   UNL     1      -8.915   9.768  62.801  1.00  0.00    -0.274 C  
HETATM   23  O   UNL     1      -7.726  10.092  64.870  1.00  0.00    -0.139 OA 
ENDBRANCH  20  21
ENDBRANCH   9  20
BRANCH  10  24
HETATM   24  O   UNL     1     -10.513   8.554  66.696  1.00  0.00    -0.289 OA 
BRANCH  24  25
HETATM   25  C   UNL     1      -9.676   7.558  67.085  1.00  0.00    -0.173 C  
HETATM   26  O   UNL     1      -8.538   7.709  67.503  1.00  0.00    -0.118 OA 
HETATM   27  C   UNL     1     -10.330   6.223  66.883  1.00  0.00    -0.306 C  
ENDBRANCH  24  25
ENDBRANCH  10  24
ENDBRANCH   5   6
ENDBRANCH   4   5
ENDBRANCH   2   4
TORSDOF 8
ENDMDL
MODEL       38
REMARK 921   NORMALIZED FREE ENERGY PREDICTED BY IDOCK:   -5.40 KCAL/MOL
REMARK 922        TOTAL FREE ENERGY PREDICTED BY IDOCK:   -9.34 KCAL/MOL
REMARK 923 INTER-LIGAND FREE ENERGY PREDICTED BY IDOCK:   -7.77 KCAL/MOL
REMARK 924 INTRA-LIGAND FREE ENERGY PREDICTED BY IDOCK:   -1.57 KCAL/MOL
REMARK 927      BINDING AFFINITY PREDICTED BY RF-SCORE:    0.00 PKD
ROOT
HETATM    1  C   UNL     1      -9.962   5.321  68.671  1.00  0.00    -0.234 C  
HETATM    2  C   UNL     1     -10.536   5.717  67.347  1.00  0.00    -0.265 C  
HETATM    3  O   UNL     1     -10.603   4.982  66.373  1.00  0.00    -0.300 OA 
ENDROOT
BRANCH   2   4
HETATM    4  O   UNL     1     -10.965   7.009  67.389  1.00  0.00    -0.292 OA 
BRANCH   4   5
HETATM    5  C   UNL     1     -10.122   7.951  66.718  1.00  0.00    -0.281 C  
BRANCH   5   6
HETATM    6  C   UNL     1      -9.902   9.231  67.526  1.00  0.00    -0.175 C  
HETATM    7  O   UNL     1     -10.045  10.345  66.639  1.00  0.00    -0.208 OA 
HETATM    8  C   UNL     1     -10.484  11.458  67.425  1.00  0.00    -0.205 C  
HETATM    9  C   UNL     1     -11.344  10.890  68.564  1.00  0.00    -0.299 C  
HETATM   10  C   UNL     1     -10.896   9.424  68.675  1.00  0.00    -0.109 C  
BRANCH   8  11
HETATM   11  N   UNL     1     -11.178  12.411  66.557  1.00  0.00    -0.301 N  
HETATM   12  N   UNL     1     -11.671  14.622  65.981  1.00  0.00    -0.341 N  
HETATM   13  C   UNL     1     -11.909  11.979  65.464  1.00  0.00    -0.181 C  
HETATM   14  O   UNL     1     -12.728  15.087  64.016  1.00  0.00    -0.772 OA 
HETATM   15  H   UNL     1     -11.644  15.615  66.212  1.00  0.00     0.000 HD 
HETATM   16  C   UNL     1     -12.469  12.828  64.602  1.00  0.00    -0.525 C  
HETATM   17  C   UNL     1     -11.061  13.761  66.858  1.00  0.00    -0.302 C  
HETATM   18  C   UNL     1     -12.311  14.271  64.829  1.00  0.00    -0.426 C  
HETATM   19  O   UNL     1     -10.440  14.196  67.826  1.00  0.00    -0.242 OA 
ENDBRANCH   8  11
BRANCH   9  20
HETATM   20  O   UNL     1     -11.095  11.607  69.789  1.00  0.00    -0.177 OA 
BRANCH  20  21
HETATM   21  C   UNL     1     -12.161  12.179  70.404  1.00  0.00    -0.309 C  
HETATM   22  C   UNL     1     -12.850  11.187  71.294  1.00  0.00    -0.515 C  
HETATM   23  O   UNL     1     -12.524  13.337  70.257  1.00  0.00    -0.270 OA 
ENDBRANCH  20  21
ENDBRANCH   9  20
BRANCH  10  24
HETATM   24  O   UNL     1     -10.219   9.178  69.925  1.00  0.00    -0.188 OA 
BRANCH  24  25
HETATM   25  C   UNL     1     -10.826   8.347  70.811  1.00  0.00    -0.224 C  
HETATM   26  O   UNL     1     -11.826   7.680  70.591  1.00  0.00    -0.251 OA 
HETATM   27  C   UNL     1     -10.119   8.396  72.134  1.00  0.00    -0.376 C  
ENDBRANCH  24  25
ENDBRANCH  10  24
ENDBRANCH   5   6
ENDBRANCH   4   5
ENDBRANCH   2   4
TORSDOF 8
ENDMDL
MODEL       39
REMARK 921   NORMALIZED FREE ENERGY PREDICTED BY IDOCK:   -5.39 KCAL/MOL
REMARK 922        TOTAL FREE ENERGY PREDICTED BY IDOCK:   -9.31 KCAL/MOL
REMARK 923 INTER-LIGAND FREE ENERGY PREDICTED BY IDOCK:   -8.51 KCAL/MOL
REMARK 924 INTRA-LIGAND FREE ENERGY PREDICTED BY IDOCK:   -0.80 KCAL/MOL
REMARK 927      BINDING AFFINITY PREDICTED BY RF-SCORE:    0.00 PKD
ROOT
HETATM    1  C   UNL     1     -11.301  15.837  70.946  1.00  0.00    -0.426 C  
HETATM    2  C   UNL     1     -12.640  15.243  70.642  1.00  0.00    -0.417 C  
HETATM    3  O   UNL     1     -13.706  15.714  71.008  1.00  0.00    -0.582 OA 
ENDROOT
BRANCH   2   4
HETATM    4  O   UNL     1     -12.493  14.106  69.908  1.00  0.00    -0.341 OA 
BRANCH   4   5
HETATM    5  C   UNL     1     -12.081  14.305  68.552  1.00  0.00    -0.260 C  
BRANCH   5   6
HETATM    6  C   UNL     1     -11.117  13.224  68.060  1.00  0.00    -0.256 C  
HETATM    7  O   UNL     1     -10.573  12.560  69.204  1.00  0.00    -0.111 OA 
HETATM    8  C   UNL     1     -10.235  11.229  68.799  1.00  0.00    -0.202 C  
HETATM    9  C   UNL     1     -11.243  10.822  67.714  1.00  0.00    -0.316 C  
HETATM   10  C   UNL     1     -11.770  12.160  67.174  1.00  0.00    -0.302 C  
BRANCH   8  11
HETATM   11  N   UNL     1     -10.228  10.359  69.978  1.00  0.00    -0.167 N  
HETATM   12  N   UNL     1     -11.378   9.361  71.751  1.00  0.00    -0.375 N  
HETATM   13  C   UNL     1      -9.087   9.671  70.350  1.00  0.00    -0.191 C  
HETATM   14  O   UNL     1     -10.389   7.713  72.977  1.00  0.00    -0.273 OA 
HETATM   15  H   UNL     1     -12.219   9.294  72.324  1.00  0.00     0.000 HD 
HETATM   16  C   UNL     1      -9.078   8.799  71.358  1.00  0.00    -0.313 C  
HETATM   17  C   UNL     1     -11.411  10.236  70.695  1.00  0.00    -0.347 C  
HETATM   18  C   UNL     1     -10.324   8.571  72.104  1.00  0.00    -0.339 C  
HETATM   19  O   UNL     1     -12.446  10.838  70.419  1.00  0.00    -0.324 OA 
ENDBRANCH   8  11
BRANCH   9  20
HETATM   20  O   UNL     1     -10.589  10.061  66.680  1.00  0.00    -0.198 OA 
BRANCH  20  21
HETATM   21  C   UNL     1     -10.335   8.752  66.935  1.00  0.00    -0.274 C  
HETATM   22  C   UNL     1      -9.083   8.313  66.235  1.00  0.00    -0.235 C  
HETATM   23  O   UNL     1     -11.025   8.020  67.628  1.00  0.00    -0.094 OA 
ENDBRANCH  20  21
ENDBRANCH   9  20
BRANCH  10  24
HETATM   24  O   UNL     1     -11.358  12.370  65.807  1.00  0.00    -0.320 OA 
BRANCH  24  25
HETATM   25  C   UNL     1     -12.318  12.709  64.909  1.00  0.00    -0.498 C  
HETATM   26  O   UNL     1     -13.251  13.469  65.118  1.00  0.00    -0.720 OA 
HETATM   27  C   UNL     1     -12.103  11.973  63.619  1.00  0.00    -0.627 C  
ENDBRANCH  24  25
ENDBRANCH  10  24
ENDBRANCH   5   6
ENDBRANCH   4   5
ENDBRANCH   2   4
TORSDOF 8
ENDMDL
MODEL       40
REMARK 921   NORMALIZED FREE ENERGY PREDICTED BY IDOCK:   -5.37 KCAL/MOL
REMARK 922        TOTAL FREE ENERGY PREDICTED BY IDOCK:   -9.29 KCAL/MOL
REMARK 923 INTER-LIGAND FREE ENERGY PREDICTED BY IDOCK:   -7.94 KCAL/MOL
REMARK 924 INTRA-LIGAND FREE ENERGY PREDICTED BY IDOCK:   -1.35 KCAL/MOL
REMARK 927      BINDING AFFINITY PREDICTED BY RF-SCORE:    0.00 PKD
ROOT
HETATM    1  C   UNL     1      -7.908   7.087  67.696  1.00  0.00    -0.113 C  
HETATM    2  C   UNL     1      -8.004   7.601  69.098  1.00  0.00    -0.120 C  
HETATM    3  O   UNL     1      -8.431   6.956  70.045  1.00  0.00    -0.136 OA 
ENDROOT
BRANCH   2   4
HETATM    4  O   UNL     1      -7.555   8.885  69.159  1.00  0.00    -0.078 OA 
BRANCH   4   5
HETATM    5  C   UNL     1      -8.396   9.790  69.881  1.00  0.00    -0.184 C  
BRANCH   5   6
HETATM    6  C   UNL     1      -9.770   9.968  69.234  1.00  0.00    -0.215 C  
HETATM    7  O   UNL     1     -10.668  10.465  70.231  1.00  0.00    -0.282 OA 
HETATM    8  C   UNL     1     -11.680  11.217  69.552  1.00  0.00    -0.345 C  
HETATM    9  C   UNL     1     -11.018  11.839  68.313  1.00  0.00    -0.229 C  
HETATM   10  C   UNL     1      -9.787  10.955  68.063  1.00  0.00    -0.171 C  
BRANCH   8  11
HETATM   11  N   UNL     1     -12.259  12.188  70.483  1.00  0.00    -0.349 N  
HETATM   12  N   UNL     1     -13.458  12.635  72.439  1.00  0.00    -0.573 N  
HETATM   13  C   UNL     1     -12.064  13.547  70.310  1.00  0.00    -0.355 C  
HETATM   14  O   UNL     1     -13.544  14.755  73.273  1.00  0.00    -0.523 OA 
HETATM   15  H   UNL     1     -14.044  12.301  73.204  1.00  0.00     0.000 HD 
HETATM   16  C   UNL     1     -12.495  14.447  71.194  1.00  0.00    -0.429 C  
HETATM   17  C   UNL     1     -12.991  11.695  71.555  1.00  0.00    -0.358 C  
HETATM   18  C   UNL     1     -13.210  13.975  72.388  1.00  0.00    -0.488 C  
HETATM   19  O   UNL     1     -13.209  10.501  71.745  1.00  0.00    -0.425 OA 
ENDBRANCH   8  11
BRANCH   9  20
HETATM   20  O   UNL     1     -11.922  11.808  67.191  1.00  0.00    -0.617 OA 
BRANCH  20  21
HETATM   21  C   UNL     1     -12.061  12.950  66.470  1.00  0.00    -0.305 C  
HETATM   22  C   UNL     1     -11.963  12.660  65.002  1.00  0.00    -0.467 C  
HETATM   23  O   UNL     1     -12.235  14.065  66.939  1.00  0.00    -0.436 OA 
ENDBRANCH  20  21
ENDBRANCH   9  20
BRANCH  10  24
HETATM   24  O   UNL     1      -9.917  10.216  66.830  1.00  0.00    -0.189 OA 
BRANCH  24  25
HETATM   25  C   UNL     1      -8.866  10.244  65.971  1.00  0.00    -0.149 C  
HETATM   26  O   UNL     1      -7.851  10.910  66.111  1.00  0.00    -0.157 OA 
HETATM   27  C   UNL     1      -9.145   9.371  64.784  1.00  0.00    -0.248 C  
ENDBRANCH  24  25
ENDBRANCH  10  24
ENDBRANCH   5   6
ENDBRANCH   4   5
ENDBRANCH   2   4
TORSDOF 8
ENDMDL
MODEL       41
REMARK 921   NORMALIZED FREE ENERGY PREDICTED BY IDOCK:   -5.37 KCAL/MOL
REMARK 922        TOTAL FREE ENERGY PREDICTED BY IDOCK:   -9.28 KCAL/MOL
REMARK 923 INTER-LIGAND FREE ENERGY PREDICTED BY IDOCK:   -7.70 KCAL/MOL
REMARK 924 INTRA-LIGAND FREE ENERGY PREDICTED BY IDOCK:   -1.58 KCAL/MOL
REMARK 927      BINDING AFFINITY PREDICTED BY RF-SCORE:    0.00 PKD
ROOT
HETATM    1  C   UNL     1      -6.915  10.863  66.782  1.00  0.00    -0.126 C  
HETATM    2  C   UNL     1      -8.037  10.784  67.770  1.00  0.00    -0.111 C  
HETATM    3  O   UNL     1      -7.960  11.142  68.935  1.00  0.00    -0.141 OA 
ENDROOT
BRANCH   2   4
HETATM    4  O   UNL     1      -9.144  10.254  67.181  1.00  0.00    -0.141 OA 
BRANCH   4   5
HETATM    5  C   UNL     1     -10.072  11.209  66.656  1.00  0.00    -0.217 C  
BRANCH   5   6
HETATM    6  C   UNL     1     -11.301  11.394  67.548  1.00  0.00    -0.292 C  
HETATM    7  O   UNL     1     -11.385  10.268  68.427  1.00  0.00    -0.256 OA 
HETATM    8  C   UNL     1     -12.057  10.707  69.613  1.00  0.00    -0.240 C  
HETATM    9  C   UNL     1     -11.691  12.186  69.812  1.00  0.00    -0.310 C  
HETATM   10  C   UNL     1     -11.261  12.656  68.415  1.00  0.00    -0.279 C  
BRANCH   8  11
HETATM   11  N   UNL     1     -11.679   9.833  70.726  1.00  0.00    -0.306 N  
HETATM   12  N   UNL     1     -12.304   8.502  72.542  1.00  0.00    -0.487 N  
HETATM   13  C   UNL     1     -10.360   9.466  70.929  1.00  0.00    -0.310 C  
HETATM   14  O   UNL     1     -10.775   7.142  73.548  1.00  0.00    -0.368 OA 
HETATM   15  H   UNL     1     -13.022   8.191  73.196  1.00  0.00     0.000 HD 
HETATM   16  C   UNL     1     -10.001   8.596  71.873  1.00  0.00    -0.392 C  
HETATM   17  C   UNL     1     -12.692   9.370  71.554  1.00  0.00    -0.361 C  
HETATM   18  C   UNL     1     -11.044   8.015  72.730  1.00  0.00    -0.381 C  
HETATM   19  O   UNL     1     -13.875   9.680  71.428  1.00  0.00    -0.273 OA 
ENDBRANCH   8  11
BRANCH   9  20
HETATM   20  O   UNL     1     -12.833  12.926  70.285  1.00  0.00     0.061 OA 
BRANCH  20  21
HETATM   21  C   UNL     1     -12.639  13.774  71.327  1.00  0.00    -0.362 C  
HETATM   22  C   UNL     1     -13.668  13.540  72.394  1.00  0.00    -0.704 C  
HETATM   23  O   UNL     1     -11.759  14.618  71.397  1.00  0.00    -0.322 OA 
ENDBRANCH  20  21
ENDBRANCH   9  20
BRANCH  10  24
HETATM   24  O   UNL     1     -12.190  13.622  67.879  1.00  0.00    -0.320 OA 
BRANCH  24  25
HETATM   25  C   UNL     1     -11.677  14.644  67.147  1.00  0.00    -0.373 C  
HETATM   26  O   UNL     1     -11.603  14.677  65.928  1.00  0.00    -0.354 OA 
HETATM   27  C   UNL     1     -11.161  15.722  68.053  1.00  0.00    -0.337 C  
ENDBRANCH  24  25
ENDBRANCH  10  24
ENDBRANCH   5   6
ENDBRANCH   4   5
ENDBRANCH   2   4
TORSDOF 8
ENDMDL
MODEL       42
REMARK 921   NORMALIZED FREE ENERGY PREDICTED BY IDOCK:   -5.32 KCAL/MOL
REMARK 922        TOTAL FREE ENERGY PREDICTED BY IDOCK:   -9.21 KCAL/MOL
REMARK 923 INTER-LIGAND FREE ENERGY PREDICTED BY IDOCK:   -8.07 KCAL/MOL
REMARK 924 INTRA-LIGAND FREE ENERGY PREDICTED BY IDOCK:   -1.14 KCAL/MOL
REMARK 927      BINDING AFFINITY PREDICTED BY RF-SCORE:    0.00 PKD
ROOT
HETATM    1  C   UNL     1     -13.713  15.717  72.753  1.00  0.00    -0.639 C  
HETATM    2  C   UNL     1     -13.791  14.363  72.120  1.00  0.00    -0.477 C  
HETATM    3  O   UNL     1     -14.304  13.383  72.640  1.00  0.00    -0.709 OA 
ENDROOT
BRANCH   2   4
HETATM    4  O   UNL     1     -13.204  14.384  70.892  1.00  0.00    -0.357 OA 
BRANCH   4   5
HETATM    5  C   UNL     1     -12.644  15.643  70.507  1.00  0.00    -0.379 C  
BRANCH   5   6
HETATM    6  C   UNL     1     -11.205  15.524  70.002  1.00  0.00    -0.315 C  
HETATM    7  O   UNL     1     -10.951  14.146  69.710  1.00  0.00    -0.157 OA 
HETATM    8  C   UNL     1      -9.947  14.108  68.690  1.00  0.00    -0.222 C  
HETATM    9  C   UNL     1     -10.146  15.359  67.821  1.00  0.00    -0.227 C  
HETATM   10  C   UNL     1     -10.920  16.326  68.729  1.00  0.00    -0.343 C  
BRANCH   8  11
HETATM   11  N   UNL     1     -10.054  12.840  67.964  1.00  0.00    -0.224 N  
HETATM   12  N   UNL     1      -9.018  11.050  66.874  1.00  0.00    -0.155 N  
HETATM   13  C   UNL     1     -11.279  12.226  67.776  1.00  0.00    -0.276 C  
HETATM   14  O   UNL     1     -10.222   9.199  66.310  1.00  0.00    -0.276 OA 
HETATM   15  H   UNL     1      -8.178  10.638  66.470  1.00  0.00     0.000 HD 
HETATM   16  C   UNL     1     -11.395  11.027  67.206  1.00  0.00    -0.265 C  
HETATM   17  C   UNL     1      -8.881  12.269  67.489  1.00  0.00    -0.182 C  
HETATM   18  C   UNL     1     -10.176  10.340  66.754  1.00  0.00    -0.228 C  
HETATM   19  O   UNL     1      -7.770  12.782  67.612  1.00  0.00    -0.136 OA 
ENDBRANCH   8  11
BRANCH   9  20
HETATM   20  O   UNL     1      -8.873  15.909  67.433  1.00  0.00    -0.182 OA 
BRANCH  20  21
HETATM   21  C   UNL     1      -8.768  16.417  66.179  1.00  0.00    -0.312 C  
HETATM   22  C   UNL     1      -7.544  17.277  66.059  1.00  0.00    -0.226 C  
HETATM   23  O   UNL     1      -9.557  16.218  65.267  1.00  0.00    -0.383 OA 
ENDBRANCH  20  21
ENDBRANCH   9  20
BRANCH  10  24
HETATM   24  O   UNL     1     -10.118  17.476  69.070  1.00  0.00    -0.326 OA 
BRANCH  24  25
HETATM   25  C   UNL     1     -10.408  18.648  68.448  1.00  0.00    -0.311 C  
HETATM   26  O   UNL     1     -10.906  18.758  67.338  1.00  0.00    -0.449 OA 
HETATM   27  C   UNL     1      -9.981  19.806  69.300  1.00  0.00    -0.314 C  
ENDBRANCH  24  25
ENDBRANCH  10  24
ENDBRANCH   5   6
ENDBRANCH   4   5
ENDBRANCH   2   4
TORSDOF 8
ENDMDL
MODEL       43
REMARK 921   NORMALIZED FREE ENERGY PREDICTED BY IDOCK:   -5.32 KCAL/MOL
REMARK 922        TOTAL FREE ENERGY PREDICTED BY IDOCK:   -9.21 KCAL/MOL
REMARK 923 INTER-LIGAND FREE ENERGY PREDICTED BY IDOCK:   -8.36 KCAL/MOL
REMARK 924 INTRA-LIGAND FREE ENERGY PREDICTED BY IDOCK:   -0.85 KCAL/MOL
REMARK 927      BINDING AFFINITY PREDICTED BY RF-SCORE:    0.00 PKD
ROOT
HETATM    1  C   UNL     1     -13.665  15.345  71.945  1.00  0.00    -0.603 C  
HETATM    2  C   UNL     1     -12.508  14.576  71.389  1.00  0.00    -0.353 C  
HETATM    3  O   UNL     1     -12.567  13.419  71.000  1.00  0.00    -0.355 OA 
ENDROOT
BRANCH   2   4
HETATM    4  O   UNL     1     -11.388  15.350  71.386  1.00  0.00    -0.356 OA 
BRANCH   4   5
HETATM    5  C   UNL     1     -11.224  16.179  70.231  1.00  0.00    -0.381 C  
BRANCH   5   6
HETATM    6  C   UNL     1     -10.062  15.733  69.341  1.00  0.00    -0.268 C  
HETATM    7  O   UNL     1     -10.530  14.676  68.498  1.00  0.00    -0.233 OA 
HETATM    8  C   UNL     1      -9.743  14.708  67.302  1.00  0.00    -0.231 C  
HETATM    9  C   UNL     1      -9.368  16.177  67.054  1.00  0.00    -0.218 C  
HETATM   10  C   UNL     1      -9.510  16.837  68.434  1.00  0.00    -0.241 C  
BRANCH   8  11
HETATM   11  N   UNL     1     -10.501  14.083  66.216  1.00  0.00    -0.282 N  
HETATM   12  N   UNL     1     -11.168  12.155  65.075  1.00  0.00    -0.315 N  
HETATM   13  C   UNL     1     -11.313  14.837  65.387  1.00  0.00    -0.356 C  
HETATM   14  O   UNL     1     -12.831  12.260  63.520  1.00  0.00    -0.768 OA 
HETATM   15  H   UNL     1     -11.063  11.155  64.908  1.00  0.00     0.000 HD 
HETATM   16  C   UNL     1     -12.088  14.283  64.454  1.00  0.00    -0.490 C  
HETATM   17  C   UNL     1     -10.391  12.708  66.062  1.00  0.00    -0.270 C  
HETATM   18  C   UNL     1     -12.069  12.821  64.298  1.00  0.00    -0.425 C  
HETATM   19  O   UNL     1      -9.670  11.996  66.758  1.00  0.00    -0.200 OA 
ENDBRANCH   8  11
BRANCH   9  20
HETATM   20  O   UNL     1      -8.017  16.275  66.563  1.00  0.00    -0.264 OA 
BRANCH  20  21
HETATM   21  C   UNL     1      -7.644  17.448  65.992  1.00  0.00    -0.210 C  
HETATM   22  C   UNL     1      -6.149  17.535  65.898  1.00  0.00    -0.115 C  
HETATM   23  O   UNL     1      -8.407  18.322  65.611  1.00  0.00    -0.385 OA 
ENDBRANCH  20  21
ENDBRANCH   9  20
BRANCH  10  24
HETATM   24  O   UNL     1      -8.230  17.265  68.943  1.00  0.00    -0.255 OA 
BRANCH  24  25
HETATM   25  C   UNL     1      -8.021  18.601  69.069  1.00  0.00    -0.134 C  
HETATM   26  O   UNL     1      -8.868  19.469  68.924  1.00  0.00    -0.355 OA 
HETATM   27  C   UNL     1      -6.576  18.872  69.367  1.00  0.00    -0.293 C  
ENDBRANCH  24  25
ENDBRANCH  10  24
ENDBRANCH   5   6
ENDBRANCH   4   5
ENDBRANCH   2   4
TORSDOF 8
ENDMDL
MODEL       44
REMARK 921   NORMALIZED FREE ENERGY PREDICTED BY IDOCK:   -5.31 KCAL/MOL
REMARK 922        TOTAL FREE ENERGY PREDICTED BY IDOCK:   -9.20 KCAL/MOL
REMARK 923 INTER-LIGAND FREE ENERGY PREDICTED BY IDOCK:   -8.95 KCAL/MOL
REMARK 924 INTRA-LIGAND FREE ENERGY PREDICTED BY IDOCK:   -0.25 KCAL/MOL
REMARK 927      BINDING AFFINITY PREDICTED BY RF-SCORE:    0.00 PKD
ROOT
HETATM    1  C   UNL     1     -13.149  11.308  71.841  1.00  0.00    -0.510 C  
HETATM    2  C   UNL     1     -13.314  12.795  71.896  1.00  0.00    -0.413 C  
HETATM    3  O   UNL     1     -14.174  13.373  72.544  1.00  0.00    -0.721 OA 
ENDROOT
BRANCH   2   4
HETATM    4  O   UNL     1     -12.375  13.400  71.118  1.00  0.00    -0.349 OA 
BRANCH   4   5
HETATM    5  C   UNL     1     -12.049  12.709  69.909  1.00  0.00    -0.252 C  
BRANCH   5   6
HETATM    6  C   UNL     1     -11.160  13.532  68.975  1.00  0.00    -0.250 C  
HETATM    7  O   UNL     1     -10.285  12.632  68.288  1.00  0.00    -0.229 OA 
HETATM    8  C   UNL     1      -9.955  13.238  67.034  1.00  0.00    -0.238 C  
HETATM    9  C   UNL     1     -11.172  14.071  66.605  1.00  0.00    -0.323 C  
HETATM   10  C   UNL     1     -11.930  14.326  67.917  1.00  0.00    -0.329 C  
BRANCH   8  11
HETATM   11  N   UNL     1      -9.570  12.191  66.084  1.00  0.00    -0.240 N  
HETATM   12  N   UNL     1      -8.008  10.619  65.345  1.00  0.00    -0.273 N  
HETATM   13  C   UNL     1     -10.450  11.754  65.110  1.00  0.00    -0.283 C  
HETATM   14  O   UNL     1      -8.592   9.070  63.777  1.00  0.00    -0.191 OA 
HETATM   15  H   UNL     1      -7.063  10.236  65.382  1.00  0.00     0.000 HD 
HETATM   16  C   UNL     1     -10.164  10.737  64.297  1.00  0.00    -0.422 C  
HETATM   17  C   UNL     1      -8.302  11.641  66.210  1.00  0.00    -0.027 C  
HETATM   18  C   UNL     1      -8.863  10.066  64.438  1.00  0.00    -0.213 C  
HETATM   19  O   UNL     1      -7.476  12.006  67.045  1.00  0.00    -0.148 OA 
ENDBRANCH   8  11
BRANCH   9  20
HETATM   20  O   UNL     1     -10.748  15.306  65.996  1.00  0.00    -0.304 OA 
BRANCH  20  21
HETATM   21  C   UNL     1     -11.362  15.676  64.844  1.00  0.00    -0.315 C  
HETATM   22  C   UNL     1     -12.255  14.578  64.347  1.00  0.00    -0.480 C  
HETATM   23  O   UNL     1     -11.212  16.748  64.276  1.00  0.00    -1.163 OA 
ENDBRANCH  20  21
ENDBRANCH   9  20
BRANCH  10  24
HETATM   24  O   UNL     1     -11.905  15.725  68.271  1.00  0.00    -0.301 OA 
BRANCH  24  25
HETATM   25  C   UNL     1     -11.176  16.082  69.359  1.00  0.00    -0.349 C  
HETATM   26  O   UNL     1     -11.583  16.104  70.511  1.00  0.00    -0.366 OA 
HETATM   27  C   UNL     1      -9.796  16.498  68.944  1.00  0.00    -0.260 C  
ENDBRANCH  24  25
ENDBRANCH  10  24
ENDBRANCH   5   6
ENDBRANCH   4   5
ENDBRANCH   2   4
TORSDOF 8
ENDMDL
MODEL       45
REMARK 921   NORMALIZED FREE ENERGY PREDICTED BY IDOCK:   -5.24 KCAL/MOL
REMARK 922        TOTAL FREE ENERGY PREDICTED BY IDOCK:   -9.09 KCAL/MOL
REMARK 923 INTER-LIGAND FREE ENERGY PREDICTED BY IDOCK:   -8.81 KCAL/MOL
REMARK 924 INTRA-LIGAND FREE ENERGY PREDICTED BY IDOCK:   -0.28 KCAL/MOL
REMARK 927      BINDING AFFINITY PREDICTED BY RF-SCORE:    0.00 PKD
ROOT
HETATM    1  C   UNL     1     -12.105  15.945  72.107  1.00  0.00    -0.596 C  
HETATM    2  C   UNL     1     -12.557  15.308  70.830  1.00  0.00    -0.417 C  
HETATM    3  O   UNL     1     -13.452  14.481  70.747  1.00  0.00    -0.304 OA 
ENDROOT
BRANCH   2   4
HETATM    4  O   UNL     1     -11.823  15.781  69.785  1.00  0.00    -0.343 OA 
BRANCH   4   5
HETATM    5  C   UNL     1     -10.465  15.333  69.742  1.00  0.00    -0.275 C  
BRANCH   5   6
HETATM    6  C   UNL     1     -10.011  14.948  68.333  1.00  0.00    -0.222 C  
HETATM    7  O   UNL     1      -9.622  13.571  68.354  1.00  0.00    -0.217 OA 
HETATM    8  C   UNL     1      -9.829  13.053  67.035  1.00  0.00    -0.238 C  
HETATM    9  C   UNL     1     -11.026  13.810  66.440  1.00  0.00    -0.298 C  
HETATM   10  C   UNL     1     -11.094  15.106  67.262  1.00  0.00    -0.332 C  
BRANCH   8  11
HETATM   11  N   UNL     1     -10.007  11.602  67.115  1.00  0.00    -0.198 N  
HETATM   12  N   UNL     1     -11.211   9.761  67.904  1.00  0.00    -0.505 N  
HETATM   13  C   UNL     1      -9.187  10.742  66.405  1.00  0.00    -0.170 C  
HETATM   14  O   UNL     1     -10.792   7.677  67.080  1.00  0.00    -0.317 OA 
HETATM   15  H   UNL     1     -11.928   9.382  68.523  1.00  0.00     0.000 HD 
HETATM   16  C   UNL     1      -9.387   9.425  66.381  1.00  0.00    -0.241 C  
HETATM   17  C   UNL     1     -11.038  11.122  67.910  1.00  0.00    -0.273 C  
HETATM   18  C   UNL     1     -10.513   8.868  67.145  1.00  0.00    -0.274 C  
HETATM   19  O   UNL     1     -11.782  11.840  68.575  1.00  0.00    -0.295 OA 
ENDBRANCH   8  11
BRANCH   9  20
HETATM   20  O   UNL     1     -10.803  14.086  65.044  1.00  0.00    -0.346 OA 
BRANCH  20  21
HETATM   21  C   UNL     1     -11.763  13.694  64.169  1.00  0.00    -0.386 C  
HETATM   22  C   UNL     1     -11.486  12.307  63.670  1.00  0.00    -0.572 C  
HETATM   23  O   UNL     1     -12.721  14.369  63.822  1.00  0.00    -0.785 OA 
ENDBRANCH  20  21
ENDBRANCH   9  20
BRANCH  10  24
HETATM   24  O   UNL     1     -10.782  16.257  66.449  1.00  0.00    -0.278 OA 
BRANCH  24  25
HETATM   25  C   UNL     1      -9.795  17.082  66.884  1.00  0.00    -0.271 C  
HETATM   26  O   UNL     1      -9.948  18.046  67.619  1.00  0.00    -0.303 OA 
HETATM   27  C   UNL     1      -8.480  16.673  66.291  1.00  0.00    -0.355 C  
ENDBRANCH  24  25
ENDBRANCH  10  24
ENDBRANCH   5   6
ENDBRANCH   4   5
ENDBRANCH   2   4
TORSDOF 8
ENDMDL
MODEL       46
REMARK 921   NORMALIZED FREE ENERGY PREDICTED BY IDOCK:   -5.22 KCAL/MOL
REMARK 922        TOTAL FREE ENERGY PREDICTED BY IDOCK:   -9.07 KCAL/MOL
REMARK 923 INTER-LIGAND FREE ENERGY PREDICTED BY IDOCK:   -8.27 KCAL/MOL
REMARK 924 INTRA-LIGAND FREE ENERGY PREDICTED BY IDOCK:   -0.79 KCAL/MOL
REMARK 927      BINDING AFFINITY PREDICTED BY RF-SCORE:    0.00 PKD
ROOT
HETATM    1  C   UNL     1     -12.661  13.849  65.626  1.00  0.00    -0.553 C  
HETATM    2  C   UNL     1     -11.977  13.667  64.307  1.00  0.00    -0.445 C  
HETATM    3  O   UNL     1     -12.534  13.743  63.222  1.00  0.00    -0.819 OA 
ENDROOT
BRANCH   2   4
HETATM    4  O   UNL     1     -10.656  13.400  64.496  1.00  0.00    -0.392 OA 
BRANCH   4   5
HETATM    5  C   UNL     1     -10.193  13.542  65.843  1.00  0.00    -0.301 C  
BRANCH   5   6
HETATM    6  C   UNL     1      -9.417  12.319  66.336  1.00  0.00    -0.237 C  
HETATM    7  O   UNL     1      -9.735  12.120  67.717  1.00  0.00    -0.187 OA 
HETATM    8  C   UNL     1      -9.577  10.723  67.989  1.00  0.00    -0.163 C  
HETATM    9  C   UNL     1      -9.935   9.973  66.698  1.00  0.00    -0.216 C  
HETATM   10  C   UNL     1      -9.752  11.023  65.592  1.00  0.00    -0.232 C  
BRANCH   8  11
HETATM   11  N   UNL     1     -10.402  10.367  69.147  1.00  0.00    -0.209 N  
HETATM   12  N   UNL     1     -12.489  10.330  70.198  1.00  0.00    -0.518 N  
HETATM   13  C   UNL     1      -9.868   9.665  70.213  1.00  0.00    -0.266 C  
HETATM   14  O   UNL     1     -12.798   9.100  72.092  1.00  0.00    -0.371 OA 
HETATM   15  H   UNL     1     -13.460  10.639  70.230  1.00  0.00     0.000 HD 
HETATM   16  C   UNL     1     -10.616   9.244  71.233  1.00  0.00    -0.417 C  
HETATM   17  C   UNL     1     -11.738  10.741  69.125  1.00  0.00    -0.296 C  
HETATM   18  C   UNL     1     -12.055   9.545  71.225  1.00  0.00    -0.360 C  
HETATM   19  O   UNL     1     -12.257  11.380  68.212  1.00  0.00    -0.588 OA 
ENDBRANCH   8  11
BRANCH   9  20
HETATM   20  O   UNL     1      -9.051   8.851  66.506  1.00  0.00    -0.147 OA 
BRANCH  20  21
HETATM   21  C   UNL     1      -9.315   7.721  67.208  1.00  0.00    -0.145 C  
HETATM   22  C   UNL     1     -10.765   7.353  67.088  1.00  0.00    -0.400 C  
HETATM   23  O   UNL     1      -8.499   7.085  67.858  1.00  0.00    -0.123 OA 
ENDBRANCH  20  21
ENDBRANCH   9  20
BRANCH  10  24
HETATM   24  O   UNL     1      -8.651  10.683  64.725  1.00  0.00    -0.177 OA 
BRANCH  24  25
HETATM   25  C   UNL     1      -8.924  10.509  63.406  1.00  0.00    -0.225 C  
HETATM   26  O   UNL     1      -9.304  11.379  62.638  1.00  0.00    -0.361 OA 
HETATM   27  C   UNL     1      -8.740   9.069  63.025  1.00  0.00    -0.126 C  
ENDBRANCH  24  25
ENDBRANCH  10  24
ENDBRANCH   5   6
ENDBRANCH   4   5
ENDBRANCH   2   4
TORSDOF 8
ENDMDL
MODEL       47
REMARK 921   NORMALIZED FREE ENERGY PREDICTED BY IDOCK:   -5.22 KCAL/MOL
REMARK 922        TOTAL FREE ENERGY PREDICTED BY IDOCK:   -9.06 KCAL/MOL
REMARK 923 INTER-LIGAND FREE ENERGY PREDICTED BY IDOCK:   -8.46 KCAL/MOL
REMARK 924 INTRA-LIGAND FREE ENERGY PREDICTED BY IDOCK:   -0.60 KCAL/MOL
REMARK 927      BINDING AFFINITY PREDICTED BY RF-SCORE:    0.00 PKD
ROOT
HETATM    1  C   UNL     1     -12.729  12.016  63.372  1.00  0.00    -0.527 C  
HETATM    2  C   UNL     1     -12.136  13.315  63.823  1.00  0.00    -0.482 C  
HETATM    3  O   UNL     1     -12.556  14.416  63.503  1.00  0.00    -0.784 OA 
ENDROOT
BRANCH   2   4
HETATM    4  O   UNL     1     -11.064  13.085  64.631  1.00  0.00    -0.304 OA 
BRANCH   4   5
HETATM    5  C   UNL     1     -10.992  11.769  65.187  1.00  0.00    -0.294 C  
BRANCH   5   6
HETATM    6  C   UNL     1     -10.260  11.731  66.530  1.00  0.00    -0.208 C  
HETATM    7  O   UNL     1     -10.660  12.878  67.285  1.00  0.00    -0.232 OA 
HETATM    8  C   UNL     1     -10.536  12.537  68.670  1.00  0.00    -0.200 C  
HETATM    9  C   UNL     1     -10.827  11.033  68.788  1.00  0.00    -0.210 C  
HETATM   10  C   UNL     1     -10.567  10.491  67.375  1.00  0.00    -0.263 C  
BRANCH   8  11
HETATM   11  N   UNL     1     -11.430  13.392  69.455  1.00  0.00    -0.280 N  
HETATM   12  N   UNL     1     -12.370  15.494  69.852  1.00  0.00    -0.525 N  
HETATM   13  C   UNL     1     -12.220  12.864  70.461  1.00  0.00    -0.314 C  
HETATM   14  O   UNL     1     -14.123  15.714  71.292  1.00  0.00    -0.560 OA 
HETATM   15  H   UNL     1     -12.379  16.498  69.675  1.00  0.00     0.000 HD 
HETATM   16  C   UNL     1     -13.113  13.599  71.123  1.00  0.00    -0.306 C  
HETATM   17  C   UNL     1     -11.471  14.743  69.138  1.00  0.00    -0.299 C  
HETATM   18  C   UNL     1     -13.253  15.021  70.777  1.00  0.00    -0.348 C  
HETATM   19  O   UNL     1     -10.777  15.264  68.268  1.00  0.00    -0.242 OA 
ENDBRANCH   8  11
BRANCH   9  20
HETATM   20  O   UNL     1      -9.946  10.424  69.752  1.00  0.00    -0.213 OA 
BRANCH  20  21
HETATM   21  C   UNL     1     -10.513   9.666  70.724  1.00  0.00    -0.305 C  
HETATM   22  C   UNL     1      -9.477   8.823  71.407  1.00  0.00    -0.330 C  
HETATM   23  O   UNL     1     -11.702   9.656  71.009  1.00  0.00    -0.299 OA 
ENDBRANCH  20  21
ENDBRANCH   9  20
BRANCH  10  24
HETATM   24  O   UNL     1      -9.421   9.614  67.354  1.00  0.00    -0.139 OA 
BRANCH  24  25
HETATM   25  C   UNL     1      -9.470   8.540  66.523  1.00  0.00    -0.218 C  
HETATM   26  O   UNL     1      -8.845   8.419  65.481  1.00  0.00    -0.172 OA 
HETATM   27  C   UNL     1     -10.449   7.529  67.043  1.00  0.00    -0.409 C  
ENDBRANCH  24  25
ENDBRANCH  10  24
ENDBRANCH   5   6
ENDBRANCH   4   5
ENDBRANCH   2   4
TORSDOF 8
ENDMDL
MODEL       48
REMARK 921   NORMALIZED FREE ENERGY PREDICTED BY IDOCK:   -5.18 KCAL/MOL
REMARK 922        TOTAL FREE ENERGY PREDICTED BY IDOCK:   -9.01 KCAL/MOL
REMARK 923 INTER-LIGAND FREE ENERGY PREDICTED BY IDOCK:   -7.77 KCAL/MOL
REMARK 924 INTRA-LIGAND FREE ENERGY PREDICTED BY IDOCK:   -1.24 KCAL/MOL
REMARK 927      BINDING AFFINITY PREDICTED BY RF-SCORE:    0.00 PKD
ROOT
HETATM    1  C   UNL     1     -12.911   9.451  71.996  1.00  0.00    -0.496 C  
HETATM    2  C   UNL     1     -12.675  10.802  71.396  1.00  0.00    -0.439 C  
HETATM    3  O   UNL     1     -13.231  11.828  71.760  1.00  0.00    -0.457 OA 
ENDROOT
BRANCH   2   4
HETATM    4  O   UNL     1     -11.761  10.716  70.391  1.00  0.00    -0.299 OA 
BRANCH   4   5
HETATM    5  C   UNL     1     -11.784  11.798  69.454  1.00  0.00    -0.341 C  
BRANCH   5   6
HETATM    6  C   UNL     1     -10.710  11.669  68.372  1.00  0.00    -0.217 C  
HETATM    7  O   UNL     1     -10.253  10.313  68.361  1.00  0.00    -0.155 OA 
HETATM    8  C   UNL     1      -9.794  10.032  67.034  1.00  0.00    -0.189 C  
HETATM    9  C   UNL     1     -10.654  10.871  66.077  1.00  0.00    -0.189 C  
HETATM   10  C   UNL     1     -11.200  12.003  66.961  1.00  0.00    -0.320 C  
BRANCH   8  11
HETATM   11  N   UNL     1      -9.861   8.587  66.802  1.00  0.00    -0.232 N  
HETATM   12  N   UNL     1      -8.916   6.645  65.909  1.00  0.00    -0.295 N  
HETATM   13  C   UNL     1     -10.885   7.826  67.337  1.00  0.00    -0.137 C  
HETATM   14  O   UNL     1      -9.769   4.602  66.448  1.00  0.00    -0.162 OA 
HETATM   15  H   UNL     1      -8.215   6.205  65.313  1.00  0.00     0.000 HD 
HETATM   16  C   UNL     1     -10.918   6.498  67.224  1.00  0.00    -0.475 C  
HETATM   17  C   UNL     1      -8.851   8.009  66.046  1.00  0.00    -0.162 C  
HETATM   18  C   UNL     1      -9.831   5.824  66.498  1.00  0.00    -0.161 C  
HETATM   19  O   UNL     1      -7.930   8.642  65.533  1.00  0.00    -0.098 OA 
ENDBRANCH   8  11
BRANCH   9  20
HETATM   20  O   UNL     1      -9.850  11.389  65.000  1.00  0.00    -0.242 OA 
BRANCH  20  21
HETATM   21  C   UNL     1     -10.395  11.388  63.758  1.00  0.00    -0.393 C  
HETATM   22  C   UNL     1      -9.333  11.180  62.717  1.00  0.00    -0.377 C  
HETATM   23  O   UNL     1     -11.580  11.541  63.506  1.00  0.00    -0.397 OA 
ENDBRANCH  20  21
ENDBRANCH   9  20
BRANCH  10  24
HETATM   24  O   UNL     1     -10.657  13.281  66.567  1.00  0.00    -0.281 OA 
BRANCH  24  25
HETATM   25  C   UNL     1     -11.497  14.154  65.953  1.00  0.00    -0.338 C  
HETATM   26  O   UNL     1     -12.717  14.128  66.011  1.00  0.00    -0.469 OA 
HETATM   27  C   UNL     1     -10.711  15.142  65.141  1.00  0.00    -0.442 C  
ENDBRANCH  24  25
ENDBRANCH  10  24
ENDBRANCH   5   6
ENDBRANCH   4   5
ENDBRANCH   2   4
TORSDOF 8
ENDMDL
MODEL       49
REMARK 921   NORMALIZED FREE ENERGY PREDICTED BY IDOCK:   -5.15 KCAL/MOL
REMARK 922        TOTAL FREE ENERGY PREDICTED BY IDOCK:   -8.97 KCAL/MOL
REMARK 923 INTER-LIGAND FREE ENERGY PREDICTED BY IDOCK:   -7.50 KCAL/MOL
REMARK 924 INTRA-LIGAND FREE ENERGY PREDICTED BY IDOCK:   -1.47 KCAL/MOL
REMARK 927      BINDING AFFINITY PREDICTED BY RF-SCORE:    0.00 PKD
ROOT
HETATM    1  C   UNL     1     -12.261   6.840  71.084  1.00  0.00    -0.413 C  
HETATM    2  C   UNL     1     -11.161   6.586  70.101  1.00  0.00    -0.377 C  
HETATM    3  O   UNL     1     -11.145   5.661  69.303  1.00  0.00    -0.274 OA 
ENDROOT
BRANCH   2   4
HETATM    4  O   UNL     1     -10.188   7.529  70.232  1.00  0.00    -0.200 OA 
BRANCH   4   5
HETATM    5  C   UNL     1     -10.512   8.621  71.098  1.00  0.00    -0.227 C  
BRANCH   5   6
HETATM    6  C   UNL     1     -10.328   9.984  70.429  1.00  0.00    -0.205 C  
HETATM    7  O   UNL     1      -9.475   9.809  69.293  1.00  0.00    -0.172 OA 
HETATM    8  C   UNL     1      -9.813  10.832  68.349  1.00  0.00    -0.169 C  
HETATM    9  C   UNL     1     -11.312  11.118  68.518  1.00  0.00    -0.282 C  
HETATM   10  C   UNL     1     -11.631  10.619  69.935  1.00  0.00    -0.316 C  
BRANCH   8  11
HETATM   11  N   UNL     1      -9.426  10.389  67.008  1.00  0.00    -0.161 N  
HETATM   12  N   UNL     1      -8.370  10.827  64.969  1.00  0.00    -0.343 N  
HETATM   13  C   UNL     1      -9.684   9.099  66.581  1.00  0.00    -0.223 C  
HETATM   14  O   UNL     1      -8.002   9.139  63.482  1.00  0.00    -0.130 OA 
HETATM   15  H   UNL     1      -7.938  11.495  64.331  1.00  0.00     0.000 HD 
HETATM   16  C   UNL     1      -9.257   8.639  65.404  1.00  0.00    -0.103 C  
HETATM   17  C   UNL     1      -8.774  11.303  66.191  1.00  0.00    -0.179 C  
HETATM   18  C   UNL     1      -8.494   9.542  64.529  1.00  0.00    -0.181 C  
HETATM   19  O   UNL     1      -8.537  12.465  66.515  1.00  0.00    -0.128 OA 
ENDBRANCH   8  11
BRANCH   9  20
HETATM   20  O   UNL     1     -11.572  12.530  68.389  1.00  0.00    -0.279 OA 
BRANCH  20  21
HETATM   21  C   UNL     1     -11.902  12.993  67.157  1.00  0.00    -0.373 C  
HETATM   22  C   UNL     1     -11.895  14.493  67.139  1.00  0.00    -0.412 C  
HETATM   23  O   UNL     1     -12.177  12.298  66.190  1.00  0.00    -0.647 OA 
ENDBRANCH  20  21
ENDBRANCH   9  20
BRANCH  10  24
HETATM   24  O   UNL     1     -11.979  11.714  70.808  1.00  0.00    -0.334 OA 
BRANCH  24  25
HETATM   25  C   UNL     1     -13.015  11.526  71.666  1.00  0.00    -0.394 C  
HETATM   26  O   UNL     1     -13.463  10.443  72.012  1.00  0.00    -0.389 OA 
HETATM   27  C   UNL     1     -13.575  12.848  72.099  1.00  0.00    -0.589 C  
ENDBRANCH  24  25
ENDBRANCH  10  24
ENDBRANCH   5   6
ENDBRANCH   4   5
ENDBRANCH   2   4
TORSDOF 8
ENDMDL
MODEL       50
REMARK 921   NORMALIZED FREE ENERGY PREDICTED BY IDOCK:   -5.10 KCAL/MOL
REMARK 922        TOTAL FREE ENERGY PREDICTED BY IDOCK:   -8.89 KCAL/MOL
REMARK 923 INTER-LIGAND FREE ENERGY PREDICTED BY IDOCK:   -9.24 KCAL/MOL
REMARK 924 INTRA-LIGAND FREE ENERGY PREDICTED BY IDOCK:    0.36 KCAL/MOL
REMARK 927      BINDING AFFINITY PREDICTED BY RF-SCORE:    0.00 PKD
ROOT
HETATM    1  C   UNL     1     -10.750  19.235  67.215  1.00  0.00    -0.594 C  
HETATM    2  C   UNL     1     -10.508  17.875  66.637  1.00  0.00    -0.316 C  
HETATM    3  O   UNL     1     -10.603  17.599  65.451  1.00  0.00    -0.657 OA 
ENDROOT
BRANCH   2   4
HETATM    4  O   UNL     1     -10.174  16.999  67.625  1.00  0.00    -0.295 OA 
BRANCH   4   5
HETATM    5  C   UNL     1     -11.172  16.020  67.933  1.00  0.00    -0.276 C  
BRANCH   5   6
HETATM    6  C   UNL     1     -10.760  14.604  67.526  1.00  0.00    -0.268 C  
HETATM    7  O   UNL     1     -10.674  13.810  68.713  1.00  0.00    -0.247 OA 
HETATM    8  C   UNL     1     -10.939  12.454  68.334  1.00  0.00    -0.241 C  
HETATM    9  C   UNL     1     -11.925  12.504  67.158  1.00  0.00    -0.215 C  
HETATM   10  C   UNL     1     -11.744  13.914  66.577  1.00  0.00    -0.393 C  
BRANCH   8  11
HETATM   11  N   UNL     1     -11.425  11.719  69.504  1.00  0.00    -0.291 N  
HETATM   12  N   UNL     1     -12.706  11.663  71.458  1.00  0.00    -0.354 N  
HETATM   13  C   UNL     1     -11.121  10.381  69.683  1.00  0.00    -0.276 C  
HETATM   14  O   UNL     1     -13.101   9.682  72.515  1.00  0.00    -0.360 OA 
HETATM   15  H   UNL     1     -13.246  12.159  72.168  1.00  0.00     0.000 HD 
HETATM   16  C   UNL     1     -11.629   9.663  70.684  1.00  0.00    -0.371 C  
HETATM   17  C   UNL     1     -12.218  12.406  70.413  1.00  0.00    -0.287 C  
HETATM   18  C   UNL     1     -12.537  10.322  71.635  1.00  0.00    -0.432 C  
HETATM   19  O   UNL     1     -12.502  13.598  70.312  1.00  0.00    -0.316 OA 
ENDBRANCH   8  11
BRANCH   9  20
HETATM   20  O   UNL     1     -11.598  11.492  66.185  1.00  0.00    -0.345 OA 
BRANCH  20  21
HETATM   21  C   UNL     1     -10.338  10.988  66.207  1.00  0.00    -0.251 C  
HETATM   22  C   UNL     1     -10.368   9.504  66.421  1.00  0.00    -0.243 C  
HETATM   23  O   UNL     1      -9.314  11.642  66.080  1.00  0.00    -0.216 OA 
ENDBRANCH  20  21
ENDBRANCH   9  20
BRANCH  10  24
HETATM   24  O   UNL     1     -11.166  13.866  65.256  1.00  0.00    -0.300 OA 
BRANCH  24  25
HETATM   25  C   UNL     1     -11.987  14.117  64.204  1.00  0.00    -0.393 C  
HETATM   26  O   UNL     1     -12.629  15.142  64.033  1.00  0.00    -0.791 OA 
HETATM   27  C   UNL     1     -12.037  12.928  63.292  1.00  0.00    -0.520 C  
ENDBRANCH  24  25
ENDBRANCH  10  24
ENDBRANCH   5   6
ENDBRANCH   4   5
ENDBRANCH   2   4
TORSDOF 8
ENDMDL
MODEL       51
REMARK 921   NORMALIZED FREE ENERGY PREDICTED BY IDOCK:   -5.09 KCAL/MOL
REMARK 922        TOTAL FREE ENERGY PREDICTED BY IDOCK:   -8.87 KCAL/MOL
REMARK 923 INTER-LIGAND FREE ENERGY PREDICTED BY IDOCK:   -7.43 KCAL/MOL
REMARK 924 INTRA-LIGAND FREE ENERGY PREDICTED BY IDOCK:   -1.44 KCAL/MOL
REMARK 927      BINDING AFFINITY PREDICTED BY RF-SCORE:    0.00 PKD
ROOT
HETATM    1  C   UNL     1      -6.784  19.107  67.479  1.00  0.00    -0.214 C  
HETATM    2  C   UNL     1      -6.576  17.835  68.240  1.00  0.00    -0.196 C  
HETATM    3  O   UNL     1      -5.520  17.222  68.289  1.00  0.00    -0.129 OA 
ENDROOT
BRANCH   2   4
HETATM    4  O   UNL     1      -7.731  17.464  68.859  1.00  0.00    -0.257 OA 
BRANCH   4   5
HETATM    5  C   UNL     1      -8.096  16.090  68.694  1.00  0.00    -0.187 C  
BRANCH   5   6
HETATM    6  C   UNL     1      -8.589  15.772  67.281  1.00  0.00    -0.188 C  
HETATM    7  O   UNL     1      -8.543  14.353  67.105  1.00  0.00    -0.202 OA 
HETATM    8  C   UNL     1      -9.546  14.014  66.142  1.00  0.00    -0.241 C  
HETATM    9  C   UNL     1     -10.689  15.026  66.311  1.00  0.00    -0.322 C  
HETATM   10  C   UNL     1     -10.026  16.226  67.004  1.00  0.00    -0.255 C  
BRANCH   8  11
HETATM   11  N   UNL     1      -9.939  12.616  66.335  1.00  0.00    -0.249 N  
HETATM   12  N   UNL     1     -10.245  10.470  65.460  1.00  0.00    -0.272 N  
HETATM   13  C   UNL     1     -10.283  12.138  67.588  1.00  0.00    -0.197 C  
HETATM   14  O   UNL     1     -10.630   8.708  66.853  1.00  0.00    -0.287 OA 
HETATM   15  H   UNL     1     -10.301   9.853  64.650  1.00  0.00     0.000 HD 
HETATM   16  C   UNL     1     -10.549  10.851  67.810  1.00  0.00    -0.255 C  
HETATM   17  C   UNL     1      -9.935  11.786  65.223  1.00  0.00    -0.253 C  
HETATM   18  C   UNL     1     -10.484   9.912  66.681  1.00  0.00    -0.169 C  
HETATM   19  O   UNL     1      -9.657  12.163  64.086  1.00  0.00    -0.104 OA 
ENDBRANCH   8  11
BRANCH   9  20
HETATM   20  O   UNL     1     -11.229  15.395  65.027  1.00  0.00    -0.387 OA 
BRANCH  20  21
HETATM   21  C   UNL     1     -12.220  14.619  64.521  1.00  0.00    -0.456 C  
HETATM   22  C   UNL     1     -12.974  13.940  65.626  1.00  0.00    -0.361 C  
HETATM   23  O   UNL     1     -12.470  14.478  63.333  1.00  0.00    -0.649 OA 
ENDBRANCH  20  21
ENDBRANCH   9  20
BRANCH  10  24
HETATM   24  O   UNL     1      -9.993  17.378  66.136  1.00  0.00    -0.356 OA 
BRANCH  24  25
HETATM   25  C   UNL     1     -10.320  18.579  66.678  1.00  0.00    -0.408 C  
HETATM   26  O   UNL     1     -10.487  18.800  67.868  1.00  0.00    -0.392 OA 
HETATM   27  C   UNL     1     -10.499  19.603  65.596  1.00  0.00    -0.445 C  
ENDBRANCH  24  25
ENDBRANCH  10  24
ENDBRANCH   5   6
ENDBRANCH   4   5
ENDBRANCH   2   4
TORSDOF 8
ENDMDL
MODEL       52
REMARK 921   NORMALIZED FREE ENERGY PREDICTED BY IDOCK:   -5.06 KCAL/MOL
REMARK 922        TOTAL FREE ENERGY PREDICTED BY IDOCK:   -8.84 KCAL/MOL
REMARK 923 INTER-LIGAND FREE ENERGY PREDICTED BY IDOCK:   -7.38 KCAL/MOL
REMARK 924 INTRA-LIGAND FREE ENERGY PREDICTED BY IDOCK:   -1.46 KCAL/MOL
REMARK 927      BINDING AFFINITY PREDICTED BY RF-SCORE:    0.00 PKD
ROOT
HETATM    1  C   UNL     1     -12.086  12.924  63.549  1.00  0.00    -0.633 C  
HETATM    2  C   UNL     1     -12.533  13.114  64.965  1.00  0.00    -0.460 C  
HETATM    3  O   UNL     1     -13.357  13.941  65.326  1.00  0.00    -0.732 OA 
ENDROOT
BRANCH   2   4
HETATM    4  O   UNL     1     -11.885  12.241  65.784  1.00  0.00    -0.434 OA 
BRANCH   4   5
HETATM    5  C   UNL     1     -10.739  12.772  66.456  1.00  0.00    -0.258 C  
BRANCH   5   6
HETATM    6  C   UNL     1      -9.911  11.695  67.159  1.00  0.00    -0.188 C  
HETATM    7  O   UNL     1     -10.390  11.573  68.502  1.00  0.00    -0.197 OA 
HETATM    8  C   UNL     1     -10.122  10.232  68.926  1.00  0.00    -0.204 C  
HETATM    9  C   UNL     1     -10.219   9.341  67.678  1.00  0.00    -0.230 C  
HETATM   10  C   UNL     1     -10.002  10.312  66.508  1.00  0.00    -0.224 C  
BRANCH   8  11
HETATM   11  N   UNL     1     -11.053   9.877  70.000  1.00  0.00    -0.268 N  
HETATM   12  N   UNL     1     -11.465   8.801  72.033  1.00  0.00    -0.361 N  
HETATM   13  C   UNL     1     -12.348  10.362  70.010  1.00  0.00    -0.159 C  
HETATM   14  O   UNL     1     -13.414   9.177  73.155  1.00  0.00    -0.183 OA 
HETATM   15  H   UNL     1     -11.161   8.155  72.761  1.00  0.00     0.000 HD 
HETATM   16  C   UNL     1     -13.185  10.136  71.023  1.00  0.00    -0.412 C  
HETATM   17  C   UNL     1     -10.582   9.054  71.014  1.00  0.00    -0.271 C  
HETATM   18  C   UNL     1     -12.714   9.334  72.161  1.00  0.00    -0.390 C  
HETATM   19  O   UNL     1      -9.448   8.581  71.042  1.00  0.00    -0.161 OA 
ENDBRANCH   8  11
BRANCH   9  20
HETATM   20  O   UNL     1      -9.202   8.321  67.708  1.00  0.00    -0.134 OA 
BRANCH  20  21
HETATM   21  C   UNL     1      -9.577   7.056  67.392  1.00  0.00    -0.135 C  
HETATM   22  C   UNL     1     -10.868   6.704  68.070  1.00  0.00    -0.345 C  
HETATM   23  O   UNL     1      -8.957   6.295  66.664  1.00  0.00    -0.126 OA 
ENDBRANCH  20  21
ENDBRANCH   9  20
BRANCH  10  24
HETATM   24  O   UNL     1      -8.762  10.034  65.822  1.00  0.00    -0.137 OA 
BRANCH  24  25
HETATM   25  C   UNL     1      -8.843   9.509  64.573  1.00  0.00    -0.213 C  
HETATM   26  O   UNL     1      -8.312   8.473  64.202  1.00  0.00    -0.157 OA 
HETATM   27  C   UNL     1      -9.644  10.412  63.683  1.00  0.00    -0.364 C  
ENDBRANCH  24  25
ENDBRANCH  10  24
ENDBRANCH   5   6
ENDBRANCH   4   5
ENDBRANCH   2   4
TORSDOF 8
ENDMDL
MODEL       53
REMARK 921   NORMALIZED FREE ENERGY PREDICTED BY IDOCK:   -5.02 KCAL/MOL
REMARK 922        TOTAL FREE ENERGY PREDICTED BY IDOCK:   -8.77 KCAL/MOL
REMARK 923 INTER-LIGAND FREE ENERGY PREDICTED BY IDOCK:   -7.53 KCAL/MOL
REMARK 924 INTRA-LIGAND FREE ENERGY PREDICTED BY IDOCK:   -1.24 KCAL/MOL
REMARK 927      BINDING AFFINITY PREDICTED BY RF-SCORE:    0.00 PKD
ROOT
HETATM    1  C   UNL     1     -13.220   9.716  72.156  1.00  0.00    -0.535 C  
HETATM    2  C   UNL     1     -12.991  11.119  71.689  1.00  0.00    -0.443 C  
HETATM    3  O   UNL     1     -13.521  12.106  72.177  1.00  0.00    -0.494 OA 
ENDROOT
BRANCH   2   4
HETATM    4  O   UNL     1     -12.117  11.130  70.646  1.00  0.00    -0.338 OA 
BRANCH   4   5
HETATM    5  C   UNL     1     -11.970   9.882  69.962  1.00  0.00    -0.009 C  
BRANCH   5   6
HETATM    6  C   UNL     1     -10.918   9.933  68.853  1.00  0.00    -0.179 C  
HETATM    7  O   UNL     1     -11.499  10.584  67.720  1.00  0.00    -0.443 OA 
HETATM    8  C   UNL     1     -10.431  11.198  66.991  1.00  0.00    -0.235 C  
HETATM    9  C   UNL     1      -9.365  11.605  68.019  1.00  0.00    -0.178 C  
HETATM   10  C   UNL     1      -9.649  10.704  69.229  1.00  0.00    -0.144 C  
BRANCH   8  11
HETATM   11  N   UNL     1     -10.968  12.309  66.201  1.00  0.00    -0.281 N  
HETATM   12  N   UNL     1     -11.064  13.484  64.183  1.00  0.00    -0.549 N  
HETATM   13  C   UNL     1     -11.938  13.149  66.720  1.00  0.00    -0.373 C  
HETATM   14  O   UNL     1     -12.662  15.077  63.859  1.00  0.00    -0.775 OA 
HETATM   15  H   UNL     1     -10.688  13.659  63.252  1.00  0.00     0.000 HD 
HETATM   16  C   UNL     1     -12.515  14.105  65.992  1.00  0.00    -0.454 C  
HETATM   17  C   UNL     1     -10.486  12.474  64.910  1.00  0.00    -0.303 C  
HETATM   18  C   UNL     1     -12.096  14.275  64.593  1.00  0.00    -0.463 C  
HETATM   19  O   UNL     1      -9.613  11.768  64.408  1.00  0.00    -0.175 OA 
ENDBRANCH   8  11
BRANCH   9  20
HETATM   20  O   UNL     1      -8.044  11.373  67.492  1.00  0.00    -0.119 OA 
BRANCH  20  21
HETATM   21  C   UNL     1      -7.225  12.448  67.364  1.00  0.00    -0.148 C  
HETATM   22  C   UNL     1      -5.818  12.086  67.740  1.00  0.00    -0.074 C  
HETATM   23  O   UNL     1      -7.573  13.562  67.003  1.00  0.00    -0.019 OA 
ENDBRANCH  20  21
ENDBRANCH   9  20
BRANCH  10  24
HETATM   24  O   UNL     1      -8.576   9.763  69.444  1.00  0.00    -0.138 OA 
BRANCH  24  25
HETATM   25  C   UNL     1      -8.710   8.885  70.472  1.00  0.00    -0.186 C  
HETATM   26  O   UNL     1      -8.908   9.184  71.640  1.00  0.00    -0.339 OA 
HETATM   27  C   UNL     1      -8.530   7.480  69.978  1.00  0.00    -0.137 C  
ENDBRANCH  24  25
ENDBRANCH  10  24
ENDBRANCH   5   6
ENDBRANCH   4   5
ENDBRANCH   2   4
TORSDOF 8
ENDMDL
MODEL       54
REMARK 921   NORMALIZED FREE ENERGY PREDICTED BY IDOCK:   -4.96 KCAL/MOL
REMARK 922        TOTAL FREE ENERGY PREDICTED BY IDOCK:   -8.69 KCAL/MOL
REMARK 923 INTER-LIGAND FREE ENERGY PREDICTED BY IDOCK:   -7.28 KCAL/MOL
REMARK 924 INTRA-LIGAND FREE ENERGY PREDICTED BY IDOCK:   -1.40 KCAL/MOL
REMARK 927      BINDING AFFINITY PREDICTED BY RF-SCORE:    0.00 PKD
ROOT
HETATM    1  C   UNL     1     -11.975  15.672  70.392  1.00  0.00    -0.405 C  
HETATM    2  C   UNL     1     -12.478  14.266  70.294  1.00  0.00    -0.361 C  
HETATM    3  O   UNL     1     -12.884  13.607  71.240  1.00  0.00    -0.337 OA 
ENDROOT
BRANCH   2   4
HETATM    4  O   UNL     1     -12.411  13.833  69.005  1.00  0.00    -0.302 OA 
BRANCH   4   5
HETATM    5  C   UNL     1     -11.734  14.712  68.102  1.00  0.00    -0.330 C  
BRANCH   5   6
HETATM    6  C   UNL     1     -10.575  14.035  67.369  1.00  0.00    -0.278 C  
HETATM    7  O   UNL     1      -9.771  13.358  68.341  1.00  0.00    -0.221 OA 
HETATM    8  C   UNL     1      -9.141  12.258  67.676  1.00  0.00    -0.184 C  
HETATM    9  C   UNL     1     -10.108  11.784  66.581  1.00  0.00    -0.204 C  
HETATM   10  C   UNL     1     -11.012  12.999  66.329  1.00  0.00    -0.284 C  
BRANCH   8  11
HETATM   11  N   UNL     1      -8.796  11.236  68.667  1.00  0.00    -0.160 N  
HETATM   12  N   UNL     1      -7.179  10.132  69.943  1.00  0.00    -0.139 N  
HETATM   13  C   UNL     1      -9.780  10.496  69.300  1.00  0.00    -0.196 C  
HETATM   14  O   UNL     1      -7.807   8.737  71.632  1.00  0.00    -0.200 OA 
HETATM   15  H   UNL     1      -6.197   9.941  70.139  1.00  0.00     0.000 HD 
HETATM   16  C   UNL     1      -9.502   9.630  70.274  1.00  0.00    -0.300 C  
HETATM   17  C   UNL     1      -7.452  11.052  68.962  1.00  0.00    -0.129 C  
HETATM   18  C   UNL     1      -8.101   9.451  70.681  1.00  0.00    -0.161 C  
HETATM   19  O   UNL     1      -6.540  11.669  68.417  1.00  0.00    -0.057 OA 
ENDBRANCH   8  11
BRANCH   9  20
HETATM   20  O   UNL     1      -9.381  11.417  65.393  1.00  0.00    -0.215 OA 
BRANCH  20  21
HETATM   21  C   UNL     1      -8.624  10.291  65.446  1.00  0.00    -0.159 C  
HETATM   22  C   UNL     1      -9.461   9.113  65.850  1.00  0.00    -0.326 C  
HETATM   23  O   UNL     1      -7.427  10.232  65.209  1.00  0.00    -0.141 OA 
ENDBRANCH  20  21
ENDBRANCH   9  20
BRANCH  10  24
HETATM   24  O   UNL     1     -10.800  13.543  65.009  1.00  0.00    -0.306 OA 
BRANCH  24  25
HETATM   25  C   UNL     1     -11.879  13.634  64.190  1.00  0.00    -0.422 C  
HETATM   26  O   UNL     1     -12.595  14.616  64.063  1.00  0.00    -0.819 OA 
HETATM   27  C   UNL     1     -12.105  12.328  63.486  1.00  0.00    -0.649 C  
ENDBRANCH  24  25
ENDBRANCH  10  24
ENDBRANCH   5   6
ENDBRANCH   4   5
ENDBRANCH   2   4
TORSDOF 8
ENDMDL
MODEL       55
REMARK 921   NORMALIZED FREE ENERGY PREDICTED BY IDOCK:   -4.95 KCAL/MOL
REMARK 922        TOTAL FREE ENERGY PREDICTED BY IDOCK:   -8.67 KCAL/MOL
REMARK 923 INTER-LIGAND FREE ENERGY PREDICTED BY IDOCK:   -9.10 KCAL/MOL
REMARK 924 INTRA-LIGAND FREE ENERGY PREDICTED BY IDOCK:    0.43 KCAL/MOL
REMARK 927      BINDING AFFINITY PREDICTED BY RF-SCORE:    0.00 PKD
ROOT
HETATM    1  C   UNL     1     -10.009   8.134  66.609  1.00  0.00    -0.339 C  
HETATM    2  C   UNL     1      -9.594   8.807  67.880  1.00  0.00    -0.145 C  
HETATM    3  O   UNL     1      -9.196   8.221  68.876  1.00  0.00    -0.147 OA 
ENDROOT
BRANCH   2   4
HETATM    4  O   UNL     1      -9.732  10.156  67.763  1.00  0.00    -0.150 OA 
BRANCH   4   5
HETATM    5  C   UNL     1      -9.712  10.656  66.422  1.00  0.00    -0.196 C  
BRANCH   5   6
HETATM    6  C   UNL     1     -10.761  11.741  66.177  1.00  0.00    -0.277 C  
HETATM    7  O   UNL     1     -11.342  12.089  67.438  1.00  0.00    -0.284 OA 
HETATM    8  C   UNL     1     -11.786  13.447  67.339  1.00  0.00    -0.375 C  
HETATM    9  C   UNL     1     -10.824  14.162  66.378  1.00  0.00    -0.304 C  
HETATM   10  C   UNL     1     -10.201  13.024  65.556  1.00  0.00    -0.285 C  
BRANCH   8  11
HETATM   11  N   UNL     1     -11.848  14.027  68.682  1.00  0.00    -0.346 N  
HETATM   12  N   UNL     1     -12.005  13.738  70.996  1.00  0.00    -0.481 N  
HETATM   13  C   UNL     1     -11.717  15.391  68.876  1.00  0.00    -0.359 C  
HETATM   14  O   UNL     1     -11.643  15.497  72.399  1.00  0.00    -0.434 OA 
HETATM   15  H   UNL     1     -12.185  13.128  71.793  1.00  0.00     0.000 HD 
HETATM   16  C   UNL     1     -11.672  15.936  70.092  1.00  0.00    -0.342 C  
HETATM   17  C   UNL     1     -12.020  13.160  69.752  1.00  0.00    -0.314 C  
HETATM   18  C   UNL     1     -11.773  15.055  71.264  1.00  0.00    -0.347 C  
HETATM   19  O   UNL     1     -12.159  11.944  69.633  1.00  0.00    -0.286 OA 
ENDBRANCH   8  11
BRANCH   9  20
HETATM   20  O   UNL     1     -11.546  15.082  65.537  1.00  0.00    -0.311 OA 
BRANCH  20  21
HETATM   21  C   UNL     1     -10.898  16.208  65.143  1.00  0.00    -0.361 C  
HETATM   22  C   UNL     1      -9.853  16.593  66.148  1.00  0.00    -0.340 C  
HETATM   23  O   UNL     1     -11.128  16.835  64.120  1.00  0.00    -1.061 OA 
ENDBRANCH  20  21
ENDBRANCH   9  20
BRANCH  10  24
HETATM   24  O   UNL     1     -10.611  13.093  64.174  1.00  0.00    -0.414 OA 
BRANCH  24  25
HETATM   25  C   UNL     1     -11.447  12.123  63.721  1.00  0.00    -0.465 C  
HETATM   26  O   UNL     1     -12.664  12.128  63.825  1.00  0.00    -0.661 OA 
HETATM   27  C   UNL     1     -10.656  11.005  63.108  1.00  0.00    -0.077 C  
ENDBRANCH  24  25
ENDBRANCH  10  24
ENDBRANCH   5   6
ENDBRANCH   4   5
ENDBRANCH   2   4
TORSDOF 8
ENDMDL
MODEL       56
REMARK 921   NORMALIZED FREE ENERGY PREDICTED BY IDOCK:   -4.88 KCAL/MOL
REMARK 922        TOTAL FREE ENERGY PREDICTED BY IDOCK:   -8.58 KCAL/MOL
REMARK 923 INTER-LIGAND FREE ENERGY PREDICTED BY IDOCK:   -8.80 KCAL/MOL
REMARK 924 INTRA-LIGAND FREE ENERGY PREDICTED BY IDOCK:    0.22 KCAL/MOL
REMARK 927      BINDING AFFINITY PREDICTED BY RF-SCORE:    0.00 PKD
ROOT
HETATM    1  C   UNL     1     -10.117  19.721  69.230  1.00  0.00    -0.302 C  
HETATM    2  C   UNL     1      -9.671  18.456  68.565  1.00  0.00    -0.361 C  
HETATM    3  O   UNL     1      -8.968  18.410  67.567  1.00  0.00    -0.262 OA 
ENDROOT
BRANCH   2   4
HETATM    4  O   UNL     1     -10.168  17.377  69.229  1.00  0.00    -0.302 OA 
BRANCH   4   5
HETATM    5  C   UNL     1     -11.178  16.644  68.529  1.00  0.00    -0.239 C  
BRANCH   5   6
HETATM    6  C   UNL     1     -10.698  15.268  68.062  1.00  0.00    -0.268 C  
HETATM    7  O   UNL     1     -10.750  14.378  69.181  1.00  0.00    -0.248 OA 
HETATM    8  C   UNL     1     -10.945  13.058  68.662  1.00  0.00    -0.265 C  
HETATM    9  C   UNL     1     -11.777  13.201  67.379  1.00  0.00    -0.370 C  
HETATM   10  C   UNL     1     -11.547  14.656  66.944  1.00  0.00    -0.362 C  
BRANCH   8  11
HETATM   11  N   UNL     1     -11.563  12.225  69.697  1.00  0.00    -0.295 N  
HETATM   12  N   UNL     1     -13.094  11.994  71.448  1.00  0.00    -0.292 N  
HETATM   13  C   UNL     1     -11.245  10.884  69.817  1.00  0.00    -0.281 C  
HETATM   14  O   UNL     1     -13.568   9.931  72.293  1.00  0.00    -0.402 OA 
HETATM   15  H   UNL     1     -13.739  12.423  72.111  1.00  0.00     0.000 HD 
HETATM   16  C   UNL     1     -11.862  10.081  70.685  1.00  0.00    -0.411 C  
HETATM   17  C   UNL     1     -12.491  12.825  70.537  1.00  0.00    -0.202 C  
HETATM   18  C   UNL     1     -12.910  10.647  71.547  1.00  0.00    -0.462 C  
HETATM   19  O   UNL     1     -12.795  14.015  70.485  1.00  0.00    -0.310 OA 
ENDBRANCH   8  11
BRANCH   9  20
HETATM   20  O   UNL     1     -11.317  12.275  66.376  1.00  0.00    -0.315 OA 
BRANCH  20  21
HETATM   21  C   UNL     1     -11.998  12.237  65.202  1.00  0.00    -0.337 C  
HETATM   22  C   UNL     1     -11.128  11.695  64.106  1.00  0.00    -0.435 C  
HETATM   23  O   UNL     1     -13.154  12.599  65.044  1.00  0.00    -0.808 OA 
ENDBRANCH  20  21
ENDBRANCH   9  20
BRANCH  10  24
HETATM   24  O   UNL     1     -10.807  14.720  65.707  1.00  0.00    -0.307 OA 
BRANCH  24  25
HETATM   25  C   UNL     1     -11.004  15.807  64.917  1.00  0.00    -0.427 C  
HETATM   26  O   UNL     1     -10.374  16.852  64.976  1.00  0.00    -0.596 OA 
HETATM   27  C   UNL     1     -12.149  15.564  63.979  1.00  0.00     0.058 C  
ENDBRANCH  24  25
ENDBRANCH  10  24
ENDBRANCH   5   6
ENDBRANCH   4   5
ENDBRANCH   2   4
TORSDOF 8
ENDMDL
MODEL       57
REMARK 921   NORMALIZED FREE ENERGY PREDICTED BY IDOCK:   -4.86 KCAL/MOL
REMARK 922        TOTAL FREE ENERGY PREDICTED BY IDOCK:   -8.54 KCAL/MOL
REMARK 923 INTER-LIGAND FREE ENERGY PREDICTED BY IDOCK:   -7.14 KCAL/MOL
REMARK 924 INTRA-LIGAND FREE ENERGY PREDICTED BY IDOCK:   -1.40 KCAL/MOL
REMARK 927      BINDING AFFINITY PREDICTED BY RF-SCORE:    0.00 PKD
ROOT
HETATM    1  C   UNL     1     -11.656  15.641  71.968  1.00  0.00    -0.540 C  
HETATM    2  C   UNL     1     -13.040  15.257  71.548  1.00  0.00    -0.438 C  
HETATM    3  O   UNL     1     -14.049  15.481  72.199  1.00  0.00    -0.514 OA 
ENDROOT
BRANCH   2   4
HETATM    4  O   UNL     1     -13.006  14.622  70.344  1.00  0.00    -0.323 OA 
BRANCH   4   5
HETATM    5  C   UNL     1     -11.707  14.201  69.915  1.00  0.00    -0.309 C  
BRANCH   5   6
HETATM    6  C   UNL     1     -11.724  12.840  69.217  1.00  0.00    -0.319 C  
HETATM    7  O   UNL     1     -10.667  12.823  68.253  1.00  0.00    -0.223 OA 
HETATM    8  C   UNL     1     -10.265  11.458  68.091  1.00  0.00    -0.187 C  
HETATM    9  C   UNL     1     -10.480  10.765  69.444  1.00  0.00    -0.200 C  
HETATM   10  C   UNL     1     -11.510  11.651  70.159  1.00  0.00    -0.118 C  
BRANCH   8  11
HETATM   11  N   UNL     1      -8.884  11.423  67.602  1.00  0.00    -0.137 N  
HETATM   12  N   UNL     1      -7.353  10.848  65.933  1.00  0.00    -0.316 N  
HETATM   13  C   UNL     1      -7.858  12.009  68.322  1.00  0.00    -0.145 C  
HETATM   14  O   UNL     1      -5.211  11.621  66.026  1.00  0.00    -0.318 OA 
HETATM   15  H   UNL     1      -7.145  10.350  65.067  1.00  0.00     0.000 HD 
HETATM   16  C   UNL     1      -6.611  12.077  67.856  1.00  0.00    -0.076 C  
HETATM   17  C   UNL     1      -8.648  10.800  66.385  1.00  0.00    -0.158 C  
HETATM   18  C   UNL     1      -6.319  11.501  66.535  1.00  0.00    -0.054 C  
HETATM   19  O   UNL     1      -9.520  10.249  65.715  1.00  0.00    -0.178 OA 
ENDBRANCH   8  11
BRANCH   9  20
HETATM   20  O   UNL     1     -10.982   9.429  69.251  1.00  0.00    -0.208 OA 
BRANCH  20  21
HETATM   21  C   UNL     1     -10.418   8.437  69.985  1.00  0.00    -0.224 C  
HETATM   22  C   UNL     1      -9.211   8.946  70.717  1.00  0.00    -0.272 C  
HETATM   23  O   UNL     1     -10.820   7.285  70.046  1.00  0.00    -0.244 OA 
ENDBRANCH  20  21
ENDBRANCH   9  20
BRANCH  10  24
HETATM   24  O   UNL     1     -12.765  10.959  70.331  1.00  0.00    -0.309 OA 
BRANCH  24  25
HETATM   25  C   UNL     1     -13.279  10.899  71.586  1.00  0.00    -0.367 C  
HETATM   26  O   UNL     1     -13.492  11.857  72.314  1.00  0.00    -0.442 OA 
HETATM   27  C   UNL     1     -13.508   9.470  71.983  1.00  0.00    -0.522 C  
ENDBRANCH  24  25
ENDBRANCH  10  24
ENDBRANCH   5   6
ENDBRANCH   4   5
ENDBRANCH   2   4
TORSDOF 8
ENDMDL
MODEL       58
REMARK 921   NORMALIZED FREE ENERGY PREDICTED BY IDOCK:   -4.86 KCAL/MOL
REMARK 922        TOTAL FREE ENERGY PREDICTED BY IDOCK:   -8.54 KCAL/MOL
REMARK 923 INTER-LIGAND FREE ENERGY PREDICTED BY IDOCK:   -7.80 KCAL/MOL
REMARK 924 INTRA-LIGAND FREE ENERGY PREDICTED BY IDOCK:   -0.74 KCAL/MOL
REMARK 927      BINDING AFFINITY PREDICTED BY RF-SCORE:    0.00 PKD
ROOT
HETATM    1  C   UNL     1      -5.364  16.682  69.069  1.00  0.00    -0.128 C  
HETATM    2  C   UNL     1      -6.622  16.938  68.298  1.00  0.00    -0.147 C  
HETATM    3  O   UNL     1      -7.309  17.943  68.408  1.00  0.00    -0.239 OA 
ENDROOT
BRANCH   2   4
HETATM    4  O   UNL     1      -6.886  15.892  67.469  1.00  0.00    -0.150 OA 
BRANCH   4   5
HETATM    5  C   UNL     1      -7.797  14.918  67.988  1.00  0.00    -0.127 C  
BRANCH   5   6
HETATM    6  C   UNL     1      -8.976  14.649  67.051  1.00  0.00    -0.240 C  
HETATM    7  O   UNL     1      -8.881  13.295  66.598  1.00  0.00    -0.173 OA 
HETATM    8  C   UNL     1     -10.211  12.855  66.301  1.00  0.00    -0.278 C  
HETATM    9  C   UNL     1     -11.150  13.586  67.271  1.00  0.00    -0.286 C  
HETATM   10  C   UNL     1     -10.349  14.821  67.708  1.00  0.00    -0.244 C  
BRANCH   8  11
HETATM   11  N   UNL     1     -10.260  11.393  66.393  1.00  0.00    -0.223 N  
HETATM   12  N   UNL     1      -9.901   9.301  65.416  1.00  0.00    -0.444 N  
HETATM   13  C   UNL     1     -10.628  10.765  67.570  1.00  0.00    -0.237 C  
HETATM   14  O   UNL     1     -10.004   7.410  66.685  1.00  0.00    -0.221 OA 
HETATM   15  H   UNL     1      -9.697   8.744  64.587  1.00  0.00     0.000 HD 
HETATM   16  C   UNL     1     -10.588   9.440  67.712  1.00  0.00    -0.317 C  
HETATM   17  C   UNL     1      -9.905  10.665  65.266  1.00  0.00    -0.275 C  
HETATM   18  C   UNL     1     -10.146   8.622  66.573  1.00  0.00    -0.269 C  
HETATM   19  O   UNL     1      -9.589  11.173  64.193  1.00  0.00    -0.236 OA 
ENDBRANCH   8  11
BRANCH   9  20
HETATM   20  O   UNL     1     -12.370  13.963  66.602  1.00  0.00    -0.435 OA 
BRANCH  20  21
HETATM   21  C   UNL     1     -12.526  13.559  65.316  1.00  0.00    -0.482 C  
HETATM   22  C   UNL     1     -12.096  14.639  64.368  1.00  0.00    -0.481 C  
HETATM   23  O   UNL     1     -12.962  12.473  64.964  1.00  0.00    -0.779 OA 
ENDBRANCH  20  21
ENDBRANCH   9  20
BRANCH  10  24
HETATM   24  O   UNL     1     -10.953  16.037  67.218  1.00  0.00    -0.300 OA 
BRANCH  24  25
HETATM   25  C   UNL     1     -10.759  17.168  67.944  1.00  0.00    -0.355 C  
HETATM   26  O   UNL     1     -10.696  18.301  67.491  1.00  0.00    -0.419 OA 
HETATM   27  C   UNL     1     -10.580  16.828  69.394  1.00  0.00    -0.318 C  
ENDBRANCH  24  25
ENDBRANCH  10  24
ENDBRANCH   5   6
ENDBRANCH   4   5
ENDBRANCH   2   4
TORSDOF 8
ENDMDL
MODEL       59
REMARK 921   NORMALIZED FREE ENERGY PREDICTED BY IDOCK:   -4.84 KCAL/MOL
REMARK 922        TOTAL FREE ENERGY PREDICTED BY IDOCK:   -8.51 KCAL/MOL
REMARK 923 INTER-LIGAND FREE ENERGY PREDICTED BY IDOCK:   -7.02 KCAL/MOL
REMARK 924 INTRA-LIGAND FREE ENERGY PREDICTED BY IDOCK:   -1.49 KCAL/MOL
REMARK 927      BINDING AFFINITY PREDICTED BY RF-SCORE:    0.00 PKD
ROOT
HETATM    1  C   UNL     1      -7.332  12.988  67.928  1.00  0.00    -0.128 C  
HETATM    2  C   UNL     1      -8.476  13.308  67.017  1.00  0.00    -0.128 C  
HETATM    3  O   UNL     1      -8.857  14.438  66.753  1.00  0.00    -0.239 OA 
ENDROOT
BRANCH   2   4
HETATM    4  O   UNL     1      -9.028  12.160  66.536  1.00  0.00    -0.208 OA 
BRANCH   4   5
HETATM    5  C   UNL     1      -8.876  11.013  67.378  1.00  0.00    -0.138 C  
BRANCH   5   6
HETATM    6  C   UNL     1     -10.211  10.484  67.907  1.00  0.00    -0.183 C  
HETATM    7  O   UNL     1      -9.957   9.263  68.609  1.00  0.00    -0.168 OA 
HETATM    8  C   UNL     1     -10.982   9.125  69.600  1.00  0.00    -0.153 C  
HETATM    9  C   UNL     1     -11.371  10.544  70.042  1.00  0.00    -0.318 C  
HETATM   10  C   UNL     1     -10.922  11.435  68.874  1.00  0.00    -0.226 C  
BRANCH   8  11
HETATM   11  N   UNL     1     -10.488   8.267  70.680  1.00  0.00    -0.200 N  
HETATM   12  N   UNL     1     -10.269   6.138  71.620  1.00  0.00    -0.194 N  
HETATM   13  C   UNL     1      -9.715   8.783  71.704  1.00  0.00    -0.296 C  
HETATM   14  O   UNL     1      -8.860   5.801  73.379  1.00  0.00    -0.124 OA 
HETATM   15  H   UNL     1     -10.533   5.154  71.631  1.00  0.00     0.000 HD 
HETATM   16  C   UNL     1      -9.172   8.011  72.645  1.00  0.00    -0.304 C  
HETATM   17  C   UNL     1     -10.807   6.917  70.626  1.00  0.00    -0.245 C  
HETATM   18  C   UNL     1      -9.413   6.561  72.593  1.00  0.00    -0.147 C  
HETATM   19  O   UNL     1     -11.504   6.411  69.749  1.00  0.00    -0.412 OA 
ENDBRANCH   8  11
BRANCH   9  20
HETATM   20  O   UNL     1     -12.793  10.633  70.252  1.00  0.00    -0.302 OA 
BRANCH  20  21
HETATM   21  C   UNL     1     -13.227  10.803  71.526  1.00  0.00    -0.334 C  
HETATM   22  C   UNL     1     -13.579   9.482  72.143  1.00  0.00    -0.500 C  
HETATM   23  O   UNL     1     -13.328  11.876  72.101  1.00  0.00    -0.503 OA 
ENDBRANCH  20  21
ENDBRANCH   9  20
BRANCH  10  24
HETATM   24  O   UNL     1     -12.054  12.026  68.202  1.00  0.00    -0.480 OA 
BRANCH  24  25
HETATM   25  C   UNL     1     -12.009  13.361  67.957  1.00  0.00    -0.322 C  
HETATM   26  O   UNL     1     -11.848  14.233  68.798  1.00  0.00    -0.316 OA 
HETATM   27  C   UNL     1     -12.237  13.627  66.499  1.00  0.00    -0.454 C  
ENDBRANCH  24  25
ENDBRANCH  10  24
ENDBRANCH   5   6
ENDBRANCH   4   5
ENDBRANCH   2   4
TORSDOF 8
ENDMDL
MODEL       60
REMARK 921   NORMALIZED FREE ENERGY PREDICTED BY IDOCK:   -4.83 KCAL/MOL
REMARK 922        TOTAL FREE ENERGY PREDICTED BY IDOCK:   -8.49 KCAL/MOL
REMARK 923 INTER-LIGAND FREE ENERGY PREDICTED BY IDOCK:   -7.20 KCAL/MOL
REMARK 924 INTRA-LIGAND FREE ENERGY PREDICTED BY IDOCK:   -1.29 KCAL/MOL
REMARK 927      BINDING AFFINITY PREDICTED BY RF-SCORE:    0.00 PKD
ROOT
HETATM    1  C   UNL     1     -12.531   7.706  72.230  1.00  0.00    -0.184 C  
HETATM    2  C   UNL     1     -11.623   8.801  71.764  1.00  0.00    -0.346 C  
HETATM    3  O   UNL     1     -10.448   8.908  72.079  1.00  0.00    -0.338 OA 
ENDROOT
BRANCH   2   4
HETATM    4  O   UNL     1     -12.300   9.655  70.948  1.00  0.00    -0.299 OA 
BRANCH   4   5
HETATM    5  C   UNL     1     -11.490  10.628  70.280  1.00  0.00    -0.337 C  
BRANCH   5   6
HETATM    6  C   UNL     1     -10.952  10.131  68.936  1.00  0.00    -0.223 C  
HETATM    7  O   UNL     1     -11.685  10.786  67.896  1.00  0.00    -0.543 OA 
HETATM    8  C   UNL     1     -10.826  10.854  66.753  1.00  0.00    -0.224 C  
HETATM    9  C   UNL     1      -9.389  10.979  67.280  1.00  0.00    -0.156 C  
HETATM   10  C   UNL     1      -9.466  10.425  68.711  1.00  0.00    -0.175 C  
BRANCH   8  11
HETATM   11  N   UNL     1     -11.257  11.963  65.898  1.00  0.00    -0.331 N  
HETATM   12  N   UNL     1     -11.512  12.878  63.762  1.00  0.00    -0.469 N  
HETATM   13  C   UNL     1     -11.886  13.074  66.433  1.00  0.00    -0.405 C  
HETATM   14  O   UNL     1     -12.748  14.770  63.465  1.00  0.00    -0.593 OA 
HETATM   15  H   UNL     1     -11.310  12.843  62.763  1.00  0.00     0.000 HD 
HETATM   16  C   UNL     1     -12.376  14.051  65.670  1.00  0.00    -0.502 C  
HETATM   17  C   UNL     1     -11.032  11.849  64.533  1.00  0.00    -0.322 C  
HETATM   18  C   UNL     1     -12.233  13.945  64.210  1.00  0.00    -0.408 C  
HETATM   19  O   UNL     1     -10.463  10.894  64.009  1.00  0.00    -0.364 OA 
ENDBRANCH   8  11
BRANCH   9  20
HETATM   20  O   UNL     1      -8.485  10.205  66.467  1.00  0.00    -0.125 OA 
BRANCH  20  21
HETATM   21  C   UNL     1      -7.334  10.804  66.071  1.00  0.00    -0.114 C  
HETATM   22  C   UNL     1      -6.826  10.183  64.804  1.00  0.00    -0.121 C  
HETATM   23  O   UNL     1      -6.773  11.717  66.659  1.00  0.00    -0.115 OA 
ENDBRANCH  20  21
ENDBRANCH   9  20
BRANCH  10  24
HETATM   24  O   UNL     1      -8.722   9.195  68.835  1.00  0.00    -0.129 OA 
BRANCH  24  25
HETATM   25  C   UNL     1      -7.636   9.201  69.650  1.00  0.00    -0.080 C  
HETATM   26  O   UNL     1      -7.401  10.031  70.515  1.00  0.00    -0.261 OA 
HETATM   27  C   UNL     1      -6.725   8.059  69.307  1.00  0.00    -0.040 C  
ENDBRANCH  24  25
ENDBRANCH  10  24
ENDBRANCH   5   6
ENDBRANCH   4   5
ENDBRANCH   2   4
TORSDOF 8
ENDMDL
MODEL       61
REMARK 921   NORMALIZED FREE ENERGY PREDICTED BY IDOCK:   -4.77 KCAL/MOL
REMARK 922        TOTAL FREE ENERGY PREDICTED BY IDOCK:   -8.41 KCAL/MOL
REMARK 923 INTER-LIGAND FREE ENERGY PREDICTED BY IDOCK:   -7.10 KCAL/MOL
REMARK 924 INTRA-LIGAND FREE ENERGY PREDICTED BY IDOCK:   -1.30 KCAL/MOL
REMARK 927      BINDING AFFINITY PREDICTED BY RF-SCORE:    0.00 PKD
ROOT
HETATM    1  C   UNL     1     -11.112  12.265  63.614  1.00  0.00    -0.537 C  
HETATM    2  C   UNL     1     -10.689  13.042  64.821  1.00  0.00    -0.352 C  
HETATM    3  O   UNL     1     -10.450  14.241  64.824  1.00  0.00    -0.431 OA 
ENDROOT
BRANCH   2   4
HETATM    4  O   UNL     1     -10.605  12.221  65.903  1.00  0.00    -0.244 OA 
BRANCH   4   5
HETATM    5  C   UNL     1     -11.345  12.648  67.051  1.00  0.00    -0.323 C  
BRANCH   5   6
HETATM    6  C   UNL     1     -11.706  11.493  67.988  1.00  0.00    -0.273 C  
HETATM    7  O   UNL     1     -11.109  10.300  67.471  1.00  0.00    -0.311 OA 
HETATM    8  C   UNL     1     -10.877   9.428  68.583  1.00  0.00    -0.109 C  
HETATM    9  C   UNL     1     -10.586  10.322  69.798  1.00  0.00    -0.271 C  
HETATM   10  C   UNL     1     -11.208  11.675  69.425  1.00  0.00    -0.246 C  
BRANCH   8  11
HETATM   11  N   UNL     1      -9.799   8.497  68.242  1.00  0.00    -0.163 N  
HETATM   12  N   UNL     1      -9.045   6.301  67.972  1.00  0.00    -0.113 N  
HETATM   13  C   UNL     1      -8.574   8.958  67.793  1.00  0.00    -0.125 C  
HETATM   14  O   UNL     1      -7.040   5.892  66.968  1.00  0.00    -0.067 OA 
HETATM   15  H   UNL     1      -9.192   5.301  68.105  1.00  0.00     0.000 HD 
HETATM   16  C   UNL     1      -7.610   8.133  67.383  1.00  0.00    -0.101 C  
HETATM   17  C   UNL     1     -10.058   7.139  68.366  1.00  0.00    -0.168 C  
HETATM   18  C   UNL     1      -7.858   6.684  67.420  1.00  0.00    -0.113 C  
HETATM   19  O   UNL     1     -11.121   6.678  68.777  1.00  0.00    -0.263 OA 
ENDBRANCH   8  11
BRANCH   9  20
HETATM   20  O   UNL     1     -11.197   9.774  70.983  1.00  0.00    -0.330 OA 
BRANCH  20  21
HETATM   21  C   UNL     1     -10.413   9.025  71.800  1.00  0.00    -0.348 C  
HETATM   22  C   UNL     1     -11.254   8.131  72.662  1.00  0.00    -0.447 C  
HETATM   23  O   UNL     1      -9.192   9.068  71.842  1.00  0.00    -0.353 OA 
ENDBRANCH  20  21
ENDBRANCH   9  20
BRANCH  10  24
HETATM   24  O   UNL     1     -12.333  11.985  70.274  1.00  0.00    -0.270 OA 
BRANCH  24  25
HETATM   25  C   UNL     1     -12.419  13.250  70.761  1.00  0.00    -0.324 C  
HETATM   26  O   UNL     1     -11.819  14.221  70.326  1.00  0.00    -0.281 OA 
HETATM   27  C   UNL     1     -13.327  13.284  71.954  1.00  0.00    -0.540 C  
ENDBRANCH  24  25
ENDBRANCH  10  24
ENDBRANCH   5   6
ENDBRANCH   4   5
ENDBRANCH   2   4
TORSDOF 8
ENDMDL
MODEL       62
REMARK 921   NORMALIZED FREE ENERGY PREDICTED BY IDOCK:   -4.77 KCAL/MOL
REMARK 922        TOTAL FREE ENERGY PREDICTED BY IDOCK:   -8.40 KCAL/MOL
REMARK 923 INTER-LIGAND FREE ENERGY PREDICTED BY IDOCK:   -7.11 KCAL/MOL
REMARK 924 INTRA-LIGAND FREE ENERGY PREDICTED BY IDOCK:   -1.29 KCAL/MOL
REMARK 927      BINDING AFFINITY PREDICTED BY RF-SCORE:    0.00 PKD
ROOT
HETATM    1  C   UNL     1      -9.485  10.253  63.056  1.00  0.00    -0.331 C  
HETATM    2  C   UNL     1      -8.503   9.218  63.509  1.00  0.00    -0.197 C  
HETATM    3  O   UNL     1      -8.146   8.262  62.838  1.00  0.00    -0.161 OA 
ENDROOT
BRANCH   2   4
HETATM    4  O   UNL     1      -8.078   9.497  64.771  1.00  0.00    -0.117 OA 
BRANCH   4   5
HETATM    5  C   UNL     1      -9.044   9.274  65.803  1.00  0.00    -0.209 C  
BRANCH   5   6
HETATM    6  C   UNL     1      -9.092  10.409  66.827  1.00  0.00    -0.143 C  
HETATM    7  O   UNL     1      -9.256  11.640  66.117  1.00  0.00    -0.215 OA 
HETATM    8  C   UNL     1      -9.928  12.549  66.995  1.00  0.00    -0.214 C  
HETATM    9  C   UNL     1     -10.852  11.707  67.888  1.00  0.00    -0.210 C  
HETATM   10  C   UNL     1     -10.244  10.298  67.831  1.00  0.00    -0.183 C  
BRANCH   8  11
HETATM   11  N   UNL     1     -10.617  13.564  66.195  1.00  0.00    -0.286 N  
HETATM   12  N   UNL     1     -10.785  15.776  65.459  1.00  0.00    -0.375 N  
HETATM   13  C   UNL     1     -11.679  13.226  65.374  1.00  0.00    -0.343 C  
HETATM   14  O   UNL     1     -12.200  16.314  63.755  1.00  0.00    -0.923 OA 
HETATM   15  H   UNL     1     -10.499  16.751  65.540  1.00  0.00     0.000 HD 
HETATM   16  C   UNL     1     -12.260  14.109  64.562  1.00  0.00    -0.468 C  
HETATM   17  C   UNL     1     -10.155  14.871  66.275  1.00  0.00    -0.283 C  
HETATM   18  C   UNL     1     -11.760  15.491  64.549  1.00  0.00    -0.253 C  
HETATM   19  O   UNL     1      -9.229  15.227  67.001  1.00  0.00    -0.199 OA 
ENDBRANCH   8  11
BRANCH   9  20
HETATM   20  O   UNL     1     -10.857  12.221  69.234  1.00  0.00    -0.154 OA 
BRANCH  20  21
HETATM   21  C   UNL     1     -11.911  12.992  69.604  1.00  0.00    -0.319 C  
HETATM   22  C   UNL     1     -12.582  12.419  70.817  1.00  0.00    -0.298 C  
HETATM   23  O   UNL     1     -12.278  14.008  69.034  1.00  0.00    -0.346 OA 
ENDBRANCH  20  21
ENDBRANCH   9  20
BRANCH  10  24
HETATM   24  O   UNL     1      -9.710   9.906  69.113  1.00  0.00    -0.178 OA 
BRANCH  24  25
HETATM   25  C   UNL     1     -10.262   8.821  69.715  1.00  0.00    -0.202 C  
HETATM   26  O   UNL     1     -10.906   7.948  69.154  1.00  0.00    -0.164 OA 
HETATM   27  C   UNL     1     -10.012   8.867  71.194  1.00  0.00    -0.342 C  
ENDBRANCH  24  25
ENDBRANCH  10  24
ENDBRANCH   5   6
ENDBRANCH   4   5
ENDBRANCH   2   4
TORSDOF 8
ENDMDL
MODEL       63
REMARK 921   NORMALIZED FREE ENERGY PREDICTED BY IDOCK:   -4.76 KCAL/MOL
REMARK 922        TOTAL FREE ENERGY PREDICTED BY IDOCK:   -8.39 KCAL/MOL
REMARK 923 INTER-LIGAND FREE ENERGY PREDICTED BY IDOCK:   -7.83 KCAL/MOL
REMARK 924 INTRA-LIGAND FREE ENERGY PREDICTED BY IDOCK:   -0.56 KCAL/MOL
REMARK 927      BINDING AFFINITY PREDICTED BY RF-SCORE:    0.00 PKD
ROOT
HETATM    1  C   UNL     1     -13.294   9.790  72.177  1.00  0.00    -0.527 C  
HETATM    2  C   UNL     1     -13.005  11.195  71.750  1.00  0.00    -0.421 C  
HETATM    3  O   UNL     1     -13.488  12.190  72.269  1.00  0.00    -0.491 OA 
ENDROOT
BRANCH   2   4
HETATM    4  O   UNL     1     -12.136  11.198  70.702  1.00  0.00    -0.338 OA 
BRANCH   4   5
HETATM    5  C   UNL     1     -11.975   9.938  70.042  1.00  0.00    -0.009 C  
BRANCH   5   6
HETATM    6  C   UNL     1     -10.957   9.991  68.902  1.00  0.00    -0.207 C  
HETATM    7  O   UNL     1     -11.602  10.559  67.757  1.00  0.00    -0.462 OA 
HETATM    8  C   UNL     1     -10.587  11.193  66.971  1.00  0.00    -0.252 C  
HETATM    9  C   UNL     1      -9.516  11.701  67.949  1.00  0.00    -0.181 C  
HETATM   10  C   UNL     1      -9.721  10.843  69.206  1.00  0.00    -0.064 C  
BRANCH   8  11
HETATM   11  N   UNL     1     -11.203  12.236  66.148  1.00  0.00    -0.312 N  
HETATM   12  N   UNL     1     -12.207  14.340  65.984  1.00  0.00    -0.421 N  
HETATM   13  C   UNL     1     -11.268  12.113  64.772  1.00  0.00    -0.323 C  
HETATM   14  O   UNL     1     -12.552  15.290  63.940  1.00  0.00    -0.765 OA 
HETATM   15  H   UNL     1     -12.626  15.150  66.440  1.00  0.00     0.000 HD 
HETATM   16  C   UNL     1     -11.734  13.088  63.991  1.00  0.00    -0.497 C  
HETATM   17  C   UNL     1     -11.699  13.359  66.797  1.00  0.00    -0.385 C  
HETATM   18  C   UNL     1     -12.202  14.332  64.620  1.00  0.00    -0.454 C  
HETATM   19  O   UNL     1     -11.682  13.509  68.017  1.00  0.00    -0.318 OA 
ENDBRANCH   8  11
BRANCH   9  20
HETATM   20  O   UNL     1      -8.200  11.513  67.395  1.00  0.00    -0.136 OA 
BRANCH  20  21
HETATM   21  C   UNL     1      -7.393  12.602  67.320  1.00  0.00    -0.104 C  
HETATM   22  C   UNL     1      -8.172  13.854  67.594  1.00  0.00    -0.181 C  
HETATM   23  O   UNL     1      -6.199  12.580  67.059  1.00  0.00    -0.227 OA 
ENDBRANCH  20  21
ENDBRANCH   9  20
BRANCH  10  24
HETATM   24  O   UNL     1      -8.594   9.970  69.431  1.00  0.00    -0.149 OA 
BRANCH  24  25
HETATM   25  C   UNL     1      -8.670   9.110  70.480  1.00  0.00    -0.221 C  
HETATM   26  O   UNL     1      -8.921   9.418  71.635  1.00  0.00    -0.251 OA 
HETATM   27  C   UNL     1      -8.349   7.716  70.029  1.00  0.00    -0.134 C  
ENDBRANCH  24  25
ENDBRANCH  10  24
ENDBRANCH   5   6
ENDBRANCH   4   5
ENDBRANCH   2   4
TORSDOF 8
ENDMDL
MODEL       64
REMARK 921   NORMALIZED FREE ENERGY PREDICTED BY IDOCK:   -4.76 KCAL/MOL
REMARK 922        TOTAL FREE ENERGY PREDICTED BY IDOCK:   -8.39 KCAL/MOL
REMARK 923 INTER-LIGAND FREE ENERGY PREDICTED BY IDOCK:   -8.50 KCAL/MOL
REMARK 924 INTRA-LIGAND FREE ENERGY PREDICTED BY IDOCK:    0.12 KCAL/MOL
REMARK 927      BINDING AFFINITY PREDICTED BY RF-SCORE:    0.00 PKD
ROOT
HETATM    1  C   UNL     1      -8.759   9.782  67.143  1.00  0.00    -0.137 C  
HETATM    2  C   UNL     1      -9.897  10.125  66.232  1.00  0.00    -0.229 C  
HETATM    3  O   UNL     1      -9.970   9.789  65.060  1.00  0.00    -0.286 OA 
ENDROOT
BRANCH   2   4
HETATM    4  O   UNL     1     -10.825  10.865  66.898  1.00  0.00    -0.266 OA 
BRANCH   4   5
HETATM    5  C   UNL     1     -10.299  11.956  67.662  1.00  0.00    -0.200 C  
BRANCH   5   6
HETATM    6  C   UNL     1     -11.107  13.244  67.491  1.00  0.00    -0.270 C  
HETATM    7  O   UNL     1     -11.888  13.437  68.675  1.00  0.00    -0.329 OA 
HETATM    8  C   UNL     1     -12.103  14.845  68.814  1.00  0.00    -0.177 C  
HETATM    9  C   UNL     1     -10.866  15.546  68.231  1.00  0.00    -0.292 C  
HETATM   10  C   UNL     1     -10.250  14.497  67.293  1.00  0.00    -0.255 C  
BRANCH   8  11
HETATM   11  N   UNL     1     -12.367  15.150  70.222  1.00  0.00    -0.341 N  
HETATM   12  N   UNL     1     -11.573  15.767  72.332  1.00  0.00    -0.438 N  
HETATM   13  C   UNL     1     -13.660  15.186  70.714  1.00  0.00    -0.245 C  
HETATM   14  O   UNL     1     -13.034  16.362  73.978  1.00  0.00    -0.698 OA 
HETATM   15  H   UNL     1     -10.787  15.918  72.964  1.00  0.00     0.000 HD 
HETATM   16  C   UNL     1     -13.936  15.555  71.965  1.00  0.00    -0.599 C  
HETATM   17  C   UNL     1     -11.277  15.422  71.038  1.00  0.00    -0.364 C  
HETATM   18  C   UNL     1     -12.824  15.928  72.852  1.00  0.00    -0.486 C  
HETATM   19  O   UNL     1     -10.109  15.386  70.656  1.00  0.00    -0.017 OA 
ENDBRANCH   8  11
BRANCH   9  20
HETATM   20  O   UNL     1     -11.253  16.732  67.510  1.00  0.00    -0.113 OA 
BRANCH  20  21
HETATM   21  C   UNL     1     -10.578  17.877  67.784  1.00  0.00    -0.389 C  
HETATM   22  C   UNL     1     -10.444  18.718  66.549  1.00  0.00    -0.484 C  
HETATM   23  O   UNL     1     -10.130  18.189  68.878  1.00  0.00    -0.381 OA 
ENDBRANCH  20  21
ENDBRANCH   9  20
BRANCH  10  24
HETATM   24  O   UNL     1     -10.341  14.913  65.914  1.00  0.00    -0.281 OA 
BRANCH  24  25
HETATM   25  C   UNL     1     -10.900  14.043  65.034  1.00  0.00    -0.392 C  
HETATM   26  O   UNL     1     -10.299  13.189  64.400  1.00  0.00    -0.402 OA 
HETATM   27  C   UNL     1     -12.371  14.310  64.907  1.00  0.00    -0.435 C  
ENDBRANCH  24  25
ENDBRANCH  10  24
ENDBRANCH   5   6
ENDBRANCH   4   5
ENDBRANCH   2   4
TORSDOF 8
ENDMDL
MODEL       65
REMARK 921   NORMALIZED FREE ENERGY PREDICTED BY IDOCK:   -4.71 KCAL/MOL
REMARK 922        TOTAL FREE ENERGY PREDICTED BY IDOCK:   -8.31 KCAL/MOL
REMARK 923 INTER-LIGAND FREE ENERGY PREDICTED BY IDOCK:   -7.54 KCAL/MOL
REMARK 924 INTRA-LIGAND FREE ENERGY PREDICTED BY IDOCK:   -0.77 KCAL/MOL
REMARK 927      BINDING AFFINITY PREDICTED BY RF-SCORE:    0.00 PKD
ROOT
HETATM    1  C   UNL     1     -13.152  10.183  71.847  1.00  0.00    -0.571 C  
HETATM    2  C   UNL     1     -11.968  10.276  70.936  1.00  0.00    -0.375 C  
HETATM    3  O   UNL     1     -10.888   9.745  71.148  1.00  0.00    -0.334 OA 
ENDROOT
BRANCH   2   4
HETATM    4  O   UNL     1     -12.271  11.037  69.849  1.00  0.00    -0.325 OA 
BRANCH   4   5
HETATM    5  C   UNL     1     -11.878  12.410  69.940  1.00  0.00    -0.305 C  
BRANCH   5   6
HETATM    6  C   UNL     1     -11.090  12.884  68.717  1.00  0.00    -0.263 C  
HETATM    7  O   UNL     1      -9.988  11.992  68.526  1.00  0.00    -0.209 OA 
HETATM    8  C   UNL     1      -9.670  12.005  67.130  1.00  0.00    -0.197 C  
HETATM    9  C   UNL     1     -10.985  12.246  66.374  1.00  0.00    -0.287 C  
HETATM   10  C   UNL     1     -11.902  12.901  67.418  1.00  0.00    -0.360 C  
BRANCH   8  11
HETATM   11  N   UNL     1      -8.990  10.755  66.784  1.00  0.00    -0.146 N  
HETATM   12  N   UNL     1      -7.005   9.558  66.483  1.00  0.00    -0.084 N  
HETATM   13  C   UNL     1      -9.708   9.601  66.525  1.00  0.00    -0.212 C  
HETATM   14  O   UNL     1      -7.059   7.295  66.223  1.00  0.00    -0.073 OA 
HETATM   15  H   UNL     1      -5.989   9.553  66.396  1.00  0.00     0.000 HD 
HETATM   16  C   UNL     1      -9.115   8.428  66.304  1.00  0.00    -0.241 C  
HETATM   17  C   UNL     1      -7.603  10.765  66.746  1.00  0.00    -0.129 C  
HETATM   18  C   UNL     1      -7.646   8.365  66.328  1.00  0.00    -0.086 C  
HETATM   19  O   UNL     1      -6.919  11.766  66.949  1.00  0.00    -0.142 OA 
ENDBRANCH   8  11
BRANCH   9  20
HETATM   20  O   UNL     1     -10.766  13.118  65.249  1.00  0.00    -0.289 OA 
BRANCH  20  21
HETATM   21  C   UNL     1     -11.332  12.765  64.067  1.00  0.00    -0.413 C  
HETATM   22  C   UNL     1     -10.551  11.661  63.418  1.00  0.00    -0.472 C  
HETATM   23  O   UNL     1     -12.333  13.272  63.583  1.00  0.00    -0.665 OA 
ENDBRANCH  20  21
ENDBRANCH   9  20
BRANCH  10  24
HETATM   24  O   UNL     1     -12.197  14.270  67.068  1.00  0.00    -0.424 OA 
BRANCH  24  25
HETATM   25  C   UNL     1     -11.598  15.245  67.799  1.00  0.00    -0.265 C  
HETATM   26  O   UNL     1     -11.968  15.641  68.894  1.00  0.00    -0.367 OA 
HETATM   27  C   UNL     1     -10.433  15.813  67.045  1.00  0.00    -0.309 C  
ENDBRANCH  24  25
ENDBRANCH  10  24
ENDBRANCH   5   6
ENDBRANCH   4   5
ENDBRANCH   2   4
TORSDOF 8
ENDMDL
MODEL       66
REMARK 921   NORMALIZED FREE ENERGY PREDICTED BY IDOCK:   -4.69 KCAL/MOL
REMARK 922        TOTAL FREE ENERGY PREDICTED BY IDOCK:   -8.30 KCAL/MOL
REMARK 923 INTER-LIGAND FREE ENERGY PREDICTED BY IDOCK:   -7.17 KCAL/MOL
REMARK 924 INTRA-LIGAND FREE ENERGY PREDICTED BY IDOCK:   -1.13 KCAL/MOL
REMARK 927      BINDING AFFINITY PREDICTED BY RF-SCORE:    0.00 PKD
ROOT
HETATM    1  C   UNL     1      -9.075   8.924  68.466  1.00  0.00    -0.137 C  
HETATM    2  C   UNL     1      -9.520   8.791  67.043  1.00  0.00    -0.169 C  
HETATM    3  O   UNL     1     -10.032   7.788  66.569  1.00  0.00    -0.230 OA 
ENDROOT
BRANCH   2   4
HETATM    4  O   UNL     1      -9.265   9.942  66.362  1.00  0.00    -0.149 OA 
BRANCH   4   5
HETATM    5  C   UNL     1      -8.895  11.060  67.175  1.00  0.00    -0.140 C  
BRANCH   5   6
HETATM    6  C   UNL     1      -9.992  12.123  67.257  1.00  0.00    -0.203 C  
HETATM    7  O   UNL     1      -9.486  13.225  68.017  1.00  0.00    -0.206 OA 
HETATM    8  C   UNL     1     -10.172  14.399  67.569  1.00  0.00    -0.240 C  
HETATM    9  C   UNL     1     -10.487  14.191  66.080  1.00  0.00    -0.296 C  
HETATM   10  C   UNL     1     -10.440  12.667  65.897  1.00  0.00    -0.274 C  
BRANCH   8  11
HETATM   11  N   UNL     1      -9.346  15.573  67.858  1.00  0.00    -0.192 N  
HETATM   12  N   UNL     1      -9.166  17.762  68.658  1.00  0.00    -0.282 N  
HETATM   13  C   UNL     1      -7.975  15.543  67.675  1.00  0.00    -0.151 C  
HETATM   14  O   UNL     1      -7.114  18.683  69.025  1.00  0.00    -0.295 OA 
HETATM   15  H   UNL     1      -9.618  18.624  68.962  1.00  0.00     0.000 HD 
HETATM   16  C   UNL     1      -7.188  16.562  68.021  1.00  0.00    -0.152 C  
HETATM   17  C   UNL     1      -9.985  16.708  68.338  1.00  0.00    -0.255 C  
HETATM   18  C   UNL     1      -7.804  17.761  68.607  1.00  0.00    -0.278 C  
HETATM   19  O   UNL     1     -11.200  16.794  68.501  1.00  0.00    -0.319 OA 
ENDBRANCH   8  11
BRANCH   9  20
HETATM   20  O   UNL     1     -11.791  14.716  65.764  1.00  0.00    -0.346 OA 
BRANCH  20  21
HETATM   21  C   UNL     1     -11.905  15.473  64.643  1.00  0.00    -0.171 C  
HETATM   22  C   UNL     1     -10.979  16.652  64.708  1.00  0.00    -0.123 C  
HETATM   23  O   UNL     1     -12.656  15.242  63.708  1.00  0.00    -0.733 OA 
ENDBRANCH  20  21
ENDBRANCH   9  20
BRANCH  10  24
HETATM   24  O   UNL     1     -11.746  12.137  65.587  1.00  0.00    -0.375 OA 
BRANCH  24  25
HETATM   25  C   UNL     1     -12.047  11.940  64.278  1.00  0.00    -0.249 C  
HETATM   26  O   UNL     1     -13.137  12.137  63.762  1.00  0.00    -0.774 OA 
HETATM   27  C   UNL     1     -10.854  11.395  63.550  1.00  0.00    -0.430 C  
ENDBRANCH  24  25
ENDBRANCH  10  24
ENDBRANCH   5   6
ENDBRANCH   4   5
ENDBRANCH   2   4
TORSDOF 8
ENDMDL
MODEL       67
REMARK 921   NORMALIZED FREE ENERGY PREDICTED BY IDOCK:   -4.69 KCAL/MOL
REMARK 922        TOTAL FREE ENERGY PREDICTED BY IDOCK:   -8.29 KCAL/MOL
REMARK 923 INTER-LIGAND FREE ENERGY PREDICTED BY IDOCK:   -8.10 KCAL/MOL
REMARK 924 INTRA-LIGAND FREE ENERGY PREDICTED BY IDOCK:   -0.19 KCAL/MOL
REMARK 927      BINDING AFFINITY PREDICTED BY RF-SCORE:    0.00 PKD
ROOT
HETATM    1  C   UNL     1     -12.678  11.895  63.419  1.00  0.00    -0.496 C  
HETATM    2  C   UNL     1     -11.301  12.132  63.956  1.00  0.00    -0.395 C  
HETATM    3  O   UNL     1     -10.300  12.254  63.266  1.00  0.00    -0.413 OA 
ENDROOT
BRANCH   2   4
HETATM    4  O   UNL     1     -11.330  12.185  65.316  1.00  0.00    -0.324 OA 
BRANCH   4   5
HETATM    5  C   UNL     1     -12.388  12.972  65.871  1.00  0.00    -0.368 C  
BRANCH   5   6
HETATM    6  C   UNL     1     -11.898  14.293  66.465  1.00  0.00    -0.415 C  
HETATM    7  O   UNL     1     -12.528  14.469  67.738  1.00  0.00    -0.083 OA 
HETATM    8  C   UNL     1     -11.651  15.270  68.537  1.00  0.00    -0.352 C  
HETATM    9  C   UNL     1     -10.217  14.937  68.098  1.00  0.00    -0.226 C  
HETATM   10  C   UNL     1     -10.383  14.356  66.686  1.00  0.00    -0.275 C  
BRANCH   8  11
HETATM   11  N   UNL     1     -11.929  15.015  69.952  1.00  0.00    -0.314 N  
HETATM   12  N   UNL     1     -11.960  15.764  72.166  1.00  0.00    -0.435 N  
HETATM   13  C   UNL     1     -12.495  13.821  70.363  1.00  0.00    -0.314 C  
HETATM   14  O   UNL     1     -13.009  14.539  73.776  1.00  0.00    -0.445 OA 
HETATM   15  H   UNL     1     -11.696  16.464  72.858  1.00  0.00     0.000 HD 
HETATM   16  C   UNL     1     -12.848  13.600  71.630  1.00  0.00    -0.427 C  
HETATM   17  C   UNL     1     -11.623  16.019  70.860  1.00  0.00    -0.418 C  
HETATM   18  C   UNL     1     -12.617  14.660  72.622  1.00  0.00    -0.334 C  
HETATM   19  O   UNL     1     -11.102  17.089  70.550  1.00  0.00     0.093 OA 
ENDBRANCH   8  11
BRANCH   9  20
HETATM   20  O   UNL     1      -9.406  16.127  68.083  1.00  0.00    -0.198 OA 
BRANCH  20  21
HETATM   21  C   UNL     1      -8.330  16.161  68.909  1.00  0.00    -0.233 C  
HETATM   22  C   UNL     1      -7.449  17.329  68.579  1.00  0.00    -0.241 C  
HETATM   23  O   UNL     1      -8.096  15.354  69.797  1.00  0.00    -0.207 OA 
ENDBRANCH  20  21
ENDBRANCH   9  20
BRANCH  10  24
HETATM   24  O   UNL     1      -9.800  15.224  65.692  1.00  0.00    -0.333 OA 
BRANCH  24  25
HETATM   25  C   UNL     1     -10.562  16.252  65.235  1.00  0.00    -0.336 C  
HETATM   26  O   UNL     1     -10.585  17.381  65.701  1.00  0.00    -0.534 OA 
HETATM   27  C   UNL     1     -11.420  15.791  64.095  1.00  0.00    -0.079 C  
ENDBRANCH  24  25
ENDBRANCH  10  24
ENDBRANCH   5   6
ENDBRANCH   4   5
ENDBRANCH   2   4
TORSDOF 8
ENDMDL
MODEL       68
REMARK 921   NORMALIZED FREE ENERGY PREDICTED BY IDOCK:   -4.67 KCAL/MOL
REMARK 922        TOTAL FREE ENERGY PREDICTED BY IDOCK:   -8.25 KCAL/MOL
REMARK 923 INTER-LIGAND FREE ENERGY PREDICTED BY IDOCK:   -7.50 KCAL/MOL
REMARK 924 INTRA-LIGAND FREE ENERGY PREDICTED BY IDOCK:   -0.75 KCAL/MOL
REMARK 927      BINDING AFFINITY PREDICTED BY RF-SCORE:    0.00 PKD
ROOT
HETATM    1  C   UNL     1     -10.637  12.036  63.457  1.00  0.00    -0.514 C  
HETATM    2  C   UNL     1     -11.901  12.719  63.877  1.00  0.00    -0.468 C  
HETATM    3  O   UNL     1     -12.476  13.574  63.220  1.00  0.00    -0.763 OA 
ENDROOT
BRANCH   2   4
HETATM    4  O   UNL     1     -12.305  12.254  65.090  1.00  0.00    -0.520 OA 
BRANCH   4   5
HETATM    5  C   UNL     1     -12.267  13.211  66.153  1.00  0.00    -0.385 C  
BRANCH   5   6
HETATM    6  C   UNL     1     -11.394  12.761  67.326  1.00  0.00    -0.314 C  
HETATM    7  O   UNL     1     -11.709  11.395  67.614  1.00  0.00    -0.546 OA 
HETATM    8  C   UNL     1     -10.539  10.804  68.192  1.00  0.00    -0.203 C  
HETATM    9  C   UNL     1      -9.327  11.505  67.561  1.00  0.00    -0.166 C  
HETATM   10  C   UNL     1      -9.889  12.841  67.053  1.00  0.00    -0.231 C  
BRANCH   8  11
HETATM   11  N   UNL     1     -10.582   9.356  67.979  1.00  0.00    -0.236 N  
HETATM   12  N   UNL     1     -10.379   7.524  66.542  1.00  0.00    -0.501 N  
HETATM   13  C   UNL     1     -10.778   8.485  69.037  1.00  0.00    -0.092 C  
HETATM   14  O   UNL     1     -10.306   5.407  67.384  1.00  0.00    -0.200 OA 
HETATM   15  H   UNL     1     -10.300   7.158  65.593  1.00  0.00     0.000 HD 
HETATM   16  C   UNL     1     -10.724   7.161  68.889  1.00  0.00    -0.199 C  
HETATM   17  C   UNL     1     -10.399   8.888  66.685  1.00  0.00    -0.223 C  
HETATM   18  C   UNL     1     -10.456   6.612  67.552  1.00  0.00    -0.239 C  
HETATM   19  O   UNL     1     -10.239   9.618  65.709  1.00  0.00    -0.261 OA 
ENDBRANCH   8  11
BRANCH   9  20
HETATM   20  O   UNL     1      -8.296  11.711  68.546  1.00  0.00    -0.152 OA 
BRANCH  20  21
HETATM   21  C   UNL     1      -7.732  10.608  69.100  1.00  0.00    -0.138 C  
HETATM   22  C   UNL     1      -7.004   9.810  68.059  1.00  0.00    -0.077 C  
HETATM   23  O   UNL     1      -7.805  10.293  70.278  1.00  0.00    -0.156 OA 
ENDBRANCH  20  21
ENDBRANCH   9  20
BRANCH  10  24
HETATM   24  O   UNL     1      -9.339  13.953  67.790  1.00  0.00    -0.191 OA 
BRANCH  24  25
HETATM   25  C   UNL     1      -8.625  14.874  67.092  1.00  0.00    -0.225 C  
HETATM   26  O   UNL     1      -7.407  14.970  67.081  1.00  0.00    -0.190 OA 
HETATM   27  C   UNL     1      -9.552  15.802  66.363  1.00  0.00    -0.311 C  
ENDBRANCH  24  25
ENDBRANCH  10  24
ENDBRANCH   5   6
ENDBRANCH   4   5
ENDBRANCH   2   4
TORSDOF 8
ENDMDL
MODEL       69
REMARK 921   NORMALIZED FREE ENERGY PREDICTED BY IDOCK:   -4.66 KCAL/MOL
REMARK 922        TOTAL FREE ENERGY PREDICTED BY IDOCK:   -8.24 KCAL/MOL
REMARK 923 INTER-LIGAND FREE ENERGY PREDICTED BY IDOCK:   -7.00 KCAL/MOL
REMARK 924 INTRA-LIGAND FREE ENERGY PREDICTED BY IDOCK:   -1.24 KCAL/MOL
REMARK 927      BINDING AFFINITY PREDICTED BY RF-SCORE:    0.00 PKD
ROOT
HETATM    1  C   UNL     1      -8.495   7.310  66.453  1.00  0.00    -0.129 C  
HETATM    2  C   UNL     1      -9.788   6.808  67.015  1.00  0.00    -0.167 C  
HETATM    3  O   UNL     1     -10.438   5.888  66.543  1.00  0.00    -0.221 OA 
ENDROOT
BRANCH   2   4
HETATM    4  O   UNL     1     -10.131   7.529  68.118  1.00  0.00    -0.170 OA 
BRANCH   4   5
HETATM    5  C   UNL     1      -9.033   8.084  68.848  1.00  0.00    -0.141 C  
BRANCH   5   6
HETATM    6  C   UNL     1      -9.420   9.331  69.646  1.00  0.00    -0.179 C  
HETATM    7  O   UNL     1      -9.643  10.398  68.719  1.00  0.00    -0.161 OA 
HETATM    8  C   UNL     1     -10.581  11.295  69.326  1.00  0.00    -0.148 C  
HETATM    9  C   UNL     1     -11.505  10.444  70.210  1.00  0.00    -0.325 C  
HETATM   10  C   UNL     1     -10.693   9.169  70.481  1.00  0.00    -0.238 C  
BRANCH   8  11
HETATM   11  N   UNL     1     -11.269  12.048  68.275  1.00  0.00    -0.239 N  
HETATM   12  N   UNL     1     -12.267  14.030  67.541  1.00  0.00    -0.535 N  
HETATM   13  C   UNL     1     -11.476  11.497  67.022  1.00  0.00    -0.214 C  
HETATM   14  O   UNL     1     -12.811  14.295  65.344  1.00  0.00    -0.588 OA 
HETATM   15  H   UNL     1     -12.631  14.958  67.752  1.00  0.00     0.000 HD 
HETATM   16  C   UNL     1     -12.011  12.192  66.018  1.00  0.00    -0.236 C  
HETATM   17  C   UNL     1     -11.687  13.337  68.574  1.00  0.00    -0.352 C  
HETATM   18  C   UNL     1     -12.402  13.589  66.258  1.00  0.00    -0.383 C  
HETATM   19  O   UNL     1     -11.545  13.866  69.675  1.00  0.00    -0.268 OA 
ENDBRANCH   8  11
BRANCH   9  20
HETATM   20  O   UNL     1     -11.811  11.141  71.434  1.00  0.00    -0.006 OA 
BRANCH  20  21
HETATM   21  C   UNL     1     -13.116  11.220  71.798  1.00  0.00    -0.422 C  
HETATM   22  C   UNL     1     -13.772   9.874  71.698  1.00  0.00    -0.243 C  
HETATM   23  O   UNL     1     -13.691  12.238  72.151  1.00  0.00    -0.376 OA 
ENDBRANCH  20  21
ENDBRANCH   9  20
BRANCH  10  24
HETATM   24  O   UNL     1     -10.330   9.067  71.874  1.00  0.00    -0.341 OA 
BRANCH  24  25
HETATM   25  C   UNL     1     -10.591   7.893  72.504  1.00  0.00    -0.315 C  
HETATM   26  O   UNL     1     -11.536   7.155  72.269  1.00  0.00    -0.258 OA 
HETATM   27  C   UNL     1      -9.573   7.646  73.578  1.00  0.00    -0.348 C  
ENDBRANCH  24  25
ENDBRANCH  10  24
ENDBRANCH   5   6
ENDBRANCH   4   5
ENDBRANCH   2   4
TORSDOF 8
ENDMDL
MODEL       70
REMARK 921   NORMALIZED FREE ENERGY PREDICTED BY IDOCK:   -4.65 KCAL/MOL
REMARK 922        TOTAL FREE ENERGY PREDICTED BY IDOCK:   -8.23 KCAL/MOL
REMARK 923 INTER-LIGAND FREE ENERGY PREDICTED BY IDOCK:   -7.25 KCAL/MOL
REMARK 924 INTRA-LIGAND FREE ENERGY PREDICTED BY IDOCK:   -0.99 KCAL/MOL
REMARK 927      BINDING AFFINITY PREDICTED BY RF-SCORE:    0.00 PKD
ROOT
HETATM    1  C   UNL     1      -5.978  18.311  69.231  1.00  0.00    -0.238 C  
HETATM    2  C   UNL     1      -6.454  18.108  67.826  1.00  0.00    -0.188 C  
HETATM    3  O   UNL     1      -5.810  18.396  66.828  1.00  0.00    -0.143 OA 
ENDROOT
BRANCH   2   4
HETATM    4  O   UNL     1      -7.702  17.565  67.827  1.00  0.00    -0.198 OA 
BRANCH   4   5
HETATM    5  C   UNL     1      -7.763  16.181  68.187  1.00  0.00    -0.141 C  
BRANCH   5   6
HETATM    6  C   UNL     1      -8.246  15.290  67.041  1.00  0.00    -0.233 C  
HETATM    7  O   UNL     1      -8.165  13.929  67.474  1.00  0.00    -0.163 OA 
HETATM    8  C   UNL     1      -9.158  13.195  66.749  1.00  0.00    -0.209 C  
HETATM    9  C   UNL     1     -10.325  14.159  66.489  1.00  0.00    -0.284 C  
HETATM   10  C   UNL     1      -9.692  15.553  66.611  1.00  0.00    -0.247 C  
BRANCH   8  11
HETATM   11  N   UNL     1      -9.518  11.998  67.512  1.00  0.00    -0.175 N  
HETATM   12  N   UNL     1      -9.109   9.764  68.066  1.00  0.00    -0.125 N  
HETATM   13  C   UNL     1     -10.541  12.026  68.443  1.00  0.00    -0.217 C  
HETATM   14  O   UNL     1     -10.190   8.803  69.827  1.00  0.00    -0.191 OA 
HETATM   15  H   UNL     1      -8.619   8.890  67.878  1.00  0.00     0.000 HD 
HETATM   16  C   UNL     1     -10.826  10.981  69.220  1.00  0.00    -0.285 C  
HETATM   17  C   UNL     1      -8.783  10.843  67.283  1.00  0.00    -0.131 C  
HETATM   18  C   UNL     1     -10.028   9.755  69.074  1.00  0.00    -0.184 C  
HETATM   19  O   UNL     1      -7.877  10.759  66.456  1.00  0.00    -0.132 OA 
ENDBRANCH   8  11
BRANCH   9  20
HETATM   20  O   UNL     1     -10.871  13.945  65.173  1.00  0.00    -0.320 OA 
BRANCH  20  21
HETATM   21  C   UNL     1     -11.712  12.893  65.010  1.00  0.00    -0.344 C  
HETATM   22  C   UNL     1     -11.567  12.311  63.635  1.00  0.00    -0.581 C  
HETATM   23  O   UNL     1     -12.490  12.473  65.854  1.00  0.00    -0.596 OA 
ENDBRANCH  20  21
ENDBRANCH   9  20
BRANCH  10  24
HETATM   24  O   UNL     1      -9.686  16.237  65.340  1.00  0.00    -0.473 OA 
BRANCH  24  25
HETATM   25  C   UNL     1     -10.670  17.145  65.114  1.00  0.00     0.004 C  
HETATM   26  O   UNL     1     -11.506  17.080  64.226  1.00  0.00    -1.124 OA 
HETATM   27  C   UNL     1     -10.559  18.281  66.087  1.00  0.00    -0.326 C  
ENDBRANCH  24  25
ENDBRANCH  10  24
ENDBRANCH   5   6
ENDBRANCH   4   5
ENDBRANCH   2   4
TORSDOF 8
ENDMDL
MODEL       71
REMARK 921   NORMALIZED FREE ENERGY PREDICTED BY IDOCK:   -4.64 KCAL/MOL
REMARK 922        TOTAL FREE ENERGY PREDICTED BY IDOCK:   -8.22 KCAL/MOL
REMARK 923 INTER-LIGAND FREE ENERGY PREDICTED BY IDOCK:   -7.90 KCAL/MOL
REMARK 924 INTRA-LIGAND FREE ENERGY PREDICTED BY IDOCK:   -0.33 KCAL/MOL
REMARK 927      BINDING AFFINITY PREDICTED BY RF-SCORE:    0.00 PKD
ROOT
HETATM    1  C   UNL     1     -12.152  12.744  63.477  1.00  0.00    -0.642 C  
HETATM    2  C   UNL     1     -11.017  11.904  63.974  1.00  0.00    -0.381 C  
HETATM    3  O   UNL     1     -10.033  11.607  63.313  1.00  0.00    -0.379 OA 
ENDROOT
BRANCH   2   4
HETATM    4  O   UNL     1     -11.247  11.518  65.259  1.00  0.00    -0.239 OA 
BRANCH   4   5
HETATM    5  C   UNL     1     -10.087  11.101  65.987  1.00  0.00    -0.244 C  
BRANCH   5   6
HETATM    6  C   UNL     1     -10.069  11.622  67.425  1.00  0.00    -0.198 C  
HETATM    7  O   UNL     1      -9.605  12.976  67.400  1.00  0.00    -0.201 OA 
HETATM    8  C   UNL     1     -10.177  13.639  68.533  1.00  0.00    -0.234 C  
HETATM    9  C   UNL     1     -11.546  12.990  68.787  1.00  0.00    -0.309 C  
HETATM   10  C   UNL     1     -11.439  11.616  68.110  1.00  0.00    -0.313 C  
BRANCH   8  11
HETATM   11  N   UNL     1     -10.228  15.079  68.266  1.00  0.00    -0.219 N  
HETATM   12  N   UNL     1     -10.860  16.849  66.878  1.00  0.00    -0.108 N  
HETATM   13  C   UNL     1      -9.767  15.993  69.198  1.00  0.00    -0.251 C  
HETATM   14  O   UNL     1     -10.747  18.996  67.633  1.00  0.00    -0.443 OA 
HETATM   15  H   UNL     1     -11.206  17.175  65.975  1.00  0.00     0.000 HD 
HETATM   16  C   UNL     1      -9.890  17.309  69.024  1.00  0.00    -0.237 C  
HETATM   17  C   UNL     1     -10.771  15.492  67.058  1.00  0.00    -0.321 C  
HETATM   18  C   UNL     1     -10.528  17.802  67.795  1.00  0.00    -0.397 C  
HETATM   19  O   UNL     1     -11.177  14.721  66.190  1.00  0.00    -0.333 OA 
ENDBRANCH   8  11
BRANCH   9  20
HETATM   20  O   UNL     1     -11.786  12.860  70.201  1.00  0.00    -0.311 OA 
BRANCH  20  21
HETATM   21  C   UNL     1     -12.657  13.733  70.769  1.00  0.00    -0.340 C  
HETATM   22  C   UNL     1     -13.295  13.125  71.984  1.00  0.00    -0.587 C  
HETATM   23  O   UNL     1     -12.901  14.857  70.357  1.00  0.00    -0.338 OA 
ENDBRANCH  20  21
ENDBRANCH   9  20
BRANCH  10  24
HETATM   24  O   UNL     1     -11.471  10.550  69.083  1.00  0.00    -0.257 OA 
BRANCH  24  25
HETATM   25  C   UNL     1     -10.316   9.872  69.305  1.00  0.00    -0.219 C  
HETATM   26  O   UNL     1      -9.328  10.316  69.871  1.00  0.00    -0.160 OA 
HETATM   27  C   UNL     1     -10.401   8.498  68.710  1.00  0.00    -0.233 C  
ENDBRANCH  24  25
ENDBRANCH  10  24
ENDBRANCH   5   6
ENDBRANCH   4   5
ENDBRANCH   2   4
TORSDOF 8
ENDMDL
MODEL       72
REMARK 921   NORMALIZED FREE ENERGY PREDICTED BY IDOCK:   -4.63 KCAL/MOL
REMARK 922        TOTAL FREE ENERGY PREDICTED BY IDOCK:   -8.20 KCAL/MOL
REMARK 923 INTER-LIGAND FREE ENERGY PREDICTED BY IDOCK:   -7.60 KCAL/MOL
REMARK 924 INTRA-LIGAND FREE ENERGY PREDICTED BY IDOCK:   -0.60 KCAL/MOL
REMARK 927      BINDING AFFINITY PREDICTED BY RF-SCORE:    0.00 PKD
ROOT
HETATM    1  C   UNL     1     -10.652   7.069  68.516  1.00  0.00    -0.235 C  
HETATM    2  C   UNL     1     -10.245   7.531  67.152  1.00  0.00    -0.280 C  
HETATM    3  O   UNL     1      -9.438   6.954  66.438  1.00  0.00    -0.171 OA 
ENDROOT
BRANCH   2   4
HETATM    4  O   UNL     1     -10.897   8.682  66.831  1.00  0.00    -0.178 OA 
BRANCH   4   5
HETATM    5  C   UNL     1     -10.971   9.651  67.881  1.00  0.00    -0.145 C  
BRANCH   5   6
HETATM    6  C   UNL     1     -11.066  11.086  67.359  1.00  0.00    -0.305 C  
HETATM    7  O   UNL     1     -12.003  11.794  68.176  1.00  0.00    -0.521 OA 
HETATM    8  C   UNL     1     -11.630  13.177  68.145  1.00  0.00    -0.339 C  
HETATM    9  C   UNL     1     -10.102  13.224  67.994  1.00  0.00    -0.235 C  
HETATM   10  C   UNL     1      -9.742  11.855  67.399  1.00  0.00    -0.184 C  
BRANCH   8  11
HETATM   11  N   UNL     1     -12.143  13.836  69.348  1.00  0.00    -0.337 N  
HETATM   12  N   UNL     1     -12.850  15.782  70.432  1.00  0.00    -0.663 N  
HETATM   13  C   UNL     1     -12.473  13.105  70.476  1.00  0.00    -0.248 C  
HETATM   14  O   UNL     1     -13.893  15.654  72.455  1.00  0.00    -0.515 OA 
HETATM   15  H   UNL     1     -12.928  16.799  70.446  1.00  0.00     0.000 HD 
HETATM   16  C   UNL     1     -13.032  13.665  71.549  1.00  0.00    -0.443 C  
HETATM   17  C   UNL     1     -12.305  15.214  69.308  1.00  0.00    -0.093 C  
HETATM   18  C   UNL     1     -13.298  15.111  71.532  1.00  0.00    -0.448 C  
HETATM   19  O   UNL     1     -12.011  15.911  68.340  1.00  0.00    -0.251 OA 
ENDBRANCH   8  11
BRANCH   9  20
HETATM   20  O   UNL     1      -9.717  14.297  67.112  1.00  0.00    -0.241 OA 
BRANCH  20  21
HETATM   21  C   UNL     1      -8.672  15.074  67.494  1.00  0.00    -0.184 C  
HETATM   22  C   UNL     1      -8.534  15.074  68.988  1.00  0.00    -0.200 C  
HETATM   23  O   UNL     1      -7.942  15.697  66.738  1.00  0.00    -0.232 OA 
ENDBRANCH  20  21
ENDBRANCH   9  20
BRANCH  10  24
HETATM   24  O   UNL     1      -9.236  11.987  66.054  1.00  0.00    -0.221 OA 
BRANCH  24  25
HETATM   25  C   UNL     1     -10.082  11.687  65.035  1.00  0.00    -0.263 C  
HETATM   26  O   UNL     1     -11.084  12.318  64.734  1.00  0.00    -0.294 OA 
HETATM   27  C   UNL     1      -9.639  10.428  64.349  1.00  0.00    -0.375 C  
ENDBRANCH  24  25
ENDBRANCH  10  24
ENDBRANCH   5   6
ENDBRANCH   4   5
ENDBRANCH   2   4
TORSDOF 8
ENDMDL
MODEL       73
REMARK 921   NORMALIZED FREE ENERGY PREDICTED BY IDOCK:   -4.60 KCAL/MOL
REMARK 922        TOTAL FREE ENERGY PREDICTED BY IDOCK:   -8.16 KCAL/MOL
REMARK 923 INTER-LIGAND FREE ENERGY PREDICTED BY IDOCK:   -7.31 KCAL/MOL
REMARK 924 INTRA-LIGAND FREE ENERGY PREDICTED BY IDOCK:   -0.86 KCAL/MOL
REMARK 927      BINDING AFFINITY PREDICTED BY RF-SCORE:    0.00 PKD
ROOT
HETATM    1  C   UNL     1      -8.176   5.964  66.378  1.00  0.00    -0.112 C  
HETATM    2  C   UNL     1      -9.557   5.935  66.955  1.00  0.00    -0.142 C  
HETATM    3  O   UNL     1     -10.467   5.236  66.536  1.00  0.00    -0.254 OA 
ENDROOT
BRANCH   2   4
HETATM    4  O   UNL     1      -9.646   6.800  68.002  1.00  0.00    -0.120 OA 
BRANCH   4   5
HETATM    5  C   UNL     1     -10.700   7.763  67.907  1.00  0.00    -0.097 C  
BRANCH   5   6
HETATM    6  C   UNL     1     -10.239   9.183  68.240  1.00  0.00    -0.206 C  
HETATM    7  O   UNL     1     -10.220   9.940  67.026  1.00  0.00    -0.208 OA 
HETATM    8  C   UNL     1     -10.437  11.311  67.379  1.00  0.00    -0.212 C  
HETATM    9  C   UNL     1     -11.342  11.315  68.619  1.00  0.00    -0.273 C  
HETATM   10  C   UNL     1     -11.147   9.920  69.230  1.00  0.00    -0.181 C  
BRANCH   8  11
HETATM   11  N   UNL     1     -10.988  12.019  66.221  1.00  0.00    -0.286 N  
HETATM   12  N   UNL     1     -10.891  12.539  63.945  1.00  0.00    -0.398 N  
HETATM   13  C   UNL     1     -12.159  12.749  66.323  1.00  0.00    -0.332 C  
HETATM   14  O   UNL     1     -12.634  13.608  62.937  1.00  0.00    -0.621 OA 
HETATM   15  H   UNL     1     -10.380  12.522  63.062  1.00  0.00     0.000 HD 
HETATM   16  C   UNL     1     -12.735  13.322  65.266  1.00  0.00    -0.474 C  
HETATM   17  C   UNL     1     -10.305  11.915  65.017  1.00  0.00    -0.289 C  
HETATM   18  C   UNL     1     -12.095  13.179  63.950  1.00  0.00    -0.470 C  
HETATM   19  O   UNL     1      -9.252  11.296  64.877  1.00  0.00    -0.197 OA 
ENDBRANCH   8  11
BRANCH   9  20
HETATM   20  O   UNL     1     -10.935  12.350  69.535  1.00  0.00    -0.089 OA 
BRANCH  20  21
HETATM   21  C   UNL     1     -11.912  13.006  70.210  1.00  0.00    -0.285 C  
HETATM   22  C   UNL     1     -12.083  14.395  69.671  1.00  0.00    -0.381 C  
HETATM   23  O   UNL     1     -12.565  12.545  71.135  1.00  0.00    -0.365 OA 
ENDBRANCH  20  21
ENDBRANCH   9  20
BRANCH  10  24
HETATM   24  O   UNL     1     -10.480   9.997  70.508  1.00  0.00    -0.286 OA 
BRANCH  24  25
HETATM   25  C   UNL     1     -10.880   9.132  71.475  1.00  0.00    -0.366 C  
HETATM   26  O   UNL     1     -10.147   8.576  72.278  1.00  0.00    -0.293 OA 
HETATM   27  C   UNL     1     -12.362   8.912  71.392  1.00  0.00    -0.368 C  
ENDBRANCH  24  25
ENDBRANCH  10  24
ENDBRANCH   5   6
ENDBRANCH   4   5
ENDBRANCH   2   4
TORSDOF 8
ENDMDL
MODEL       74
REMARK 921   NORMALIZED FREE ENERGY PREDICTED BY IDOCK:   -4.59 KCAL/MOL
REMARK 922        TOTAL FREE ENERGY PREDICTED BY IDOCK:   -8.14 KCAL/MOL
REMARK 923 INTER-LIGAND FREE ENERGY PREDICTED BY IDOCK:   -6.59 KCAL/MOL
REMARK 924 INTRA-LIGAND FREE ENERGY PREDICTED BY IDOCK:   -1.54 KCAL/MOL
REMARK 927      BINDING AFFINITY PREDICTED BY RF-SCORE:    0.00 PKD
ROOT
HETATM    1  C   UNL     1      -7.380   8.377  64.678  1.00  0.00    -0.093 C  
HETATM    2  C   UNL     1      -7.339   9.191  65.934  1.00  0.00    -0.094 C  
HETATM    3  O   UNL     1      -6.512   9.053  66.822  1.00  0.00    -0.062 OA 
ENDROOT
BRANCH   2   4
HETATM    4  O   UNL     1      -8.357  10.095  65.939  1.00  0.00    -0.127 OA 
BRANCH   4   5
HETATM    5  C   UNL     1      -9.620   9.592  65.494  1.00  0.00    -0.283 C  
BRANCH   5   6
HETATM    6  C   UNL     1     -10.758   9.896  66.472  1.00  0.00    -0.012 C  
HETATM    7  O   UNL     1     -10.542   9.122  67.656  1.00  0.00    -0.258 OA 
HETATM    8  C   UNL     1     -11.147   9.834  68.741  1.00  0.00    -0.095 C  
HETATM    9  C   UNL     1     -11.031  11.330  68.414  1.00  0.00    -0.219 C  
HETATM   10  C   UNL     1     -10.848  11.366  66.890  1.00  0.00    -0.285 C  
BRANCH   8  11
HETATM   11  N   UNL     1     -10.499   9.434  69.993  1.00  0.00    -0.218 N  
HETATM   12  N   UNL     1     -10.673   8.729  72.215  1.00  0.00    -0.318 N  
HETATM   13  C   UNL     1      -9.123   9.312  70.077  1.00  0.00    -0.210 C  
HETATM   14  O   UNL     1      -8.832   7.972  73.325  1.00  0.00    -0.216 OA 
HETATM   15  H   UNL     1     -11.247   8.577  73.044  1.00  0.00     0.000 HD 
HETATM   16  C   UNL     1      -8.515   8.856  71.172  1.00  0.00    -0.250 C  
HETATM   17  C   UNL     1     -11.315   9.164  71.083  1.00  0.00    -0.322 C  
HETATM   18  C   UNL     1      -9.337   8.482  72.332  1.00  0.00    -0.278 C  
HETATM   19  O   UNL     1     -12.540   9.276  71.067  1.00  0.00    -0.278 OA 
ENDBRANCH   8  11
BRANCH   9  20
HETATM   20  O   UNL     1     -12.227  12.027  68.814  1.00  0.00    -0.259 OA 
BRANCH  20  21
HETATM   21  C   UNL     1     -12.129  12.888  69.859  1.00  0.00    -0.265 C  
HETATM   22  C   UNL     1     -11.646  14.229  69.392  1.00  0.00    -0.354 C  
HETATM   23  O   UNL     1     -12.386  12.619  71.023  1.00  0.00    -0.351 OA 
ENDBRANCH  20  21
ENDBRANCH   9  20
BRANCH  10  24
HETATM   24  O   UNL     1     -11.987  11.969  66.240  1.00  0.00    -0.596 OA 
BRANCH  24  25
HETATM   25  C   UNL     1     -11.741  12.880  65.264  1.00  0.00    -0.364 C  
HETATM   26  O   UNL     1     -10.808  12.843  64.476  1.00  0.00    -0.321 OA 
HETATM   27  C   UNL     1     -12.758  13.981  65.317  1.00  0.00    -0.468 C  
ENDBRANCH  24  25
ENDBRANCH  10  24
ENDBRANCH   5   6
ENDBRANCH   4   5
ENDBRANCH   2   4
TORSDOF 8
ENDMDL
MODEL       75
REMARK 921   NORMALIZED FREE ENERGY PREDICTED BY IDOCK:   -4.57 KCAL/MOL
REMARK 922        TOTAL FREE ENERGY PREDICTED BY IDOCK:   -8.12 KCAL/MOL
REMARK 923 INTER-LIGAND FREE ENERGY PREDICTED BY IDOCK:   -6.87 KCAL/MOL
REMARK 924 INTRA-LIGAND FREE ENERGY PREDICTED BY IDOCK:   -1.25 KCAL/MOL
REMARK 927      BINDING AFFINITY PREDICTED BY RF-SCORE:    0.00 PKD
ROOT
HETATM    1  C   UNL     1     -10.602   7.723  72.927  1.00  0.00    -0.428 C  
HETATM    2  C   UNL     1     -11.158   8.762  72.004  1.00  0.00    -0.371 C  
HETATM    3  O   UNL     1     -12.228   9.330  72.166  1.00  0.00    -0.359 OA 
ENDROOT
BRANCH   2   4
HETATM    4  O   UNL     1     -10.305   8.973  70.965  1.00  0.00    -0.231 OA 
BRANCH   4   5
HETATM    5  C   UNL     1     -10.830   8.656  69.672  1.00  0.00    -0.157 C  
BRANCH   5   6
HETATM    6  C   UNL     1     -10.881   9.867  68.739  1.00  0.00    -0.208 C  
HETATM    7  O   UNL     1     -11.890  10.759  69.224  1.00  0.00    -0.300 OA 
HETATM    8  C   UNL     1     -11.520  12.080  68.814  1.00  0.00    -0.300 C  
HETATM    9  C   UNL     1      -9.985  12.126  68.788  1.00  0.00    -0.052 C  
HETATM   10  C   UNL     1      -9.568  10.653  68.662  1.00  0.00    -0.179 C  
BRANCH   8  11
HETATM   11  N   UNL     1     -12.142  13.051  69.717  1.00  0.00    -0.290 N  
HETATM   12  N   UNL     1     -13.003  15.192  70.088  1.00  0.00    -0.644 N  
HETATM   13  C   UNL     1     -12.518  12.693  71.000  1.00  0.00    -0.260 C  
HETATM   14  O   UNL     1     -14.177  15.642  71.988  1.00  0.00    -0.491 OA 
HETATM   15  H   UNL     1     -13.125  16.154  69.774  1.00  0.00     0.000 HD 
HETATM   16  C   UNL     1     -13.173  13.527  71.808  1.00  0.00    -0.490 C  
HETATM   17  C   UNL     1     -12.358  14.334  69.233  1.00  0.00    -0.162 C  
HETATM   18  C   UNL     1     -13.497  14.875  71.318  1.00  0.00    -0.430 C  
HETATM   19  O   UNL     1     -12.027  14.708  68.109  1.00  0.00    -0.313 OA 
ENDBRANCH   8  11
BRANCH   9  20
HETATM   20  O   UNL     1      -9.524  12.899  67.663  1.00  0.00    -0.185 OA 
BRANCH  20  21
HETATM   21  C   UNL     1      -8.398  13.637  67.832  1.00  0.00    -0.174 C  
HETATM   22  C   UNL     1      -8.689  14.862  68.648  1.00  0.00    -0.177 C  
HETATM   23  O   UNL     1      -7.296  13.360  67.382  1.00  0.00    -0.163 OA 
ENDBRANCH  20  21
ENDBRANCH   9  20
BRANCH  10  24
HETATM   24  O   UNL     1      -8.942  10.395  67.388  1.00  0.00    -0.135 OA 
BRANCH  24  25
HETATM   25  C   UNL     1      -8.244   9.237  67.257  1.00  0.00    -0.121 C  
HETATM   26  O   UNL     1      -7.410   8.817  68.044  1.00  0.00    -0.086 OA 
HETATM   27  C   UNL     1      -8.608   8.556  65.970  1.00  0.00    -0.162 C  
ENDBRANCH  24  25
ENDBRANCH  10  24
ENDBRANCH   5   6
ENDBRANCH   4   5
ENDBRANCH   2   4
TORSDOF 8
ENDMDL
MODEL       76
REMARK 921   NORMALIZED FREE ENERGY PREDICTED BY IDOCK:   -4.53 KCAL/MOL
REMARK 922        TOTAL FREE ENERGY PREDICTED BY IDOCK:   -8.06 KCAL/MOL
REMARK 923 INTER-LIGAND FREE ENERGY PREDICTED BY IDOCK:   -6.70 KCAL/MOL
REMARK 924 INTRA-LIGAND FREE ENERGY PREDICTED BY IDOCK:   -1.36 KCAL/MOL
REMARK 927      BINDING AFFINITY PREDICTED BY RF-SCORE:    0.00 PKD
ROOT
HETATM    1  C   UNL     1      -9.889  10.683  64.179  1.00  0.00    -0.396 C  
HETATM    2  C   UNL     1     -10.687  11.529  65.121  1.00  0.00    -0.289 C  
HETATM    3  O   UNL     1     -11.606  12.261  64.786  1.00  0.00    -0.323 OA 
ENDROOT
BRANCH   2   4
HETATM    4  O   UNL     1     -10.236  11.365  66.395  1.00  0.00    -0.217 OA 
BRANCH   4   5
HETATM    5  C   UNL     1     -11.072  11.925  67.413  1.00  0.00    -0.279 C  
BRANCH   5   6
HETATM    6  C   UNL     1     -11.606  10.874  68.388  1.00  0.00    -0.276 C  
HETATM    7  O   UNL     1     -11.031   9.612  68.037  1.00  0.00    -0.227 OA 
HETATM    8  C   UNL     1     -10.979   8.824  69.232  1.00  0.00     0.014 C  
HETATM    9  C   UNL     1     -10.769   9.799  70.400  1.00  0.00    -0.308 C  
HETATM   10  C   UNL     1     -11.260  11.148  69.855  1.00  0.00    -0.217 C  
BRANCH   8  11
HETATM   11  N   UNL     1      -9.930   7.812  69.090  1.00  0.00    -0.178 N  
HETATM   12  N   UNL     1      -9.301   5.562  69.011  1.00  0.00    -0.118 N  
HETATM   13  C   UNL     1      -8.622   8.172  68.818  1.00  0.00    -0.127 C  
HETATM   14  O   UNL     1      -7.202   4.982  68.338  1.00  0.00    -0.061 OA 
HETATM   15  H   UNL     1      -9.536   4.580  69.152  1.00  0.00     0.000 HD 
HETATM   16  C   UNL     1      -7.668   7.270  68.588  1.00  0.00    -0.120 C  
HETATM   17  C   UNL     1     -10.300   6.480  69.217  1.00  0.00    -0.202 C  
HETATM   18  C   UNL     1      -8.021   5.844  68.633  1.00  0.00    -0.103 C  
HETATM   19  O   UNL     1     -11.442   6.107  69.476  1.00  0.00    -0.429 OA 
ENDBRANCH   8  11
BRANCH   9  20
HETATM   20  O   UNL     1     -11.540   9.385  71.545  1.00  0.00    -0.346 OA 
BRANCH  20  21
HETATM   21  C   UNL     1     -11.072   8.335  72.266  1.00  0.00    -0.359 C  
HETATM   22  C   UNL     1      -9.613   8.511  72.568  1.00  0.00    -0.324 C  
HETATM   23  O   UNL     1     -11.734   7.370  72.619  1.00  0.00    -0.273 OA 
ENDBRANCH  20  21
ENDBRANCH   9  20
BRANCH  10  24
HETATM   24  O   UNL     1     -12.450  11.588  70.542  1.00  0.00    -0.318 OA 
BRANCH  24  25
HETATM   25  C   UNL     1     -12.526  12.900  70.885  1.00  0.00    -0.296 C  
HETATM   26  O   UNL     1     -11.970  13.819  70.303  1.00  0.00    -0.313 OA 
HETATM   27  C   UNL     1     -13.358  13.064  72.122  1.00  0.00    -0.622 C  
ENDBRANCH  24  25
ENDBRANCH  10  24
ENDBRANCH   5   6
ENDBRANCH   4   5
ENDBRANCH   2   4
TORSDOF 8
ENDMDL
MODEL       77
REMARK 921   NORMALIZED FREE ENERGY PREDICTED BY IDOCK:   -4.51 KCAL/MOL
REMARK 922        TOTAL FREE ENERGY PREDICTED BY IDOCK:   -8.02 KCAL/MOL
REMARK 923 INTER-LIGAND FREE ENERGY PREDICTED BY IDOCK:   -6.74 KCAL/MOL
REMARK 924 INTRA-LIGAND FREE ENERGY PREDICTED BY IDOCK:   -1.28 KCAL/MOL
REMARK 927      BINDING AFFINITY PREDICTED BY RF-SCORE:    0.00 PKD
ROOT
HETATM    1  C   UNL     1     -10.139   8.839  71.811  1.00  0.00    -0.403 C  
HETATM    2  C   UNL     1     -10.647   9.719  70.712  1.00  0.00    -0.301 C  
HETATM    3  O   UNL     1     -11.573  10.508  70.828  1.00  0.00    -0.333 OA 
ENDROOT
BRANCH   2   4
HETATM    4  O   UNL     1      -9.932   9.507  69.573  1.00  0.00    -0.174 OA 
BRANCH   4   5
HETATM    5  C   UNL     1     -10.384   8.416  68.765  1.00  0.00    -0.206 C  
BRANCH   5   6
HETATM    6  C   UNL     1      -9.784   8.431  67.358  1.00  0.00    -0.170 C  
HETATM    7  O   UNL     1     -10.643   9.209  66.518  1.00  0.00    -0.174 OA 
HETATM    8  C   UNL     1      -9.830   9.757  65.475  1.00  0.00    -0.308 C  
HETATM    9  C   UNL     1      -8.433   9.988  66.071  1.00  0.00    -0.131 C  
HETATM   10  C   UNL     1      -8.383   9.044  67.282  1.00  0.00    -0.111 C  
BRANCH   8  11
HETATM   11  N   UNL     1     -10.475  10.965  64.953  1.00  0.00    -0.305 N  
HETATM   12  N   UNL     1     -10.979  12.357  63.145  1.00  0.00    -0.688 N  
HETATM   13  C   UNL     1     -11.243  11.774  65.772  1.00  0.00    -0.281 C  
HETATM   14  O   UNL     1     -12.513  14.027  63.376  1.00  0.00    -0.826 OA 
HETATM   15  H   UNL     1     -10.826  12.621  62.172  1.00  0.00     0.000 HD 
HETATM   16  C   UNL     1     -11.920  12.822  65.303  1.00  0.00    -0.473 C  
HETATM   17  C   UNL     1     -10.304  11.255  63.606  1.00  0.00    -0.408 C  
HETATM   18  C   UNL     1     -11.837  13.131  63.868  1.00  0.00    -0.472 C  
HETATM   19  O   UNL     1      -9.618  10.581  62.841  1.00  0.00    -0.310 OA 
ENDBRANCH   8  11
BRANCH   9  20
HETATM   20  O   UNL     1      -7.414   9.658  65.107  1.00  0.00    -0.105 OA 
BRANCH  20  21
HETATM   21  C   UNL     1      -6.316  10.454  65.063  1.00  0.00    -0.095 C  
HETATM   22  C   UNL     1      -5.588  10.276  63.763  1.00  0.00    -0.143 C  
HETATM   23  O   UNL     1      -5.954  11.209  65.953  1.00  0.00    -0.123 OA 
ENDBRANCH  20  21
ENDBRANCH   9  20
BRANCH  10  24
HETATM   24  O   UNL     1      -7.420   7.989  67.081  1.00  0.00    -0.089 OA 
BRANCH  24  25
HETATM   25  C   UNL     1      -6.452   7.838  68.022  1.00  0.00    -0.055 C  
HETATM   26  O   UNL     1      -5.878   6.794  68.290  1.00  0.00    -0.016 OA 
HETATM   27  C   UNL     1      -6.214   9.139  68.731  1.00  0.00    -0.044 C  
ENDBRANCH  24  25
ENDBRANCH  10  24
ENDBRANCH   5   6
ENDBRANCH   4   5
ENDBRANCH   2   4
TORSDOF 8
ENDMDL
MODEL       78
REMARK 921   NORMALIZED FREE ENERGY PREDICTED BY IDOCK:   -4.50 KCAL/MOL
REMARK 922        TOTAL FREE ENERGY PREDICTED BY IDOCK:   -8.02 KCAL/MOL
REMARK 923 INTER-LIGAND FREE ENERGY PREDICTED BY IDOCK:   -6.71 KCAL/MOL
REMARK 924 INTRA-LIGAND FREE ENERGY PREDICTED BY IDOCK:   -1.31 KCAL/MOL
REMARK 927      BINDING AFFINITY PREDICTED BY RF-SCORE:    0.00 PKD
ROOT
HETATM    1  C   UNL     1     -12.494  13.399  65.773  1.00  0.00    -0.496 C  
HETATM    2  C   UNL     1     -11.414  13.435  66.809  1.00  0.00    -0.343 C  
HETATM    3  O   UNL     1     -11.206  14.375  67.561  1.00  0.00    -0.291 OA 
ENDROOT
BRANCH   2   4
HETATM    4  O   UNL     1     -10.700  12.276  66.782  1.00  0.00    -0.230 OA 
BRANCH   4   5
HETATM    5  C   UNL     1      -9.504  12.279  67.566  1.00  0.00    -0.182 C  
BRANCH   5   6
HETATM    6  C   UNL     1      -9.193  10.914  68.183  1.00  0.00    -0.158 C  
HETATM    7  O   UNL     1      -9.917  10.808  69.413  1.00  0.00    -0.198 OA 
HETATM    8  C   UNL     1     -10.163   9.416  69.640  1.00  0.00    -0.212 C  
HETATM    9  C   UNL     1     -10.312   8.758  68.260  1.00  0.00    -0.207 C  
HETATM   10  C   UNL     1      -9.597   9.725  67.305  1.00  0.00    -0.157 C  
BRANCH   8  11
HETATM   11  N   UNL     1     -11.333   9.275  70.510  1.00  0.00    -0.257 N  
HETATM   12  N   UNL     1     -12.479   8.092  72.168  1.00  0.00    -0.410 N  
HETATM   13  C   UNL     1     -12.324  10.240  70.534  1.00  0.00    -0.284 C  
HETATM   14  O   UNL     1     -14.301   9.012  73.183  1.00  0.00    -0.346 OA 
HETATM   15  H   UNL     1     -12.578   7.250  72.735  1.00  0.00     0.000 HD 
HETATM   16  C   UNL     1     -13.349  10.186  71.385  1.00  0.00    -0.413 C  
HETATM   17  C   UNL     1     -11.400   8.151  71.322  1.00  0.00    -0.265 C  
HETATM   18  C   UNL     1     -13.430   9.056  72.322  1.00  0.00    -0.475 C  
HETATM   19  O   UNL     1     -10.557   7.256  71.325  1.00  0.00    -0.219 OA 
ENDBRANCH   8  11
BRANCH   9  20
HETATM   20  O   UNL     1      -9.689   7.458  68.253  1.00  0.00    -0.148 OA 
BRANCH  20  21
HETATM   21  C   UNL     1     -10.431   6.413  67.808  1.00  0.00    -0.226 C  
HETATM   22  C   UNL     1     -10.138   5.180  68.610  1.00  0.00    -0.220 C  
HETATM   23  O   UNL     1     -11.225   6.454  66.880  1.00  0.00    -0.368 OA 
ENDBRANCH  20  21
ENDBRANCH   9  20
BRANCH  10  24
HETATM   24  O   UNL     1      -8.407   9.127  66.750  1.00  0.00    -0.120 OA 
BRANCH  24  25
HETATM   25  C   UNL     1      -8.455   8.725  65.454  1.00  0.00    -0.170 C  
HETATM   26  O   UNL     1      -9.035   9.307  64.551  1.00  0.00    -0.203 OA 
HETATM   27  C   UNL     1      -7.728   7.423  65.289  1.00  0.00    -0.113 C  
ENDBRANCH  24  25
ENDBRANCH  10  24
ENDBRANCH   5   6
ENDBRANCH   4   5
ENDBRANCH   2   4
TORSDOF 8
ENDMDL
MODEL       79
REMARK 921   NORMALIZED FREE ENERGY PREDICTED BY IDOCK:   -4.45 KCAL/MOL
REMARK 922        TOTAL FREE ENERGY PREDICTED BY IDOCK:   -7.94 KCAL/MOL
REMARK 923 INTER-LIGAND FREE ENERGY PREDICTED BY IDOCK:   -6.30 KCAL/MOL
REMARK 924 INTRA-LIGAND FREE ENERGY PREDICTED BY IDOCK:   -1.64 KCAL/MOL
REMARK 927      BINDING AFFINITY PREDICTED BY RF-SCORE:    0.00 PKD
ROOT
HETATM    1  C   UNL     1      -8.834   4.640  63.933  1.00  0.00    -0.135 C  
HETATM    2  C   UNL     1      -8.234   5.827  64.621  1.00  0.00    -0.126 C  
HETATM    3  O   UNL     1      -7.574   6.690  64.062  1.00  0.00    -0.093 OA 
ENDROOT
BRANCH   2   4
HETATM    4  O   UNL     1      -8.527   5.796  65.950  1.00  0.00    -0.127 OA 
BRANCH   4   5
HETATM    5  C   UNL     1      -9.834   5.313  66.274  1.00  0.00    -0.182 C  
BRANCH   5   6
HETATM    6  C   UNL     1     -10.672   6.336  67.043  1.00  0.00    -0.362 C  
HETATM    7  O   UNL     1     -11.121   5.721  68.254  1.00  0.00    -0.186 OA 
HETATM    8  C   UNL     1     -11.307   6.765  69.215  1.00  0.00    -0.163 C  
HETATM    9  C   UNL     1     -10.271   7.854  68.898  1.00  0.00    -0.205 C  
HETATM   10  C   UNL     1      -9.909   7.608  67.426  1.00  0.00    -0.173 C  
BRANCH   8  11
HETATM   11  N   UNL     1     -11.200   6.199  70.562  1.00  0.00    -0.336 N  
HETATM   12  N   UNL     1     -12.031   6.005  72.738  1.00  0.00    -0.529 N  
HETATM   13  C   UNL     1     -10.220   5.271  70.869  1.00  0.00    -0.234 C  
HETATM   14  O   UNL     1     -11.205   4.413  74.144  1.00  0.00    -0.225 OA 
HETATM   15  H   UNL     1     -12.667   6.330  73.466  1.00  0.00     0.000 HD 
HETATM   16  C   UNL     1     -10.159   4.667  72.056  1.00  0.00    -0.262 C  
HETATM   17  C   UNL     1     -12.127   6.610  71.510  1.00  0.00    -0.355 C  
HETATM   18  C   UNL     1     -11.164   5.008  73.074  1.00  0.00    -0.310 C  
HETATM   19  O   UNL     1     -13.004   7.444  71.294  1.00  0.00    -0.351 OA 
ENDBRANCH   8  11
BRANCH   9  20
HETATM   20  O   UNL     1     -10.844   9.163  69.085  1.00  0.00    -0.203 OA 
BRANCH  20  21
HETATM   21  C   UNL     1     -10.608   9.784  70.268  1.00  0.00    -0.292 C  
HETATM   22  C   UNL     1      -9.326   9.295  70.873  1.00  0.00    -0.313 C  
HETATM   23  O   UNL     1     -11.334  10.622  70.783  1.00  0.00    -0.301 OA 
ENDBRANCH  20  21
ENDBRANCH   9  20
BRANCH  10  24
HETATM   24  O   UNL     1     -10.359   8.694  66.589  1.00  0.00    -0.289 OA 
BRANCH  24  25
HETATM   25  C   UNL     1      -9.450   9.256  65.751  1.00  0.00    -0.262 C  
HETATM   26  O   UNL     1      -9.652   9.566  64.587  1.00  0.00    -0.182 OA 
HETATM   27  C   UNL     1      -8.128   9.400  66.445  1.00  0.00    -0.108 C  
ENDBRANCH  24  25
ENDBRANCH  10  24
ENDBRANCH   5   6
ENDBRANCH   4   5
ENDBRANCH   2   4
TORSDOF 8
ENDMDL
MODEL       80
REMARK 921   NORMALIZED FREE ENERGY PREDICTED BY IDOCK:   -4.45 KCAL/MOL
REMARK 922        TOTAL FREE ENERGY PREDICTED BY IDOCK:   -7.94 KCAL/MOL
REMARK 923 INTER-LIGAND FREE ENERGY PREDICTED BY IDOCK:   -6.58 KCAL/MOL
REMARK 924 INTRA-LIGAND FREE ENERGY PREDICTED BY IDOCK:   -1.36 KCAL/MOL
REMARK 927      BINDING AFFINITY PREDICTED BY RF-SCORE:    0.00 PKD
ROOT
HETATM    1  C   UNL     1      -6.938   7.218  65.694  1.00  0.00    -0.060 C  
HETATM    2  C   UNL     1      -8.339   6.692  65.668  1.00  0.00    -0.144 C  
HETATM    3  O   UNL     1      -8.685   5.672  65.089  1.00  0.00    -0.150 OA 
ENDROOT
BRANCH   2   4
HETATM    4  O   UNL     1      -9.163   7.515  66.372  1.00  0.00    -0.166 OA 
BRANCH   4   5
HETATM    5  C   UNL     1      -9.266   7.222  67.769  1.00  0.00    -0.126 C  
BRANCH   5   6
HETATM    6  C   UNL     1      -9.289   8.480  68.639  1.00  0.00    -0.142 C  
HETATM    7  O   UNL     1      -9.153   9.616  67.780  1.00  0.00    -0.125 OA 
HETATM    8  C   UNL     1      -9.800  10.717  68.428  1.00  0.00    -0.161 C  
HETATM    9  C   UNL     1     -10.965  10.134  69.242  1.00  0.00    -0.240 C  
HETATM   10  C   UNL     1     -10.580   8.661  69.443  1.00  0.00    -0.199 C  
BRANCH   8  11
HETATM   11  N   UNL     1     -10.196  11.700  67.417  1.00  0.00    -0.201 N  
HETATM   12  N   UNL     1      -9.619  13.427  65.952  1.00  0.00    -0.480 N  
HETATM   13  C   UNL     1     -11.493  11.745  66.937  1.00  0.00    -0.293 C  
HETATM   14  O   UNL     1     -11.111  14.150  64.388  1.00  0.00    -0.350 OA 
HETATM   15  H   UNL     1      -8.935  14.110  65.628  1.00  0.00     0.000 HD 
HETATM   16  C   UNL     1     -11.858  12.562  65.949  1.00  0.00    -0.489 C  
HETATM   17  C   UNL     1      -9.221  12.568  66.945  1.00  0.00    -0.211 C  
HETATM   18  C   UNL     1     -10.847  13.450  65.358  1.00  0.00    -0.294 C  
HETATM   19  O   UNL     1      -8.061  12.581  67.351  1.00  0.00    -0.161 OA 
ENDBRANCH   8  11
BRANCH   9  20
HETATM   20  O   UNL     1     -11.089  10.820  70.504  1.00  0.00    -0.233 OA 
BRANCH  20  21
HETATM   21  C   UNL     1     -12.306  11.334  70.817  1.00  0.00    -0.398 C  
HETATM   22  C   UNL     1     -12.343  12.807  70.538  1.00  0.00    -0.355 C  
HETATM   23  O   UNL     1     -13.246  10.698  71.271  1.00  0.00    -0.351 OA 
ENDBRANCH  20  21
ENDBRANCH   9  20
BRANCH  10  24
HETATM   24  O   UNL     1     -10.311   8.376  70.832  1.00  0.00    -0.189 OA 
BRANCH  24  25
HETATM   25  C   UNL     1     -11.229   7.641  71.510  1.00  0.00    -0.246 C  
HETATM   26  O   UNL     1     -11.459   7.718  72.707  1.00  0.00    -0.374 OA 
HETATM   27  C   UNL     1     -11.901   6.671  70.582  1.00  0.00    -0.443 C  
ENDBRANCH  24  25
ENDBRANCH  10  24
ENDBRANCH   5   6
ENDBRANCH   4   5
ENDBRANCH   2   4
TORSDOF 8
ENDMDL
MODEL       81
REMARK 921   NORMALIZED FREE ENERGY PREDICTED BY IDOCK:   -4.43 KCAL/MOL
REMARK 922        TOTAL FREE ENERGY PREDICTED BY IDOCK:   -7.90 KCAL/MOL
REMARK 923 INTER-LIGAND FREE ENERGY PREDICTED BY IDOCK:   -6.69 KCAL/MOL
REMARK 924 INTRA-LIGAND FREE ENERGY PREDICTED BY IDOCK:   -1.21 KCAL/MOL
REMARK 927      BINDING AFFINITY PREDICTED BY RF-SCORE:    0.00 PKD
ROOT
HETATM    1  C   UNL     1     -11.995  12.535  63.444  1.00  0.00    -0.602 C  
HETATM    2  C   UNL     1     -10.709  11.780  63.577  1.00  0.00    -0.436 C  
HETATM    3  O   UNL     1      -9.689  12.036  62.955  1.00  0.00    -0.334 OA 
ENDROOT
BRANCH   2   4
HETATM    4  O   UNL     1     -10.848  10.772  64.481  1.00  0.00    -0.225 OA 
BRANCH   4   5
HETATM    5  C   UNL     1      -9.652  10.039  64.763  1.00  0.00    -0.308 C  
BRANCH   5   6
HETATM    6  C   UNL     1      -9.269  10.074  66.243  1.00  0.00    -0.162 C  
HETATM    7  O   UNL     1      -9.236  11.443  66.660  1.00  0.00    -0.172 OA 
HETATM    8  C   UNL     1      -9.528  11.465  68.062  1.00  0.00    -0.181 C  
HETATM    9  C   UNL     1     -10.481  10.293  68.338  1.00  0.00    -0.200 C  
HETATM   10  C   UNL     1     -10.247   9.335  67.161  1.00  0.00    -0.257 C  
BRANCH   8  11
HETATM   11  N   UNL     1     -10.064  12.781  68.416  1.00  0.00    -0.236 N  
HETATM   12  N   UNL     1      -9.760  15.089  68.629  1.00  0.00    -0.212 N  
HETATM   13  C   UNL     1     -11.390  12.937  68.781  1.00  0.00    -0.290 C  
HETATM   14  O   UNL     1     -11.549  16.452  68.999  1.00  0.00    -0.276 OA 
HETATM   15  H   UNL     1      -9.134  15.893  68.642  1.00  0.00     0.000 HD 
HETATM   16  C   UNL     1     -11.928  14.134  69.013  1.00  0.00    -0.376 C  
HETATM   17  C   UNL     1      -9.201  13.867  68.353  1.00  0.00    -0.194 C  
HETATM   18  C   UNL     1     -11.078  15.326  68.886  1.00  0.00    -0.266 C  
HETATM   19  O   UNL     1      -8.012  13.781  68.054  1.00  0.00    -0.129 OA 
ENDBRANCH   8  11
BRANCH   9  20
HETATM   20  O   UNL     1     -10.158   9.667  69.595  1.00  0.00    -0.196 OA 
BRANCH  20  21
HETATM   21  C   UNL     1     -11.187   9.371  70.428  1.00  0.00    -0.262 C  
HETATM   22  C   UNL     1     -11.111   7.940  70.872  1.00  0.00    -0.268 C  
HETATM   23  O   UNL     1     -12.065  10.148  70.771  1.00  0.00    -0.297 OA 
ENDBRANCH  20  21
ENDBRANCH   9  20
BRANCH  10  24
HETATM   24  O   UNL     1      -9.637   8.104  67.602  1.00  0.00    -0.145 OA 
BRANCH  24  25
HETATM   25  C   UNL     1     -10.218   6.942  67.208  1.00  0.00    -0.220 C  
HETATM   26  O   UNL     1     -11.409   6.781  66.991  1.00  0.00    -0.337 OA 
HETATM   27  C   UNL     1      -9.189   5.853  67.123  1.00  0.00    -0.116 C  
ENDBRANCH  24  25
ENDBRANCH  10  24
ENDBRANCH   5   6
ENDBRANCH   4   5
ENDBRANCH   2   4
TORSDOF 8
ENDMDL
MODEL       82
REMARK 921   NORMALIZED FREE ENERGY PREDICTED BY IDOCK:   -4.42 KCAL/MOL
REMARK 922        TOTAL FREE ENERGY PREDICTED BY IDOCK:   -7.89 KCAL/MOL
REMARK 923 INTER-LIGAND FREE ENERGY PREDICTED BY IDOCK:   -7.52 KCAL/MOL
REMARK 924 INTRA-LIGAND FREE ENERGY PREDICTED BY IDOCK:   -0.37 KCAL/MOL
REMARK 927      BINDING AFFINITY PREDICTED BY RF-SCORE:    0.00 PKD
ROOT
HETATM    1  C   UNL     1     -12.059  15.978  72.342  1.00  0.00    -0.629 C  
HETATM    2  C   UNL     1     -13.105  15.482  71.393  1.00  0.00    -0.507 C  
HETATM    3  O   UNL     1     -14.232  15.142  71.720  1.00  0.00    -0.475 OA 
ENDROOT
BRANCH   2   4
HETATM    4  O   UNL     1     -12.614  15.461  70.124  1.00  0.00    -0.364 OA 
BRANCH   4   5
HETATM    5  C   UNL     1     -11.298  16.000  69.971  1.00  0.00    -0.352 C  
BRANCH   5   6
HETATM    6  C   UNL     1     -10.302  14.986  69.405  1.00  0.00    -0.235 C  
HETATM    7  O   UNL     1     -11.015  14.107  68.529  1.00  0.00    -0.238 OA 
HETATM    8  C   UNL     1     -10.080  13.633  67.554  1.00  0.00    -0.237 C  
HETATM    9  C   UNL     1      -9.059  14.758  67.329  1.00  0.00    -0.204 C  
HETATM   10  C   UNL     1      -9.160  15.614  68.601  1.00  0.00    -0.205 C  
BRANCH   8  11
HETATM   11  N   UNL     1     -10.811  13.226  66.351  1.00  0.00    -0.286 N  
HETATM   12  N   UNL     1     -12.013  11.601  65.178  1.00  0.00     0.094 N  
HETATM   13  C   UNL     1     -11.045  14.121  65.322  1.00  0.00    -0.331 C  
HETATM   14  O   UNL     1     -13.138  12.157  63.275  1.00  0.00    -0.693 OA 
HETATM   15  H   UNL     1     -12.319  10.633  65.086  1.00  0.00     0.000 HD 
HETATM   16  C   UNL     1     -11.789  13.808  64.261  1.00  0.00    -0.451 C  
HETATM   17  C   UNL     1     -11.277  11.920  66.291  1.00  0.00    -0.337 C  
HETATM   18  C   UNL     1     -12.373  12.461  64.182  1.00  0.00    -0.467 C  
HETATM   19  O   UNL     1     -11.081  11.081  67.168  1.00  0.00    -0.285 OA 
ENDBRANCH   8  11
BRANCH   9  20
HETATM   20  O   UNL     1      -7.736  14.212  67.168  1.00  0.00    -0.147 OA 
BRANCH  20  21
HETATM   21  C   UNL     1      -7.581  12.880  67.376  1.00  0.00    -0.148 C  
HETATM   22  C   UNL     1      -6.965  12.625  68.720  1.00  0.00    -0.096 C  
HETATM   23  O   UNL     1      -7.888  12.001  66.586  1.00  0.00    -0.089 OA 
ENDBRANCH  20  21
ENDBRANCH   9  20
BRANCH  10  24
HETATM   24  O   UNL     1      -7.945  15.540  69.377  1.00  0.00    -0.219 OA 
BRANCH  24  25
HETATM   25  C   UNL     1      -7.120  16.618  69.351  1.00  0.00    -0.162 C  
HETATM   26  O   UNL     1      -5.987  16.657  69.806  1.00  0.00    -0.204 OA 
HETATM   27  C   UNL     1      -7.818  17.788  68.723  1.00  0.00    -0.251 C  
ENDBRANCH  24  25
ENDBRANCH  10  24
ENDBRANCH   5   6
ENDBRANCH   4   5
ENDBRANCH   2   4
TORSDOF 8
ENDMDL
MODEL       83
REMARK 921   NORMALIZED FREE ENERGY PREDICTED BY IDOCK:   -4.39 KCAL/MOL
REMARK 922        TOTAL FREE ENERGY PREDICTED BY IDOCK:   -7.85 KCAL/MOL
REMARK 923 INTER-LIGAND FREE ENERGY PREDICTED BY IDOCK:   -7.12 KCAL/MOL
REMARK 924 INTRA-LIGAND FREE ENERGY PREDICTED BY IDOCK:   -0.73 KCAL/MOL
REMARK 927      BINDING AFFINITY PREDICTED BY RF-SCORE:    0.00 PKD
ROOT
HETATM    1  C   UNL     1     -10.028  18.670  66.231  1.00  0.00    -0.398 C  
HETATM    2  C   UNL     1     -10.625  17.370  65.791  1.00  0.00    -0.182 C  
HETATM    3  O   UNL     1     -11.038  17.144  64.663  1.00  0.00    -1.036 OA 
ENDROOT
BRANCH   2   4
HETATM    4  O   UNL     1     -10.642  16.487  66.827  1.00  0.00    -0.295 OA 
BRANCH   4   5
HETATM    5  C   UNL     1      -9.850  15.310  66.637  1.00  0.00    -0.250 C  
BRANCH   5   6
HETATM    6  C   UNL     1     -10.673  14.023  66.705  1.00  0.00    -0.281 C  
HETATM    7  O   UNL     1     -10.039  13.047  65.872  1.00  0.00    -0.281 OA 
HETATM    8  C   UNL     1     -10.366  11.759  66.405  1.00  0.00    -0.222 C  
HETATM    9  C   UNL     1     -10.508  11.928  67.925  1.00  0.00    -0.204 C  
HETATM   10  C   UNL     1     -10.787  13.427  68.111  1.00  0.00    -0.255 C  
BRANCH   8  11
HETATM   11  N   UNL     1      -9.341  10.798  65.994  1.00  0.00    -0.179 N  
HETATM   12  N   UNL     1      -7.136  10.030  66.112  1.00  0.00    -0.102 N  
HETATM   13  C   UNL     1      -9.655   9.725  65.178  1.00  0.00    -0.287 C  
HETATM   14  O   UNL     1      -6.577   8.007  65.225  1.00  0.00    -0.051 OA 
HETATM   15  H   UNL     1      -6.170  10.179  66.403  1.00  0.00     0.000 HD 
HETATM   16  C   UNL     1      -8.765   8.782  64.868  1.00  0.00    -0.161 C  
HETATM   17  C   UNL     1      -8.050  10.990  66.467  1.00  0.00    -0.161 C  
HETATM   18  C   UNL     1      -7.401   8.895  65.405  1.00  0.00    -0.085 C  
HETATM   19  O   UNL     1      -7.714  11.935  67.178  1.00  0.00    -0.151 OA 
ENDBRANCH   8  11
BRANCH   9  20
HETATM   20  O   UNL     1     -11.598  11.126  68.421  1.00  0.00    -0.298 OA 
BRANCH  20  21
HETATM   21  C   UNL     1     -11.331  10.270  69.439  1.00  0.00    -0.221 C  
HETATM   22  C   UNL     1     -10.414   9.176  68.980  1.00  0.00    -0.238 C  
HETATM   23  O   UNL     1     -11.775  10.362  70.574  1.00  0.00    -0.291 OA 
ENDBRANCH  20  21
ENDBRANCH   9  20
BRANCH  10  24
HETATM   24  O   UNL     1     -12.123  13.651  68.607  1.00  0.00    -0.360 OA 
BRANCH  24  25
HETATM   25  C   UNL     1     -12.257  14.427  69.714  1.00  0.00    -0.321 C  
HETATM   26  O   UNL     1     -12.137  15.642  69.749  1.00  0.00    -0.361 OA 
HETATM   27  C   UNL     1     -12.527  13.570  70.916  1.00  0.00    -0.448 C  
ENDBRANCH  24  25
ENDBRANCH  10  24
ENDBRANCH   5   6
ENDBRANCH   4   5
ENDBRANCH   2   4
TORSDOF 8
ENDMDL
MODEL       84
REMARK 921   NORMALIZED FREE ENERGY PREDICTED BY IDOCK:   -4.39 KCAL/MOL
REMARK 922        TOTAL FREE ENERGY PREDICTED BY IDOCK:   -7.85 KCAL/MOL
REMARK 923 INTER-LIGAND FREE ENERGY PREDICTED BY IDOCK:   -6.46 KCAL/MOL
REMARK 924 INTRA-LIGAND FREE ENERGY PREDICTED BY IDOCK:   -1.39 KCAL/MOL
REMARK 927      BINDING AFFINITY PREDICTED BY RF-SCORE:    0.00 PKD
ROOT
HETATM    1  C   UNL     1      -5.571  15.535  70.164  1.00  0.00    -0.142 C  
HETATM    2  C   UNL     1      -5.690  14.103  70.584  1.00  0.00    -0.178 C  
HETATM    3  O   UNL     1      -5.976  13.734  71.713  1.00  0.00    -0.356 OA 
ENDROOT
BRANCH   2   4
HETATM    4  O   UNL     1      -5.428  13.282  69.530  1.00  0.00    -0.077 OA 
BRANCH   4   5
HETATM    5  C   UNL     1      -6.368  13.354  68.454  1.00  0.00    -0.088 C  
BRANCH   5   6
HETATM    6  C   UNL     1      -7.716  12.719  68.800  1.00  0.00     0.007 C  
HETATM    7  O   UNL     1      -8.738  13.442  68.106  1.00  0.00    -0.168 OA 
HETATM    8  C   UNL     1      -9.823  12.534  67.887  1.00  0.00    -0.207 C  
HETATM    9  C   UNL     1      -9.210  11.136  67.719  1.00  0.00    -0.153 C  
HETATM   10  C   UNL     1      -7.836  11.247  68.396  1.00  0.00    -0.136 C  
BRANCH   8  11
HETATM   11  N   UNL     1     -10.607  12.996  66.739  1.00  0.00    -0.261 N  
HETATM   12  N   UNL     1     -12.461  14.143  65.897  1.00  0.00    -0.478 N  
HETATM   13  C   UNL     1     -10.168  12.784  65.444  1.00  0.00    -0.283 C  
HETATM   14  O   UNL     1     -12.603  14.617  63.672  1.00  0.00    -0.773 OA 
HETATM   15  H   UNL     1     -13.361  14.594  66.059  1.00  0.00     0.000 HD 
HETATM   16  C   UNL     1     -10.810  13.277  64.385  1.00  0.00    -0.422 C  
HETATM   17  C   UNL     1     -11.793  13.670  66.998  1.00  0.00    -0.408 C  
HETATM   18  C   UNL     1     -12.031  14.066  64.605  1.00  0.00    -0.430 C  
HETATM   19  O   UNL     1     -12.236  13.868  68.127  1.00  0.00    -0.329 OA 
ENDBRANCH   8  11
BRANCH   9  20
HETATM   20  O   UNL     1     -10.033  10.144  68.362  1.00  0.00    -0.150 OA 
BRANCH  20  21
HETATM   21  C   UNL     1     -10.223   8.971  67.708  1.00  0.00    -0.230 C  
HETATM   22  C   UNL     1      -9.858   9.110  66.260  1.00  0.00    -0.359 C  
HETATM   23  O   UNL     1     -10.639   7.939  68.214  1.00  0.00    -0.188 OA 
ENDBRANCH  20  21
ENDBRANCH   9  20
BRANCH  10  24
HETATM   24  O   UNL     1      -7.772  10.429  69.584  1.00  0.00    -0.153 OA 
BRANCH  24  25
HETATM   25  C   UNL     1      -6.542  10.171  70.100  1.00  0.00    -0.128 C  
HETATM   26  O   UNL     1      -6.176  10.443  71.233  1.00  0.00    -0.333 OA 
HETATM   27  C   UNL     1      -5.667   9.540  69.058  1.00  0.00    -0.036 C  
ENDBRANCH  24  25
ENDBRANCH  10  24
ENDBRANCH   5   6
ENDBRANCH   4   5
ENDBRANCH   2   4
TORSDOF 8
ENDMDL
MODEL       85
REMARK 921   NORMALIZED FREE ENERGY PREDICTED BY IDOCK:   -4.39 KCAL/MOL
REMARK 922        TOTAL FREE ENERGY PREDICTED BY IDOCK:   -7.85 KCAL/MOL
REMARK 923 INTER-LIGAND FREE ENERGY PREDICTED BY IDOCK:   -6.65 KCAL/MOL
REMARK 924 INTRA-LIGAND FREE ENERGY PREDICTED BY IDOCK:   -1.19 KCAL/MOL
REMARK 927      BINDING AFFINITY PREDICTED BY RF-SCORE:    0.00 PKD
ROOT
HETATM    1  C   UNL     1     -10.627   6.132  67.570  1.00  0.00    -0.344 C  
HETATM    2  C   UNL     1      -9.522   6.909  68.215  1.00  0.00    -0.126 C  
HETATM    3  O   UNL     1      -8.497   6.415  68.661  1.00  0.00    -0.122 OA 
ENDROOT
BRANCH   2   4
HETATM    4  O   UNL     1      -9.831   8.234  68.236  1.00  0.00    -0.161 OA 
BRANCH   4   5
HETATM    5  C   UNL     1     -10.649   8.686  67.152  1.00  0.00    -0.234 C  
BRANCH   5   6
HETATM    6  C   UNL     1     -10.612  10.205  66.972  1.00  0.00    -0.225 C  
HETATM    7  O   UNL     1     -11.624  10.774  67.809  1.00  0.00    -0.521 OA 
HETATM    8  C   UNL     1     -11.195  12.097  68.149  1.00  0.00    -0.267 C  
HETATM    9  C   UNL     1      -9.660  12.069  68.208  1.00  0.00    -0.204 C  
HETATM   10  C   UNL     1      -9.277  10.848  67.358  1.00  0.00    -0.147 C  
BRANCH   8  11
HETATM   11  N   UNL     1     -11.843  12.502  69.399  1.00  0.00    -0.316 N  
HETATM   12  N   UNL     1     -12.744  14.184  70.748  1.00  0.00    -0.343 N  
HETATM   13  C   UNL     1     -12.227  11.562  70.339  1.00  0.00    -0.355 C  
HETATM   14  O   UNL     1     -13.947  13.643  72.607  1.00  0.00    -0.733 OA 
HETATM   15  H   UNL     1     -12.878  15.177  70.939  1.00  0.00     0.000 HD 
HETATM   16  C   UNL     1     -12.906  11.892  71.439  1.00  0.00    -0.411 C  
HETATM   17  C   UNL     1     -12.076  13.856  69.595  1.00  0.00    -0.349 C  
HETATM   18  C   UNL     1     -13.247  13.304  71.660  1.00  0.00    -0.359 C  
HETATM   19  O   UNL     1     -11.738  14.732  68.801  1.00  0.00    -0.302 OA 
ENDBRANCH   8  11
BRANCH   9  20
HETATM   20  O   UNL     1      -9.113  13.283  67.657  1.00  0.00    -0.185 OA 
BRANCH  20  21
HETATM   21  C   UNL     1      -7.947  13.736  68.182  1.00  0.00    -0.150 C  
HETATM   22  C   UNL     1      -7.635  15.109  67.665  1.00  0.00    -0.194 C  
HETATM   23  O   UNL     1      -7.237  13.120  68.963  1.00  0.00    -0.083 OA 
ENDBRANCH  20  21
ENDBRANCH   9  20
BRANCH  10  24
HETATM   24  O   UNL     1      -8.584  11.245  66.157  1.00  0.00    -0.176 OA 
BRANCH  24  25
HETATM   25  C   UNL     1      -7.567  10.451  65.730  1.00  0.00    -0.147 C  
HETATM   26  O   UNL     1      -7.540   9.838  64.673  1.00  0.00    -0.121 OA 
HETATM   27  C   UNL     1      -6.488  10.390  66.769  1.00  0.00    -0.076 C  
ENDBRANCH  24  25
ENDBRANCH  10  24
ENDBRANCH   5   6
ENDBRANCH   4   5
ENDBRANCH   2   4
TORSDOF 8
ENDMDL
MODEL       86
REMARK 921   NORMALIZED FREE ENERGY PREDICTED BY IDOCK:   -4.37 KCAL/MOL
REMARK 922        TOTAL FREE ENERGY PREDICTED BY IDOCK:   -7.82 KCAL/MOL
REMARK 923 INTER-LIGAND FREE ENERGY PREDICTED BY IDOCK:   -6.74 KCAL/MOL
REMARK 924 INTRA-LIGAND FREE ENERGY PREDICTED BY IDOCK:   -1.08 KCAL/MOL
REMARK 927      BINDING AFFINITY PREDICTED BY RF-SCORE:    0.00 PKD
ROOT
HETATM    1  C   UNL     1      -7.107  18.451  68.953  1.00  0.00    -0.292 C  
HETATM    2  C   UNL     1      -8.283  17.766  68.329  1.00  0.00    -0.285 C  
HETATM    3  O   UNL     1      -9.218  18.344  67.797  1.00  0.00    -0.271 OA 
ENDROOT
BRANCH   2   4
HETATM    4  O   UNL     1      -8.158  16.416  68.449  1.00  0.00    -0.172 OA 
BRANCH   4   5
HETATM    5  C   UNL     1      -9.380  15.680  68.347  1.00  0.00    -0.195 C  
BRANCH   5   6
HETATM    6  C   UNL     1      -9.316  14.564  67.302  1.00  0.00    -0.210 C  
HETATM    7  O   UNL     1      -9.106  13.326  67.988  1.00  0.00    -0.188 OA 
HETATM    8  C   UNL     1      -9.675  12.292  67.178  1.00  0.00    -0.201 C  
HETATM    9  C   UNL     1     -10.874  12.909  66.443  1.00  0.00    -0.274 C  
HETATM   10  C   UNL     1     -10.590  14.418  66.464  1.00  0.00    -0.296 C  
BRANCH   8  11
HETATM   11  N   UNL     1     -10.007  11.147  68.030  1.00  0.00    -0.172 N  
HETATM   12  N   UNL     1      -9.874   8.855  68.465  1.00  0.00    -0.162 N  
HETATM   13  C   UNL     1     -10.685  11.320  69.223  1.00  0.00    -0.179 C  
HETATM   14  O   UNL     1     -10.543   8.030  70.482  1.00  0.00    -0.212 OA 
HETATM   15  H   UNL     1      -9.633   7.915  68.151  1.00  0.00     0.000 HD 
HETATM   16  C   UNL     1     -10.915  10.311  70.064  1.00  0.00    -0.371 C  
HETATM   17  C   UNL     1      -9.601   9.889  67.606  1.00  0.00    -0.148 C  
HETATM   18  C   UNL     1     -10.438   8.969  69.702  1.00  0.00    -0.222 C  
HETATM   19  O   UNL     1      -9.013   9.679  66.547  1.00  0.00    -0.142 OA 
ENDBRANCH   8  11
BRANCH   9  20
HETATM   20  O   UNL     1     -10.949  12.408  65.094  1.00  0.00    -0.286 OA 
BRANCH  20  21
HETATM   21  C   UNL     1     -12.185  12.224  64.564  1.00  0.00    -0.388 C  
HETATM   22  C   UNL     1     -12.085  11.632  63.189  1.00  0.00    -0.133 C  
HETATM   23  O   UNL     1     -13.239  12.504  65.115  1.00  0.00    -0.573 OA 
ENDBRANCH  20  21
ENDBRANCH   9  20
BRANCH  10  24
HETATM   24  O   UNL     1     -10.336  14.920  65.135  1.00  0.00    -0.382 OA 
BRANCH  24  25
HETATM   25  C   UNL     1     -11.044  16.006  64.731  1.00  0.00    -0.365 C  
HETATM   26  O   UNL     1     -10.750  17.170  64.956  1.00  0.00    -0.712 OA 
HETATM   27  C   UNL     1     -12.282  15.574  64.001  1.00  0.00     0.090 C  
ENDBRANCH  24  25
ENDBRANCH  10  24
ENDBRANCH   5   6
ENDBRANCH   4   5
ENDBRANCH   2   4
TORSDOF 8
ENDMDL
MODEL       87
REMARK 921   NORMALIZED FREE ENERGY PREDICTED BY IDOCK:   -4.34 KCAL/MOL
REMARK 922        TOTAL FREE ENERGY PREDICTED BY IDOCK:   -7.77 KCAL/MOL
REMARK 923 INTER-LIGAND FREE ENERGY PREDICTED BY IDOCK:   -6.37 KCAL/MOL
REMARK 924 INTRA-LIGAND FREE ENERGY PREDICTED BY IDOCK:   -1.41 KCAL/MOL
REMARK 927      BINDING AFFINITY PREDICTED BY RF-SCORE:    0.00 PKD
ROOT
HETATM    1  C   UNL     1     -11.475  13.837  67.042  1.00  0.00    -0.368 C  
HETATM    2  C   UNL     1     -12.008  12.639  66.320  1.00  0.00    -0.374 C  
HETATM    3  O   UNL     1     -12.672  12.686  65.296  1.00  0.00    -0.652 OA 
ENDROOT
BRANCH   2   4
HETATM    4  O   UNL     1     -11.651  11.500  66.975  1.00  0.00    -0.510 OA 
BRANCH   4   5
HETATM    5  C   UNL     1     -10.438  11.586  67.729  1.00  0.00    -0.188 C  
BRANCH   5   6
HETATM    6  C   UNL     1      -9.624  10.291  67.695  1.00  0.00    -0.152 C  
HETATM    7  O   UNL     1      -9.794   9.627  68.951  1.00  0.00    -0.165 OA 
HETATM    8  C   UNL     1      -9.621   8.225  68.714  1.00  0.00    -0.150 C  
HETATM    9  C   UNL     1     -10.120   7.947  67.289  1.00  0.00    -0.238 C  
HETATM   10  C   UNL     1     -10.048   9.315  66.594  1.00  0.00    -0.271 C  
BRANCH   8  11
HETATM   11  N   UNL     1     -10.320   7.475  69.760  1.00  0.00    -0.215 N  
HETATM   12  N   UNL     1     -10.385   5.668  71.241  1.00  0.00    -0.220 N  
HETATM   13  C   UNL     1     -11.514   7.933  70.289  1.00  0.00    -0.088 C  
HETATM   14  O   UNL     1     -11.973   5.580  72.874  1.00  0.00    -0.209 OA 
HETATM   15  H   UNL     1     -10.001   4.777  71.555  1.00  0.00     0.000 HD 
HETATM   16  C   UNL     1     -12.122   7.324  71.307  1.00  0.00    -0.373 C  
HETATM   17  C   UNL     1      -9.732   6.303  70.215  1.00  0.00    -0.164 C  
HETATM   18  C   UNL     1     -11.502   6.120  71.880  1.00  0.00    -0.300 C  
HETATM   19  O   UNL     1      -8.683   5.844  69.768  1.00  0.00    -0.126 OA 
ENDBRANCH   8  11
BRANCH   9  20
HETATM   20  O   UNL     1      -9.271   6.983  66.637  1.00  0.00    -0.148 OA 
BRANCH  20  21
HETATM   21  C   UNL     1      -9.823   5.789  66.304  1.00  0.00    -0.098 C  
HETATM   22  C   UNL     1      -8.924   5.035  65.370  1.00  0.00    -0.152 C  
HETATM   23  O   UNL     1     -10.905   5.376  66.696  1.00  0.00    -0.277 OA 
ENDBRANCH  20  21
ENDBRANCH   9  20
BRANCH  10  24
HETATM   24  O   UNL     1      -9.048   9.319  65.553  1.00  0.00    -0.193 OA 
BRANCH  24  25
HETATM   25  C   UNL     1      -9.286  10.090  64.460  1.00  0.00    -0.262 C  
HETATM   26  O   UNL     1     -10.360  10.591  64.165  1.00  0.00    -0.313 OA 
HETATM   27  C   UNL     1      -8.043  10.203  63.627  1.00  0.00    -0.163 C  
ENDBRANCH  24  25
ENDBRANCH  10  24
ENDBRANCH   5   6
ENDBRANCH   4   5
ENDBRANCH   2   4
TORSDOF 8
ENDMDL
MODEL       88
REMARK 921   NORMALIZED FREE ENERGY PREDICTED BY IDOCK:   -4.29 KCAL/MOL
REMARK 922        TOTAL FREE ENERGY PREDICTED BY IDOCK:   -7.71 KCAL/MOL
REMARK 923 INTER-LIGAND FREE ENERGY PREDICTED BY IDOCK:   -6.39 KCAL/MOL
REMARK 924 INTRA-LIGAND FREE ENERGY PREDICTED BY IDOCK:   -1.32 KCAL/MOL
REMARK 927      BINDING AFFINITY PREDICTED BY RF-SCORE:    0.00 PKD
ROOT
HETATM    1  C   UNL     1     -14.339  15.250  71.728  1.00  0.00    -0.678 C  
HETATM    2  C   UNL     1     -12.895  15.632  71.811  1.00  0.00    -0.458 C  
HETATM    3  O   UNL     1     -12.327  15.979  72.836  1.00  0.00    -0.426 OA 
ENDROOT
BRANCH   2   4
HETATM    4  O   UNL     1     -12.315  15.543  70.582  1.00  0.00    -0.364 OA 
BRANCH   4   5
HETATM    5  C   UNL     1     -12.717  14.414  69.800  1.00  0.00     0.017 C  
BRANCH   5   6
HETATM    6  C   UNL     1     -11.645  13.325  69.734  1.00  0.00    -0.227 C  
HETATM    7  O   UNL     1     -11.999  12.298  70.666  1.00  0.00    -0.318 OA 
HETATM    8  C   UNL     1     -11.441  11.073  70.177  1.00  0.00    -0.296 C  
HETATM    9  C   UNL     1     -11.443  11.162  68.644  1.00  0.00    -0.298 C  
HETATM   10  C   UNL     1     -11.502  12.670  68.357  1.00  0.00    -0.310 C  
BRANCH   8  11
HETATM   11  N   UNL     1     -12.208   9.950  70.721  1.00  0.00    -0.298 N  
HETATM   12  N   UNL     1     -12.279   7.981  71.979  1.00  0.00    -0.316 N  
HETATM   13  C   UNL     1     -13.579   9.872  70.549  1.00  0.00     0.324 C  
HETATM   14  O   UNL     1     -14.282   7.060  72.556  1.00  0.00     0.168 OA 
HETATM   15  H   UNL     1     -11.785   7.229  72.459  1.00  0.00     0.000 HD 
HETATM   16  C   UNL     1     -14.314   8.914  71.114  1.00  0.00    -0.042 C  
HETATM   17  C   UNL     1     -11.514   8.980  71.431  1.00  0.00    -0.330 C  
HETATM   18  C   UNL     1     -13.640   7.903  71.942  1.00  0.00    -0.290 C  
HETATM   19  O   UNL     1     -10.296   8.992  71.597  1.00  0.00    -0.311 OA 
ENDBRANCH   8  11
BRANCH   9  20
HETATM   20  O   UNL     1     -10.243  10.574  68.104  1.00  0.00    -0.153 OA 
BRANCH  20  21
HETATM   21  C   UNL     1     -10.390   9.536  67.242  1.00  0.00    -0.255 C  
HETATM   22  C   UNL     1      -9.902   9.915  65.875  1.00  0.00    -0.342 C  
HETATM   23  O   UNL     1     -10.859   8.444  67.524  1.00  0.00    -0.191 OA 
ENDBRANCH  20  21
ENDBRANCH   9  20
BRANCH  10  24
HETATM   24  O   UNL     1     -10.282  13.134  67.743  1.00  0.00    -0.223 OA 
BRANCH  24  25
HETATM   25  C   UNL     1     -10.389  14.087  66.781  1.00  0.00    -0.271 C  
HETATM   26  O   UNL     1     -10.835  13.915  65.657  1.00  0.00    -0.283 OA 
HETATM   27  C   UNL     1      -9.831  15.388  67.278  1.00  0.00    -0.217 C  
ENDBRANCH  24  25
ENDBRANCH  10  24
ENDBRANCH   5   6
ENDBRANCH   4   5
ENDBRANCH   2   4
TORSDOF 8
ENDMDL
MODEL       89
REMARK 921   NORMALIZED FREE ENERGY PREDICTED BY IDOCK:   -4.28 KCAL/MOL
REMARK 922        TOTAL FREE ENERGY PREDICTED BY IDOCK:   -7.69 KCAL/MOL
REMARK 923 INTER-LIGAND FREE ENERGY PREDICTED BY IDOCK:   -6.37 KCAL/MOL
REMARK 924 INTRA-LIGAND FREE ENERGY PREDICTED BY IDOCK:   -1.33 KCAL/MOL
REMARK 927      BINDING AFFINITY PREDICTED BY RF-SCORE:    0.00 PKD
ROOT
HETATM    1  C   UNL     1      -9.754   4.701  70.679  1.00  0.00    -0.277 C  
HETATM    2  C   UNL     1      -8.905   5.650  69.893  1.00  0.00    -0.129 C  
HETATM    3  O   UNL     1      -7.742   5.918  70.154  1.00  0.00    -0.091 OA 
ENDROOT
BRANCH   2   4
HETATM    4  O   UNL     1      -9.619   6.169  68.857  1.00  0.00    -0.128 OA 
BRANCH   4   5
HETATM    5  C   UNL     1     -10.620   7.123  69.225  1.00  0.00    -0.221 C  
BRANCH   5   6
HETATM    6  C   UNL     1     -10.083   8.554  69.286  1.00  0.00    -0.202 C  
HETATM    7  O   UNL     1      -9.444   8.842  68.039  1.00  0.00    -0.141 OA 
HETATM    8  C   UNL     1      -9.533  10.256  67.835  1.00  0.00    -0.141 C  
HETATM    9  C   UNL     1     -10.842  10.721  68.490  1.00  0.00    -0.228 C  
HETATM   10  C   UNL     1     -11.162   9.618  69.510  1.00  0.00    -0.109 C  
BRANCH   8  11
HETATM   11  N   UNL     1      -9.438  10.538  66.400  1.00  0.00    -0.167 N  
HETATM   12  N   UNL     1      -8.130  10.782  64.478  1.00  0.00    -0.365 N  
HETATM   13  C   UNL     1     -10.574  10.733  65.635  1.00  0.00    -0.129 C  
HETATM   14  O   UNL     1      -9.119  10.922  62.429  1.00  0.00    -0.288 OA 
HETATM   15  H   UNL     1      -7.210  10.872  64.050  1.00  0.00     0.000 HD 
HETATM   16  C   UNL     1     -10.522  10.893  64.312  1.00  0.00    -0.405 C  
HETATM   17  C   UNL     1      -8.170  10.582  65.835  1.00  0.00    -0.152 C  
HETATM   18  C   UNL     1      -9.210  10.871  63.650  1.00  0.00    -0.226 C  
HETATM   19  O   UNL     1      -7.130  10.435  66.473  1.00  0.00    -0.101 OA 
ENDBRANCH   8  11
BRANCH   9  20
HETATM   20  O   UNL     1     -10.656  11.995  69.137  1.00  0.00    -0.150 OA 
BRANCH  20  21
HETATM   21  C   UNL     1     -11.602  12.945  68.930  1.00  0.00    -0.315 C  
HETATM   22  C   UNL     1     -12.066  13.520  70.236  1.00  0.00    -0.425 C  
HETATM   23  O   UNL     1     -12.033  13.288  67.839  1.00  0.00    -0.345 OA 
ENDBRANCH  20  21
ENDBRANCH   9  20
BRANCH  10  24
HETATM   24  O   UNL     1     -11.060  10.112  70.862  1.00  0.00    -0.338 OA 
BRANCH  24  25
HETATM   25  C   UNL     1     -11.879   9.558  71.793  1.00  0.00    -0.360 C  
HETATM   26  O   UNL     1     -11.654   8.534  72.419  1.00  0.00    -0.372 OA 
HETATM   27  C   UNL     1     -13.141  10.362  71.914  1.00  0.00    -0.563 C  
ENDBRANCH  24  25
ENDBRANCH  10  24
ENDBRANCH   5   6
ENDBRANCH   4   5
ENDBRANCH   2   4
TORSDOF 8
ENDMDL
MODEL       90
REMARK 921   NORMALIZED FREE ENERGY PREDICTED BY IDOCK:   -4.27 KCAL/MOL
REMARK 922        TOTAL FREE ENERGY PREDICTED BY IDOCK:   -7.67 KCAL/MOL
REMARK 923 INTER-LIGAND FREE ENERGY PREDICTED BY IDOCK:   -8.18 KCAL/MOL
REMARK 924 INTRA-LIGAND FREE ENERGY PREDICTED BY IDOCK:    0.51 KCAL/MOL
REMARK 927      BINDING AFFINITY PREDICTED BY RF-SCORE:    0.00 PKD
ROOT
HETATM    1  C   UNL     1     -10.448   7.599  68.247  1.00  0.00    -0.219 C  
HETATM    2  C   UNL     1     -10.501   8.829  69.099  1.00  0.00    -0.217 C  
HETATM    3  O   UNL     1     -10.127   8.883  70.261  1.00  0.00    -0.176 OA 
ENDROOT
BRANCH   2   4
HETATM    4  O   UNL     1     -11.027   9.866  68.392  1.00  0.00    -0.231 OA 
BRANCH   4   5
HETATM    5  C   UNL     1     -10.253  11.069  68.407  1.00  0.00    -0.185 C  
BRANCH   5   6
HETATM    6  C   UNL     1     -11.088  12.317  68.118  1.00  0.00    -0.240 C  
HETATM    7  O   UNL     1     -11.826  12.641  69.300  1.00  0.00    -0.301 OA 
HETATM    8  C   UNL     1     -12.059  14.054  69.280  1.00  0.00    -0.338 C  
HETATM    9  C   UNL     1     -10.858  14.694  68.568  1.00  0.00    -0.250 C  
HETATM   10  C   UNL     1     -10.261  13.549  67.737  1.00  0.00    -0.242 C  
BRANCH   8  11
HETATM   11  N   UNL     1     -12.273  14.522  70.651  1.00  0.00    -0.307 N  
HETATM   12  N   UNL     1     -13.146  14.161  72.789  1.00  0.00    -0.490 N  
HETATM   13  C   UNL     1     -11.725  15.713  71.092  1.00  0.00    -0.413 C  
HETATM   14  O   UNL     1     -12.579  15.545  74.508  1.00  0.00    -0.568 OA 
HETATM   15  H   UNL     1     -13.740  13.615  73.413  1.00  0.00     0.000 HD 
HETATM   16  C   UNL     1     -11.821  16.115  72.359  1.00  0.00    -0.637 C  
HETATM   17  C   UNL     1     -13.026  13.718  71.496  1.00  0.00    -0.363 C  
HETATM   18  C   UNL     1     -12.543  15.264  73.316  1.00  0.00    -0.499 C  
HETATM   19  O   UNL     1     -13.550  12.661  71.150  1.00  0.00     0.233 OA 
ENDBRANCH   8  11
BRANCH   9  20
HETATM   20  O   UNL     1     -11.292  15.781  67.727  1.00  0.00    -0.322 OA 
BRANCH  20  21
HETATM   21  C   UNL     1     -10.557  16.921  67.751  1.00  0.00    -0.340 C  
HETATM   22  C   UNL     1      -9.760  17.060  66.487  1.00  0.00    -0.296 C  
HETATM   23  O   UNL     1     -10.531  17.727  68.669  1.00  0.00    -0.354 OA 
ENDBRANCH  20  21
ENDBRANCH   9  20
BRANCH  10  24
HETATM   24  O   UNL     1     -10.413  13.796  66.323  1.00  0.00    -0.282 OA 
BRANCH  24  25
HETATM   25  C   UNL     1     -11.484  13.238  65.702  1.00  0.00    -0.318 C  
HETATM   26  O   UNL     1     -11.511  12.129  65.191  1.00  0.00    -0.326 OA 
HETATM   27  C   UNL     1     -12.632  14.203  65.686  1.00  0.00    -0.495 C  
ENDBRANCH  24  25
ENDBRANCH  10  24
ENDBRANCH   5   6
ENDBRANCH   4   5
ENDBRANCH   2   4
TORSDOF 8
ENDMDL
MODEL       91
REMARK 921   NORMALIZED FREE ENERGY PREDICTED BY IDOCK:   -4.25 KCAL/MOL
REMARK 922        TOTAL FREE ENERGY PREDICTED BY IDOCK:   -7.64 KCAL/MOL
REMARK 923 INTER-LIGAND FREE ENERGY PREDICTED BY IDOCK:   -7.11 KCAL/MOL
REMARK 924 INTRA-LIGAND FREE ENERGY PREDICTED BY IDOCK:   -0.54 KCAL/MOL
REMARK 927      BINDING AFFINITY PREDICTED BY RF-SCORE:    0.00 PKD
ROOT
HETATM    1  C   UNL     1      -8.785   4.105  66.852  1.00  0.00    -0.114 C  
HETATM    2  C   UNL     1     -10.031   4.867  66.521  1.00  0.00    -0.232 C  
HETATM    3  O   UNL     1     -10.769   4.613  65.581  1.00  0.00    -0.295 OA 
ENDROOT
BRANCH   2   4
HETATM    4  O   UNL     1     -10.213   5.878  67.414  1.00  0.00    -0.153 OA 
BRANCH   4   5
HETATM    5  C   UNL     1     -10.829   7.056  66.883  1.00  0.00    -0.280 C  
BRANCH   5   6
HETATM    6  C   UNL     1      -9.999   8.319  67.120  1.00  0.00    -0.239 C  
HETATM    7  O   UNL     1     -10.154   9.171  65.982  1.00  0.00    -0.284 OA 
HETATM    8  C   UNL     1      -9.964  10.517  66.433  1.00  0.00    -0.218 C  
HETATM    9  C   UNL     1     -10.470  10.578  67.882  1.00  0.00    -0.210 C  
HETATM   10  C   UNL     1     -10.418   9.119  68.357  1.00  0.00    -0.199 C  
BRANCH   8  11
HETATM   11  N   UNL     1     -10.648  11.429  65.512  1.00  0.00    -0.274 N  
HETATM   12  N   UNL     1     -10.859  12.345  63.372  1.00  0.00    -0.552 N  
HETATM   13  C   UNL     1     -11.762  12.145  65.913  1.00  0.00    -0.328 C  
HETATM   14  O   UNL     1     -12.684  13.602  62.838  1.00  0.00    -0.577 OA 
HETATM   15  H   UNL     1     -10.482  12.479  62.434  1.00  0.00     0.000 HD 
HETATM   16  C   UNL     1     -12.460  12.906  65.070  1.00  0.00    -0.553 C  
HETATM   17  C   UNL     1     -10.150  11.532  64.220  1.00  0.00    -0.291 C  
HETATM   18  C   UNL     1     -12.023  12.991  63.669  1.00  0.00    -0.539 C  
HETATM   19  O   UNL     1      -9.154  10.933  63.819  1.00  0.00    -0.201 OA 
ENDBRANCH   8  11
BRANCH   9  20
HETATM   20  O   UNL     1      -9.613  11.419  68.678  1.00  0.00    -0.195 OA 
BRANCH  20  21
HETATM   21  C   UNL     1      -8.665  12.139  68.027  1.00  0.00    -0.180 C  
HETATM   22  C   UNL     1      -7.362  11.396  68.005  1.00  0.00    -0.090 C  
HETATM   23  O   UNL     1      -8.833  13.243  67.530  1.00  0.00    -0.184 OA 
ENDBRANCH  20  21
ENDBRANCH   9  20
BRANCH  10  24
HETATM   24  O   UNL     1      -9.425   8.940  69.389  1.00  0.00    -0.158 OA 
BRANCH  24  25
HETATM   25  C   UNL     1      -9.755   8.153  70.445  1.00  0.00    -0.178 C  
HETATM   26  O   UNL     1      -9.645   6.937  70.488  1.00  0.00    -0.169 OA 
HETATM   27  C   UNL     1     -10.329   8.988  71.553  1.00  0.00    -0.412 C  
ENDBRANCH  24  25
ENDBRANCH  10  24
ENDBRANCH   5   6
ENDBRANCH   4   5
ENDBRANCH   2   4
TORSDOF 8
ENDMDL
MODEL       92
REMARK 921   NORMALIZED FREE ENERGY PREDICTED BY IDOCK:   -4.25 KCAL/MOL
REMARK 922        TOTAL FREE ENERGY PREDICTED BY IDOCK:   -7.64 KCAL/MOL
REMARK 923 INTER-LIGAND FREE ENERGY PREDICTED BY IDOCK:   -7.03 KCAL/MOL
REMARK 924 INTRA-LIGAND FREE ENERGY PREDICTED BY IDOCK:   -0.61 KCAL/MOL
REMARK 927      BINDING AFFINITY PREDICTED BY RF-SCORE:    0.00 PKD
ROOT
HETATM    1  C   UNL     1     -11.683   8.647  72.386  1.00  0.00    -0.393 C  
HETATM    2  C   UNL     1     -12.662   9.401  71.541  1.00  0.00    -0.361 C  
HETATM    3  O   UNL     1     -13.877   9.295  71.626  1.00  0.00    -0.364 OA 
ENDROOT
BRANCH   2   4
HETATM    4  O   UNL     1     -12.003  10.211  70.668  1.00  0.00    -0.289 OA 
BRANCH   4   5
HETATM    5  C   UNL     1     -12.596  11.497  70.463  1.00  0.00    -0.201 C  
BRANCH   5   6
HETATM    6  C   UNL     1     -11.623  12.511  69.860  1.00  0.00    -0.169 C  
HETATM    7  O   UNL     1     -10.633  11.790  69.121  1.00  0.00    -0.172 OA 
HETATM    8  C   UNL     1     -10.162  12.659  68.085  1.00  0.00    -0.240 C  
HETATM    9  C   UNL     1     -11.343  13.556  67.684  1.00  0.00    -0.296 C  
HETATM   10  C   UNL     1     -12.276  13.512  68.903  1.00  0.00    -0.159 C  
BRANCH   8  11
HETATM   11  N   UNL     1      -9.617  11.847  66.994  1.00  0.00    -0.187 N  
HETATM   12  N   UNL     1      -7.769  11.056  65.802  1.00  0.00    -0.353 N  
HETATM   13  C   UNL     1     -10.442  11.061  66.209  1.00  0.00    -0.254 C  
HETATM   14  O   UNL     1      -8.018   9.371  64.286  1.00  0.00    -0.119 OA 
HETATM   15  H   UNL     1      -6.771  11.104  65.597  1.00  0.00     0.000 HD 
HETATM   16  C   UNL     1      -9.964  10.240  65.274  1.00  0.00    -0.387 C  
HETATM   17  C   UNL     1      -8.245  11.881  66.790  1.00  0.00    -0.129 C  
HETATM   18  C   UNL     1      -8.509  10.177  65.067  1.00  0.00    -0.163 C  
HETATM   19  O   UNL     1      -7.471  12.575  67.445  1.00  0.00    -0.142 OA 
ENDBRANCH   8  11
BRANCH   9  20
HETATM   20  O   UNL     1     -10.888  14.897  67.419  1.00  0.00    -0.289 OA 
BRANCH  20  21
HETATM   21  C   UNL     1     -10.387  15.154  66.185  1.00  0.00    -0.301 C  
HETATM   22  C   UNL     1     -11.306  14.628  65.123  1.00  0.00    -0.375 C  
HETATM   23  O   UNL     1      -9.332  15.726  65.956  1.00  0.00    -0.317 OA 
ENDBRANCH  20  21
ENDBRANCH   9  20
BRANCH  10  24
HETATM   24  O   UNL     1     -12.350  14.800  69.550  1.00  0.00    -0.265 OA 
BRANCH  24  25
HETATM   25  C   UNL     1     -12.340  14.819  70.908  1.00  0.00    -0.319 C  
HETATM   26  O   UNL     1     -11.349  14.949  71.610  1.00  0.00    -0.315 OA 
HETATM   27  C   UNL     1     -13.727  14.604  71.438  1.00  0.00    -0.474 C  
ENDBRANCH  24  25
ENDBRANCH  10  24
ENDBRANCH   5   6
ENDBRANCH   4   5
ENDBRANCH   2   4
TORSDOF 8
ENDMDL
MODEL       93
REMARK 921   NORMALIZED FREE ENERGY PREDICTED BY IDOCK:   -4.24 KCAL/MOL
REMARK 922        TOTAL FREE ENERGY PREDICTED BY IDOCK:   -7.63 KCAL/MOL
REMARK 923 INTER-LIGAND FREE ENERGY PREDICTED BY IDOCK:   -6.25 KCAL/MOL
REMARK 924 INTRA-LIGAND FREE ENERGY PREDICTED BY IDOCK:   -1.38 KCAL/MOL
REMARK 927      BINDING AFFINITY PREDICTED BY RF-SCORE:    0.00 PKD
ROOT
HETATM    1  C   UNL     1     -13.104   8.869  72.570  1.00  0.00    -0.426 C  
HETATM    2  C   UNL     1     -12.222   8.405  71.453  1.00  0.00    -0.302 C  
HETATM    3  O   UNL     1     -11.637   7.333  71.432  1.00  0.00    -0.257 OA 
ENDROOT
BRANCH   2   4
HETATM    4  O   UNL     1     -12.166   9.351  70.476  1.00  0.00    -0.149 OA 
BRANCH   4   5
HETATM    5  C   UNL     1     -11.144  10.339  70.642  1.00  0.00    -0.280 C  
BRANCH   5   6
HETATM    6  C   UNL     1     -10.231  10.460  69.421  1.00  0.00    -0.234 C  
HETATM    7  O   UNL     1      -9.879   9.140  68.998  1.00  0.00    -0.166 OA 
HETATM    8  C   UNL     1      -9.618   9.202  67.591  1.00  0.00    -0.149 C  
HETATM    9  C   UNL     1     -10.532  10.294  67.015  1.00  0.00    -0.244 C  
HETATM   10  C   UNL     1     -10.875  11.172  68.227  1.00  0.00    -0.212 C  
BRANCH   8  11
HETATM   11  N   UNL     1      -9.818   7.873  67.010  1.00  0.00    -0.203 N  
HETATM   12  N   UNL     1      -9.143   6.204  65.518  1.00  0.00    -0.365 N  
HETATM   13  C   UNL     1     -10.812   7.032  67.478  1.00  0.00    -0.267 C  
HETATM   14  O   UNL     1     -10.059   4.121  65.637  1.00  0.00    -0.211 OA 
HETATM   15  H   UNL     1      -8.563   5.914  64.732  1.00  0.00     0.000 HD 
HETATM   16  C   UNL     1     -10.954   5.782  67.035  1.00  0.00    -0.225 C  
HETATM   17  C   UNL     1      -8.963   7.481  65.988  1.00  0.00    -0.127 C  
HETATM   18  C   UNL     1     -10.026   5.288  66.007  1.00  0.00    -0.124 C  
HETATM   19  O   UNL     1      -8.077   8.195  65.523  1.00  0.00    -0.114 OA 
ENDBRANCH   8  11
BRANCH   9  20
HETATM   20  O   UNL     1      -9.838  11.048  66.002  1.00  0.00    -0.211 OA 
BRANCH  20  21
HETATM   21  C   UNL     1     -10.457  11.201  64.804  1.00  0.00    -0.323 C  
HETATM   22  C   UNL     1      -9.612  10.642  63.698  1.00  0.00    -0.360 C  
HETATM   23  O   UNL     1     -11.548  11.726  64.634  1.00  0.00    -0.285 OA 
ENDBRANCH  20  21
ENDBRANCH   9  20
BRANCH  10  24
HETATM   24  O   UNL     1     -10.297  12.488  68.099  1.00  0.00    -0.218 OA 
BRANCH  24  25
HETATM   25  C   UNL     1     -10.919  13.509  68.743  1.00  0.00    -0.261 C  
HETATM   26  O   UNL     1     -12.107  13.553  69.026  1.00  0.00    -0.341 OA 
HETATM   27  C   UNL     1      -9.944  14.616  69.020  1.00  0.00    -0.195 C  
ENDBRANCH  24  25
ENDBRANCH  10  24
ENDBRANCH   5   6
ENDBRANCH   4   5
ENDBRANCH   2   4
TORSDOF 8
ENDMDL
MODEL       94
REMARK 921   NORMALIZED FREE ENERGY PREDICTED BY IDOCK:   -4.23 KCAL/MOL
REMARK 922        TOTAL FREE ENERGY PREDICTED BY IDOCK:   -7.62 KCAL/MOL
REMARK 923 INTER-LIGAND FREE ENERGY PREDICTED BY IDOCK:   -6.26 KCAL/MOL
REMARK 924 INTRA-LIGAND FREE ENERGY PREDICTED BY IDOCK:   -1.36 KCAL/MOL
REMARK 927      BINDING AFFINITY PREDICTED BY RF-SCORE:    0.00 PKD
ROOT
HETATM    1  C   UNL     1      -9.817   5.292  69.298  1.00  0.00    -0.256 C  
HETATM    2  C   UNL     1      -9.756   5.606  67.835  1.00  0.00    -0.125 C  
HETATM    3  O   UNL     1      -8.993   5.073  67.044  1.00  0.00    -0.113 OA 
ENDROOT
BRANCH   2   4
HETATM    4  O   UNL     1     -10.667   6.569  67.524  1.00  0.00    -0.238 OA 
BRANCH   4   5
HETATM    5  C   UNL     1     -10.362   7.877  68.018  1.00  0.00    -0.209 C  
BRANCH   5   6
HETATM    6  C   UNL     1      -9.321   8.606  67.165  1.00  0.00    -0.151 C  
HETATM    7  O   UNL     1     -10.008   9.274  66.103  1.00  0.00    -0.279 OA 
HETATM    8  C   UNL     1      -9.216  10.409  65.736  1.00  0.00    -0.174 C  
HETATM    9  C   UNL     1      -8.507  10.890  67.010  1.00  0.00    -0.134 C  
HETATM   10  C   UNL     1      -8.514   9.659  67.929  1.00  0.00    -0.122 C  
BRANCH   8  11
HETATM   11  N   UNL     1     -10.081  11.410  65.107  1.00  0.00    -0.257 N  
HETATM   12  N   UNL     1     -10.772  12.555  63.190  1.00  0.00    -0.606 N  
HETATM   13  C   UNL     1     -11.058  12.067  65.834  1.00  0.00    -0.324 C  
HETATM   14  O   UNL     1     -12.651  13.846  63.240  1.00  0.00    -0.824 OA 
HETATM   15  H   UNL     1     -10.623  12.796  62.211  1.00  0.00     0.000 HD 
HETATM   16  C   UNL     1     -11.922  12.909  65.267  1.00  0.00    -0.459 C  
HETATM   17  C   UNL     1      -9.898  11.660  63.754  1.00  0.00    -0.315 C  
HETATM   18  C   UNL     1     -11.823  13.153  63.821  1.00  0.00    -0.486 C  
HETATM   19  O   UNL     1      -9.034  11.119  63.067  1.00  0.00    -0.247 OA 
ENDBRANCH   8  11
BRANCH   9  20
HETATM   20  O   UNL     1      -7.162  11.311  66.709  1.00  0.00    -0.133 OA 
BRANCH  20  21
HETATM   21  C   UNL     1      -6.786  12.545  67.128  1.00  0.00    -0.054 C  
HETATM   22  C   UNL     1      -7.979  13.334  67.581  1.00  0.00    -0.176 C  
HETATM   23  O   UNL     1      -5.641  12.971  67.134  1.00  0.00    -0.349 OA 
ENDBRANCH  20  21
ENDBRANCH   9  20
BRANCH  10  24
HETATM   24  O   UNL     1      -7.177   9.160  68.144  1.00  0.00    -0.077 OA 
BRANCH  24  25
HETATM   25  C   UNL     1      -6.814   8.875  69.421  1.00  0.00    -0.049 C  
HETATM   26  O   UNL     1      -7.337   8.035  70.138  1.00  0.00    -0.059 OA 
HETATM   27  C   UNL     1      -5.698   9.778  69.855  1.00  0.00    -0.041 C  
ENDBRANCH  24  25
ENDBRANCH  10  24
ENDBRANCH   5   6
ENDBRANCH   4   5
ENDBRANCH   2   4
TORSDOF 8
ENDMDL
MODEL       95
REMARK 921   NORMALIZED FREE ENERGY PREDICTED BY IDOCK:   -4.22 KCAL/MOL
REMARK 922        TOTAL FREE ENERGY PREDICTED BY IDOCK:   -7.60 KCAL/MOL
REMARK 923 INTER-LIGAND FREE ENERGY PREDICTED BY IDOCK:   -6.27 KCAL/MOL
REMARK 924 INTRA-LIGAND FREE ENERGY PREDICTED BY IDOCK:   -1.33 KCAL/MOL
REMARK 927      BINDING AFFINITY PREDICTED BY RF-SCORE:    0.00 PKD
ROOT
HETATM    1  C   UNL     1     -12.631  13.204  65.225  1.00  0.00    -0.531 C  
HETATM    2  C   UNL     1     -11.203  13.061  64.796  1.00  0.00    -0.317 C  
HETATM    3  O   UNL     1     -10.455  13.997  64.558  1.00  0.00    -0.424 OA 
ENDROOT
BRANCH   2   4
HETATM    4  O   UNL     1     -10.870  11.744  64.707  1.00  0.00    -0.283 OA 
BRANCH   4   5
HETATM    5  C   UNL     1     -10.067  11.246  65.781  1.00  0.00    -0.247 C  
BRANCH   5   6
HETATM    6  C   UNL     1     -10.766  10.150  66.587  1.00  0.00    -0.086 C  
HETATM    7  O   UNL     1     -10.148   8.900  66.266  1.00  0.00    -0.293 OA 
HETATM    8  C   UNL     1     -10.306   8.046  67.405  1.00  0.00    -0.284 C  
HETATM    9  C   UNL     1     -10.293   8.950  68.647  1.00  0.00    -0.204 C  
HETATM   10  C   UNL     1     -10.675  10.336  68.105  1.00  0.00    -0.246 C  
BRANCH   8  11
HETATM   11  N   UNL     1      -9.255   7.026  67.385  1.00  0.00    -0.125 N  
HETATM   12  N   UNL     1      -8.503   4.924  66.695  1.00  0.00    -0.107 N  
HETATM   13  C   UNL     1      -8.021   7.263  67.962  1.00  0.00    -0.119 C  
HETATM   14  O   UNL     1      -6.314   4.346  66.957  1.00  0.00    -0.038 OA 
HETATM   15  H   UNL     1      -8.702   4.013  66.280  1.00  0.00     0.000 HD 
HETATM   16  C   UNL     1      -7.015   6.392  67.874  1.00  0.00    -0.076 C  
HETATM   17  C   UNL     1      -9.536   5.825  66.748  1.00  0.00    -0.147 C  
HETATM   18  C   UNL     1      -7.233   5.134  67.144  1.00  0.00    -0.081 C  
HETATM   19  O   UNL     1     -10.621   5.557  66.236  1.00  0.00    -0.233 OA 
ENDBRANCH   8  11
BRANCH   9  20
HETATM   20  O   UNL     1     -11.251   8.485  69.617  1.00  0.00    -0.086 OA 
BRANCH  20  21
HETATM   21  C   UNL     1     -10.782   7.739  70.649  1.00  0.00    -0.231 C  
HETATM   22  C   UNL     1     -10.490   8.607  71.837  1.00  0.00    -0.410 C  
HETATM   23  O   UNL     1     -10.610   6.529  70.626  1.00  0.00    -0.217 OA 
ENDBRANCH  20  21
ENDBRANCH   9  20
BRANCH  10  24
HETATM   24  O   UNL     1     -11.962  10.755  68.604  1.00  0.00    -0.449 OA 
BRANCH  24  25
HETATM   25  C   UNL     1     -11.987  11.806  69.464  1.00  0.00    -0.300 C  
HETATM   26  O   UNL     1     -12.184  11.734  70.668  1.00  0.00    -0.371 OA 
HETATM   27  C   UNL     1     -11.785  13.091  68.717  1.00  0.00    -0.363 C  
ENDBRANCH  24  25
ENDBRANCH  10  24
ENDBRANCH   5   6
ENDBRANCH   4   5
ENDBRANCH   2   4
TORSDOF 8
ENDMDL
MODEL       96
REMARK 921   NORMALIZED FREE ENERGY PREDICTED BY IDOCK:   -4.21 KCAL/MOL
REMARK 922        TOTAL FREE ENERGY PREDICTED BY IDOCK:   -7.59 KCAL/MOL
REMARK 923 INTER-LIGAND FREE ENERGY PREDICTED BY IDOCK:   -6.28 KCAL/MOL
REMARK 924 INTRA-LIGAND FREE ENERGY PREDICTED BY IDOCK:   -1.30 KCAL/MOL
REMARK 927      BINDING AFFINITY PREDICTED BY RF-SCORE:    0.00 PKD
ROOT
HETATM    1  C   UNL     1      -8.334   8.723  64.635  1.00  0.00    -0.175 C  
HETATM    2  C   UNL     1      -7.236   8.885  65.640  1.00  0.00    -0.085 C  
HETATM    3  O   UNL     1      -6.070   9.119  65.360  1.00  0.00    -0.061 OA 
ENDROOT
BRANCH   2   4
HETATM    4  O   UNL     1      -7.727   8.727  66.900  1.00  0.00    -0.093 OA 
BRANCH   4   5
HETATM    5  C   UNL     1      -8.204   9.924  67.522  1.00  0.00    -0.114 C  
BRANCH   5   6
HETATM    6  C   UNL     1      -9.678   9.840  67.921  1.00  0.00    -0.144 C  
HETATM    7  O   UNL     1      -9.845   8.691  68.758  1.00  0.00    -0.164 OA 
HETATM    8  C   UNL     1     -10.960   8.954  69.618  1.00  0.00    -0.123 C  
HETATM    9  C   UNL     1     -10.978  10.468  69.876  1.00  0.00    -0.298 C  
HETATM   10  C   UNL     1     -10.186  11.057  68.699  1.00  0.00    -0.199 C  
BRANCH   8  11
HETATM   11  N   UNL     1     -10.834   8.133  70.825  1.00  0.00    -0.224 N  
HETATM   12  N   UNL     1     -11.016   6.052  71.874  1.00  0.00    -0.253 N  
HETATM   13  C   UNL     1     -10.335   8.666  72.001  1.00  0.00    -0.346 C  
HETATM   14  O   UNL     1     -10.162   5.743  73.964  1.00  0.00    -0.219 OA 
HETATM   15  H   UNL     1     -11.337   5.085  71.852  1.00  0.00     0.000 HD 
HETATM   16  C   UNL     1     -10.119   7.920  73.084  1.00  0.00    -0.362 C  
HETATM   17  C   UNL     1     -11.213   6.800  70.740  1.00  0.00    -0.304 C  
HETATM   18  C   UNL     1     -10.430   6.485  73.027  1.00  0.00    -0.234 C  
HETATM   19  O   UNL     1     -11.678   6.283  69.727  1.00  0.00    -0.403 OA 
ENDBRANCH   8  11
BRANCH   9  20
HETATM   20  O   UNL     1     -12.333  10.958  69.893  1.00  0.00    -0.326 OA 
BRANCH  20  21
HETATM   21  C   UNL     1     -12.825  11.390  71.082  1.00  0.00    -0.341 C  
HETATM   22  C   UNL     1     -12.767  12.886  71.164  1.00  0.00    -0.366 C  
HETATM   23  O   UNL     1     -13.252  10.671  71.973  1.00  0.00    -0.473 OA 
ENDBRANCH  20  21
ENDBRANCH   9  20
BRANCH  10  24
HETATM   24  O   UNL     1     -11.037  11.842  67.838  1.00  0.00    -0.215 OA 
BRANCH  24  25
HETATM   25  C   UNL     1     -10.524  12.994  67.334  1.00  0.00    -0.234 C  
HETATM   26  O   UNL     1      -9.938  13.105  66.267  1.00  0.00    -0.274 OA 
HETATM   27  C   UNL     1     -10.735  14.121  68.302  1.00  0.00    -0.256 C  
ENDBRANCH  24  25
ENDBRANCH  10  24
ENDBRANCH   5   6
ENDBRANCH   4   5
ENDBRANCH   2   4
TORSDOF 8
ENDMDL
MODEL       97
REMARK 921   NORMALIZED FREE ENERGY PREDICTED BY IDOCK:   -4.18 KCAL/MOL
REMARK 922        TOTAL FREE ENERGY PREDICTED BY IDOCK:   -7.54 KCAL/MOL
REMARK 923 INTER-LIGAND FREE ENERGY PREDICTED BY IDOCK:   -6.19 KCAL/MOL
REMARK 924 INTRA-LIGAND FREE ENERGY PREDICTED BY IDOCK:   -1.35 KCAL/MOL
REMARK 927      BINDING AFFINITY PREDICTED BY RF-SCORE:    0.00 PKD
ROOT
HETATM    1  C   UNL     1      -5.914  10.797  70.230  1.00  0.00    -0.119 C  
HETATM    2  C   UNL     1      -6.509  10.437  68.904  1.00  0.00    -0.052 C  
HETATM    3  O   UNL     1      -6.016   9.643  68.116  1.00  0.00    -0.046 OA 
ENDROOT
BRANCH   2   4
HETATM    4  O   UNL     1      -7.666  11.126  68.707  1.00  0.00    -0.121 OA 
BRANCH   4   5
HETATM    5  C   UNL     1      -7.524  12.548  68.635  1.00  0.00    -0.090 C  
BRANCH   5   6
HETATM    6  C   UNL     1      -8.849  13.265  68.369  1.00  0.00    -0.124 C  
HETATM    7  O   UNL     1      -8.618  14.674  68.469  1.00  0.00    -0.159 OA 
HETATM    8  C   UNL     1      -9.583  15.320  67.631  1.00  0.00    -0.206 C  
HETATM    9  C   UNL     1      -9.863  14.370  66.457  1.00  0.00    -0.287 C  
HETATM   10  C   UNL     1      -9.441  12.990  66.984  1.00  0.00    -0.237 C  
BRANCH   8  11
HETATM   11  N   UNL     1      -9.069  16.635  67.240  1.00  0.00    -0.213 N  
HETATM   12  N   UNL     1      -9.071  18.957  67.500  1.00  0.00    -0.279 N  
HETATM   13  C   UNL     1      -8.048  16.755  66.313  1.00  0.00    -0.330 C  
HETATM   14  O   UNL     1      -7.459  20.225  66.506  1.00  0.00    -0.271 OA 
HETATM   15  H   UNL     1      -9.501  19.795  67.892  1.00  0.00     0.000 HD 
HETATM   16  C   UNL     1      -7.495  17.929  66.010  1.00  0.00    -0.279 C  
HETATM   17  C   UNL     1      -9.627  17.752  67.846  1.00  0.00    -0.280 C  
HETATM   18  C   UNL     1      -7.996  19.138  66.681  1.00  0.00    -0.272 C  
HETATM   19  O   UNL     1     -10.547  17.702  68.661  1.00  0.00    -0.335 OA 
ENDBRANCH   8  11
BRANCH   9  20
HETATM   20  O   UNL     1     -11.262  14.395  66.113  1.00  0.00    -0.324 OA 
BRANCH  20  21
HETATM   21  C   UNL     1     -11.579  14.525  64.800  1.00  0.00    -0.413 C  
HETATM   22  C   UNL     1     -11.473  15.960  64.373  1.00  0.00    -0.268 C  
HETATM   23  O   UNL     1     -11.913  13.613  64.060  1.00  0.00    -0.437 OA 
ENDBRANCH  20  21
ENDBRANCH   9  20
BRANCH  10  24
HETATM   24  O   UNL     1     -10.580  12.116  67.127  1.00  0.00    -0.219 OA 
BRANCH  24  25
HETATM   25  C   UNL     1     -10.544  10.929  66.468  1.00  0.00    -0.237 C  
HETATM   26  O   UNL     1     -10.397  10.789  65.264  1.00  0.00    -0.280 OA 
HETATM   27  C   UNL     1     -10.760   9.797  67.429  1.00  0.00    -0.314 C  
ENDBRANCH  24  25
ENDBRANCH  10  24
ENDBRANCH   5   6
ENDBRANCH   4   5
ENDBRANCH   2   4
TORSDOF 8
ENDMDL
MODEL       98
REMARK 921   NORMALIZED FREE ENERGY PREDICTED BY IDOCK:   -4.17 KCAL/MOL
REMARK 922        TOTAL FREE ENERGY PREDICTED BY IDOCK:   -7.53 KCAL/MOL
REMARK 923 INTER-LIGAND FREE ENERGY PREDICTED BY IDOCK:   -6.32 KCAL/MOL
REMARK 924 INTRA-LIGAND FREE ENERGY PREDICTED BY IDOCK:   -1.22 KCAL/MOL
REMARK 927      BINDING AFFINITY PREDICTED BY RF-SCORE:    0.00 PKD
ROOT
HETATM    1  C   UNL     1     -12.199  14.576  66.586  1.00  0.00    -0.250 C  
HETATM    2  C   UNL     1     -11.608  14.858  67.932  1.00  0.00    -0.344 C  
HETATM    3  O   UNL     1     -11.774  15.894  68.558  1.00  0.00    -0.383 OA 
ENDROOT
BRANCH   2   4
HETATM    4  O   UNL     1     -10.860  13.799  68.347  1.00  0.00    -0.237 OA 
BRANCH   4   5
HETATM    5  C   UNL     1     -11.522  12.899  69.242  1.00  0.00    -0.282 C  
BRANCH   5   6
HETATM    6  C   UNL     1     -11.664  11.488  68.668  1.00  0.00    -0.326 C  
HETATM    7  O   UNL     1     -10.919  11.429  67.448  1.00  0.00    -0.240 OA 
HETATM    8  C   UNL     1     -10.510  10.069  67.268  1.00  0.00    -0.254 C  
HETATM    9  C   UNL     1     -10.302   9.476  68.670  1.00  0.00    -0.205 C  
HETATM   10  C   UNL     1     -11.135  10.383  69.587  1.00  0.00    -0.276 C  
BRANCH   8  11
HETATM   11  N   UNL     1      -9.321  10.037  66.413  1.00  0.00    -0.162 N  
HETATM   12  N   UNL     1      -8.321  10.441  64.339  1.00  0.00    -0.216 N  
HETATM   13  C   UNL     1      -8.090   9.658  66.917  1.00  0.00    -0.113 C  
HETATM   14  O   UNL     1      -6.055  10.343  64.120  1.00  0.00    -0.136 OA 
HETATM   15  H   UNL     1      -8.416  10.667  63.349  1.00  0.00     0.000 HD 
HETATM   16  C   UNL     1      -6.975   9.714  66.188  1.00  0.00    -0.093 C  
HETATM   17  C   UNL     1      -9.472  10.421  65.087  1.00  0.00    -0.249 C  
HETATM   18  C   UNL     1      -7.063  10.186  64.798  1.00  0.00    -0.129 C  
HETATM   19  O   UNL     1     -10.545  10.748  64.585  1.00  0.00    -0.328 OA 
ENDBRANCH   8  11
BRANCH   9  20
HETATM   20  O   UNL     1     -10.770   8.114  68.715  1.00  0.00    -0.159 OA 
BRANCH  20  21
HETATM   21  C   UNL     1      -9.888   7.164  69.116  1.00  0.00    -0.160 C  
HETATM   22  C   UNL     1     -10.488   5.796  68.977  1.00  0.00    -0.336 C  
HETATM   23  O   UNL     1      -8.762   7.378  69.540  1.00  0.00    -0.136 OA 
ENDBRANCH  20  21
ENDBRANCH   9  20
BRANCH  10  24
HETATM   24  O   UNL     1     -12.254   9.668  70.152  1.00  0.00    -0.014 OA 
BRANCH  24  25
HETATM   25  C   UNL     1     -12.427   9.739  71.497  1.00  0.00    -0.403 C  
HETATM   26  O   UNL     1     -13.179  10.507  72.077  1.00  0.00    -0.464 OA 
HETATM   27  C   UNL     1     -11.519   8.764  72.186  1.00  0.00    -0.421 C  
ENDBRANCH  24  25
ENDBRANCH  10  24
ENDBRANCH   5   6
ENDBRANCH   4   5
ENDBRANCH   2   4
TORSDOF 8
ENDMDL
MODEL       99
REMARK 921   NORMALIZED FREE ENERGY PREDICTED BY IDOCK:   -4.17 KCAL/MOL
REMARK 922        TOTAL FREE ENERGY PREDICTED BY IDOCK:   -7.53 KCAL/MOL
REMARK 923 INTER-LIGAND FREE ENERGY PREDICTED BY IDOCK:   -6.80 KCAL/MOL
REMARK 924 INTRA-LIGAND FREE ENERGY PREDICTED BY IDOCK:   -0.73 KCAL/MOL
REMARK 927      BINDING AFFINITY PREDICTED BY RF-SCORE:    0.00 PKD
ROOT
HETATM    1  C   UNL     1     -13.536   9.305  72.002  1.00  0.00    -0.519 C  
HETATM    2  C   UNL     1     -12.946  10.664  71.790  1.00  0.00    -0.472 C  
HETATM    3  O   UNL     1     -13.514  11.714  72.051  1.00  0.00    -0.411 OA 
ENDROOT
BRANCH   2   4
HETATM    4  O   UNL     1     -11.696  10.555  71.262  1.00  0.00    -0.306 OA 
BRANCH   4   5
HETATM    5  C   UNL     1     -11.533   9.516  70.292  1.00  0.00    -0.206 C  
BRANCH   5   6
HETATM    6  C   UNL     1     -10.445   9.829  69.263  1.00  0.00    -0.219 C  
HETATM    7  O   UNL     1      -9.775   8.607  68.941  1.00  0.00    -0.164 OA 
HETATM    8  C   UNL     1      -9.268   8.741  67.609  1.00  0.00    -0.134 C  
HETATM    9  C   UNL     1     -10.246   9.648  66.848  1.00  0.00    -0.237 C  
HETATM   10  C   UNL     1     -10.974  10.425  67.955  1.00  0.00    -0.291 C  
BRANCH   8  11
HETATM   11  N   UNL     1      -9.099   7.407  67.027  1.00  0.00    -0.131 N  
HETATM   12  N   UNL     1     -10.042   5.468  66.127  1.00  0.00    -0.354 N  
HETATM   13  C   UNL     1      -7.839   6.899  66.764  1.00  0.00    -0.107 C  
HETATM   14  O   UNL     1      -8.724   3.925  65.089  1.00  0.00    -0.112 OA 
HETATM   15  H   UNL     1     -10.867   4.895  65.949  1.00  0.00     0.000 HD 
HETATM   16  C   UNL     1      -7.657   5.731  66.146  1.00  0.00    -0.090 C  
HETATM   17  C   UNL     1     -10.245   6.683  66.731  1.00  0.00    -0.195 C  
HETATM   18  C   UNL     1      -8.839   4.957  65.741  1.00  0.00    -0.135 C  
HETATM   19  O   UNL     1     -11.386   7.080  66.961  1.00  0.00    -0.238 OA 
ENDBRANCH   8  11
BRANCH   9  20
HETATM   20  O   UNL     1      -9.529  10.537  65.970  1.00  0.00    -0.170 OA 
BRANCH  20  21
HETATM   21  C   UNL     1      -9.762  10.420  64.638  1.00  0.00    -0.329 C  
HETATM   22  C   UNL     1     -10.854  11.356  64.211  1.00  0.00    -0.416 C  
HETATM   23  O   UNL     1      -9.177   9.659  63.882  1.00  0.00    -0.249 OA 
ENDBRANCH  20  21
ENDBRANCH   9  20
BRANCH  10  24
HETATM   24  O   UNL     1     -10.643  11.829  67.913  1.00  0.00    -0.191 OA 
BRANCH  24  25
HETATM   25  C   UNL     1     -11.672  12.714  67.885  1.00  0.00    -0.358 C  
HETATM   26  O   UNL     1     -12.377  12.954  66.917  1.00  0.00    -0.384 OA 
HETATM   27  C   UNL     1     -11.797  13.403  69.212  1.00  0.00    -0.385 C  
ENDBRANCH  24  25
ENDBRANCH  10  24
ENDBRANCH   5   6
ENDBRANCH   4   5
ENDBRANCH   2   4
TORSDOF 8
ENDMDL
MODEL      100
REMARK 921   NORMALIZED FREE ENERGY PREDICTED BY IDOCK:   -4.14 KCAL/MOL
REMARK 922        TOTAL FREE ENERGY PREDICTED BY IDOCK:   -7.48 KCAL/MOL
REMARK 923 INTER-LIGAND FREE ENERGY PREDICTED BY IDOCK:   -6.38 KCAL/MOL
REMARK 924 INTRA-LIGAND FREE ENERGY PREDICTED BY IDOCK:   -1.11 KCAL/MOL
REMARK 927      BINDING AFFINITY PREDICTED BY RF-SCORE:    0.00 PKD
ROOT
HETATM    1  C   UNL     1      -6.263   9.893  70.534  1.00  0.00    -0.101 C  
HETATM    2  C   UNL     1      -6.775   8.925  69.513  1.00  0.00    -0.047 C  
HETATM    3  O   UNL     1      -6.111   8.028  69.015  1.00  0.00    -0.037 OA 
ENDROOT
BRANCH   2   4
HETATM    4  O   UNL     1      -8.077   9.196  69.222  1.00  0.00    -0.096 OA 
BRANCH   4   5
HETATM    5  C   UNL     1      -8.547  10.472  69.665  1.00  0.00     0.043 C  
BRANCH   5   6
HETATM    6  C   UNL     1      -9.902  10.848  69.062  1.00  0.00    -0.180 C  
HETATM    7  O   UNL     1     -10.187  12.203  69.422  1.00  0.00     0.206 OA 
HETATM    8  C   UNL     1     -11.033  12.743  68.401  1.00  0.00    -0.254 C  
HETATM    9  C   UNL     1     -10.641  12.053  67.086  1.00  0.00    -0.224 C  
HETATM   10  C   UNL     1      -9.955  10.755  67.534  1.00  0.00    -0.174 C  
BRANCH   8  11
HETATM   11  N   UNL     1     -10.893  14.201  68.388  1.00  0.00    -0.247 N  
HETATM   12  N   UNL     1     -11.369  16.279  69.346  1.00  0.00    -0.311 N  
HETATM   13  C   UNL     1     -10.086  14.832  67.457  1.00  0.00    -0.224 C  
HETATM   14  O   UNL     1     -10.259  18.144  68.651  1.00  0.00    -0.378 OA 
HETATM   15  H   UNL     1     -11.906  16.835  70.011  1.00  0.00     0.000 HD 
HETATM   16  C   UNL     1      -9.863  16.146  67.482  1.00  0.00    -0.237 C  
HETATM   17  C   UNL     1     -11.581  14.923  69.353  1.00  0.00    -0.309 C  
HETATM   18  C   UNL     1     -10.506  16.950  68.531  1.00  0.00    -0.361 C  
HETATM   19  O   UNL     1     -12.324  14.414  70.190  1.00  0.00    -0.322 OA 
ENDBRANCH   8  11
BRANCH   9  20
HETATM   20  O   UNL     1     -11.813  11.780  66.293  1.00  0.00    -0.501 OA 
BRANCH  20  21
HETATM   21  C   UNL     1     -12.093  12.636  65.278  1.00  0.00    -0.467 C  
HETATM   22  C   UNL     1     -11.365  12.231  64.030  1.00  0.00    -0.469 C  
HETATM   23  O   UNL     1     -12.827  13.610  65.357  1.00  0.00    -0.634 OA 
ENDBRANCH  20  21
ENDBRANCH   9  20
BRANCH  10  24
HETATM   24  O   UNL     1     -10.733   9.598  67.163  1.00  0.00    -0.250 OA 
BRANCH  24  25
HETATM   25  C   UNL     1     -10.056   8.461  66.855  1.00  0.00    -0.294 C  
HETATM   26  O   UNL     1      -8.994   8.407  66.255  1.00  0.00    -0.153 OA 
HETATM   27  C   UNL     1     -10.827   7.260  67.317  1.00  0.00    -0.354 C  
ENDBRANCH  24  25
ENDBRANCH  10  24
ENDBRANCH   5   6
ENDBRANCH   4   5
ENDBRANCH   2   4
TORSDOF 8
ENDMDL
MODEL      101
REMARK 921   NORMALIZED FREE ENERGY PREDICTED BY IDOCK:   -4.13 KCAL/MOL
REMARK 922        TOTAL FREE ENERGY PREDICTED BY IDOCK:   -7.46 KCAL/MOL
REMARK 923 INTER-LIGAND FREE ENERGY PREDICTED BY IDOCK:   -6.08 KCAL/MOL
REMARK 924 INTRA-LIGAND FREE ENERGY PREDICTED BY IDOCK:   -1.39 KCAL/MOL
REMARK 927      BINDING AFFINITY PREDICTED BY RF-SCORE:    0.00 PKD
ROOT
HETATM    1  C   UNL     1     -12.038  12.338  63.736  1.00  0.00    -0.624 C  
HETATM    2  C   UNL     1     -12.641  13.049  64.907  1.00  0.00    -0.428 C  
HETATM    3  O   UNL     1     -13.265  14.097  64.834  1.00  0.00    -0.579 OA 
ENDROOT
BRANCH   2   4
HETATM    4  O   UNL     1     -12.388  12.362  66.054  1.00  0.00    -0.627 OA 
BRANCH   4   5
HETATM    5  C   UNL     1     -12.069  13.171  67.190  1.00  0.00    -0.286 C  
BRANCH   5   6
HETATM    6  C   UNL     1     -10.663  12.906  67.732  1.00  0.00    -0.224 C  
HETATM    7  O   UNL     1     -10.547  11.505  67.998  1.00  0.00    -0.179 OA 
HETATM    8  C   UNL     1      -9.163  11.162  67.864  1.00  0.00    -0.154 C  
HETATM    9  C   UNL     1      -8.574  12.093  66.794  1.00  0.00    -0.163 C  
HETATM   10  C   UNL     1      -9.538  13.288  66.765  1.00  0.00    -0.258 C  
BRANCH   8  11
HETATM   11  N   UNL     1      -9.053   9.735  67.556  1.00  0.00    -0.131 N  
HETATM   12  N   UNL     1      -8.704   7.539  68.278  1.00  0.00    -0.124 N  
HETATM   13  C   UNL     1      -9.282   9.262  66.276  1.00  0.00    -0.186 C  
HETATM   14  O   UNL     1      -9.109   5.792  66.872  1.00  0.00    -0.116 OA 
HETATM   15  H   UNL     1      -8.418   6.893  69.013  1.00  0.00     0.000 HD 
HETATM   16  C   UNL     1      -9.284   7.960  65.987  1.00  0.00    -0.162 C  
HETATM   17  C   UNL     1      -8.731   8.874  68.596  1.00  0.00    -0.134 C  
HETATM   18  C   UNL     1      -9.026   6.998  67.068  1.00  0.00    -0.125 C  
HETATM   19  O   UNL     1      -8.501   9.244  69.746  1.00  0.00    -0.123 OA 
ENDBRANCH   8  11
BRANCH   9  20
HETATM   20  O   UNL     1      -7.242  12.503  67.161  1.00  0.00    -0.136 OA 
BRANCH  20  21
HETATM   21  C   UNL     1      -6.261  11.568  67.096  1.00  0.00    -0.121 C  
HETATM   22  C   UNL     1      -6.157  11.010  65.707  1.00  0.00    -0.019 C  
HETATM   23  O   UNL     1      -5.558  11.214  68.030  1.00  0.00    -0.043 OA 
ENDBRANCH  20  21
ENDBRANCH   9  20
BRANCH  10  24
HETATM   24  O   UNL     1      -8.896  14.488  67.245  1.00  0.00    -0.186 OA 
BRANCH  24  25
HETATM   25  C   UNL     1      -8.799  15.533  66.382  1.00  0.00    -0.324 C  
HETATM   26  O   UNL     1      -7.924  16.385  66.393  1.00  0.00    -0.287 OA 
HETATM   27  C   UNL     1      -9.958  15.526  65.429  1.00  0.00    -0.339 C  
ENDBRANCH  24  25
ENDBRANCH  10  24
ENDBRANCH   5   6
ENDBRANCH   4   5
ENDBRANCH   2   4
TORSDOF 8
ENDMDL
MODEL      102
REMARK 921   NORMALIZED FREE ENERGY PREDICTED BY IDOCK:   -4.12 KCAL/MOL
REMARK 922        TOTAL FREE ENERGY PREDICTED BY IDOCK:   -7.46 KCAL/MOL
REMARK 923 INTER-LIGAND FREE ENERGY PREDICTED BY IDOCK:   -6.20 KCAL/MOL
REMARK 924 INTRA-LIGAND FREE ENERGY PREDICTED BY IDOCK:   -1.26 KCAL/MOL
REMARK 927      BINDING AFFINITY PREDICTED BY RF-SCORE:    0.00 PKD
ROOT
HETATM    1  C   UNL     1      -5.596  14.897  70.191  1.00  0.00    -0.125 C  
HETATM    2  C   UNL     1      -5.876  13.818  71.189  1.00  0.00    -0.172 C  
HETATM    3  O   UNL     1      -5.843  13.970  72.401  1.00  0.00    -0.374 OA 
ENDROOT
BRANCH   2   4
HETATM    4  O   UNL     1      -6.164  12.651  70.550  1.00  0.00    -0.126 OA 
BRANCH   4   5
HETATM    5  C   UNL     1      -6.396  12.769  69.143  1.00  0.00    -0.106 C  
BRANCH   5   6
HETATM    6  C   UNL     1      -7.743  12.186  68.712  1.00  0.00    -0.034 C  
HETATM    7  O   UNL     1      -8.570  13.264  68.265  1.00  0.00    -0.173 OA 
HETATM    8  C   UNL     1      -9.488  12.723  67.308  1.00  0.00    -0.204 C  
HETATM    9  C   UNL     1      -8.763  11.574  66.593  1.00  0.00    -0.182 C  
HETATM   10  C   UNL     1      -7.648  11.171  67.569  1.00  0.00    -0.108 C  
BRANCH   8  11
HETATM   11  N   UNL     1      -9.943  13.799  66.423  1.00  0.00    -0.289 N  
HETATM   12  N   UNL     1     -11.618  14.737  65.090  1.00  0.00    -0.362 N  
HETATM   13  C   UNL     1      -9.148  14.904  66.177  1.00  0.00    -0.167 C  
HETATM   14  O   UNL     1     -11.401  16.867  64.307  1.00  0.00    -1.202 OA 
HETATM   15  H   UNL     1     -12.518  14.647  64.621  1.00  0.00     0.000 HD 
HETATM   16  C   UNL     1      -9.574  15.941  65.456  1.00  0.00    -0.159 C  
HETATM   17  C   UNL     1     -11.205  13.678  65.858  1.00  0.00    -0.304 C  
HETATM   18  C   UNL     1     -10.933  15.901  64.897  1.00  0.00    -0.411 C  
HETATM   19  O   UNL     1     -11.943  12.709  66.029  1.00  0.00    -0.420 OA 
ENDBRANCH   8  11
BRANCH   9  20
HETATM   20  O   UNL     1      -9.670  10.479  66.353  1.00  0.00    -0.184 OA 
BRANCH  20  21
HETATM   21  C   UNL     1      -9.514   9.782  65.199  1.00  0.00    -0.273 C  
HETATM   22  C   UNL     1      -9.962  10.601  64.025  1.00  0.00    -0.401 C  
HETATM   23  O   UNL     1      -9.079   8.644  65.115  1.00  0.00    -0.124 OA 
ENDBRANCH  20  21
ENDBRANCH   9  20
BRANCH  10  24
HETATM   24  O   UNL     1      -7.870   9.847  68.099  1.00  0.00    -0.085 OA 
BRANCH  24  25
HETATM   25  C   UNL     1      -6.925   8.905  67.847  1.00  0.00    -0.078 C  
HETATM   26  O   UNL     1      -6.119   8.936  66.929  1.00  0.00    -0.056 OA 
HETATM   27  C   UNL     1      -7.039   7.781  68.834  1.00  0.00    -0.075 C  
ENDBRANCH  24  25
ENDBRANCH  10  24
ENDBRANCH   5   6
ENDBRANCH   4   5
ENDBRANCH   2   4
TORSDOF 8
ENDMDL
MODEL      103
REMARK 921   NORMALIZED FREE ENERGY PREDICTED BY IDOCK:   -4.09 KCAL/MOL
REMARK 922        TOTAL FREE ENERGY PREDICTED BY IDOCK:   -7.41 KCAL/MOL
REMARK 923 INTER-LIGAND FREE ENERGY PREDICTED BY IDOCK:   -6.66 KCAL/MOL
REMARK 924 INTRA-LIGAND FREE ENERGY PREDICTED BY IDOCK:   -0.75 KCAL/MOL
REMARK 927      BINDING AFFINITY PREDICTED BY RF-SCORE:    0.00 PKD
ROOT
HETATM    1  C   UNL     1      -9.168  11.159  66.959  1.00  0.00    -0.172 C  
HETATM    2  C   UNL     1      -9.505  12.617  66.994  1.00  0.00    -0.220 C  
HETATM    3  O   UNL     1      -9.854  13.271  66.023  1.00  0.00    -0.285 OA 
ENDROOT
BRANCH   2   4
HETATM    4  O   UNL     1      -9.358  13.101  68.258  1.00  0.00    -0.212 OA 
BRANCH   4   5
HETATM    5  C   UNL     1      -8.161  13.849  68.489  1.00  0.00    -0.133 C  
BRANCH   5   6
HETATM    6  C   UNL     1      -8.431  15.243  69.058  1.00  0.00    -0.221 C  
HETATM    7  O   UNL     1      -7.372  16.108  68.636  1.00  0.00    -0.156 OA 
HETATM    8  C   UNL     1      -7.906  17.435  68.582  1.00  0.00    -0.274 C  
HETATM    9  C   UNL     1      -9.388  17.306  68.200  1.00  0.00    -0.274 C  
HETATM   10  C   UNL     1      -9.750  15.865  68.590  1.00  0.00    -0.207 C  
BRANCH   8  11
HETATM   11  N   UNL     1      -7.106  18.234  67.651  1.00  0.00    -0.200 N  
HETATM   12  N   UNL     1      -6.554  18.813  65.455  1.00  0.00    -0.276 N  
HETATM   13  C   UNL     1      -6.231  19.202  68.111  1.00  0.00    -0.218 C  
HETATM   14  O   UNL     1      -5.243  20.632  65.044  1.00  0.00    -0.169 OA 
HETATM   15  H   UNL     1      -6.618  18.623  64.455  1.00  0.00     0.000 HD 
HETATM   16  C   UNL     1      -5.564  20.009  67.286  1.00  0.00    -0.175 C  
HETATM   17  C   UNL     1      -7.272  17.998  66.293  1.00  0.00    -0.275 C  
HETATM   18  C   UNL     1      -5.761  19.855  65.837  1.00  0.00    -0.166 C  
HETATM   19  O   UNL     1      -8.021  17.139  65.833  1.00  0.00    -0.501 OA 
ENDBRANCH   8  11
BRANCH   9  20
HETATM   20  O   UNL     1     -10.181  18.261  68.930  1.00  0.00    -0.386 OA 
BRANCH  20  21
HETATM   21  C   UNL     1     -10.482  19.429  68.308  1.00  0.00    -0.315 C  
HETATM   22  C   UNL     1     -10.824  19.185  66.868  1.00  0.00    -0.440 C  
HETATM   23  O   UNL     1     -10.471  20.533  68.832  1.00  0.00    -0.106 OA 
ENDBRANCH  20  21
ENDBRANCH   9  20
BRANCH  10  24
HETATM   24  O   UNL     1     -10.693  15.841  69.683  1.00  0.00    -0.242 OA 
BRANCH  24  25
HETATM   25  C   UNL     1     -11.903  15.270  69.452  1.00  0.00    -0.343 C  
HETATM   26  O   UNL     1     -12.235  14.699  68.425  1.00  0.00    -0.231 OA 
HETATM   27  C   UNL     1     -12.807  15.481  70.631  1.00  0.00    -0.466 C  
ENDBRANCH  24  25
ENDBRANCH  10  24
ENDBRANCH   5   6
ENDBRANCH   4   5
ENDBRANCH   2   4
TORSDOF 8
ENDMDL
MODEL      104
REMARK 921   NORMALIZED FREE ENERGY PREDICTED BY IDOCK:   -4.09 KCAL/MOL
REMARK 922        TOTAL FREE ENERGY PREDICTED BY IDOCK:   -7.41 KCAL/MOL
REMARK 923 INTER-LIGAND FREE ENERGY PREDICTED BY IDOCK:   -6.91 KCAL/MOL
REMARK 924 INTRA-LIGAND FREE ENERGY PREDICTED BY IDOCK:   -0.50 KCAL/MOL
REMARK 927      BINDING AFFINITY PREDICTED BY RF-SCORE:    0.00 PKD
ROOT
HETATM    1  C   UNL     1     -11.853  14.695  67.132  1.00  0.00    -0.367 C  
HETATM    2  C   UNL     1     -12.517  13.754  66.176  1.00  0.00    -0.418 C  
HETATM    3  O   UNL     1     -13.269  14.097  65.276  1.00  0.00    -0.760 OA 
ENDROOT
BRANCH   2   4
HETATM    4  O   UNL     1     -12.165  12.470  66.461  1.00  0.00    -0.569 OA 
BRANCH   4   5
HETATM    5  C   UNL     1     -11.674  12.254  67.787  1.00  0.00    -0.337 C  
BRANCH   5   6
HETATM    6  C   UNL     1     -10.436  11.356  67.823  1.00  0.00    -0.185 C  
HETATM    7  O   UNL     1     -10.465  10.609  69.044  1.00  0.00    -0.191 OA 
HETATM    8  C   UNL     1      -9.760   9.386  68.808  1.00  0.00    -0.156 C  
HETATM    9  C   UNL     1      -9.981   9.019  67.333  1.00  0.00    -0.209 C  
HETATM   10  C   UNL     1     -10.358  10.352  66.669  1.00  0.00    -0.231 C  
BRANCH   8  11
HETATM   11  N   UNL     1     -10.225   8.376  69.761  1.00  0.00    -0.202 N  
HETATM   12  N   UNL     1     -10.315   7.564  71.951  1.00  0.00    -0.191 N  
HETATM   13  C   UNL     1     -11.072   7.356  69.364  1.00  0.00    -0.029 C  
HETATM   14  O   UNL     1     -11.756   5.884  72.493  1.00  0.00    -0.303 OA 
HETATM   15  H   UNL     1      -9.976   7.595  72.913  1.00  0.00     0.000 HD 
HETATM   16  C   UNL     1     -11.588   6.482  70.228  1.00  0.00    -0.473 C  
HETATM   17  C   UNL     1      -9.802   8.491  71.079  1.00  0.00    -0.195 C  
HETATM   18  C   UNL     1     -11.235   6.604  71.650  1.00  0.00    -0.264 C  
HETATM   19  O   UNL     1      -9.037   9.365  71.479  1.00  0.00    -0.275 OA 
ENDBRANCH   8  11
BRANCH   9  20
HETATM   20  O   UNL     1      -8.776   8.473  66.764  1.00  0.00    -0.117 OA 
BRANCH  20  21
HETATM   21  C   UNL     1      -7.715   8.305  67.593  1.00  0.00    -0.099 C  
HETATM   22  C   UNL     1      -6.812   9.503  67.542  1.00  0.00    -0.083 C  
HETATM   23  O   UNL     1      -7.506   7.319  68.284  1.00  0.00    -0.097 OA 
ENDBRANCH  20  21
ENDBRANCH   9  20
BRANCH  10  24
HETATM   24  O   UNL     1      -9.338  10.781  65.743  1.00  0.00    -0.186 OA 
BRANCH  24  25
HETATM   25  C   UNL     1      -9.586  10.617  64.418  1.00  0.00    -0.295 C  
HETATM   26  O   UNL     1      -9.219   9.671  63.738  1.00  0.00    -0.248 OA 
HETATM   27  C   UNL     1     -10.343  11.796  63.884  1.00  0.00    -0.428 C  
ENDBRANCH  24  25
ENDBRANCH  10  24
ENDBRANCH   5   6
ENDBRANCH   4   5
ENDBRANCH   2   4
TORSDOF 8
ENDMDL
MODEL      105
REMARK 921   NORMALIZED FREE ENERGY PREDICTED BY IDOCK:   -4.09 KCAL/MOL
REMARK 922        TOTAL FREE ENERGY PREDICTED BY IDOCK:   -7.40 KCAL/MOL
REMARK 923 INTER-LIGAND FREE ENERGY PREDICTED BY IDOCK:   -6.06 KCAL/MOL
REMARK 924 INTRA-LIGAND FREE ENERGY PREDICTED BY IDOCK:   -1.35 KCAL/MOL
REMARK 927      BINDING AFFINITY PREDICTED BY RF-SCORE:    0.00 PKD
ROOT
HETATM    1  C   UNL     1     -12.277  11.624  70.786  1.00  0.00    -0.443 C  
HETATM    2  C   UNL     1     -12.210  10.248  71.371  1.00  0.00    -0.383 C  
HETATM    3  O   UNL     1     -13.115   9.716  71.996  1.00  0.00    -0.397 OA 
ENDROOT
BRANCH   2   4
HETATM    4  O   UNL     1     -10.997   9.686  71.111  1.00  0.00    -0.336 OA 
BRANCH   4   5
HETATM    5  C   UNL     1     -10.383  10.104  69.888  1.00  0.00    -0.261 C  
BRANCH   5   6
HETATM    6  C   UNL     1     -10.809   9.254  68.689  1.00  0.00    -0.078 C  
HETATM    7  O   UNL     1     -10.221   9.821  67.514  1.00  0.00    -0.191 OA 
HETATM    8  C   UNL     1     -10.054   8.757  66.570  1.00  0.00    -0.279 C  
HETATM    9  C   UNL     1      -9.789   7.479  67.380  1.00  0.00    -0.169 C  
HETATM   10  C   UNL     1     -10.363   7.791  68.770  1.00  0.00    -0.204 C  
BRANCH   8  11
HETATM   11  N   UNL     1      -8.986   9.114  65.633  1.00  0.00    -0.190 N  
HETATM   12  N   UNL     1      -8.243  10.382  63.815  1.00  0.00    -0.242 N  
HETATM   13  C   UNL     1      -7.717   8.577  65.758  1.00  0.00    -0.098 C  
HETATM   14  O   UNL     1      -6.029  10.425  63.276  1.00  0.00    -0.143 OA 
HETATM   15  H   UNL     1      -8.453  11.008  63.038  1.00  0.00     0.000 HD 
HETATM   16  C   UNL     1      -6.703   8.958  64.981  1.00  0.00    -0.069 C  
HETATM   17  C   UNL     1      -9.288  10.025  64.629  1.00  0.00    -0.279 C  
HETATM   18  C   UNL     1      -6.948   9.977  63.951  1.00  0.00    -0.124 C  
HETATM   19  O   UNL     1     -10.402  10.517  64.462  1.00  0.00    -0.348 OA 
ENDBRANCH   8  11
BRANCH   9  20
HETATM   20  O   UNL     1     -10.458   6.354  66.777  1.00  0.00    -0.229 OA 
BRANCH  20  21
HETATM   21  C   UNL     1      -9.743   5.211  66.624  1.00  0.00    -0.168 C  
HETATM   22  C   UNL     1      -9.036   5.205  65.300  1.00  0.00    -0.126 C  
HETATM   23  O   UNL     1      -9.680   4.302  67.438  1.00  0.00    -0.184 OA 
ENDBRANCH  20  21
ENDBRANCH   9  20
BRANCH  10  24
HETATM   24  O   UNL     1     -11.512   6.967  69.057  1.00  0.00    -0.063 OA 
BRANCH  24  25
HETATM   25  C   UNL     1     -11.616   6.455  70.311  1.00  0.00    -0.383 C  
HETATM   26  O   UNL     1     -12.525   6.677  71.096  1.00  0.00    -0.333 OA 
HETATM   27  C   UNL     1     -10.420   5.604  70.622  1.00  0.00    -0.340 C  
ENDBRANCH  24  25
ENDBRANCH  10  24
ENDBRANCH   5   6
ENDBRANCH   4   5
ENDBRANCH   2   4
TORSDOF 8
ENDMDL
MODEL      106
REMARK 921   NORMALIZED FREE ENERGY PREDICTED BY IDOCK:   -4.09 KCAL/MOL
REMARK 922        TOTAL FREE ENERGY PREDICTED BY IDOCK:   -7.40 KCAL/MOL
REMARK 923 INTER-LIGAND FREE ENERGY PREDICTED BY IDOCK:   -6.18 KCAL/MOL
REMARK 924 INTRA-LIGAND FREE ENERGY PREDICTED BY IDOCK:   -1.22 KCAL/MOL
REMARK 927      BINDING AFFINITY PREDICTED BY RF-SCORE:    0.00 PKD
ROOT
HETATM    1  C   UNL     1     -12.606  13.752  65.247  1.00  0.00    -0.510 C  
HETATM    2  C   UNL     1     -12.098  13.319  66.587  1.00  0.00    -0.361 C  
HETATM    3  O   UNL     1     -11.860  14.077  67.515  1.00  0.00    -0.365 OA 
ENDROOT
BRANCH   2   4
HETATM    4  O   UNL     1     -11.936  11.968  66.613  1.00  0.00    -0.614 OA 
BRANCH   4   5
HETATM    5  C   UNL     1     -11.110  11.433  65.574  1.00  0.00    -0.136 C  
BRANCH   5   6
HETATM    6  C   UNL     1      -9.895  10.676  66.111  1.00  0.00    -0.217 C  
HETATM    7  O   UNL     1     -10.192  10.251  67.445  1.00  0.00    -0.194 OA 
HETATM    8  C   UNL     1      -9.422   9.069  67.693  1.00  0.00    -0.140 C  
HETATM    9  C   UNL     1      -9.283   8.336  66.351  1.00  0.00    -0.195 C  
HETATM   10  C   UNL     1      -9.525   9.430  65.300  1.00  0.00    -0.227 C  
BRANCH   8  11
HETATM   11  N   UNL     1     -10.074   8.288  68.747  1.00  0.00    -0.195 N  
HETATM   12  N   UNL     1     -10.699   8.056  70.987  1.00  0.00    -0.218 N  
HETATM   13  C   UNL     1     -10.736   7.109  68.455  1.00  0.00    -0.152 C  
HETATM   14  O   UNL     1     -12.151   6.413  71.609  1.00  0.00    -0.332 OA 
HETATM   15  H   UNL     1     -10.628   8.371  71.955  1.00  0.00     0.000 HD 
HETATM   16  C   UNL     1     -11.420   6.430  69.376  1.00  0.00    -0.374 C  
HETATM   17  C   UNL     1     -10.020   8.784  70.043  1.00  0.00    -0.187 C  
HETATM   18  C   UNL     1     -11.461   6.951  70.751  1.00  0.00    -0.335 C  
HETATM   19  O   UNL     1      -9.429   9.815  70.359  1.00  0.00    -0.247 OA 
ENDBRANCH   8  11
BRANCH   9  20
HETATM   20  O   UNL     1      -7.965   7.768  66.221  1.00  0.00    -0.094 OA 
BRANCH  20  21
HETATM   21  C   UNL     1      -7.855   6.419  66.313  1.00  0.00    -0.101 C  
HETATM   22  C   UNL     1      -8.637   5.752  65.220  1.00  0.00    -0.129 C  
HETATM   23  O   UNL     1      -7.218   5.817  67.165  1.00  0.00    -0.073 OA 
ENDBRANCH  20  21
ENDBRANCH   9  20
BRANCH  10  24
HETATM   24  O   UNL     1      -8.327   9.702  64.544  1.00  0.00    -0.146 OA 
BRANCH  24  25
HETATM   25  C   UNL     1      -8.344   9.410  63.218  1.00  0.00    -0.187 C  
HETATM   26  O   UNL     1      -8.244   8.293  62.735  1.00  0.00    -0.174 OA 
HETATM   27  C   UNL     1      -8.456  10.671  62.412  1.00  0.00    -0.277 C  
ENDBRANCH  24  25
ENDBRANCH  10  24
ENDBRANCH   5   6
ENDBRANCH   4   5
ENDBRANCH   2   4
TORSDOF 8
ENDMDL
MODEL      107
REMARK 921   NORMALIZED FREE ENERGY PREDICTED BY IDOCK:   -4.06 KCAL/MOL
REMARK 922        TOTAL FREE ENERGY PREDICTED BY IDOCK:   -7.37 KCAL/MOL
REMARK 923 INTER-LIGAND FREE ENERGY PREDICTED BY IDOCK:   -6.00 KCAL/MOL
REMARK 924 INTRA-LIGAND FREE ENERGY PREDICTED BY IDOCK:   -1.37 KCAL/MOL
REMARK 927      BINDING AFFINITY PREDICTED BY RF-SCORE:    0.00 PKD
ROOT
HETATM    1  C   UNL     1      -5.322   6.492  65.667  1.00  0.00    -0.018 C  
HETATM    2  C   UNL     1      -6.210   6.926  64.543  1.00  0.00    -0.036 C  
HETATM    3  O   UNL     1      -6.522   6.222  63.595  1.00  0.00    -0.029 OA 
ENDROOT
BRANCH   2   4
HETATM    4  O   UNL     1      -6.610   8.213  64.733  1.00  0.00    -0.058 OA 
BRANCH   4   5
HETATM    5  C   UNL     1      -7.999   8.381  65.033  1.00  0.00    -0.139 C  
BRANCH   5   6
HETATM    6  C   UNL     1      -8.244   9.357  66.186  1.00  0.00    -0.111 C  
HETATM    7  O   UNL     1      -8.617  10.619  65.626  1.00  0.00    -0.173 OA 
HETATM    8  C   UNL     1      -9.438  11.285  66.593  1.00  0.00    -0.186 C  
HETATM    9  C   UNL     1     -10.202  10.193  67.357  1.00  0.00    -0.218 C  
HETATM   10  C   UNL     1      -9.360   8.927  67.143  1.00  0.00    -0.145 C  
BRANCH   8  11
HETATM   11  N   UNL     1     -10.291  12.257  65.906  1.00  0.00    -0.246 N  
HETATM   12  N   UNL     1     -11.367  14.332  65.885  1.00  0.00    -0.322 N  
HETATM   13  C   UNL     1     -10.733  12.031  64.615  1.00  0.00    -0.309 C  
HETATM   14  O   UNL     1     -12.296  15.123  63.960  1.00  0.00    -0.675 OA 
HETATM   15  H   UNL     1     -11.667  15.169  66.384  1.00  0.00     0.000 HD 
HETATM   16  C   UNL     1     -11.428  12.940  63.931  1.00  0.00    -0.504 C  
HETATM   17  C   UNL     1     -10.622  13.419  66.589  1.00  0.00    -0.282 C  
HETATM   18  C   UNL     1     -11.742  14.222  64.579  1.00  0.00    -0.418 C  
HETATM   19  O   UNL     1     -10.271  13.660  67.742  1.00  0.00    -0.234 OA 
ENDBRANCH   8  11
BRANCH   9  20
HETATM   20  O   UNL     1     -10.297  10.530  68.755  1.00  0.00    -0.171 OA 
BRANCH  20  21
HETATM   21  C   UNL     1     -11.539  10.722  69.267  1.00  0.00    -0.305 C  
HETATM   22  C   UNL     1     -11.641  10.122  70.639  1.00  0.00    -0.429 C  
HETATM   23  O   UNL     1     -12.457  11.295  68.700  1.00  0.00    -0.442 OA 
ENDBRANCH  20  21
ENDBRANCH   9  20
BRANCH  10  24
HETATM   24  O   UNL     1      -8.768   8.478  68.381  1.00  0.00    -0.140 OA 
BRANCH  24  25
HETATM   25  C   UNL     1      -8.768   7.143  68.625  1.00  0.00    -0.127 C  
HETATM   26  O   UNL     1      -7.817   6.392  68.468  1.00  0.00    -0.102 OA 
HETATM   27  C   UNL     1     -10.128   6.699  69.075  1.00  0.00    -0.176 C  
ENDBRANCH  24  25
ENDBRANCH  10  24
ENDBRANCH   5   6
ENDBRANCH   4   5
ENDBRANCH   2   4
TORSDOF 8
ENDMDL
MODEL      108
REMARK 921   NORMALIZED FREE ENERGY PREDICTED BY IDOCK:   -4.00 KCAL/MOL
REMARK 922        TOTAL FREE ENERGY PREDICTED BY IDOCK:   -7.28 KCAL/MOL
REMARK 923 INTER-LIGAND FREE ENERGY PREDICTED BY IDOCK:   -5.91 KCAL/MOL
REMARK 924 INTRA-LIGAND FREE ENERGY PREDICTED BY IDOCK:   -1.38 KCAL/MOL
REMARK 927      BINDING AFFINITY PREDICTED BY RF-SCORE:    0.00 PKD
ROOT
HETATM    1  C   UNL     1     -11.495   8.271  72.396  1.00  0.00    -0.463 C  
HETATM    2  C   UNL     1     -11.765   7.500  71.142  1.00  0.00    -0.291 C  
HETATM    3  O   UNL     1     -12.745   6.792  70.961  1.00  0.00    -0.321 OA 
ENDROOT
BRANCH   2   4
HETATM    4  O   UNL     1     -10.762   7.700  70.243  1.00  0.00    -0.230 OA 
BRANCH   4   5
HETATM    5  C   UNL     1     -10.825   8.936  69.526  1.00  0.00    -0.153 C  
BRANCH   5   6
HETATM    6  C   UNL     1     -10.526   8.774  68.035  1.00  0.00    -0.204 C  
HETATM    7  O   UNL     1     -11.012   9.935  67.356  1.00  0.00    -0.269 OA 
HETATM    8  C   UNL     1     -10.211  10.105  66.181  1.00  0.00    -0.215 C  
HETATM    9  C   UNL     1      -8.807   9.582  66.518  1.00  0.00    -0.139 C  
HETATM   10  C   UNL     1      -9.036   8.637  67.707  1.00  0.00    -0.136 C  
BRANCH   8  11
HETATM   11  N   UNL     1     -10.255  11.512  65.774  1.00  0.00    -0.239 N  
HETATM   12  N   UNL     1     -10.504  13.114  64.091  1.00  0.00    -0.517 N  
HETATM   13  C   UNL     1     -10.172  12.528  66.709  1.00  0.00    -0.231 C  
HETATM   14  O   UNL     1     -10.763  15.314  64.631  1.00  0.00    -0.365 OA 
HETATM   15  H   UNL     1     -10.558  13.343  63.099  1.00  0.00     0.000 HD 
HETATM   16  C   UNL     1     -10.306  13.812  66.379  1.00  0.00    -0.290 C  
HETATM   17  C   UNL     1     -10.401  11.786  64.421  1.00  0.00    -0.307 C  
HETATM   18  C   UNL     1     -10.541  14.157  64.969  1.00  0.00    -0.419 C  
HETATM   19  O   UNL     1     -10.461  10.923  63.548  1.00  0.00    -0.333 OA 
ENDBRANCH   8  11
BRANCH   9  20
HETATM   20  O   UNL     1      -8.247   8.881  65.391  1.00  0.00    -0.115 OA 
BRANCH  20  21
HETATM   21  C   UNL     1      -7.388   9.565  64.594  1.00  0.00    -0.113 C  
HETATM   22  C   UNL     1      -6.623  10.579  65.392  1.00  0.00    -0.074 C  
HETATM   23  O   UNL     1      -7.251   9.394  63.392  1.00  0.00    -0.099 OA 
ENDBRANCH  20  21
ENDBRANCH   9  20
BRANCH  10  24
HETATM   24  O   UNL     1      -8.759   7.267  67.346  1.00  0.00    -0.120 OA 
BRANCH  24  25
HETATM   25  C   UNL     1      -7.906   6.571  68.140  1.00  0.00    -0.106 C  
HETATM   26  O   UNL     1      -8.113   6.258  69.302  1.00  0.00    -0.107 OA 
HETATM   27  C   UNL     1      -6.634   6.277  67.400  1.00  0.00    -0.052 C  
ENDBRANCH  24  25
ENDBRANCH  10  24
ENDBRANCH   5   6
ENDBRANCH   4   5
ENDBRANCH   2   4
TORSDOF 8
ENDMDL
MODEL      109
REMARK 921   NORMALIZED FREE ENERGY PREDICTED BY IDOCK:   -3.99 KCAL/MOL
REMARK 922        TOTAL FREE ENERGY PREDICTED BY IDOCK:   -7.26 KCAL/MOL
REMARK 923 INTER-LIGAND FREE ENERGY PREDICTED BY IDOCK:   -6.05 KCAL/MOL
REMARK 924 INTRA-LIGAND FREE ENERGY PREDICTED BY IDOCK:   -1.21 KCAL/MOL
REMARK 927      BINDING AFFINITY PREDICTED BY RF-SCORE:    0.00 PKD
ROOT
HETATM    1  C   UNL     1      -9.767  10.536  62.994  1.00  0.00    -0.337 C  
HETATM    2  C   UNL     1      -8.739   9.471  63.215  1.00  0.00    -0.227 C  
HETATM    3  O   UNL     1      -8.350   8.695  62.354  1.00  0.00    -0.183 OA 
ENDROOT
BRANCH   2   4
HETATM    4  O   UNL     1      -8.311   9.492  64.507  1.00  0.00    -0.142 OA 
BRANCH   4   5
HETATM    5  C   UNL     1      -9.198   8.885  65.452  1.00  0.00    -0.136 C  
BRANCH   5   6
HETATM    6  C   UNL     1      -9.127   9.533  66.835  1.00  0.00    -0.135 C  
HETATM    7  O   UNL     1      -8.761  10.906  66.663  1.00  0.00    -0.146 OA 
HETATM    8  C   UNL     1      -9.306  11.631  67.771  1.00  0.00    -0.178 C  
HETATM    9  C   UNL     1     -10.607  10.921  68.173  1.00  0.00    -0.198 C  
HETATM   10  C   UNL     1     -10.447   9.501  67.611  1.00  0.00    -0.263 C  
BRANCH   8  11
HETATM   11  N   UNL     1      -9.473  13.034  67.386  1.00  0.00    -0.203 N  
HETATM   12  N   UNL     1      -8.562  15.168  67.104  1.00  0.00    -0.207 N  
HETATM   13  C   UNL     1     -10.672  13.494  66.870  1.00  0.00    -0.274 C  
HETATM   14  O   UNL     1      -9.737  16.781  66.004  1.00  0.00    -0.369 OA 
HETATM   15  H   UNL     1      -7.792  15.820  67.255  1.00  0.00     0.000 HD 
HETATM   16  C   UNL     1     -10.823  14.741  66.421  1.00  0.00    -0.322 C  
HETATM   17  C   UNL     1      -8.382  13.879  67.538  1.00  0.00    -0.196 C  
HETATM   18  C   UNL     1      -9.675  15.657  66.487  1.00  0.00    -0.266 C  
HETATM   19  O   UNL     1      -7.302  13.526  68.008  1.00  0.00    -0.102 OA 
ENDBRANCH   8  11
BRANCH   9  20
HETATM   20  O   UNL     1     -10.748  10.904  69.607  1.00  0.00    -0.238 OA 
BRANCH  20  21
HETATM   21  C   UNL     1     -11.782  11.603  70.140  1.00  0.00    -0.296 C  
HETATM   22  C   UNL     1     -12.466  10.800  71.207  1.00  0.00    -0.504 C  
HETATM   23  O   UNL     1     -12.123  12.727  69.804  1.00  0.00    -0.296 OA 
ENDBRANCH  20  21
ENDBRANCH   9  20
BRANCH  10  24
HETATM   24  O   UNL     1     -10.343   8.528  68.671  1.00  0.00    -0.202 OA 
BRANCH  24  25
HETATM   25  C   UNL     1     -10.396   7.216  68.324  1.00  0.00    -0.195 C  
HETATM   26  O   UNL     1     -11.146   6.731  67.490  1.00  0.00    -0.301 OA 
HETATM   27  C   UNL     1      -9.427   6.423  69.151  1.00  0.00    -0.137 C  
ENDBRANCH  24  25
ENDBRANCH  10  24
ENDBRANCH   5   6
ENDBRANCH   4   5
ENDBRANCH   2   4
TORSDOF 8
ENDMDL
MODEL      110
REMARK 921   NORMALIZED FREE ENERGY PREDICTED BY IDOCK:   -3.99 KCAL/MOL
REMARK 922        TOTAL FREE ENERGY PREDICTED BY IDOCK:   -7.26 KCAL/MOL
REMARK 923 INTER-LIGAND FREE ENERGY PREDICTED BY IDOCK:   -6.99 KCAL/MOL
REMARK 924 INTRA-LIGAND FREE ENERGY PREDICTED BY IDOCK:   -0.28 KCAL/MOL
REMARK 927      BINDING AFFINITY PREDICTED BY RF-SCORE:    0.00 PKD
ROOT
HETATM    1  C   UNL     1      -5.703  13.509  70.209  1.00  0.00    -0.150 C  
HETATM    2  C   UNL     1      -5.749  12.034  70.462  1.00  0.00    -0.159 C  
HETATM    3  O   UNL     1      -5.444  11.502  71.519  1.00  0.00    -0.355 OA 
ENDROOT
BRANCH   2   4
HETATM    4  O   UNL     1      -6.171  11.380  69.345  1.00  0.00    -0.070 OA 
BRANCH   4   5
HETATM    5  C   UNL     1      -7.198  12.044  68.602  1.00  0.00    -0.110 C  
BRANCH   5   6
HETATM    6  C   UNL     1      -8.526  11.285  68.616  1.00  0.00    -0.143 C  
HETATM    7  O   UNL     1      -9.482  12.052  67.878  1.00  0.00    -0.183 OA 
HETATM    8  C   UNL     1     -10.441  11.131  67.344  1.00  0.00    -0.220 C  
HETATM    9  C   UNL     1      -9.694   9.817  67.071  1.00  0.00    -0.183 C  
HETATM   10  C   UNL     1      -8.458   9.893  67.979  1.00  0.00    -0.117 C  
BRANCH   8  11
HETATM   11  N   UNL     1     -11.070  11.729  66.164  1.00  0.00    -0.310 N  
HETATM   12  N   UNL     1     -12.462  13.359  65.232  1.00  0.00    -0.466 N  
HETATM   13  C   UNL     1     -10.782  11.267  64.892  1.00  0.00    -0.271 C  
HETATM   14  O   UNL     1     -12.528  13.655  62.973  1.00  0.00    -0.719 OA 
HETATM   15  H   UNL     1     -13.150  14.101  65.358  1.00  0.00     0.000 HD 
HETATM   16  C   UNL     1     -11.264  11.855  63.796  1.00  0.00    -0.519 C  
HETATM   17  C   UNL     1     -11.947  12.786  66.367  1.00  0.00    -0.375 C  
HETATM   18  C   UNL     1     -12.137  13.027  63.950  1.00  0.00    -0.471 C  
HETATM   19  O   UNL     1     -12.250  13.221  67.476  1.00  0.00    -0.304 OA 
ENDBRANCH   8  11
BRANCH   9  20
HETATM   20  O   UNL     1     -10.523   8.688  67.409  1.00  0.00    -0.263 OA 
BRANCH  20  21
HETATM   21  C   UNL     1     -10.179   7.483  66.889  1.00  0.00    -0.289 C  
HETATM   22  C   UNL     1     -11.007   6.390  67.499  1.00  0.00    -0.454 C  
HETATM   23  O   UNL     1      -9.313   7.298  66.047  1.00  0.00    -0.100 OA 
ENDBRANCH  20  21
ENDBRANCH   9  20
BRANCH  10  24
HETATM   24  O   UNL     1      -8.514   8.898  69.023  1.00  0.00    -0.129 OA 
BRANCH  24  25
HETATM   25  C   UNL     1      -8.997   9.285  70.231  1.00  0.00    -0.229 C  
HETATM   26  O   UNL     1     -10.083   9.809  70.427  1.00  0.00    -0.259 OA 
HETATM   27  C   UNL     1      -7.981   9.022  71.303  1.00  0.00    -0.139 C  
ENDBRANCH  24  25
ENDBRANCH  10  24
ENDBRANCH   5   6
ENDBRANCH   4   5
ENDBRANCH   2   4
TORSDOF 8
ENDMDL
MODEL      111
REMARK 921   NORMALIZED FREE ENERGY PREDICTED BY IDOCK:   -3.98 KCAL/MOL
REMARK 922        TOTAL FREE ENERGY PREDICTED BY IDOCK:   -7.25 KCAL/MOL
REMARK 923 INTER-LIGAND FREE ENERGY PREDICTED BY IDOCK:   -6.23 KCAL/MOL
REMARK 924 INTRA-LIGAND FREE ENERGY PREDICTED BY IDOCK:   -1.02 KCAL/MOL
REMARK 927      BINDING AFFINITY PREDICTED BY RF-SCORE:    0.00 PKD
ROOT
HETATM    1  C   UNL     1     -11.808   6.133  72.148  1.00  0.00    -0.339 C  
HETATM    2  C   UNL     1     -10.755   7.116  72.555  1.00  0.00    -0.250 C  
HETATM    3  O   UNL     1     -10.474   7.390  73.712  1.00  0.00    -0.346 OA 
ENDROOT
BRANCH   2   4
HETATM    4  O   UNL     1     -10.168   7.657  71.453  1.00  0.00    -0.186 OA 
BRANCH   4   5
HETATM    5  C   UNL     1      -9.562   8.937  71.652  1.00  0.00    -0.293 C  
BRANCH   5   6
HETATM    6  C   UNL     1      -9.862   9.920  70.519  1.00  0.00    -0.056 C  
HETATM    7  O   UNL     1      -9.045   9.568  69.399  1.00  0.00    -0.148 OA 
HETATM    8  C   UNL     1      -9.736   9.995  68.220  1.00  0.00    -0.141 C  
HETATM    9  C   UNL     1     -11.238   9.880  68.516  1.00  0.00    -0.072 C  
HETATM   10  C   UNL     1     -11.320   9.907  70.050  1.00  0.00    -0.249 C  
BRANCH   8  11
HETATM   11  N   UNL     1      -9.278   9.195  67.082  1.00  0.00    -0.132 N  
HETATM   12  N   UNL     1      -7.924   8.975  65.189  1.00  0.00    -0.114 N  
HETATM   13  C   UNL     1      -9.713   7.893  66.904  1.00  0.00    -0.219 C  
HETATM   14  O   UNL     1      -7.694   6.947  64.173  1.00  0.00    -0.106 OA 
HETATM   15  H   UNL     1      -7.305   9.400  64.500  1.00  0.00     0.000 HD 
HETATM   16  C   UNL     1      -9.239   7.110  65.935  1.00  0.00     0.003 C  
HETATM   17  C   UNL     1      -8.378   9.781  66.202  1.00  0.00    -0.120 C  
HETATM   18  C   UNL     1      -8.226   7.656  65.020  1.00  0.00    -0.113 C  
HETATM   19  O   UNL     1      -7.975  10.938  66.303  1.00  0.00    -0.155 OA 
ENDBRANCH   8  11
BRANCH   9  20
HETATM   20  O   UNL     1     -11.952  10.988  67.934  1.00  0.00    -0.620 OA 
BRANCH  20  21
HETATM   21  C   UNL     1     -11.215  11.988  67.388  1.00  0.00    -0.307 C  
HETATM   22  C   UNL     1     -11.380  12.011  65.898  1.00  0.00    -0.391 C  
HETATM   23  O   UNL     1     -10.506  12.764  68.011  1.00  0.00    -0.214 OA 
ENDBRANCH  20  21
ENDBRANCH   9  20
BRANCH  10  24
HETATM   24  O   UNL     1     -11.973  11.105  70.517  1.00  0.00    -0.336 OA 
BRANCH  24  25
HETATM   25  C   UNL     1     -12.989  10.958  71.407  1.00  0.00    -0.424 C  
HETATM   26  O   UNL     1     -13.384  11.815  72.183  1.00  0.00    -0.497 OA 
HETATM   27  C   UNL     1     -13.535   9.562  71.341  1.00  0.00    -0.405 C  
ENDBRANCH  24  25
ENDBRANCH  10  24
ENDBRANCH   5   6
ENDBRANCH   4   5
ENDBRANCH   2   4
TORSDOF 8
ENDMDL
MODEL      112
REMARK 921   NORMALIZED FREE ENERGY PREDICTED BY IDOCK:   -3.97 KCAL/MOL
REMARK 922        TOTAL FREE ENERGY PREDICTED BY IDOCK:   -7.23 KCAL/MOL
REMARK 923 INTER-LIGAND FREE ENERGY PREDICTED BY IDOCK:   -6.03 KCAL/MOL
REMARK 924 INTRA-LIGAND FREE ENERGY PREDICTED BY IDOCK:   -1.21 KCAL/MOL
REMARK 927      BINDING AFFINITY PREDICTED BY RF-SCORE:    0.00 PKD
ROOT
HETATM    1  C   UNL     1      -8.631   9.248  63.265  1.00  0.00    -0.207 C  
HETATM    2  C   UNL     1      -8.861  10.710  63.490  1.00  0.00    -0.184 C  
HETATM    3  O   UNL     1      -8.955  11.541  62.599  1.00  0.00    -0.310 OA 
ENDROOT
BRANCH   2   4
HETATM    4  O   UNL     1      -8.942  10.973  64.823  1.00  0.00    -0.175 OA 
BRANCH   4   5
HETATM    5  C   UNL     1     -10.122  11.669  65.235  1.00  0.00    -0.264 C  
BRANCH   5   6
HETATM    6  C   UNL     1     -10.855  10.970  66.382  1.00  0.00    -0.191 C  
HETATM    7  O   UNL     1     -10.304   9.657  66.524  1.00  0.00    -0.239 OA 
HETATM    8  C   UNL     1     -10.477   9.273  67.892  1.00  0.00    -0.236 C  
HETATM    9  C   UNL     1     -10.393  10.556  68.731  1.00  0.00    -0.191 C  
HETATM   10  C   UNL     1     -10.721  11.677  67.733  1.00  0.00    -0.204 C  
BRANCH   8  11
HETATM   11  N   UNL     1      -9.476   8.258  68.232  1.00  0.00    -0.138 N  
HETATM   12  N   UNL     1      -8.962   6.142  69.080  1.00  0.00    -0.126 N  
HETATM   13  C   UNL     1      -8.138   8.450  67.939  1.00  0.00    -0.123 C  
HETATM   14  O   UNL     1      -6.861   5.290  68.841  1.00  0.00    -0.051 OA 
HETATM   15  H   UNL     1      -9.256   5.300  69.575  1.00  0.00     0.000 HD 
HETATM   16  C   UNL     1      -7.221   7.505  68.147  1.00  0.00    -0.090 C  
HETATM   17  C   UNL     1      -9.922   7.092  68.840  1.00  0.00    -0.163 C  
HETATM   18  C   UNL     1      -7.650   6.220  68.718  1.00  0.00    -0.092 C  
HETATM   19  O   UNL     1     -11.095   6.880  69.139  1.00  0.00    -0.219 OA 
ENDBRANCH   8  11
BRANCH   9  20
HETATM   20  O   UNL     1     -11.350  10.517  69.808  1.00  0.00    -0.257 OA 
BRANCH  20  21
HETATM   21  C   UNL     1     -11.035   9.772  70.897  1.00  0.00    -0.341 C  
HETATM   22  C   UNL     1     -12.277   9.350  71.624  1.00  0.00    -0.467 C  
HETATM   23  O   UNL     1      -9.902   9.482  71.251  1.00  0.00    -0.228 OA 
ENDBRANCH  20  21
ENDBRANCH   9  20
BRANCH  10  24
HETATM   24  O   UNL     1     -11.975  12.313  68.056  1.00  0.00    -0.425 OA 
BRANCH  24  25
HETATM   25  C   UNL     1     -11.937  13.619  68.427  1.00  0.00    -0.356 C  
HETATM   26  O   UNL     1     -12.109  14.041  69.561  1.00  0.00    -0.320 OA 
HETATM   27  C   UNL     1     -11.699  14.490  67.230  1.00  0.00    -0.429 C  
ENDBRANCH  24  25
ENDBRANCH  10  24
ENDBRANCH   5   6
ENDBRANCH   4   5
ENDBRANCH   2   4
TORSDOF 8
ENDMDL
MODEL      113
REMARK 921   NORMALIZED FREE ENERGY PREDICTED BY IDOCK:   -3.97 KCAL/MOL
REMARK 922        TOTAL FREE ENERGY PREDICTED BY IDOCK:   -7.23 KCAL/MOL
REMARK 923 INTER-LIGAND FREE ENERGY PREDICTED BY IDOCK:   -5.97 KCAL/MOL
REMARK 924 INTRA-LIGAND FREE ENERGY PREDICTED BY IDOCK:   -1.26 KCAL/MOL
REMARK 927      BINDING AFFINITY PREDICTED BY RF-SCORE:    0.00 PKD
ROOT
HETATM    1  C   UNL     1     -12.094  13.663  66.336  1.00  0.00    -0.478 C  
HETATM    2  C   UNL     1     -11.004  13.381  67.323  1.00  0.00    -0.272 C  
HETATM    3  O   UNL     1     -10.619  14.169  68.173  1.00  0.00    -0.237 OA 
ENDROOT
BRANCH   2   4
HETATM    4  O   UNL     1     -10.508  12.128  67.128  1.00  0.00    -0.215 OA 
BRANCH   4   5
HETATM    5  C   UNL     1     -10.283  11.370  68.321  1.00  0.00    -0.193 C  
BRANCH   5   6
HETATM    6  C   UNL     1     -10.948   9.993  68.284  1.00  0.00    -0.227 C  
HETATM    7  O   UNL     1     -10.505   9.319  67.102  1.00  0.00    -0.254 OA 
HETATM    8  C   UNL     1     -10.563   7.913  67.371  1.00  0.00    -0.272 C  
HETATM    9  C   UNL     1     -10.276   7.733  68.869  1.00  0.00    -0.211 C  
HETATM   10  C   UNL     1     -10.607   9.102  69.481  1.00  0.00    -0.223 C  
BRANCH   8  11
HETATM   11  N   UNL     1      -9.626   7.219  66.485  1.00  0.00    -0.173 N  
HETATM   12  N   UNL     1      -9.116   5.379  65.137  1.00  0.00    -0.331 N  
HETATM   13  C   UNL     1      -8.429   7.805  66.112  1.00  0.00    -0.138 C  
HETATM   14  O   UNL     1      -7.299   5.431  63.763  1.00  0.00    -0.049 OA 
HETATM   15  H   UNL     1      -9.337   4.434  64.823  1.00  0.00     0.000 HD 
HETATM   16  C   UNL     1      -7.604   7.240  65.231  1.00  0.00    -0.102 C  
HETATM   17  C   UNL     1      -9.992   5.964  66.017  1.00  0.00     0.102 C  
HETATM   18  C   UNL     1      -7.978   5.945  64.645  1.00  0.00    -0.123 C  
HETATM   19  O   UNL     1     -11.033   5.392  66.332  1.00  0.00    -0.243 OA 
ENDBRANCH   8  11
BRANCH   9  20
HETATM   20  O   UNL     1     -11.111   6.696  69.420  1.00  0.00    -0.288 OA 
BRANCH  20  21
HETATM   21  C   UNL     1     -10.494   5.595  69.918  1.00  0.00    -0.308 C  
HETATM   22  C   UNL     1     -10.721   5.487  71.397  1.00  0.00    -0.290 C  
HETATM   23  O   UNL     1      -9.835   4.798  69.266  1.00  0.00    -0.181 OA 
ENDBRANCH  20  21
ENDBRANCH   9  20
BRANCH  10  24
HETATM   24  O   UNL     1     -11.758   9.021  70.348  1.00  0.00    -0.198 OA 
BRANCH  24  25
HETATM   25  C   UNL     1     -11.531   8.968  71.686  1.00  0.00    -0.361 C  
HETATM   26  O   UNL     1     -10.437   9.044  72.225  1.00  0.00    -0.269 OA 
HETATM   27  C   UNL     1     -12.820   8.752  72.421  1.00  0.00    -0.434 C  
ENDBRANCH  24  25
ENDBRANCH  10  24
ENDBRANCH   5   6
ENDBRANCH   4   5
ENDBRANCH   2   4
TORSDOF 8
ENDMDL
MODEL      114
REMARK 921   NORMALIZED FREE ENERGY PREDICTED BY IDOCK:   -3.96 KCAL/MOL
REMARK 922        TOTAL FREE ENERGY PREDICTED BY IDOCK:   -7.21 KCAL/MOL
REMARK 923 INTER-LIGAND FREE ENERGY PREDICTED BY IDOCK:   -6.54 KCAL/MOL
REMARK 924 INTRA-LIGAND FREE ENERGY PREDICTED BY IDOCK:   -0.68 KCAL/MOL
REMARK 927      BINDING AFFINITY PREDICTED BY RF-SCORE:    0.00 PKD
ROOT
HETATM    1  C   UNL     1     -12.242  13.447  65.486  1.00  0.00    -0.499 C  
HETATM    2  C   UNL     1     -11.513  13.711  66.766  1.00  0.00    -0.346 C  
HETATM    3  O   UNL     1     -11.769  14.627  67.532  1.00  0.00    -0.365 OA 
ENDROOT
BRANCH   2   4
HETATM    4  O   UNL     1     -10.527  12.789  66.943  1.00  0.00    -0.239 OA 
BRANCH   4   5
HETATM    5  C   UNL     1     -10.301  12.393  68.299  1.00  0.00    -0.227 C  
BRANCH   5   6
HETATM    6  C   UNL     1     -11.404  11.483  68.844  1.00  0.00    -0.268 C  
HETATM    7  O   UNL     1     -11.038  10.128  68.567  1.00  0.00    -0.245 OA 
HETATM    8  C   UNL     1     -11.649   9.312  69.572  1.00  0.00     0.343 C  
HETATM    9  C   UNL     1     -11.712  10.154  70.855  1.00  0.00    -0.378 C  
HETATM   10  C   UNL     1     -11.624  11.603  70.355  1.00  0.00    -0.063 C  
BRANCH   8  11
HETATM   11  N   UNL     1     -10.891   8.065  69.700  1.00  0.00    -0.214 N  
HETATM   12  N   UNL     1      -8.871   6.973  70.135  1.00  0.00    -0.145 N  
HETATM   13  C   UNL     1     -11.515   6.835  69.590  1.00  0.00    -0.230 C  
HETATM   14  O   UNL     1      -8.830   4.715  70.440  1.00  0.00    -0.094 OA 
HETATM   15  H   UNL     1      -7.861   7.018  70.270  1.00  0.00     0.000 HD 
HETATM   16  C   UNL     1     -10.869   5.688  69.798  1.00  0.00    -0.370 C  
HETATM   17  C   UNL     1      -9.530   8.163  69.956  1.00  0.00    -0.167 C  
HETATM   18  C   UNL     1      -9.442   5.735  70.149  1.00  0.00    -0.160 C  
HETATM   19  O   UNL     1      -8.924   9.229  70.045  1.00  0.00    -0.163 OA 
ENDBRANCH   8  11
BRANCH   9  20
HETATM   20  O   UNL     1     -12.950   9.915  71.553  1.00  0.00    -0.359 OA 
BRANCH  20  21
HETATM   21  C   UNL     1     -13.038   8.784  72.299  1.00  0.00    -0.409 C  
HETATM   22  C   UNL     1     -14.301   8.041  71.981  1.00  0.00    -0.511 C  
HETATM   23  O   UNL     1     -12.214   8.415  73.122  1.00  0.00    -0.111 OA 
ENDBRANCH  20  21
ENDBRANCH   9  20
BRANCH  10  24
HETATM   24  O   UNL     1     -12.857  12.314  70.594  1.00  0.00    -0.098 OA 
BRANCH  24  25
HETATM   25  C   UNL     1     -12.870  13.223  71.603  1.00  0.00    -0.302 C  
HETATM   26  O   UNL     1     -13.428  13.080  72.680  1.00  0.00    -0.509 OA 
HETATM   27  C   UNL     1     -12.137  14.465  71.190  1.00  0.00    -0.410 C  
ENDBRANCH  24  25
ENDBRANCH  10  24
ENDBRANCH   5   6
ENDBRANCH   4   5
ENDBRANCH   2   4
TORSDOF 8
ENDMDL
MODEL      115
REMARK 921   NORMALIZED FREE ENERGY PREDICTED BY IDOCK:   -3.93 KCAL/MOL
REMARK 922        TOTAL FREE ENERGY PREDICTED BY IDOCK:   -7.17 KCAL/MOL
REMARK 923 INTER-LIGAND FREE ENERGY PREDICTED BY IDOCK:   -5.59 KCAL/MOL
REMARK 924 INTRA-LIGAND FREE ENERGY PREDICTED BY IDOCK:   -1.57 KCAL/MOL
REMARK 927      BINDING AFFINITY PREDICTED BY RF-SCORE:    0.00 PKD
ROOT
HETATM    1  C   UNL     1     -12.142   6.576  71.600  1.00  0.00    -0.381 C  
HETATM    2  C   UNL     1     -11.226   5.991  70.570  1.00  0.00    -0.292 C  
HETATM    3  O   UNL     1     -10.195   5.387  70.823  1.00  0.00    -0.213 OA 
ENDROOT
BRANCH   2   4
HETATM    4  O   UNL     1     -11.709   6.236  69.321  1.00  0.00    -0.262 OA 
BRANCH   4   5
HETATM    5  C   UNL     1     -10.738   6.178  68.271  1.00  0.00    -0.290 C  
BRANCH   5   6
HETATM    6  C   UNL     1     -10.155   7.550  67.926  1.00  0.00    -0.182 C  
HETATM    7  O   UNL     1     -11.084   8.548  68.360  1.00  0.00     0.125 OA 
HETATM    8  C   UNL     1     -10.330   9.732  68.646  1.00  0.00    -0.201 C  
HETATM    9  C   UNL     1      -8.952   9.273  69.147  1.00  0.00    -0.144 C  
HETATM   10  C   UNL     1      -8.811   7.845  68.599  1.00  0.00    -0.134 C  
BRANCH   8  11
HETATM   11  N   UNL     1     -11.079  10.556  69.597  1.00  0.00    -0.263 N  
HETATM   12  N   UNL     1     -11.775  12.666  70.320  1.00  0.00    -0.552 N  
HETATM   13  C   UNL     1     -11.846   9.977  70.592  1.00  0.00    -0.325 C  
HETATM   14  O   UNL     1     -13.395  12.856  71.913  1.00  0.00    -0.458 OA 
HETATM   15  H   UNL     1     -11.697  13.682  70.267  1.00  0.00     0.000 HD 
HETATM   16  C   UNL     1     -12.614  10.699  71.409  1.00  0.00    -0.526 C  
HETATM   17  C   UNL     1     -11.006  11.935  69.451  1.00  0.00    -0.095 C  
HETATM   18  C   UNL     1     -12.636  12.160  71.249  1.00  0.00    -0.238 C  
HETATM   19  O   UNL     1     -10.326  12.499  68.597  1.00  0.00    -0.225 OA 
ENDBRANCH   8  11
BRANCH   9  20
HETATM   20  O   UNL     1      -7.918  10.135  68.633  1.00  0.00    -0.095 OA 
BRANCH  20  21
HETATM   21  C   UNL     1      -7.137  10.780  69.537  1.00  0.00    -0.132 C  
HETATM   22  C   UNL     1      -6.616  12.064  68.963  1.00  0.00    -0.092 C  
HETATM   23  O   UNL     1      -6.879  10.378  70.662  1.00  0.00    -0.328 OA 
ENDBRANCH  20  21
ENDBRANCH   9  20
BRANCH  10  24
HETATM   24  O   UNL     1      -7.764   7.766  67.609  1.00  0.00    -0.116 OA 
BRANCH  24  25
HETATM   25  C   UNL     1      -6.913   6.711  67.681  1.00  0.00    -0.083 C  
HETATM   26  O   UNL     1      -7.123   5.596  67.228  1.00  0.00    -0.071 OA 
HETATM   27  C   UNL     1      -5.681   7.092  68.448  1.00  0.00    -0.021 C  
ENDBRANCH  24  25
ENDBRANCH  10  24
ENDBRANCH   5   6
ENDBRANCH   4   5
ENDBRANCH   2   4
TORSDOF 8
ENDMDL
MODEL      116
REMARK 921   NORMALIZED FREE ENERGY PREDICTED BY IDOCK:   -3.92 KCAL/MOL
REMARK 922        TOTAL FREE ENERGY PREDICTED BY IDOCK:   -7.17 KCAL/MOL
REMARK 923 INTER-LIGAND FREE ENERGY PREDICTED BY IDOCK:   -7.05 KCAL/MOL
REMARK 924 INTRA-LIGAND FREE ENERGY PREDICTED BY IDOCK:   -0.12 KCAL/MOL
REMARK 927      BINDING AFFINITY PREDICTED BY RF-SCORE:    0.00 PKD
ROOT
HETATM    1  C   UNL     1      -5.374  13.986  72.062  1.00  0.00    -0.223 C  
HETATM    2  C   UNL     1      -5.594  12.861  71.100  1.00  0.00    -0.094 C  
HETATM    3  O   UNL     1      -5.872  11.716  71.425  1.00  0.00    -0.343 OA 
ENDROOT
BRANCH   2   4
HETATM    4  O   UNL     1      -5.433  13.299  69.821  1.00  0.00    -0.088 OA 
BRANCH   4   5
HETATM    5  C   UNL     1      -6.496  12.961  68.924  1.00  0.00    -0.091 C  
BRANCH   5   6
HETATM    6  C   UNL     1      -7.005  14.164  68.127  1.00  0.00    -0.126 C  
HETATM    7  O   UNL     1      -7.873  13.678  67.099  1.00  0.00    -0.129 OA 
HETATM    8  C   UNL     1      -8.808  14.723  66.807  1.00  0.00    -0.252 C  
HETATM    9  C   UNL     1      -9.038  15.495  68.115  1.00  0.00    -0.184 C  
HETATM   10  C   UNL     1      -7.795  15.177  68.960  1.00  0.00    -0.181 C  
BRANCH   8  11
HETATM   11  N   UNL     1     -10.018  14.132  66.230  1.00  0.00    -0.293 N  
HETATM   12  N   UNL     1     -11.748  14.216  64.661  1.00  0.00    -0.396 N  
HETATM   13  C   UNL     1     -10.491  12.907  66.665  1.00  0.00    -0.263 C  
HETATM   14  O   UNL     1     -13.100  12.408  64.347  1.00  0.00    -0.786 OA 
HETATM   15  H   UNL     1     -12.267  14.737  63.955  1.00  0.00     0.000 HD 
HETATM   16  C   UNL     1     -11.531  12.301  66.092  1.00  0.00    -0.429 C  
HETATM   17  C   UNL     1     -10.659  14.836  65.219  1.00  0.00    -0.395 C  
HETATM   18  C   UNL     1     -12.201  12.966  64.965  1.00  0.00    -0.464 C  
HETATM   19  O   UNL     1     -10.291  15.935  64.809  1.00  0.00    -0.485 OA 
ENDBRANCH   8  11
BRANCH   9  20
HETATM   20  O   UNL     1      -9.146  16.907  67.853  1.00  0.00    -0.226 OA 
BRANCH  20  21
HETATM   21  C   UNL     1     -10.292  17.527  68.232  1.00  0.00    -0.379 C  
HETATM   22  C   UNL     1     -11.335  16.517  68.613  1.00  0.00    -0.237 C  
HETATM   23  O   UNL     1     -10.468  18.736  68.258  1.00  0.00    -0.354 OA 
ENDBRANCH  20  21
ENDBRANCH   9  20
BRANCH  10  24
HETATM   24  O   UNL     1      -6.984  16.354  69.159  1.00  0.00    -0.194 OA 
BRANCH  24  25
HETATM   25  C   UNL     1      -6.142  16.710  68.155  1.00  0.00    -0.125 C  
HETATM   26  O   UNL     1      -5.300  15.987  67.643  1.00  0.00    -0.130 OA 
HETATM   27  C   UNL     1      -6.355  18.148  67.787  1.00  0.00    -0.180 C  
ENDBRANCH  24  25
ENDBRANCH  10  24
ENDBRANCH   5   6
ENDBRANCH   4   5
ENDBRANCH   2   4
TORSDOF 8
ENDMDL
MODEL      117
REMARK 921   NORMALIZED FREE ENERGY PREDICTED BY IDOCK:   -3.89 KCAL/MOL
REMARK 922        TOTAL FREE ENERGY PREDICTED BY IDOCK:   -7.12 KCAL/MOL
REMARK 923 INTER-LIGAND FREE ENERGY PREDICTED BY IDOCK:   -6.90 KCAL/MOL
REMARK 924 INTRA-LIGAND FREE ENERGY PREDICTED BY IDOCK:   -0.22 KCAL/MOL
REMARK 927      BINDING AFFINITY PREDICTED BY RF-SCORE:    0.00 PKD
ROOT
HETATM    1  C   UNL     1     -12.211  13.633  63.366  1.00  0.00    -0.236 C  
HETATM    2  C   UNL     1     -12.561  12.195  63.590  1.00  0.00    -0.504 C  
HETATM    3  O   UNL     1     -13.644  11.800  63.994  1.00  0.00    -0.392 OA 
ENDROOT
BRANCH   2   4
HETATM    4  O   UNL     1     -11.499  11.400  63.283  1.00  0.00    -0.249 OA 
BRANCH   4   5
HETATM    5  C   UNL     1     -10.214  12.005  63.464  1.00  0.00    -0.450 C  
BRANCH   5   6
HETATM    6  C   UNL     1      -9.592  11.683  64.824  1.00  0.00    -0.134 C  
HETATM    7  O   UNL     1      -9.758  12.826  65.669  1.00  0.00    -0.223 OA 
HETATM    8  C   UNL     1      -9.798  12.351  67.019  1.00  0.00    -0.211 C  
HETATM    9  C   UNL     1     -10.438  10.956  66.983  1.00  0.00    -0.244 C  
HETATM   10  C   UNL     1     -10.230  10.486  65.536  1.00  0.00    -0.256 C  
BRANCH   8  11
HETATM   11  N   UNL     1     -10.513  13.327  67.846  1.00  0.00    -0.235 N  
HETATM   12  N   UNL     1     -12.523  14.322  68.501  1.00  0.00    -0.508 N  
HETATM   13  C   UNL     1      -9.845  14.085  68.791  1.00  0.00    -0.139 C  
HETATM   14  O   UNL     1     -12.585  15.688  70.325  1.00  0.00    -0.407 OA 
HETATM   15  H   UNL     1     -13.521  14.467  68.348  1.00  0.00     0.000 HD 
HETATM   16  C   UNL     1     -10.484  14.908  69.624  1.00  0.00    -0.182 C  
HETATM   17  C   UNL     1     -11.883  13.447  67.661  1.00  0.00    -0.354 C  
HETATM   18  C   UNL     1     -11.947  15.017  69.524  1.00  0.00    -0.313 C  
HETATM   19  O   UNL     1     -12.520  12.811  66.824  1.00  0.00    -0.336 OA 
ENDBRANCH   8  11
BRANCH   9  20
HETATM   20  O   UNL     1      -9.783  10.077  67.918  1.00  0.00    -0.144 OA 
BRANCH  20  21
HETATM   21  C   UNL     1     -10.290  10.013  69.175  1.00  0.00    -0.216 C  
HETATM   22  C   UNL     1      -9.260   9.493  70.133  1.00  0.00    -0.281 C  
HETATM   23  O   UNL     1     -11.428  10.324  69.495  1.00  0.00    -0.242 OA 
ENDBRANCH  20  21
ENDBRANCH   9  20
BRANCH  10  24
HETATM   24  O   UNL     1      -9.321   9.367  65.475  1.00  0.00    -0.222 OA 
BRANCH  24  25
HETATM   25  C   UNL     1      -8.081   9.595  64.972  1.00  0.00    -0.127 C  
HETATM   26  O   UNL     1      -7.209  10.263  65.506  1.00  0.00    -0.139 OA 
HETATM   27  C   UNL     1      -7.942   8.946  63.626  1.00  0.00    -0.154 C  
ENDBRANCH  24  25
ENDBRANCH  10  24
ENDBRANCH   5   6
ENDBRANCH   4   5
ENDBRANCH   2   4
TORSDOF 8
ENDMDL
MODEL      118
REMARK 921   NORMALIZED FREE ENERGY PREDICTED BY IDOCK:   -3.89 KCAL/MOL
REMARK 922        TOTAL FREE ENERGY PREDICTED BY IDOCK:   -7.11 KCAL/MOL
REMARK 923 INTER-LIGAND FREE ENERGY PREDICTED BY IDOCK:   -6.16 KCAL/MOL
REMARK 924 INTRA-LIGAND FREE ENERGY PREDICTED BY IDOCK:   -0.96 KCAL/MOL
REMARK 927      BINDING AFFINITY PREDICTED BY RF-SCORE:    0.00 PKD
ROOT
HETATM    1  C   UNL     1      -7.734   5.810  66.397  1.00  0.00    -0.099 C  
HETATM    2  C   UNL     1      -7.885   6.946  67.360  1.00  0.00    -0.111 C  
HETATM    3  O   UNL     1      -8.618   6.932  68.338  1.00  0.00    -0.125 OA 
ENDROOT
BRANCH   2   4
HETATM    4  O   UNL     1      -7.095   7.989  66.984  1.00  0.00    -0.078 OA 
BRANCH   4   5
HETATM    5  C   UNL     1      -7.605   9.286  67.308  1.00  0.00    -0.091 C  
BRANCH   5   6
HETATM    6  C   UNL     1      -9.052   9.485  66.855  1.00  0.00    -0.135 C  
HETATM    7  O   UNL     1      -9.769  10.110  67.924  1.00  0.00    -0.144 OA 
HETATM    8  C   UNL     1     -10.839  10.858  67.335  1.00  0.00    -0.279 C  
HETATM    9  C   UNL     1     -10.345  11.340  65.963  1.00  0.00    -0.252 C  
HETATM   10  C   UNL     1      -9.204  10.373  65.616  1.00  0.00    -0.182 C  
BRANCH   8  11
HETATM   11  N   UNL     1     -11.231  11.932  68.252  1.00  0.00    -0.239 N  
HETATM   12  N   UNL     1     -12.133  12.601  70.301  1.00  0.00    -0.415 N  
HETATM   13  C   UNL     1     -10.979  13.257  67.946  1.00  0.00    -0.249 C  
HETATM   14  O   UNL     1     -11.981  14.776  70.966  1.00  0.00    -0.297 OA 
HETATM   15  H   UNL     1     -12.632  12.365  71.158  1.00  0.00     0.000 HD 
HETATM   16  C   UNL     1     -11.235  14.246  68.802  1.00  0.00    -0.286 C  
HETATM   17  C   UNL     1     -11.844  11.570  69.443  1.00  0.00    -0.350 C  
HETATM   18  C   UNL     1     -11.814  13.913  70.112  1.00  0.00    -0.298 C  
HETATM   19  O   UNL     1     -12.107  10.410  69.754  1.00  0.00    -0.228 OA 
ENDBRANCH   8  11
BRANCH   9  20
HETATM   20  O   UNL     1     -11.407  11.267  64.992  1.00  0.00    -0.102 OA 
BRANCH  20  21
HETATM   21  C   UNL     1     -11.716  12.404  64.319  1.00  0.00    -0.380 C  
HETATM   22  C   UNL     1     -10.561  13.361  64.342  1.00  0.00    -0.423 C  
HETATM   23  O   UNL     1     -12.784  12.633  63.771  1.00  0.00    -0.690 OA 
ENDBRANCH  20  21
ENDBRANCH   9  20
BRANCH  10  24
HETATM   24  O   UNL     1      -9.547   9.544  64.485  1.00  0.00    -0.147 OA 
BRANCH  24  25
HETATM   25  C   UNL     1      -8.733   9.598  63.400  1.00  0.00    -0.226 C  
HETATM   26  O   UNL     1      -8.920  10.282  62.405  1.00  0.00    -0.208 OA 
HETATM   27  C   UNL     1      -7.580   8.654  63.571  1.00  0.00    -0.124 C  
ENDBRANCH  24  25
ENDBRANCH  10  24
ENDBRANCH   5   6
ENDBRANCH   4   5
ENDBRANCH   2   4
TORSDOF 8
ENDMDL
MODEL      119
REMARK 921   NORMALIZED FREE ENERGY PREDICTED BY IDOCK:   -3.88 KCAL/MOL
REMARK 922        TOTAL FREE ENERGY PREDICTED BY IDOCK:   -7.10 KCAL/MOL
REMARK 923 INTER-LIGAND FREE ENERGY PREDICTED BY IDOCK:   -6.13 KCAL/MOL
REMARK 924 INTRA-LIGAND FREE ENERGY PREDICTED BY IDOCK:   -0.96 KCAL/MOL
REMARK 927      BINDING AFFINITY PREDICTED BY RF-SCORE:    0.00 PKD
ROOT
HETATM    1  C   UNL     1     -13.434  10.124  72.113  1.00  0.00    -0.371 C  
HETATM    2  C   UNL     1     -13.220   8.691  71.738  1.00  0.00    -0.363 C  
HETATM    3  O   UNL     1     -13.957   7.772  72.062  1.00  0.00    -0.302 OA 
ENDROOT
BRANCH   2   4
HETATM    4  O   UNL     1     -12.087   8.566  70.993  1.00  0.00    -0.282 OA 
BRANCH   4   5
HETATM    5  C   UNL     1     -11.418   9.794  70.691  1.00  0.00    -0.324 C  
BRANCH   5   6
HETATM    6  C   UNL     1     -11.335  10.071  69.189  1.00  0.00    -0.094 C  
HETATM    7  O   UNL     1     -11.616  11.458  68.977  1.00  0.00    -0.257 OA 
HETATM    8  C   UNL     1     -10.936  11.849  67.779  1.00  0.00    -0.228 C  
HETATM    9  C   UNL     1      -9.660  10.999  67.692  1.00  0.00    -0.168 C  
HETATM   10  C   UNL     1      -9.963   9.779  68.574  1.00  0.00    -0.160 C  
BRANCH   8  11
HETATM   11  N   UNL     1     -10.702  13.295  67.815  1.00  0.00    -0.240 N  
HETATM   12  N   UNL     1     -11.399  15.462  67.284  1.00  0.00    -0.273 N  
HETATM   13  C   UNL     1      -9.615  13.825  68.487  1.00  0.00    -0.176 C  
HETATM   14  O   UNL     1     -10.338  17.263  68.193  1.00  0.00    -0.318 OA 
HETATM   15  H   UNL     1     -12.029  16.080  66.773  1.00  0.00     0.000 HD 
HETATM   16  C   UNL     1      -9.430  15.139  68.619  1.00  0.00    -0.206 C  
HETATM   17  C   UNL     1     -11.619  14.112  67.169  1.00  0.00    -0.377 C  
HETATM   18  C   UNL     1     -10.414  16.052  68.020  1.00  0.00    -0.275 C  
HETATM   19  O   UNL     1     -12.591  13.692  66.543  1.00  0.00    -0.335 OA 
ENDBRANCH   8  11
BRANCH   9  20
HETATM   20  O   UNL     1      -9.407  10.610  66.328  1.00  0.00    -0.164 OA 
BRANCH  20  21
HETATM   21  C   UNL     1      -8.115  10.410  65.965  1.00  0.00    -0.143 C  
HETATM   22  C   UNL     1      -7.943   9.050  65.357  1.00  0.00    -0.111 C  
HETATM   23  O   UNL     1      -7.207  11.214  66.114  1.00  0.00    -0.101 OA 
ENDBRANCH  20  21
ENDBRANCH   9  20
BRANCH  10  24
HETATM   24  O   UNL     1     -10.050   8.573  67.785  1.00  0.00    -0.186 OA 
BRANCH  24  25
HETATM   25  C   UNL     1     -10.091   7.391  68.452  1.00  0.00    -0.177 C  
HETATM   26  O   UNL     1      -9.349   7.065  69.366  1.00  0.00    -0.147 OA 
HETATM   27  C   UNL     1     -11.156   6.508  67.873  1.00  0.00    -0.352 C  
ENDBRANCH  24  25
ENDBRANCH  10  24
ENDBRANCH   5   6
ENDBRANCH   4   5
ENDBRANCH   2   4
TORSDOF 8
ENDMDL
MODEL      120
REMARK 921   NORMALIZED FREE ENERGY PREDICTED BY IDOCK:   -3.81 KCAL/MOL
REMARK 922        TOTAL FREE ENERGY PREDICTED BY IDOCK:   -7.00 KCAL/MOL
REMARK 923 INTER-LIGAND FREE ENERGY PREDICTED BY IDOCK:   -6.23 KCAL/MOL
REMARK 924 INTRA-LIGAND FREE ENERGY PREDICTED BY IDOCK:   -0.78 KCAL/MOL
REMARK 927      BINDING AFFINITY PREDICTED BY RF-SCORE:    0.00 PKD
ROOT
HETATM    1  C   UNL     1     -11.622   9.024  71.653  1.00  0.00    -0.426 C  
HETATM    2  C   UNL     1     -10.934   8.994  70.324  1.00  0.00    -0.244 C  
HETATM    3  O   UNL     1     -10.902   8.024  69.582  1.00  0.00    -0.240 OA 
ENDROOT
BRANCH   2   4
HETATM    4  O   UNL     1     -10.348  10.197  70.072  1.00  0.00    -0.260 OA 
BRANCH   4   5
HETATM    5  C   UNL     1      -8.996  10.130  69.608  1.00  0.00    -0.169 C  
BRANCH   5   6
HETATM    6  C   UNL     1      -8.757  10.973  68.354  1.00  0.00    -0.150 C  
HETATM    7  O   UNL     1      -8.029  10.175  67.416  1.00  0.00    -0.109 OA 
HETATM    8  C   UNL     1      -8.360  10.652  66.107  1.00  0.00    -0.158 C  
HETATM    9  C   UNL     1      -9.808  11.161  66.171  1.00  0.00    -0.225 C  
HETATM   10  C   UNL     1     -10.039  11.444  67.662  1.00  0.00    -0.180 C  
BRANCH   8  11
HETATM   11  N   UNL     1      -8.135   9.578  65.136  1.00  0.00    -0.121 N  
HETATM   12  N   UNL     1      -8.556   7.395  64.415  1.00  0.00    -0.344 N  
HETATM   13  C   UNL     1      -7.367   9.789  64.005  1.00  0.00    -0.128 C  
HETATM   14  O   UNL     1      -7.882   6.721  62.345  1.00  0.00    -0.095 OA 
HETATM   15  H   UNL     1      -8.943   6.470  64.600  1.00  0.00     0.000 HD 
HETATM   16  C   UNL     1      -7.226   8.861  63.058  1.00  0.00    -0.092 C  
HETATM   17  C   UNL     1      -8.737   8.352  65.382  1.00  0.00    -0.141 C  
HETATM   18  C   UNL     1      -7.905   7.569  63.230  1.00  0.00    -0.126 C  
HETATM   19  O   UNL     1      -9.413   8.107  66.379  1.00  0.00    -0.204 OA 
ENDBRANCH   8  11
BRANCH   9  20
HETATM   20  O   UNL     1      -9.956  12.357  65.381  1.00  0.00    -0.267 OA 
BRANCH  20  21
HETATM   21  C   UNL     1     -10.482  12.224  64.138  1.00  0.00    -0.375 C  
HETATM   22  C   UNL     1     -11.980  12.171  64.202  1.00  0.00    -0.497 C  
HETATM   23  O   UNL     1      -9.838  12.148  63.102  1.00  0.00    -0.398 OA 
ENDBRANCH  20  21
ENDBRANCH   9  20
BRANCH  10  24
HETATM   24  O   UNL     1     -10.211  12.856  67.905  1.00  0.00    -0.221 OA 
BRANCH  24  25
HETATM   25  C   UNL     1     -11.479  13.313  68.073  1.00  0.00    -0.309 C  
HETATM   26  O   UNL     1     -12.142  13.895  67.228  1.00  0.00    -0.401 OA 
HETATM   27  C   UNL     1     -11.944  13.044  69.474  1.00  0.00    -0.350 C  
ENDBRANCH  24  25
ENDBRANCH  10  24
ENDBRANCH   5   6
ENDBRANCH   4   5
ENDBRANCH   2   4
TORSDOF 8
ENDMDL
MODEL      121
REMARK 921   NORMALIZED FREE ENERGY PREDICTED BY IDOCK:   -3.81 KCAL/MOL
REMARK 922        TOTAL FREE ENERGY PREDICTED BY IDOCK:   -6.99 KCAL/MOL
REMARK 923 INTER-LIGAND FREE ENERGY PREDICTED BY IDOCK:   -6.28 KCAL/MOL
REMARK 924 INTRA-LIGAND FREE ENERGY PREDICTED BY IDOCK:   -0.72 KCAL/MOL
REMARK 927      BINDING AFFINITY PREDICTED BY RF-SCORE:    0.00 PKD
ROOT
HETATM    1  C   UNL     1      -6.689  17.393  69.203  1.00  0.00    -0.243 C  
HETATM    2  C   UNL     1      -6.137  16.254  68.404  1.00  0.00    -0.112 C  
HETATM    3  O   UNL     1      -5.448  16.380  67.403  1.00  0.00    -0.134 OA 
ENDROOT
BRANCH   2   4
HETATM    4  O   UNL     1      -6.520  15.068  68.951  1.00  0.00    -0.088 OA 
BRANCH   4   5
HETATM    5  C   UNL     1      -7.899  14.731  68.770  1.00  0.00    -0.146 C  
BRANCH   5   6
HETATM    6  C   UNL     1      -8.223  14.303  67.338  1.00  0.00    -0.202 C  
HETATM    7  O   UNL     1      -8.142  12.876  67.272  1.00  0.00    -0.176 OA 
HETATM    8  C   UNL     1      -9.024  12.450  66.228  1.00  0.00    -0.037 C  
HETATM    9  C   UNL     1     -10.189  13.451  66.191  1.00  0.00    -0.301 C  
HETATM   10  C   UNL     1      -9.622  14.709  66.865  1.00  0.00    -0.244 C  
BRANCH   8  11
HETATM   11  N   UNL     1      -9.423  11.063  66.477  1.00  0.00    -0.183 N  
HETATM   12  N   UNL     1     -10.575   9.502  67.781  1.00  0.00    -0.274 N  
HETATM   13  C   UNL     1      -9.087  10.054  65.592  1.00  0.00    -0.183 C  
HETATM   14  O   UNL     1     -10.870   7.371  67.026  1.00  0.00    -0.354 OA 
HETATM   15  H   UNL     1     -11.076   9.276  68.640  1.00  0.00     0.000 HD 
HETATM   16  C   UNL     1      -9.519   8.801  65.743  1.00  0.00    -0.239 C  
HETATM   17  C   UNL     1     -10.166  10.802  67.620  1.00  0.00    -0.189 C  
HETATM   18  C   UNL     1     -10.374   8.484  66.896  1.00  0.00    -0.297 C  
HETATM   19  O   UNL     1     -10.476  11.657  68.448  1.00  0.00    -0.197 OA 
ENDBRANCH   8  11
BRANCH   9  20
HETATM   20  O   UNL     1     -10.580  13.716  64.830  1.00  0.00    -0.377 OA 
BRANCH  20  21
HETATM   21  C   UNL     1     -11.901  13.913  64.587  1.00  0.00    -0.407 C  
HETATM   22  C   UNL     1     -12.723  12.851  65.256  1.00  0.00    -0.389 C  
HETATM   23  O   UNL     1     -12.368  14.820  63.914  1.00  0.00    -0.728 OA 
ENDBRANCH  20  21
ENDBRANCH   9  20
BRANCH  10  24
HETATM   24  O   UNL     1      -9.501  15.796  65.923  1.00  0.00    -0.331 OA 
BRANCH  24  25
HETATM   25  C   UNL     1      -9.857  17.035  66.350  1.00  0.00    -0.299 C  
HETATM   26  O   UNL     1      -9.486  17.564  67.387  1.00  0.00    -0.249 OA 
HETATM   27  C   UNL     1     -10.821  17.658  65.383  1.00  0.00     0.104 C  
ENDBRANCH  24  25
ENDBRANCH  10  24
ENDBRANCH   5   6
ENDBRANCH   4   5
ENDBRANCH   2   4
TORSDOF 8
ENDMDL
MODEL      122
REMARK 921   NORMALIZED FREE ENERGY PREDICTED BY IDOCK:   -3.77 KCAL/MOL
REMARK 922        TOTAL FREE ENERGY PREDICTED BY IDOCK:   -6.95 KCAL/MOL
REMARK 923 INTER-LIGAND FREE ENERGY PREDICTED BY IDOCK:   -6.05 KCAL/MOL
REMARK 924 INTRA-LIGAND FREE ENERGY PREDICTED BY IDOCK:   -0.90 KCAL/MOL
REMARK 927      BINDING AFFINITY PREDICTED BY RF-SCORE:    0.00 PKD
ROOT
HETATM    1  C   UNL     1     -12.999  11.706  63.482  1.00  0.00    -0.068 C  
HETATM    2  C   UNL     1     -12.132  12.919  63.346  1.00  0.00    -0.530 C  
HETATM    3  O   UNL     1     -12.533  14.070  63.427  1.00  0.00    -0.826 OA 
ENDROOT
BRANCH   2   4
HETATM    4  O   UNL     1     -10.842  12.550  63.114  1.00  0.00    -0.326 OA 
BRANCH   4   5
HETATM    5  C   UNL     1     -10.483  11.253  63.601  1.00  0.00    -0.405 C  
BRANCH   5   6
HETATM    6  C   UNL     1      -9.411  11.304  64.691  1.00  0.00    -0.188 C  
HETATM    7  O   UNL     1      -9.755  12.353  65.602  1.00  0.00    -0.240 OA 
HETATM    8  C   UNL     1      -9.202  12.005  66.876  1.00  0.00    -0.197 C  
HETATM    9  C   UNL     1      -9.219  10.472  66.966  1.00  0.00    -0.150 C  
HETATM   10  C   UNL     1      -9.282  10.011  65.502  1.00  0.00    -0.198 C  
BRANCH   8  11
HETATM   11  N   UNL     1      -9.963  12.684  67.928  1.00  0.00    -0.221 N  
HETATM   12  N   UNL     1     -10.168  14.451  69.443  1.00  0.00    -0.424 N  
HETATM   13  C   UNL     1     -11.213  12.230  68.309  1.00  0.00    -0.267 C  
HETATM   14  O   UNL     1     -12.140  14.807  70.530  1.00  0.00    -0.275 OA 
HETATM   15  H   UNL     1      -9.750  15.247  69.924  1.00  0.00     0.000 HD 
HETATM   16  C   UNL     1     -11.969  12.884  69.192  1.00  0.00    -0.308 C  
HETATM   17  C   UNL     1      -9.394  13.807  68.511  1.00  0.00    -0.144 C  
HETATM   18  C   UNL     1     -11.447  14.124  69.786  1.00  0.00    -0.250 C  
HETATM   19  O   UNL     1      -8.280  14.240  68.222  1.00  0.00    -0.133 OA 
ENDBRANCH   8  11
BRANCH   9  20
HETATM   20  O   UNL     1      -8.024   9.993  67.615  1.00  0.00    -0.105 OA 
BRANCH  20  21
HETATM   21  C   UNL     1      -7.022  10.886  67.815  1.00  0.00    -0.077 C  
HETATM   22  C   UNL     1      -6.835  11.147  69.281  1.00  0.00    -0.110 C  
HETATM   23  O   UNL     1      -6.362  11.417  66.935  1.00  0.00    -0.109 OA 
ENDBRANCH  20  21
ENDBRANCH   9  20
BRANCH  10  24
HETATM   24  O   UNL     1      -8.068   9.335  65.115  1.00  0.00    -0.114 OA 
BRANCH  24  25
HETATM   25  C   UNL     1      -8.192   8.125  64.510  1.00  0.00    -0.115 C  
HETATM   26  O   UNL     1      -8.140   7.924  63.306  1.00  0.00    -0.149 OA 
HETATM   27  C   UNL     1      -8.453   7.060  65.534  1.00  0.00    -0.120 C  
ENDBRANCH  24  25
ENDBRANCH  10  24
ENDBRANCH   5   6
ENDBRANCH   4   5
ENDBRANCH   2   4
TORSDOF 8
ENDMDL
MODEL      123
REMARK 921   NORMALIZED FREE ENERGY PREDICTED BY IDOCK:   -3.75 KCAL/MOL
REMARK 922        TOTAL FREE ENERGY PREDICTED BY IDOCK:   -6.90 KCAL/MOL
REMARK 923 INTER-LIGAND FREE ENERGY PREDICTED BY IDOCK:   -5.46 KCAL/MOL
REMARK 924 INTRA-LIGAND FREE ENERGY PREDICTED BY IDOCK:   -1.45 KCAL/MOL
REMARK 927      BINDING AFFINITY PREDICTED BY RF-SCORE:    0.00 PKD
ROOT
HETATM    1  C   UNL     1      -9.801   3.594  70.940  1.00  0.00    -0.159 C  
HETATM    2  C   UNL     1      -8.776   4.683  70.869  1.00  0.00    -0.110 C  
HETATM    3  O   UNL     1      -8.179   5.136  71.834  1.00  0.00    -0.113 OA 
ENDROOT
BRANCH   2   4
HETATM    4  O   UNL     1      -8.616   5.093  69.581  1.00  0.00    -0.091 OA 
BRANCH   4   5
HETATM    5  C   UNL     1      -9.632   5.973  69.092  1.00  0.00    -0.132 C  
BRANCH   5   6
HETATM    6  C   UNL     1      -9.428   7.422  69.538  1.00  0.00    -0.155 C  
HETATM    7  O   UNL     1      -9.012   8.182  68.399  1.00  0.00    -0.137 OA 
HETATM    8  C   UNL     1      -9.438   9.532  68.612  1.00  0.00    -0.142 C  
HETATM    9  C   UNL     1     -10.738   9.466  69.429  1.00  0.00    -0.217 C  
HETATM   10  C   UNL     1     -10.687   8.087  70.102  1.00  0.00    -0.244 C  
BRANCH   8  11
HETATM   11  N   UNL     1      -9.568  10.202  67.316  1.00  0.00    -0.157 N  
HETATM   12  N   UNL     1      -9.186  12.073  65.969  1.00  0.00    -0.367 N  
HETATM   13  C   UNL     1     -10.115   9.547  66.227  1.00  0.00    -0.257 C  
HETATM   14  O   UNL     1      -9.540  11.958  63.720  1.00  0.00    -0.215 OA 
HETATM   15  H   UNL     1      -8.902  13.048  65.883  1.00  0.00     0.000 HD 
HETATM   16  C   UNL     1     -10.156  10.096  65.013  1.00  0.00    -0.305 C  
HETATM   17  C   UNL     1      -9.106  11.507  67.216  1.00  0.00    -0.164 C  
HETATM   18  C   UNL     1      -9.609  11.449  64.832  1.00  0.00    -0.215 C  
HETATM   19  O   UNL     1      -8.630  12.139  68.156  1.00  0.00    -0.165 OA 
ENDBRANCH   8  11
BRANCH   9  20
HETATM   20  O   UNL     1     -10.773  10.525  70.405  1.00  0.00    -0.217 OA 
BRANCH  20  21
HETATM   21  C   UNL     1     -11.915  11.252  70.497  1.00  0.00    -0.371 C  
HETATM   22  C   UNL     1     -12.210  11.935  69.194  1.00  0.00    -0.141 C  
HETATM   23  O   UNL     1     -12.611  11.351  71.496  1.00  0.00    -0.348 OA 
ENDBRANCH  20  21
ENDBRANCH   9  20
BRANCH  10  24
HETATM   24  O   UNL     1     -10.550   8.210  71.534  1.00  0.00    -0.215 OA 
BRANCH  24  25
HETATM   25  C   UNL     1     -11.573   7.753  72.301  1.00  0.00    -0.338 C  
HETATM   26  O   UNL     1     -12.201   8.414  73.114  1.00  0.00    -0.111 OA 
HETATM   27  C   UNL     1     -11.797   6.292  72.047  1.00  0.00    -0.370 C  
ENDBRANCH  24  25
ENDBRANCH  10  24
ENDBRANCH   5   6
ENDBRANCH   4   5
ENDBRANCH   2   4
TORSDOF 8
ENDMDL
MODEL      124
REMARK 921   NORMALIZED FREE ENERGY PREDICTED BY IDOCK:   -3.75 KCAL/MOL
REMARK 922        TOTAL FREE ENERGY PREDICTED BY IDOCK:   -6.90 KCAL/MOL
REMARK 923 INTER-LIGAND FREE ENERGY PREDICTED BY IDOCK:   -5.89 KCAL/MOL
REMARK 924 INTRA-LIGAND FREE ENERGY PREDICTED BY IDOCK:   -1.01 KCAL/MOL
REMARK 927      BINDING AFFINITY PREDICTED BY RF-SCORE:    0.00 PKD
ROOT
HETATM    1  C   UNL     1     -11.947  12.635  63.578  1.00  0.00    -0.630 C  
HETATM    2  C   UNL     1     -10.836  11.632  63.612  1.00  0.00    -0.432 C  
HETATM    3  O   UNL     1     -10.376  11.074  62.626  1.00  0.00    -0.021 OA 
ENDROOT
BRANCH   2   4
HETATM    4  O   UNL     1     -10.422  11.433  64.893  1.00  0.00    -0.276 OA 
BRANCH   4   5
HETATM    5  C   UNL     1     -11.281  11.977  65.901  1.00  0.00    -0.337 C  
BRANCH   5   6
HETATM    6  C   UNL     1     -10.663  11.922  67.300  1.00  0.00    -0.236 C  
HETATM    7  O   UNL     1     -11.055  10.687  67.909  1.00  0.00    -0.269 OA 
HETATM    8  C   UNL     1     -10.033  10.337  68.848  1.00  0.00    -0.201 C  
HETATM    9  C   UNL     1      -8.707  10.869  68.286  1.00  0.00    -0.140 C  
HETATM   10  C   UNL     1      -9.133  11.977  67.311  1.00  0.00    -0.178 C  
BRANCH   8  11
HETATM   11  N   UNL     1     -10.063   8.888  69.066  1.00  0.00    -0.192 N  
HETATM   12  N   UNL     1      -9.939   7.068  70.527  1.00  0.00    -0.183 N  
HETATM   13  C   UNL     1     -10.328   8.016  68.025  1.00  0.00    -0.206 C  
HETATM   14  O   UNL     1     -10.504   4.980  69.809  1.00  0.00    -0.263 OA 
HETATM   15  H   UNL     1      -9.723   6.701  71.453  1.00  0.00     0.000 HD 
HETATM   16  C   UNL     1     -10.457   6.702  68.212  1.00  0.00    -0.249 C  
HETATM   17  C   UNL     1      -9.836   8.426  70.355  1.00  0.00    -0.181 C  
HETATM   18  C   UNL     1     -10.303   6.166  69.572  1.00  0.00    -0.219 C  
HETATM   19  O   UNL     1      -9.578   9.156  71.310  1.00  0.00    -0.275 OA 
ENDBRANCH   8  11
BRANCH   9  20
HETATM   20  O   UNL     1      -7.885  11.393  69.347  1.00  0.00     0.024 OA 
BRANCH  20  21
HETATM   21  C   UNL     1      -6.846  10.628  69.767  1.00  0.00    -0.143 C  
HETATM   22  C   UNL     1      -6.225   9.902  68.610  1.00  0.00    -0.041 C  
HETATM   23  O   UNL     1      -6.463  10.530  70.923  1.00  0.00    -0.344 OA 
ENDBRANCH  20  21
ENDBRANCH   9  20
BRANCH  10  24
HETATM   24  O   UNL     1      -8.715  13.276  67.781  1.00  0.00    -0.170 OA 
BRANCH  24  25
HETATM   25  C   UNL     1      -9.371  14.359  67.290  1.00  0.00    -0.208 C  
HETATM   26  O   UNL     1      -9.361  14.729  66.126  1.00  0.00    -0.295 OA 
HETATM   27  C   UNL     1     -10.080  15.080  68.399  1.00  0.00    -0.225 C  
ENDBRANCH  24  25
ENDBRANCH  10  24
ENDBRANCH   5   6
ENDBRANCH   4   5
ENDBRANCH   2   4
TORSDOF 8
ENDMDL
MODEL      125
REMARK 921   NORMALIZED FREE ENERGY PREDICTED BY IDOCK:   -3.74 KCAL/MOL
REMARK 922        TOTAL FREE ENERGY PREDICTED BY IDOCK:   -6.89 KCAL/MOL
REMARK 923 INTER-LIGAND FREE ENERGY PREDICTED BY IDOCK:   -5.79 KCAL/MOL
REMARK 924 INTRA-LIGAND FREE ENERGY PREDICTED BY IDOCK:   -1.10 KCAL/MOL
REMARK 927      BINDING AFFINITY PREDICTED BY RF-SCORE:    0.00 PKD
ROOT
HETATM    1  C   UNL     1      -8.997   3.323  64.858  1.00  0.00    -0.135 C  
HETATM    2  C   UNL     1      -9.459   3.586  66.257  1.00  0.00    -0.144 C  
HETATM    3  O   UNL     1      -9.160   2.903  67.225  1.00  0.00    -0.149 OA 
ENDROOT
BRANCH   2   4
HETATM    4  O   UNL     1     -10.259   4.687  66.288  1.00  0.00    -0.245 OA 
BRANCH   4   5
HETATM    5  C   UNL     1      -9.582   5.926  66.521  1.00  0.00    -0.156 C  
BRANCH   5   6
HETATM    6  C   UNL     1     -10.500   7.006  67.095  1.00  0.00    -0.312 C  
HETATM    7  O   UNL     1     -10.876   6.612  68.418  1.00  0.00    -0.239 OA 
HETATM    8  C   UNL     1     -11.145   7.809  69.156  1.00  0.00     0.162 C  
HETATM    9  C   UNL     1     -10.217   8.897  68.595  1.00  0.00    -0.200 C  
HETATM   10  C   UNL     1      -9.852   8.391  67.192  1.00  0.00    -0.215 C  
BRANCH   8  11
HETATM   11  N   UNL     1     -10.969   7.538  70.584  1.00  0.00    -0.245 N  
HETATM   12  N   UNL     1     -11.884   6.919  72.644  1.00  0.00    -0.497 N  
HETATM   13  C   UNL     1      -9.714   7.567  71.167  1.00  0.00    -0.162 C  
HETATM   14  O   UNL     1     -10.520   6.414  74.400  1.00  0.00    -0.304 OA 
HETATM   15  H   UNL     1     -12.706   6.744  73.221  1.00  0.00     0.000 HD 
HETATM   16  C   UNL     1      -9.512   7.229  72.441  1.00  0.00    -0.178 C  
HETATM   17  C   UNL     1     -12.101   7.231  71.326  1.00  0.00    -0.338 C  
HETATM   18  C   UNL     1     -10.668   6.821  73.253  1.00  0.00    -0.302 C  
HETATM   19  O   UNL     1     -13.240   7.210  70.862  1.00  0.00    -0.213 OA 
ENDBRANCH   8  11
BRANCH   9  20
HETATM   20  O   UNL     1     -10.905  10.162  68.533  1.00  0.00    -0.217 OA 
BRANCH  20  21
HETATM   21  C   UNL     1     -10.178  11.281  68.778  1.00  0.00    -0.202 C  
HETATM   22  C   UNL     1     -11.078  12.472  68.927  1.00  0.00    -0.309 C  
HETATM   23  O   UNL     1      -8.960  11.328  68.862  1.00  0.00    -0.142 OA 
ENDBRANCH  20  21
ENDBRANCH   9  20
BRANCH  10  24
HETATM   24  O   UNL     1     -10.410   9.242  66.168  1.00  0.00    -0.229 OA 
BRANCH  24  25
HETATM   25  C   UNL     1      -9.541   9.889  65.350  1.00  0.00    -0.285 C  
HETATM   26  O   UNL     1      -8.323   9.814  65.406  1.00  0.00    -0.129 OA 
HETATM   27  C   UNL     1     -10.289  10.761  64.386  1.00  0.00    -0.405 C  
ENDBRANCH  24  25
ENDBRANCH  10  24
ENDBRANCH   5   6
ENDBRANCH   4   5
ENDBRANCH   2   4
TORSDOF 8
ENDMDL
MODEL      126
REMARK 921   NORMALIZED FREE ENERGY PREDICTED BY IDOCK:   -3.73 KCAL/MOL
REMARK 922        TOTAL FREE ENERGY PREDICTED BY IDOCK:   -6.88 KCAL/MOL
REMARK 923 INTER-LIGAND FREE ENERGY PREDICTED BY IDOCK:   -5.58 KCAL/MOL
REMARK 924 INTRA-LIGAND FREE ENERGY PREDICTED BY IDOCK:   -1.30 KCAL/MOL
REMARK 927      BINDING AFFINITY PREDICTED BY RF-SCORE:    0.00 PKD
ROOT
HETATM    1  C   UNL     1     -14.295   8.669  72.366  1.00  0.00    -0.429 C  
HETATM    2  C   UNL     1     -13.117   9.495  71.953  1.00  0.00    -0.428 C  
HETATM    3  O   UNL     1     -13.130  10.711  71.838  1.00  0.00    -0.469 OA 
ENDROOT
BRANCH   2   4
HETATM    4  O   UNL     1     -12.041   8.694  71.722  1.00  0.00    -0.298 OA 
BRANCH   4   5
HETATM    5  C   UNL     1     -12.332   7.295  71.631  1.00  0.00    -0.352 C  
BRANCH   5   6
HETATM    6  C   UNL     1     -11.250   6.511  70.885  1.00  0.00    -0.311 C  
HETATM    7  O   UNL     1     -11.185   7.010  69.546  1.00  0.00    -0.220 OA 
HETATM    8  C   UNL     1      -9.849   6.792  69.078  1.00  0.00    -0.149 C  
HETATM    9  C   UNL     1      -8.925   6.903  70.300  1.00  0.00    -0.152 C  
HETATM   10  C   UNL     1      -9.852   6.639  71.496  1.00  0.00    -0.171 C  
BRANCH   8  11
HETATM   11  N   UNL     1      -9.558   7.747  68.006  1.00  0.00    -0.148 N  
HETATM   12  N   UNL     1      -9.396   8.226  65.725  1.00  0.00    -0.419 N  
HETATM   13  C   UNL     1      -9.260   9.068  68.290  1.00  0.00    -0.136 C  
HETATM   14  O   UNL     1      -9.149  10.379  65.019  1.00  0.00    -0.176 OA 
HETATM   15  H   UNL     1      -9.377   7.898  64.759  1.00  0.00     0.000 HD 
HETATM   16  C   UNL     1      -9.087   9.980  67.333  1.00  0.00    -0.146 C  
HETATM   17  C   UNL     1      -9.611   7.284  66.699  1.00  0.00    -0.178 C  
HETATM   18  C   UNL     1      -9.208   9.561  65.929  1.00  0.00    -0.206 C  
HETATM   19  O   UNL     1      -9.851   6.117  66.394  1.00  0.00    -0.157 OA 
ENDBRANCH   8  11
BRANCH   9  20
HETATM   20  O   UNL     1      -7.873   5.920  70.225  1.00  0.00    -0.096 OA 
BRANCH  20  21
HETATM   21  C   UNL     1      -6.724   6.282  69.601  1.00  0.00    -0.053 C  
HETATM   22  C   UNL     1      -6.215   5.160  68.744  1.00  0.00    -0.031 C  
HETATM   23  O   UNL     1      -6.167   7.363  69.716  1.00  0.00    -0.030 OA 
ENDBRANCH  20  21
ENDBRANCH   9  20
BRANCH  10  24
HETATM   24  O   UNL     1      -9.513   5.402  72.156  1.00  0.00    -0.142 OA 
BRANCH  24  25
HETATM   25  C   UNL     1     -10.063   5.173  73.376  1.00  0.00    -0.177 C  
HETATM   26  O   UNL     1     -10.704   4.183  73.693  1.00  0.00    -0.187 OA 
HETATM   27  C   UNL     1      -9.815   6.343  74.282  1.00  0.00    -0.320 C  
ENDBRANCH  24  25
ENDBRANCH  10  24
ENDBRANCH   5   6
ENDBRANCH   4   5
ENDBRANCH   2   4
TORSDOF 8
ENDMDL
MODEL      127
REMARK 921   NORMALIZED FREE ENERGY PREDICTED BY IDOCK:   -3.72 KCAL/MOL
REMARK 922        TOTAL FREE ENERGY PREDICTED BY IDOCK:   -6.86 KCAL/MOL
REMARK 923 INTER-LIGAND FREE ENERGY PREDICTED BY IDOCK:   -6.05 KCAL/MOL
REMARK 924 INTRA-LIGAND FREE ENERGY PREDICTED BY IDOCK:   -0.82 KCAL/MOL
REMARK 927      BINDING AFFINITY PREDICTED BY RF-SCORE:    0.00 PKD
ROOT
HETATM    1  C   UNL     1      -9.020   4.879  64.833  1.00  0.00    -0.138 C  
HETATM    2  C   UNL     1      -9.606   5.051  66.199  1.00  0.00    -0.168 C  
HETATM    3  O   UNL     1      -9.735   4.151  67.015  1.00  0.00    -0.202 OA 
ENDROOT
BRANCH   2   4
HETATM    4  O   UNL     1      -9.976   6.347  66.391  1.00  0.00    -0.134 OA 
BRANCH   4   5
HETATM    5  C   UNL     1      -8.919   7.304  66.278  1.00  0.00    -0.156 C  
BRANCH   5   6
HETATM    6  C   UNL     1      -9.430   8.725  66.030  1.00  0.00    -0.233 C  
HETATM    7  O   UNL     1     -10.471   8.993  66.974  1.00  0.00    -0.265 OA 
HETATM    8  C   UNL     1     -10.488  10.408  67.195  1.00  0.00    -0.256 C  
HETATM    9  C   UNL     1      -9.042  10.902  67.040  1.00  0.00    -0.149 C  
HETATM   10  C   UNL     1      -8.363   9.811  66.198  1.00  0.00    -0.120 C  
BRANCH   8  11
HETATM   11  N   UNL     1     -11.086  10.679  68.505  1.00  0.00    -0.244 N  
HETATM   12  N   UNL     1     -12.511  11.961  69.841  1.00  0.00    -0.054 N  
HETATM   13  C   UNL     1     -10.840   9.851  69.586  1.00  0.00    -0.253 C  
HETATM   14  O   UNL     1     -13.050  11.261  71.943  1.00  0.00    -0.493 OA 
HETATM   15  H   UNL     1     -13.086  12.794  69.962  1.00  0.00     0.000 HD 
HETATM   16  C   UNL     1     -11.446  10.017  70.761  1.00  0.00    -0.438 C  
HETATM   17  C   UNL     1     -11.921  11.782  68.616  1.00  0.00    -0.239 C  
HETATM   18  C   UNL     1     -12.400  11.125  70.913  1.00  0.00    -0.399 C  
HETATM   19  O   UNL     1     -12.157  12.559  67.693  1.00  0.00    -0.436 OA 
ENDBRANCH   8  11
BRANCH   9  20
HETATM   20  O   UNL     1      -9.015  12.176  66.367  1.00  0.00    -0.200 OA 
BRANCH  20  21
HETATM   21  C   UNL     1      -8.895  13.286  67.137  1.00  0.00    -0.222 C  
HETATM   22  C   UNL     1      -7.916  13.051  68.250  1.00  0.00    -0.151 C  
HETATM   23  O   UNL     1      -9.497  14.335  66.965  1.00  0.00    -0.234 OA 
ENDBRANCH  20  21
ENDBRANCH   9  20
BRANCH  10  24
HETATM   24  O   UNL     1      -7.994  10.311  64.895  1.00  0.00    -0.151 OA 
BRANCH  24  25
HETATM   25  C   UNL     1      -8.794   9.979  63.849  1.00  0.00    -0.229 C  
HETATM   26  O   UNL     1      -9.903  10.441  63.628  1.00  0.00    -0.310 OA 
HETATM   27  C   UNL     1      -8.142   8.915  63.016  1.00  0.00    -0.172 C  
ENDBRANCH  24  25
ENDBRANCH  10  24
ENDBRANCH   5   6
ENDBRANCH   4   5
ENDBRANCH   2   4
TORSDOF 8
ENDMDL
MODEL      128
REMARK 921   NORMALIZED FREE ENERGY PREDICTED BY IDOCK:   -3.70 KCAL/MOL
REMARK 922        TOTAL FREE ENERGY PREDICTED BY IDOCK:   -6.83 KCAL/MOL
REMARK 923 INTER-LIGAND FREE ENERGY PREDICTED BY IDOCK:   -5.60 KCAL/MOL
REMARK 924 INTRA-LIGAND FREE ENERGY PREDICTED BY IDOCK:   -1.24 KCAL/MOL
REMARK 927      BINDING AFFINITY PREDICTED BY RF-SCORE:    0.00 PKD
ROOT
HETATM    1  C   UNL     1      -8.626   7.180  70.305  1.00  0.00    -0.143 C  
HETATM    2  C   UNL     1      -8.776   8.661  70.462  1.00  0.00    -0.162 C  
HETATM    3  O   UNL     1      -8.334   9.307  71.401  1.00  0.00    -0.323 OA 
ENDROOT
BRANCH   2   4
HETATM    4  O   UNL     1      -9.477   9.175  69.415  1.00  0.00    -0.154 OA 
BRANCH   4   5
HETATM    5  C   UNL     1     -10.224   8.220  68.655  1.00  0.00    -0.204 C  
BRANCH   5   6
HETATM    6  C   UNL     1     -10.083   8.421  67.145  1.00  0.00    -0.265 C  
HETATM    7  O   UNL     1     -10.555   9.733  66.826  1.00  0.00    -0.206 OA 
HETATM    8  C   UNL     1      -9.863  10.156  65.646  1.00  0.00    -0.280 C  
HETATM    9  C   UNL     1      -8.470   9.509  65.689  1.00  0.00    -0.133 C  
HETATM   10  C   UNL     1      -8.645   8.309  66.631  1.00  0.00    -0.129 C  
BRANCH   8  11
HETATM   11  N   UNL     1      -9.851  11.620  65.600  1.00  0.00    -0.234 N  
HETATM   12  N   UNL     1     -10.277  13.601  64.435  1.00  0.00    -0.682 N  
HETATM   13  C   UNL     1      -9.486  12.366  66.706  1.00  0.00    -0.228 C  
HETATM   14  O   UNL     1     -10.211  15.606  65.518  1.00  0.00    -0.343 OA 
HETATM   15  H   UNL     1     -10.506  14.072  63.560  1.00  0.00     0.000 HD 
HETATM   16  C   UNL     1      -9.560  13.697  66.723  1.00  0.00    -0.277 C  
HETATM   17  C   UNL     1     -10.239  12.230  64.414  1.00  0.00    -0.314 C  
HETATM   18  C   UNL     1     -10.038  14.393  65.519  1.00  0.00    -0.356 C  
HETATM   19  O   UNL     1     -10.554  11.614  63.398  1.00  0.00    -0.387 OA 
ENDBRANCH   8  11
BRANCH   9  20
HETATM   20  O   UNL     1      -8.072   9.087  64.371  1.00  0.00    -0.129 OA 
BRANCH  20  21
HETATM   21  C   UNL     1      -6.982   9.686  63.826  1.00  0.00    -0.112 C  
HETATM   22  C   UNL     1      -5.985  10.034  64.892  1.00  0.00    -0.114 C  
HETATM   23  O   UNL     1      -6.825   9.921  62.638  1.00  0.00    -0.109 OA 
ENDBRANCH  20  21
ENDBRANCH   9  20
BRANCH  10  24
HETATM   24  O   UNL     1      -8.497   7.061  65.920  1.00  0.00    -0.137 OA 
BRANCH  24  25
HETATM   25  C   UNL     1      -7.255   6.516  65.865  1.00  0.00    -0.074 C  
HETATM   26  O   UNL     1      -6.326   6.787  66.611  1.00  0.00    -0.039 OA 
HETATM   27  C   UNL     1      -7.161   5.557  64.715  1.00  0.00    -0.062 C  
ENDBRANCH  24  25
ENDBRANCH  10  24
ENDBRANCH   5   6
ENDBRANCH   4   5
ENDBRANCH   2   4
TORSDOF 8
ENDMDL
MODEL      129
REMARK 921   NORMALIZED FREE ENERGY PREDICTED BY IDOCK:   -3.70 KCAL/MOL
REMARK 922        TOTAL FREE ENERGY PREDICTED BY IDOCK:   -6.83 KCAL/MOL
REMARK 923 INTER-LIGAND FREE ENERGY PREDICTED BY IDOCK:   -5.79 KCAL/MOL
REMARK 924 INTRA-LIGAND FREE ENERGY PREDICTED BY IDOCK:   -1.04 KCAL/MOL
REMARK 927      BINDING AFFINITY PREDICTED BY RF-SCORE:    0.00 PKD
ROOT
HETATM    1  C   UNL     1     -11.305   7.669  72.546  1.00  0.00    -0.409 C  
HETATM    2  C   UNL     1     -11.020   6.813  71.352  1.00  0.00    -0.242 C  
HETATM    3  O   UNL     1     -10.679   5.641  71.406  1.00  0.00    -0.247 OA 
ENDROOT
BRANCH   2   4
HETATM    4  O   UNL     1     -11.189   7.531  70.208  1.00  0.00    -0.272 OA 
BRANCH   4   5
HETATM    5  C   UNL     1     -11.005   6.795  68.994  1.00  0.00    -0.233 C  
BRANCH   5   6
HETATM    6  C   UNL     1      -9.946   7.412  68.080  1.00  0.00    -0.166 C  
HETATM    7  O   UNL     1     -10.610   8.269  67.146  1.00  0.00    -0.317 OA 
HETATM    8  C   UNL     1      -9.677   9.286  66.767  1.00  0.00    -0.200 C  
HETATM    9  C   UNL     1      -8.773   9.539  67.983  1.00  0.00    -0.120 C  
HETATM   10  C   UNL     1      -8.899   8.254  68.815  1.00  0.00    -0.137 C  
BRANCH   8  11
HETATM   11  N   UNL     1     -10.416  10.463  66.305  1.00  0.00    -0.197 N  
HETATM   12  N   UNL     1     -11.164  11.809  64.546  1.00  0.00    -0.321 N  
HETATM   13  C   UNL     1     -11.116  11.260  67.193  1.00  0.00    -0.301 C  
HETATM   14  O   UNL     1     -12.719  13.432  64.925  1.00  0.00    -0.633 OA 
HETATM   15  H   UNL     1     -11.128  12.062  63.559  1.00  0.00     0.000 HD 
HETATM   16  C   UNL     1     -11.876  12.278  66.790  1.00  0.00    -0.349 C  
HETATM   17  C   UNL     1     -10.405  10.737  64.944  1.00  0.00    -0.299 C  
HETATM   18  C   UNL     1     -11.963  12.567  65.351  1.00  0.00    -0.437 C  
HETATM   19  O   UNL     1      -9.785  10.074  64.116  1.00  0.00    -0.282 OA 
ENDBRANCH   8  11
BRANCH   9  20
HETATM   20  O   UNL     1      -7.413   9.758  67.561  1.00  0.00    -0.090 OA 
BRANCH  20  21
HETATM   21  C   UNL     1      -7.100   9.452  66.277  1.00  0.00    -0.088 C  
HETATM   22  C   UNL     1      -6.646  10.676  65.538  1.00  0.00    -0.052 C  
HETATM   23  O   UNL     1      -7.180   8.340  65.776  1.00  0.00    -0.070 OA 
ENDBRANCH  20  21
ENDBRANCH   9  20
BRANCH  10  24
HETATM   24  O   UNL     1      -7.652   7.528  68.847  1.00  0.00    -0.100 OA 
BRANCH  24  25
HETATM   25  C   UNL     1      -7.481   6.623  69.845  1.00  0.00    -0.095 C  
HETATM   26  O   UNL     1      -7.494   5.408  69.712  1.00  0.00    -0.063 OA 
HETATM   27  C   UNL     1      -7.320   7.327  71.160  1.00  0.00    -0.074 C  
ENDBRANCH  24  25
ENDBRANCH  10  24
ENDBRANCH   5   6
ENDBRANCH   4   5
ENDBRANCH   2   4
TORSDOF 8
ENDMDL
MODEL      130
REMARK 921   NORMALIZED FREE ENERGY PREDICTED BY IDOCK:   -3.69 KCAL/MOL
REMARK 922        TOTAL FREE ENERGY PREDICTED BY IDOCK:   -6.82 KCAL/MOL
REMARK 923 INTER-LIGAND FREE ENERGY PREDICTED BY IDOCK:   -5.83 KCAL/MOL
REMARK 924 INTRA-LIGAND FREE ENERGY PREDICTED BY IDOCK:   -0.99 KCAL/MOL
REMARK 927      BINDING AFFINITY PREDICTED BY RF-SCORE:    0.00 PKD
ROOT
HETATM    1  C   UNL     1      -7.228   9.962  63.568  1.00  0.00    -0.126 C  
HETATM    2  C   UNL     1      -7.926   8.705  63.985  1.00  0.00    -0.158 C  
HETATM    3  O   UNL     1      -7.792   7.623  63.432  1.00  0.00    -0.128 OA 
ENDROOT
BRANCH   2   4
HETATM    4  O   UNL     1      -8.728   8.947  65.057  1.00  0.00    -0.182 OA 
BRANCH   4   5
HETATM    5  C   UNL     1      -9.027   7.804  65.864  1.00  0.00    -0.113 C  
BRANCH   5   6
HETATM    6  C   UNL     1     -10.172   8.054  66.848  1.00  0.00    -0.315 C  
HETATM    7  O   UNL     1     -10.262   6.923  67.719  1.00  0.00    -0.156 OA 
HETATM    8  C   UNL     1     -10.813   7.386  68.957  1.00  0.00    -0.086 C  
HETATM    9  C   UNL     1     -10.339   8.835  69.143  1.00  0.00    -0.217 C  
HETATM   10  C   UNL     1      -9.984   9.298  67.722  1.00  0.00    -0.190 C  
BRANCH   8  11
HETATM   11  N   UNL     1     -10.411   6.472  70.029  1.00  0.00    -0.190 N  
HETATM   12  N   UNL     1     -10.925   5.337  72.007  1.00  0.00    -0.175 N  
HETATM   13  C   UNL     1      -9.181   5.840  70.003  1.00  0.00    -0.146 C  
HETATM   14  O   UNL     1      -9.538   3.705  72.786  1.00  0.00    -0.120 OA 
HETATM   15  H   UNL     1     -11.549   5.198  72.801  1.00  0.00     0.000 HD 
HETATM   16  C   UNL     1      -8.828   4.930  70.912  1.00  0.00    -0.155 C  
HETATM   17  C   UNL     1     -11.315   6.250  71.059  1.00  0.00    -0.316 C  
HETATM   18  C   UNL     1      -9.779   4.599  71.983  1.00  0.00    -0.168 C  
HETATM   19  O   UNL     1     -12.411   6.800  71.140  1.00  0.00    -0.367 OA 
ENDBRANCH   8  11
BRANCH   9  20
HETATM   20  O   UNL     1     -11.391   9.640  69.709  1.00  0.00    -0.213 OA 
BRANCH  20  21
HETATM   21  C   UNL     1     -11.411   9.782  71.059  1.00  0.00    -0.383 C  
HETATM   22  C   UNL     1     -12.689  10.431  71.501  1.00  0.00    -0.564 C  
HETATM   23  O   UNL     1     -10.517   9.440  71.819  1.00  0.00    -0.282 OA 
ENDBRANCH  20  21
ENDBRANCH   9  20
BRANCH  10  24
HETATM   24  O   UNL     1     -10.886  10.329  67.269  1.00  0.00    -0.277 OA 
BRANCH  24  25
HETATM   25  C   UNL     1     -10.402  11.595  67.196  1.00  0.00    -0.217 C  
HETATM   26  O   UNL     1      -9.221  11.902  67.135  1.00  0.00    -0.174 OA 
HETATM   27  C   UNL     1     -11.529  12.584  67.250  1.00  0.00    -0.416 C  
ENDBRANCH  24  25
ENDBRANCH  10  24
ENDBRANCH   5   6
ENDBRANCH   4   5
ENDBRANCH   2   4
TORSDOF 8
ENDMDL
MODEL      131
REMARK 921   NORMALIZED FREE ENERGY PREDICTED BY IDOCK:   -3.64 KCAL/MOL
REMARK 922        TOTAL FREE ENERGY PREDICTED BY IDOCK:   -6.75 KCAL/MOL
REMARK 923 INTER-LIGAND FREE ENERGY PREDICTED BY IDOCK:   -5.30 KCAL/MOL
REMARK 924 INTRA-LIGAND FREE ENERGY PREDICTED BY IDOCK:   -1.46 KCAL/MOL
REMARK 927      BINDING AFFINITY PREDICTED BY RF-SCORE:    0.00 PKD
ROOT
HETATM    1  C   UNL     1     -12.392  12.080  70.592  1.00  0.00    -0.394 C  
HETATM    2  C   UNL     1     -12.503  10.641  70.987  1.00  0.00    -0.413 C  
HETATM    3  O   UNL     1     -13.557  10.035  71.111  1.00  0.00    -0.313 OA 
ENDROOT
BRANCH   2   4
HETATM    4  O   UNL     1     -11.264  10.114  71.192  1.00  0.00    -0.325 OA 
BRANCH   4   5
HETATM    5  C   UNL     1     -10.592   9.663  70.012  1.00  0.00    -0.260 C  
BRANCH   5   6
HETATM    6  C   UNL     1     -10.908   8.206  69.669  1.00  0.00    -0.158 C  
HETATM    7  O   UNL     1     -10.644   8.011  68.276  1.00  0.00    -0.183 OA 
HETATM    8  C   UNL     1     -10.306   6.631  68.099  1.00  0.00    -0.190 C  
HETATM    9  C   UNL     1      -9.605   6.174  69.387  1.00  0.00    -0.137 C  
HETATM   10  C   UNL     1     -10.071   7.185  70.445  1.00  0.00    -0.191 C  
BRANCH   8  11
HETATM   11  N   UNL     1      -9.498   6.490  66.885  1.00  0.00    -0.147 N  
HETATM   12  N   UNL     1      -9.078   5.399  64.861  1.00  0.00    -0.356 N  
HETATM   13  C   UNL     1      -8.470   7.373  66.606  1.00  0.00    -0.124 C  
HETATM   14  O   UNL     1      -7.589   6.276  63.374  1.00  0.00    -0.073 OA 
HETATM   15  H   UNL     1      -9.256   4.615  64.235  1.00  0.00     0.000 HD 
HETATM   16  C   UNL     1      -7.783   7.329  65.464  1.00  0.00    -0.108 C  
HETATM   17  C   UNL     1      -9.815   5.454  66.017  1.00  0.00    -0.094 C  
HETATM   18  C   UNL     1      -8.128   6.298  64.474  1.00  0.00    -0.102 C  
HETATM   19  O   UNL     1     -10.705   4.633  66.226  1.00  0.00    -0.236 OA 
ENDBRANCH   8  11
BRANCH   9  20
HETATM   20  O   UNL     1     -10.006   4.834  69.730  1.00  0.00    -0.212 OA 
BRANCH  20  21
HETATM   21  C   UNL     1      -9.136   3.831  69.450  1.00  0.00    -0.132 C  
HETATM   22  C   UNL     1      -9.505   2.587  70.205  1.00  0.00    -0.150 C  
HETATM   23  O   UNL     1      -8.178   3.916  68.697  1.00  0.00    -0.073 OA 
ENDBRANCH  20  21
ENDBRANCH   9  20
BRANCH  10  24
HETATM   24  O   UNL     1     -10.907   6.553  71.438  1.00  0.00    -0.231 OA 
BRANCH  24  25
HETATM   25  C   UNL     1     -10.654   6.840  72.742  1.00  0.00    -0.235 C  
HETATM   26  O   UNL     1     -11.264   7.651  73.422  1.00  0.00    -0.314 OA 
HETATM   27  C   UNL     1      -9.475   6.048  73.226  1.00  0.00    -0.142 C  
ENDBRANCH  24  25
ENDBRANCH  10  24
ENDBRANCH   5   6
ENDBRANCH   4   5
ENDBRANCH   2   4
TORSDOF 8
ENDMDL
MODEL      132
REMARK 921   NORMALIZED FREE ENERGY PREDICTED BY IDOCK:   -3.64 KCAL/MOL
REMARK 922        TOTAL FREE ENERGY PREDICTED BY IDOCK:   -6.75 KCAL/MOL
REMARK 923 INTER-LIGAND FREE ENERGY PREDICTED BY IDOCK:   -6.09 KCAL/MOL
REMARK 924 INTRA-LIGAND FREE ENERGY PREDICTED BY IDOCK:   -0.66 KCAL/MOL
REMARK 927      BINDING AFFINITY PREDICTED BY RF-SCORE:    0.00 PKD
ROOT
HETATM    1  C   UNL     1     -10.837   5.742  68.115  1.00  0.00    -0.249 C  
HETATM    2  C   UNL     1      -9.553   6.420  67.753  1.00  0.00    -0.121 C  
HETATM    3  O   UNL     1      -9.311   6.906  66.658  1.00  0.00    -0.154 OA 
ENDROOT
BRANCH   2   4
HETATM    4  O   UNL     1      -8.700   6.408  68.814  1.00  0.00    -0.122 OA 
BRANCH   4   5
HETATM    5  C   UNL     1      -7.961   7.616  69.014  1.00  0.00    -0.121 C  
BRANCH   5   6
HETATM    6  C   UNL     1      -8.657   8.587  69.970  1.00  0.00    -0.134 C  
HETATM    7  O   UNL     1      -8.868   9.820  69.275  1.00  0.00    -0.145 OA 
HETATM    8  C   UNL     1     -10.016  10.444  69.859  1.00  0.00    -0.047 C  
HETATM    9  C   UNL     1     -10.948   9.316  70.328  1.00  0.00    -0.247 C  
HETATM   10  C   UNL     1     -10.020   8.101  70.472  1.00  0.00    -0.187 C  
BRANCH   8  11
HETATM   11  N   UNL     1     -10.612  11.357  68.881  1.00  0.00    -0.203 N  
HETATM   12  N   UNL     1     -11.625  11.700  66.803  1.00  0.00    -0.237 N  
HETATM   13  C   UNL     1     -10.786  12.699  69.172  1.00  0.00    -0.077 C  
HETATM   14  O   UNL     1     -12.589  13.707  66.315  1.00  0.00    -0.391 OA 
HETATM   15  H   UNL     1     -11.879  11.345  65.882  1.00  0.00     0.000 HD 
HETATM   16  C   UNL     1     -11.413  13.531  68.340  1.00  0.00    -0.346 C  
HETATM   17  C   UNL     1     -11.012  10.825  67.663  1.00  0.00    -0.306 C  
HETATM   18  C   UNL     1     -11.927  13.004  67.068  1.00  0.00    -0.347 C  
HETATM   19  O   UNL     1     -10.864   9.646  67.348  1.00  0.00    -0.274 OA 
ENDBRANCH   8  11
BRANCH   9  20
HETATM   20  O   UNL     1     -11.560   9.660  71.586  1.00  0.00    -0.382 OA 
BRANCH  20  21
HETATM   21  C   UNL     1     -12.864  10.036  71.563  1.00  0.00    -0.432 C  
HETATM   22  C   UNL     1     -12.989  11.515  71.783  1.00  0.00    -0.500 C  
HETATM   23  O   UNL     1     -13.813   9.286  71.396  1.00  0.00    -0.350 OA 
ENDBRANCH  20  21
ENDBRANCH   9  20
BRANCH  10  24
HETATM   24  O   UNL     1      -9.895   7.700  71.853  1.00  0.00    -0.161 OA 
BRANCH  24  25
HETATM   25  C   UNL     1      -9.505   6.423  72.101  1.00  0.00    -0.149 C  
HETATM   26  O   UNL     1      -8.415   6.084  72.534  1.00  0.00    -0.119 OA 
HETATM   27  C   UNL     1     -10.596   5.466  71.718  1.00  0.00    -0.286 C  
ENDBRANCH  24  25
ENDBRANCH  10  24
ENDBRANCH   5   6
ENDBRANCH   4   5
ENDBRANCH   2   4
TORSDOF 8
ENDMDL
MODEL      133
REMARK 921   NORMALIZED FREE ENERGY PREDICTED BY IDOCK:   -3.63 KCAL/MOL
REMARK 922        TOTAL FREE ENERGY PREDICTED BY IDOCK:   -6.74 KCAL/MOL
REMARK 923 INTER-LIGAND FREE ENERGY PREDICTED BY IDOCK:   -6.09 KCAL/MOL
REMARK 924 INTRA-LIGAND FREE ENERGY PREDICTED BY IDOCK:   -0.65 KCAL/MOL
REMARK 927      BINDING AFFINITY PREDICTED BY RF-SCORE:    0.00 PKD
ROOT
HETATM    1  C   UNL     1     -13.987   8.985  72.467  1.00  0.00    -0.472 C  
HETATM    2  C   UNL     1     -12.989   8.095  71.794  1.00  0.00    -0.342 C  
HETATM    3  O   UNL     1     -12.859   6.902  72.024  1.00  0.00    -0.279 OA 
ENDROOT
BRANCH   2   4
HETATM    4  O   UNL     1     -12.251   8.810  70.901  1.00  0.00    -0.240 OA 
BRANCH   4   5
HETATM    5  C   UNL     1     -12.055  10.187  71.237  1.00  0.00    -0.394 C  
BRANCH   5   6
HETATM    6  C   UNL     1     -11.212  10.936  70.204  1.00  0.00    -0.237 C  
HETATM    7  O   UNL     1     -10.098  10.108  69.856  1.00  0.00    -0.244 OA 
HETATM    8  C   UNL     1      -9.713  10.456  68.521  1.00  0.00    -0.168 C  
HETATM    9  C   UNL     1     -10.991  10.881  67.784  1.00  0.00    -0.283 C  
HETATM   10  C   UNL     1     -11.960  11.271  68.910  1.00  0.00    -0.310 C  
BRANCH   8  11
HETATM   11  N   UNL     1      -9.011   9.320  67.917  1.00  0.00    -0.128 N  
HETATM   12  N   UNL     1      -7.063   8.052  67.680  1.00  0.00    -0.081 N  
HETATM   13  C   UNL     1      -9.676   8.426  67.096  1.00  0.00    -0.190 C  
HETATM   14  O   UNL     1      -7.128   6.039  66.613  1.00  0.00    -0.069 OA 
HETATM   15  H   UNL     1      -6.062   7.945  67.839  1.00  0.00     0.000 HD 
HETATM   16  C   UNL     1      -9.089   7.332  66.612  1.00  0.00    -0.181 C  
HETATM   17  C   UNL     1      -7.664   9.164  68.213  1.00  0.00    -0.091 C  
HETATM   18  C   UNL     1      -7.683   7.075  66.957  1.00  0.00    -0.107 C  
HETATM   19  O   UNL     1      -7.023   9.939  68.919  1.00  0.00    -0.060 OA 
ENDBRANCH   8  11
BRANCH   9  20
HETATM   20  O   UNL     1     -10.722  11.997  66.914  1.00  0.00    -0.229 OA 
BRANCH  20  21
HETATM   21  C   UNL     1     -11.375  12.033  65.725  1.00  0.00    -0.331 C  
HETATM   22  C   UNL     1     -10.705  11.133  64.729  1.00  0.00    -0.334 C  
HETATM   23  O   UNL     1     -12.367  12.705  65.483  1.00  0.00    -0.563 OA 
ENDBRANCH  20  21
ENDBRANCH   9  20
BRANCH  10  24
HETATM   24  O   UNL     1     -12.244  12.686  68.887  1.00  0.00    -0.181 OA 
BRANCH  24  25
HETATM   25  C   UNL     1     -11.700  13.449  69.869  1.00  0.00    -0.267 C  
HETATM   26  O   UNL     1     -12.129  13.554  71.008  1.00  0.00    -0.311 OA 
HETATM   27  C   UNL     1     -10.510  14.197  69.344  1.00  0.00    -0.000 C  
ENDBRANCH  24  25
ENDBRANCH  10  24
ENDBRANCH   5   6
ENDBRANCH   4   5
ENDBRANCH   2   4
TORSDOF 8
ENDMDL
MODEL      134
REMARK 921   NORMALIZED FREE ENERGY PREDICTED BY IDOCK:   -3.62 KCAL/MOL
REMARK 922        TOTAL FREE ENERGY PREDICTED BY IDOCK:   -6.73 KCAL/MOL
REMARK 923 INTER-LIGAND FREE ENERGY PREDICTED BY IDOCK:   -5.87 KCAL/MOL
REMARK 924 INTRA-LIGAND FREE ENERGY PREDICTED BY IDOCK:   -0.85 KCAL/MOL
REMARK 927      BINDING AFFINITY PREDICTED BY RF-SCORE:    0.00 PKD
ROOT
HETATM    1  C   UNL     1     -11.887   6.567  71.539  1.00  0.00    -0.386 C  
HETATM    2  C   UNL     1     -10.850   6.229  70.514  1.00  0.00    -0.288 C  
HETATM    3  O   UNL     1     -10.527   5.093  70.204  1.00  0.00    -0.286 OA 
ENDROOT
BRANCH   2   4
HETATM    4  O   UNL     1     -10.323   7.369  69.987  1.00  0.00    -0.209 OA 
BRANCH   4   5
HETATM    5  C   UNL     1      -8.894   7.439  69.997  1.00  0.00    -0.141 C  
BRANCH   5   6
HETATM    6  C   UNL     1      -8.301   7.665  68.605  1.00  0.00    -0.129 C  
HETATM    7  O   UNL     1      -8.427   6.447  67.866  1.00  0.00    -0.118 OA 
HETATM    8  C   UNL     1      -8.503   6.798  66.480  1.00  0.00    -0.124 C  
HETATM    9  C   UNL     1      -9.201   8.164  66.403  1.00  0.00    -0.199 C  
HETATM   10  C   UNL     1      -8.997   8.768  67.801  1.00  0.00    -0.135 C  
BRANCH   8  11
HETATM   11  N   UNL     1      -9.185   5.726  65.752  1.00  0.00    -0.117 N  
HETATM   12  N   UNL     1     -11.126   4.493  65.336  1.00  0.00    -0.932 N  
HETATM   13  C   UNL     1      -8.539   5.019  64.753  1.00  0.00    -0.150 C  
HETATM   14  O   UNL     1     -11.225   3.076  63.553  1.00  0.00    -0.287 OA 
HETATM   15  H   UNL     1     -12.079   4.242  65.599  1.00  0.00     0.000 HD 
HETATM   16  C   UNL     1      -9.164   4.106  64.010  1.00  0.00    -0.149 C  
HETATM   17  C   UNL     1     -10.506   5.459  66.087  1.00  0.00    -0.154 C  
HETATM   18  C   UNL     1     -10.586   3.837  64.270  1.00  0.00    -0.228 C  
HETATM   19  O   UNL     1     -11.119   6.044  66.978  1.00  0.00    -0.303 OA 
ENDBRANCH   8  11
BRANCH   9  20
HETATM   20  O   UNL     1      -8.593   8.983  65.385  1.00  0.00    -0.155 OA 
BRANCH  20  21
HETATM   21  C   UNL     1      -9.406   9.817  64.688  1.00  0.00    -0.256 C  
HETATM   22  C   UNL     1      -9.034   9.820  63.234  1.00  0.00    -0.274 C  
HETATM   23  O   UNL     1     -10.312  10.483  65.165  1.00  0.00    -0.304 OA 
ENDBRANCH  20  21
ENDBRANCH   9  20
BRANCH  10  24
HETATM   24  O   UNL     1      -8.135   9.924  67.749  1.00  0.00    -0.108 OA 
BRANCH  24  25
HETATM   25  C   UNL     1      -8.475  10.992  68.516  1.00  0.00    -0.153 C  
HETATM   26  O   UNL     1      -7.691  11.762  69.051  1.00  0.00    -0.083 OA 
HETATM   27  C   UNL     1      -9.966  11.071  68.660  1.00  0.00    -0.205 C  
ENDBRANCH  24  25
ENDBRANCH  10  24
ENDBRANCH   5   6
ENDBRANCH   4   5
ENDBRANCH   2   4
TORSDOF 8
ENDMDL
MODEL      135
REMARK 921   NORMALIZED FREE ENERGY PREDICTED BY IDOCK:   -3.61 KCAL/MOL
REMARK 922        TOTAL FREE ENERGY PREDICTED BY IDOCK:   -6.70 KCAL/MOL
REMARK 923 INTER-LIGAND FREE ENERGY PREDICTED BY IDOCK:   -5.45 KCAL/MOL
REMARK 924 INTRA-LIGAND FREE ENERGY PREDICTED BY IDOCK:   -1.25 KCAL/MOL
REMARK 927      BINDING AFFINITY PREDICTED BY RF-SCORE:    0.00 PKD
ROOT
HETATM    1  C   UNL     1     -10.282  11.184  63.536  1.00  0.00    -0.446 C  
HETATM    2  C   UNL     1     -10.640  11.097  64.987  1.00  0.00    -0.273 C  
HETATM    3  O   UNL     1     -11.374  11.883  65.567  1.00  0.00    -0.322 OA 
ENDROOT
BRANCH   2   4
HETATM    4  O   UNL     1     -10.025  10.026  65.558  1.00  0.00    -0.289 OA 
BRANCH   4   5
HETATM    5  C   UNL     1     -10.076   9.986  66.988  1.00  0.00    -0.219 C  
BRANCH   5   6
HETATM    6  C   UNL     1     -10.657   8.677  67.525  1.00  0.00    -0.222 C  
HETATM    7  O   UNL     1     -10.265   7.622  66.642  1.00  0.00    -0.258 OA 
HETATM    8  C   UNL     1     -10.218   6.418  67.416  1.00  0.00    -0.178 C  
HETATM    9  C   UNL     1      -9.807   6.819  68.841  1.00  0.00    -0.145 C  
HETATM   10  C   UNL     1     -10.173   8.308  68.931  1.00  0.00    -0.210 C  
BRANCH   8  11
HETATM   11  N   UNL     1      -9.312   5.469  66.766  1.00  0.00    -0.128 N  
HETATM   12  N   UNL     1      -8.967   3.746  65.225  1.00  0.00    -0.127 N  
HETATM   13  C   UNL     1      -7.954   5.482  67.034  1.00  0.00    -0.102 C  
HETATM   14  O   UNL     1      -6.849   3.107  64.674  1.00  0.00    -0.039 OA 
HETATM   15  H   UNL     1      -9.352   3.042  64.596  1.00  0.00     0.000 HD 
HETATM   16  C   UNL     1      -7.093   4.697  66.386  1.00  0.00    -0.075 C  
HETATM   17  C   UNL     1      -9.860   4.572  65.860  1.00  0.00    -0.226 C  
HETATM   18  C   UNL     1      -7.610   3.780  65.359  1.00  0.00    -0.081 C  
HETATM   19  O   UNL     1     -11.060   4.506  65.601  1.00  0.00    -0.121 OA 
ENDBRANCH   8  11
BRANCH   9  20
HETATM   20  O   UNL     1     -10.535   6.041  69.812  1.00  0.00    -0.206 OA 
BRANCH  20  21
HETATM   21  C   UNL     1      -9.809   5.323  70.706  1.00  0.00    -0.196 C  
HETATM   22  C   UNL     1      -8.528   6.031  71.035  1.00  0.00    -0.124 C  
HETATM   23  O   UNL     1     -10.138   4.246  71.180  1.00  0.00    -0.179 OA 
ENDBRANCH  20  21
ENDBRANCH   9  20
BRANCH  10  24
HETATM   24  O   UNL     1     -11.248   8.526  69.869  1.00  0.00    -0.172 OA 
BRANCH  24  25
HETATM   25  C   UNL     1     -11.001   9.347  70.922  1.00  0.00    -0.320 C  
HETATM   26  O   UNL     1     -10.267   9.093  71.865  1.00  0.00    -0.332 OA 
HETATM   27  C   UNL     1     -11.803  10.608  70.793  1.00  0.00    -0.459 C  
ENDBRANCH  24  25
ENDBRANCH  10  24
ENDBRANCH   5   6
ENDBRANCH   4   5
ENDBRANCH   2   4
TORSDOF 8
ENDMDL
MODEL      136
REMARK 921   NORMALIZED FREE ENERGY PREDICTED BY IDOCK:   -3.59 KCAL/MOL
REMARK 922        TOTAL FREE ENERGY PREDICTED BY IDOCK:   -6.68 KCAL/MOL
REMARK 923 INTER-LIGAND FREE ENERGY PREDICTED BY IDOCK:   -6.61 KCAL/MOL
REMARK 924 INTRA-LIGAND FREE ENERGY PREDICTED BY IDOCK:   -0.07 KCAL/MOL
REMARK 927      BINDING AFFINITY PREDICTED BY RF-SCORE:    0.00 PKD
ROOT
HETATM    1  C   UNL     1      -9.468   9.737  70.329  1.00  0.00    -0.250 C  
HETATM    2  C   UNL     1      -8.886  10.372  69.105  1.00  0.00    -0.172 C  
HETATM    3  O   UNL     1      -8.069  11.280  69.118  1.00  0.00    -0.093 OA 
ENDROOT
BRANCH   2   4
HETATM    4  O   UNL     1      -9.404   9.795  67.986  1.00  0.00    -0.129 OA 
BRANCH   4   5
HETATM    5  C   UNL     1     -10.832   9.725  67.942  1.00  0.00    -0.242 C  
BRANCH   5   6
HETATM    6  C   UNL     1     -11.473  11.006  67.406  1.00  0.00    -0.135 C  
HETATM    7  O   UNL     1     -11.997  11.738  68.518  1.00  0.00    -0.406 OA 
HETATM    8  C   UNL     1     -11.988  13.123  68.154  1.00  0.00    -0.294 C  
HETATM    9  C   UNL     1     -10.791  13.331  67.214  1.00  0.00    -0.264 C  
HETATM   10  C   UNL     1     -10.502  11.927  66.662  1.00  0.00    -0.216 C  
BRANCH   8  11
HETATM   11  N   UNL     1     -11.953  13.936  69.372  1.00  0.00    -0.336 N  
HETATM   12  N   UNL     1     -12.317  14.134  71.672  1.00  0.00    -0.305 N  
HETATM   13  C   UNL     1     -11.441  15.222  69.357  1.00  0.00    -0.315 C  
HETATM   14  O   UNL     1     -11.536  15.952  72.805  1.00  0.00    -0.419 OA 
HETATM   15  H   UNL     1     -12.711  13.756  72.533  1.00  0.00     0.000 HD 
HETATM   16  C   UNL     1     -11.307  15.947  70.467  1.00  0.00    -0.409 C  
HETATM   17  C   UNL     1     -12.431  13.363  70.543  1.00  0.00    -0.279 C  
HETATM   18  C   UNL     1     -11.726  15.361  71.748  1.00  0.00    -0.416 C  
HETATM   19  O   UNL     1     -12.911  12.234  70.607  1.00  0.00    -0.007 OA 
ENDBRANCH   8  11
BRANCH   9  20
HETATM   20  O   UNL     1     -11.134  14.249  66.158  1.00  0.00    -0.314 OA 
BRANCH  20  21
HETATM   21  C   UNL     1     -10.473  15.434  66.122  1.00  0.00    -0.316 C  
HETATM   22  C   UNL     1      -8.990  15.210  66.151  1.00  0.00    -0.201 C  
HETATM   23  O   UNL     1     -10.999  16.536  66.080  1.00  0.00    -0.105 OA 
ENDBRANCH  20  21
ENDBRANCH   9  20
BRANCH  10  24
HETATM   24  O   UNL     1     -10.779  11.856  65.247  1.00  0.00    -0.267 OA 
BRANCH  24  25
HETATM   25  C   UNL     1      -9.912  11.152  64.475  1.00  0.00    -0.296 C  
HETATM   26  O   UNL     1     -10.148  10.715  63.359  1.00  0.00    -0.317 OA 
HETATM   27  C   UNL     1      -8.621  10.938  65.210  1.00  0.00    -0.103 C  
ENDBRANCH  24  25
ENDBRANCH  10  24
ENDBRANCH   5   6
ENDBRANCH   4   5
ENDBRANCH   2   4
TORSDOF 8
ENDMDL
MODEL      137
REMARK 921   NORMALIZED FREE ENERGY PREDICTED BY IDOCK:   -3.56 KCAL/MOL
REMARK 922        TOTAL FREE ENERGY PREDICTED BY IDOCK:   -6.64 KCAL/MOL
REMARK 923 INTER-LIGAND FREE ENERGY PREDICTED BY IDOCK:   -7.00 KCAL/MOL
REMARK 924 INTRA-LIGAND FREE ENERGY PREDICTED BY IDOCK:    0.37 KCAL/MOL
REMARK 927      BINDING AFFINITY PREDICTED BY RF-SCORE:    0.00 PKD
ROOT
HETATM    1  C   UNL     1     -10.849   5.193  66.328  1.00  0.00    -0.180 C  
HETATM    2  C   UNL     1     -10.813   6.352  67.274  1.00  0.00    -0.385 C  
HETATM    3  O   UNL     1     -11.259   6.332  68.411  1.00  0.00    -0.335 OA 
ENDROOT
BRANCH   2   4
HETATM    4  O   UNL     1     -10.220   7.424  66.680  1.00  0.00    -0.240 OA 
BRANCH   4   5
HETATM    5  C   UNL     1      -9.830   8.475  67.570  1.00  0.00    -0.177 C  
BRANCH   5   6
HETATM    6  C   UNL     1     -10.233   9.861  67.065  1.00  0.00    -0.233 C  
HETATM    7  O   UNL     1     -11.294  10.344  67.893  1.00  0.00    -0.324 OA 
HETATM    8  C   UNL     1     -11.226  11.774  67.877  1.00  0.00    -0.267 C  
HETATM    9  C   UNL     1      -9.745  12.149  67.722  1.00  0.00    -0.197 C  
HETATM   10  C   UNL     1      -9.104  10.895  67.110  1.00  0.00    -0.145 C  
BRANCH   8  11
HETATM   11  N   UNL     1     -11.862  12.296  69.089  1.00  0.00    -0.310 N  
HETATM   12  N   UNL     1     -12.689  11.933  71.245  1.00  0.00    -0.356 N  
HETATM   13  C   UNL     1     -12.139  13.645  69.226  1.00  0.00    -0.314 C  
HETATM   14  O   UNL     1     -13.244  13.700  72.573  1.00  0.00    -0.482 OA 
HETATM   15  H   UNL     1     -12.963  11.282  71.981  1.00  0.00     0.000 HD 
HETATM   16  C   UNL     1     -12.626  14.161  70.354  1.00  0.00    -0.397 C  
HETATM   17  C   UNL     1     -12.156  11.393  70.102  1.00  0.00    -0.357 C  
HETATM   18  C   UNL     1     -12.885  13.260  71.487  1.00  0.00    -0.327 C  
HETATM   19  O   UNL     1     -11.948  10.184  70.024  1.00  0.00    -0.220 OA 
ENDBRANCH   8  11
BRANCH   9  20
HETATM   20  O   UNL     1      -9.603  13.289  66.852  1.00  0.00    -0.234 OA 
BRANCH  20  21
HETATM   21  C   UNL     1      -9.065  14.416  67.382  1.00  0.00    -0.198 C  
HETATM   22  C   UNL     1      -9.740  15.634  66.824  1.00  0.00    -0.255 C  
HETATM   23  O   UNL     1      -8.154  14.450  68.195  1.00  0.00    -0.121 OA 
ENDBRANCH  20  21
ENDBRANCH   9  20
BRANCH  10  24
HETATM   24  O   UNL     1      -8.645  11.147  65.765  1.00  0.00    -0.176 OA 
BRANCH  24  25
HETATM   25  C   UNL     1      -9.391  10.647  64.746  1.00  0.00    -0.233 C  
HETATM   26  O   UNL     1     -10.446  11.112  64.343  1.00  0.00    -0.317 OA 
HETATM   27  C   UNL     1      -8.758   9.399  64.206  1.00  0.00    -0.224 C  
ENDBRANCH  24  25
ENDBRANCH  10  24
ENDBRANCH   5   6
ENDBRANCH   4   5
ENDBRANCH   2   4
TORSDOF 8
ENDMDL
MODEL      138
REMARK 921   NORMALIZED FREE ENERGY PREDICTED BY IDOCK:   -3.54 KCAL/MOL
REMARK 922        TOTAL FREE ENERGY PREDICTED BY IDOCK:   -6.60 KCAL/MOL
REMARK 923 INTER-LIGAND FREE ENERGY PREDICTED BY IDOCK:   -6.20 KCAL/MOL
REMARK 924 INTRA-LIGAND FREE ENERGY PREDICTED BY IDOCK:   -0.40 KCAL/MOL
REMARK 927      BINDING AFFINITY PREDICTED BY RF-SCORE:    0.00 PKD
ROOT
HETATM    1  C   UNL     1     -11.340  13.598  68.229  1.00  0.00    -0.322 C  
HETATM    2  C   UNL     1     -11.974  12.481  67.460  1.00  0.00    -0.219 C  
HETATM    3  O   UNL     1     -12.341  12.562  66.297  1.00  0.00    -0.570 OA 
ENDROOT
BRANCH   2   4
HETATM    4  O   UNL     1     -12.084  11.374  68.245  1.00  0.00    -0.606 OA 
BRANCH   4   5
HETATM    5  C   UNL     1     -11.187  11.327  69.359  1.00  0.00    -0.280 C  
BRANCH   5   6
HETATM    6  C   UNL     1     -10.133  10.226  69.227  1.00  0.00    -0.227 C  
HETATM    7  O   UNL     1     -10.105   9.490  70.454  1.00  0.00    -0.235 OA 
HETATM    8  C   UNL     1      -9.666   8.163  70.140  1.00  0.00    -0.175 C  
HETATM    9  C   UNL     1     -10.169   7.849  68.724  1.00  0.00    -0.205 C  
HETATM   10  C   UNL     1     -10.407   9.230  68.096  1.00  0.00    -0.215 C  
BRANCH   8  11
HETATM   11  N   UNL     1     -10.148   7.245  71.175  1.00  0.00    -0.187 N  
HETATM   12  N   UNL     1     -11.925   6.334  72.389  1.00  0.00    -0.506 N  
HETATM   13  C   UNL     1      -9.281   6.385  71.825  1.00  0.00    -0.143 C  
HETATM   14  O   UNL     1     -11.593   4.505  73.709  1.00  0.00    -0.183 OA 
HETATM   15  H   UNL     1     -12.908   6.359  72.656  1.00  0.00     0.000 HD 
HETATM   16  C   UNL     1      -9.706   5.472  72.699  1.00  0.00    -0.170 C  
HETATM   17  C   UNL     1     -11.506   7.255  71.463  1.00  0.00    -0.263 C  
HETATM   18  C   UNL     1     -11.145   5.386  72.985  1.00  0.00    -0.313 C  
HETATM   19  O   UNL     1     -12.315   8.011  70.928  1.00  0.00    -0.206 OA 
ENDBRANCH   8  11
BRANCH   9  20
HETATM   20  O   UNL     1      -9.177   7.104  67.991  1.00  0.00    -0.132 OA 
BRANCH  20  21
HETATM   21  C   UNL     1      -9.391   5.774  67.827  1.00  0.00    -0.105 C  
HETATM   22  C   UNL     1     -10.348   5.529  66.698  1.00  0.00    -0.322 C  
HETATM   23  O   UNL     1      -8.887   4.888  68.502  1.00  0.00    -0.100 OA 
ENDBRANCH  20  21
ENDBRANCH   9  20
BRANCH  10  24
HETATM   24  O   UNL     1      -9.480   9.480  67.018  1.00  0.00    -0.146 OA 
BRANCH  24  25
HETATM   25  C   UNL     1      -8.464  10.348  67.255  1.00  0.00    -0.122 C  
HETATM   26  O   UNL     1      -7.554  10.177  68.053  1.00  0.00    -0.087 OA 
HETATM   27  C   UNL     1      -8.638  11.588  66.428  1.00  0.00    -0.159 C  
ENDBRANCH  24  25
ENDBRANCH  10  24
ENDBRANCH   5   6
ENDBRANCH   4   5
ENDBRANCH   2   4
TORSDOF 8
ENDMDL
MODEL      139
REMARK 921   NORMALIZED FREE ENERGY PREDICTED BY IDOCK:   -3.52 KCAL/MOL
REMARK 922        TOTAL FREE ENERGY PREDICTED BY IDOCK:   -6.58 KCAL/MOL
REMARK 923 INTER-LIGAND FREE ENERGY PREDICTED BY IDOCK:   -6.14 KCAL/MOL
REMARK 924 INTRA-LIGAND FREE ENERGY PREDICTED BY IDOCK:   -0.43 KCAL/MOL
REMARK 927      BINDING AFFINITY PREDICTED BY RF-SCORE:    0.00 PKD
ROOT
HETATM    1  C   UNL     1     -10.788  12.454  64.248  1.00  0.00    -0.395 C  
HETATM    2  C   UNL     1     -11.614  12.293  65.487  1.00  0.00    -0.371 C  
HETATM    3  O   UNL     1     -12.699  12.825  65.669  1.00  0.00    -0.549 OA 
ENDROOT
BRANCH   2   4
HETATM    4  O   UNL     1     -10.977  11.479  66.373  1.00  0.00    -0.282 OA 
BRANCH   4   5
HETATM    5  C   UNL     1     -11.401  11.611  67.733  1.00  0.00    -0.288 C  
BRANCH   5   6
HETATM    6  C   UNL     1     -11.239  10.318  68.534  1.00  0.00    -0.214 C  
HETATM    7  O   UNL     1     -10.917   9.267  67.617  1.00  0.00    -0.204 OA 
HETATM    8  C   UNL     1     -10.159   8.292  68.342  1.00  0.00    -0.201 C  
HETATM    9  C   UNL     1      -9.359   9.052  69.410  1.00  0.00    -0.158 C  
HETATM   10  C   UNL     1     -10.128  10.369  69.587  1.00  0.00    -0.190 C  
BRANCH   8  11
HETATM   11  N   UNL     1      -9.340   7.528  67.398  1.00  0.00    -0.137 N  
HETATM   12  N   UNL     1      -9.177   5.884  65.744  1.00  0.00    -0.317 N  
HETATM   13  C   UNL     1      -7.995   7.808  67.231  1.00  0.00    -0.118 C  
HETATM   14  O   UNL     1      -7.259   5.661  64.533  1.00  0.00    -0.055 OA 
HETATM   15  H   UNL     1      -9.600   5.110  65.232  1.00  0.00     0.000 HD 
HETATM   16  C   UNL     1      -7.249   7.196  66.311  1.00  0.00    -0.075 C  
HETATM   17  C   UNL     1      -9.965   6.529  66.664  1.00  0.00    -0.143 C  
HETATM   18  C   UNL     1      -7.879   6.182  65.453  1.00  0.00    -0.106 C  
HETATM   19  O   UNL     1     -11.151   6.228  66.787  1.00  0.00    -0.343 OA 
ENDBRANCH   8  11
BRANCH   9  20
HETATM   20  O   UNL     1      -9.319   8.299  70.638  1.00  0.00    -0.151 OA 
BRANCH  20  21
HETATM   21  C   UNL     1      -8.413   8.680  71.574  1.00  0.00    -0.181 C  
HETATM   22  C   UNL     1      -8.891   8.315  72.949  1.00  0.00    -0.302 C  
HETATM   23  O   UNL     1      -7.356   9.248  71.345  1.00  0.00    -0.300 OA 
ENDBRANCH  20  21
ENDBRANCH   9  20
BRANCH  10  24
HETATM   24  O   UNL     1     -10.728  10.452  70.896  1.00  0.00    -0.019 OA 
BRANCH  24  25
HETATM   25  C   UNL     1     -12.054  10.176  70.996  1.00  0.00    -0.377 C  
HETATM   26  O   UNL     1     -12.560   9.070  70.877  1.00  0.00    -0.187 OA 
HETATM   27  C   UNL     1     -12.829  11.439  71.225  1.00  0.00    -0.481 C  
ENDBRANCH  24  25
ENDBRANCH  10  24
ENDBRANCH   5   6
ENDBRANCH   4   5
ENDBRANCH   2   4
TORSDOF 8
ENDMDL
MODEL      140
REMARK 921   NORMALIZED FREE ENERGY PREDICTED BY IDOCK:   -3.48 KCAL/MOL
REMARK 922        TOTAL FREE ENERGY PREDICTED BY IDOCK:   -6.51 KCAL/MOL
REMARK 923 INTER-LIGAND FREE ENERGY PREDICTED BY IDOCK:   -5.86 KCAL/MOL
REMARK 924 INTRA-LIGAND FREE ENERGY PREDICTED BY IDOCK:   -0.65 KCAL/MOL
REMARK 927      BINDING AFFINITY PREDICTED BY RF-SCORE:    0.00 PKD
ROOT
HETATM    1  C   UNL     1     -13.436   8.240  71.613  1.00  0.00    -0.358 C  
HETATM    2  C   UNL     1     -12.775   9.578  71.499  1.00  0.00    -0.372 C  
HETATM    3  O   UNL     1     -13.209  10.609  71.992  1.00  0.00    -0.473 OA 
ENDROOT
BRANCH   2   4
HETATM    4  O   UNL     1     -11.633   9.476  70.765  1.00  0.00    -0.275 OA 
BRANCH   4   5
HETATM    5  C   UNL     1     -11.473   8.244  70.056  1.00  0.00     0.094 C  
BRANCH   5   6
HETATM    6  C   UNL     1     -10.375   8.309  68.993  1.00  0.00    -0.221 C  
HETATM    7  O   UNL     1     -10.950   8.837  67.794  1.00  0.00    -0.093 OA 
HETATM    8  C   UNL     1      -9.899   9.488  67.072  1.00  0.00    -0.190 C  
HETATM    9  C   UNL     1      -8.919  10.046  68.115  1.00  0.00    -0.122 C  
HETATM   10  C   UNL     1      -9.191   9.203  69.370  1.00  0.00    -0.156 C  
BRANCH   8  11
HETATM   11  N   UNL     1     -10.483  10.498  66.186  1.00  0.00    -0.205 N  
HETATM   12  N   UNL     1     -11.816  12.396  65.899  1.00  0.00    -0.423 N  
HETATM   13  C   UNL     1     -10.170  10.532  64.839  1.00  0.00    -0.300 C  
HETATM   14  O   UNL     1     -11.814  13.510  63.911  1.00  0.00    -0.431 OA 
HETATM   15  H   UNL     1     -12.493  13.058  66.279  1.00  0.00     0.000 HD 
HETATM   16  C   UNL     1     -10.609  11.497  64.030  1.00  0.00    -0.437 C  
HETATM   17  C   UNL     1     -11.345  11.429  66.750  1.00  0.00    -0.179 C  
HETATM   18  C   UNL     1     -11.463  12.554  64.592  1.00  0.00    -0.327 C  
HETATM   19  O   UNL     1     -11.670  11.431  67.936  1.00  0.00    -0.510 OA 
ENDBRANCH   8  11
BRANCH   9  20
HETATM   20  O   UNL     1      -7.560   9.889  67.663  1.00  0.00    -0.090 OA 
BRANCH  20  21
HETATM   21  C   UNL     1      -6.797  11.008  67.581  1.00  0.00    -0.081 C  
HETATM   22  C   UNL     1      -6.342  11.437  68.945  1.00  0.00    -0.057 C  
HETATM   23  O   UNL     1      -6.517  11.599  66.548  1.00  0.00    -0.099 OA 
ENDBRANCH  20  21
ENDBRANCH   9  20
BRANCH  10  24
HETATM   24  O   UNL     1      -8.059   8.369  69.695  1.00  0.00    -0.110 OA 
BRANCH  24  25
HETATM   25  C   UNL     1      -8.167   7.563  70.782  1.00  0.00    -0.110 C  
HETATM   26  O   UNL     1      -8.215   6.343  70.761  1.00  0.00    -0.121 OA 
HETATM   27  C   UNL     1      -8.270   8.390  72.030  1.00  0.00    -0.212 C  
ENDBRANCH  24  25
ENDBRANCH  10  24
ENDBRANCH   5   6
ENDBRANCH   4   5
ENDBRANCH   2   4
TORSDOF 8
ENDMDL
MODEL      141
REMARK 921   NORMALIZED FREE ENERGY PREDICTED BY IDOCK:   -3.44 KCAL/MOL
REMARK 922        TOTAL FREE ENERGY PREDICTED BY IDOCK:   -6.46 KCAL/MOL
REMARK 923 INTER-LIGAND FREE ENERGY PREDICTED BY IDOCK:   -5.90 KCAL/MOL
REMARK 924 INTRA-LIGAND FREE ENERGY PREDICTED BY IDOCK:   -0.55 KCAL/MOL
REMARK 927      BINDING AFFINITY PREDICTED BY RF-SCORE:    0.00 PKD
ROOT
HETATM    1  C   UNL     1      -9.801  10.907  62.865  1.00  0.00    -0.313 C  
HETATM    2  C   UNL     1      -9.672  10.791  64.352  1.00  0.00    -0.301 C  
HETATM    3  O   UNL     1      -9.826  11.716  65.135  1.00  0.00    -0.243 OA 
ENDROOT
BRANCH   2   4
HETATM    4  O   UNL     1      -9.355   9.513  64.697  1.00  0.00    -0.240 OA 
BRANCH   4   5
HETATM    5  C   UNL     1      -8.985   9.326  66.067  1.00  0.00    -0.176 C  
BRANCH   5   6
HETATM    6  C   UNL     1     -10.145   8.835  66.934  1.00  0.00    -0.278 C  
HETATM    7  O   UNL     1     -10.104   7.405  66.960  1.00  0.00    -0.208 OA 
HETATM    8  C   UNL     1     -10.697   6.987  68.195  1.00  0.00    -0.188 C  
HETATM    9  C   UNL     1     -10.387   8.078  69.231  1.00  0.00    -0.220 C  
HETATM   10  C   UNL     1     -10.094   9.325  68.384  1.00  0.00    -0.191 C  
BRANCH   8  11
HETATM   11  N   UNL     1     -10.190   5.658  68.542  1.00  0.00    -0.179 N  
HETATM   12  N   UNL     1      -9.609   3.491  67.889  1.00  0.00    -0.165 N  
HETATM   13  C   UNL     1      -9.747   5.375  69.822  1.00  0.00    -0.184 C  
HETATM   14  O   UNL     1      -8.467   2.129  69.317  1.00  0.00    -0.048 OA 
HETATM   15  H   UNL     1      -9.620   2.755  67.183  1.00  0.00     0.000 HD 
HETATM   16  C   UNL     1      -9.191   4.206  70.141  1.00  0.00    -0.210 C  
HETATM   17  C   UNL     1     -10.152   4.700  67.538  1.00  0.00    -0.075 C  
HETATM   18  C   UNL     1      -9.054   3.182  69.096  1.00  0.00    -0.138 C  
HETATM   19  O   UNL     1     -10.550   4.894  66.391  1.00  0.00    -0.297 OA 
ENDBRANCH   8  11
BRANCH   9  20
HETATM   20  O   UNL     1     -11.520   8.287  70.097  1.00  0.00    -0.150 OA 
BRANCH  20  21
HETATM   21  C   UNL     1     -11.294   8.909  71.281  1.00  0.00    -0.300 C  
HETATM   22  C   UNL     1      -9.956   8.516  71.836  1.00  0.00    -0.365 C  
HETATM   23  O   UNL     1     -12.065   9.678  71.834  1.00  0.00    -0.376 OA 
ENDBRANCH  20  21
ENDBRANCH   9  20
BRANCH  10  24
HETATM   24  O   UNL     1     -11.107  10.335  68.573  1.00  0.00    -0.248 OA 
BRANCH  24  25
HETATM   25  C   UNL     1     -10.690  11.617  68.740  1.00  0.00    -0.219 C  
HETATM   26  O   UNL     1      -9.594  12.054  68.424  1.00  0.00    -0.204 OA 
HETATM   27  C   UNL     1     -11.756  12.423  69.420  1.00  0.00    -0.384 C  
ENDBRANCH  24  25
ENDBRANCH  10  24
ENDBRANCH   5   6
ENDBRANCH   4   5
ENDBRANCH   2   4
TORSDOF 8
ENDMDL
MODEL      142
REMARK 921   NORMALIZED FREE ENERGY PREDICTED BY IDOCK:   -3.44 KCAL/MOL
REMARK 922        TOTAL FREE ENERGY PREDICTED BY IDOCK:   -6.45 KCAL/MOL
REMARK 923 INTER-LIGAND FREE ENERGY PREDICTED BY IDOCK:   -6.14 KCAL/MOL
REMARK 924 INTRA-LIGAND FREE ENERGY PREDICTED BY IDOCK:   -0.31 KCAL/MOL
REMARK 927      BINDING AFFINITY PREDICTED BY RF-SCORE:    0.00 PKD
ROOT
HETATM    1  C   UNL     1      -8.894   8.891  67.346  1.00  0.00    -0.136 C  
HETATM    2  C   UNL     1      -8.970  10.302  66.853  1.00  0.00    -0.136 C  
HETATM    3  O   UNL     1      -9.392  10.630  65.754  1.00  0.00    -0.171 OA 
ENDROOT
BRANCH   2   4
HETATM    4  O   UNL     1      -8.496  11.157  67.801  1.00  0.00    -0.120 OA 
BRANCH   4   5
HETATM    5  C   UNL     1      -8.031  12.417  67.307  1.00  0.00    -0.178 C  
BRANCH   5   6
HETATM    6  C   UNL     1      -8.591  13.605  68.090  1.00  0.00    -0.176 C  
HETATM    7  O   UNL     1      -7.594  14.631  68.113  1.00  0.00    -0.106 OA 
HETATM    8  C   UNL     1      -8.278  15.883  68.231  1.00  0.00    -0.152 C  
HETATM    9  C   UNL     1      -9.625  15.726  67.509  1.00  0.00    -0.224 C  
HETATM   10  C   UNL     1      -9.862  14.209  67.486  1.00  0.00    -0.235 C  
BRANCH   8  11
HETATM   11  N   UNL     1      -7.423  16.946  67.698  1.00  0.00    -0.156 N  
HETATM   12  N   UNL     1      -6.803  18.330  65.920  1.00  0.00    -0.278 N  
HETATM   13  C   UNL     1      -6.510  17.599  68.506  1.00  0.00    -0.196 C  
HETATM   14  O   UNL     1      -5.396  20.089  66.272  1.00  0.00    -0.164 OA 
HETATM   15  H   UNL     1      -6.858  18.562  64.928  1.00  0.00     0.000 HD 
HETATM   16  C   UNL     1      -5.789  18.634  68.074  1.00  0.00    -0.191 C  
HETATM   17  C   UNL     1      -7.576  17.286  66.361  1.00  0.00    -0.314 C  
HETATM   18  C   UNL     1      -5.966  19.087  66.686  1.00  0.00    -0.165 C  
HETATM   19  O   UNL     1      -8.358  16.725  65.596  1.00  0.00    -0.333 OA 
ENDBRANCH   8  11
BRANCH   9  20
HETATM   20  O   UNL     1     -10.667  16.409  68.233  1.00  0.00    -0.306 OA 
BRANCH  20  21
HETATM   21  C   UNL     1     -10.531  17.748  68.408  1.00  0.00    -0.347 C  
HETATM   22  C   UNL     1     -10.869  18.481  67.143  1.00  0.00    -0.304 C  
HETATM   23  O   UNL     1     -10.176  18.293  69.442  1.00  0.00    -0.192 OA 
ENDBRANCH  20  21
ENDBRANCH   9  20
BRANCH  10  24
HETATM   24  O   UNL     1     -10.991  13.845  68.309  1.00  0.00    -0.241 OA 
BRANCH  24  25
HETATM   25  C   UNL     1     -11.571  12.639  68.076  1.00  0.00    -0.343 C  
HETATM   26  O   UNL     1     -11.987  12.247  66.997  1.00  0.00    -0.576 OA 
HETATM   27  C   UNL     1     -11.676  11.862  69.355  1.00  0.00    -0.401 C  
ENDBRANCH  24  25
ENDBRANCH  10  24
ENDBRANCH   5   6
ENDBRANCH   4   5
ENDBRANCH   2   4
TORSDOF 8
ENDMDL
MODEL      143
REMARK 921   NORMALIZED FREE ENERGY PREDICTED BY IDOCK:   -3.43 KCAL/MOL
REMARK 922        TOTAL FREE ENERGY PREDICTED BY IDOCK:   -6.43 KCAL/MOL
REMARK 923 INTER-LIGAND FREE ENERGY PREDICTED BY IDOCK:   -6.74 KCAL/MOL
REMARK 924 INTRA-LIGAND FREE ENERGY PREDICTED BY IDOCK:    0.30 KCAL/MOL
REMARK 927      BINDING AFFINITY PREDICTED BY RF-SCORE:    0.00 PKD
ROOT
HETATM    1  C   UNL     1     -12.161  12.717  63.540  1.00  0.00    -0.648 C  
HETATM    2  C   UNL     1     -12.656  13.077  64.906  1.00  0.00    -0.428 C  
HETATM    3  O   UNL     1     -13.411  14.008  65.146  1.00  0.00    -0.703 OA 
ENDROOT
BRANCH   2   4
HETATM    4  O   UNL     1     -12.139  12.224  65.832  1.00  0.00    -0.609 OA 
BRANCH   4   5
HETATM    5  C   UNL     1     -11.034  11.434  65.382  1.00  0.00    -0.184 C  
BRANCH   5   6
HETATM    6  C   UNL     1      -9.690  11.937  65.912  1.00  0.00    -0.238 C  
HETATM    7  O   UNL     1      -9.698  13.367  65.858  1.00  0.00    -0.262 OA 
HETATM    8  C   UNL     1      -8.817  13.834  66.885  1.00  0.00    -0.188 C  
HETATM    9  C   UNL     1      -8.886  12.814  68.032  1.00  0.00    -0.195 C  
HETATM   10  C   UNL     1      -9.397  11.531  67.360  1.00  0.00    -0.166 C  
BRANCH   8  11
HETATM   11  N   UNL     1      -9.202  15.197  67.260  1.00  0.00    -0.193 N  
HETATM   12  N   UNL     1     -10.022  17.298  66.649  1.00  0.00    -0.282 N  
HETATM   13  C   UNL     1      -9.183  15.605  68.582  1.00  0.00    -0.205 C  
HETATM   14  O   UNL     1     -10.629  18.803  68.249  1.00  0.00    -0.311 OA 
HETATM   15  H   UNL     1     -10.271  17.963  65.917  1.00  0.00     0.000 HD 
HETATM   16  C   UNL     1      -9.621  16.805  68.963  1.00  0.00    -0.230 C  
HETATM   17  C   UNL     1      -9.606  16.054  66.246  1.00  0.00    -0.307 C  
HETATM   18  C   UNL     1     -10.132  17.727  67.938  1.00  0.00    -0.342 C  
HETATM   19  O   UNL     1      -9.624  15.748  65.056  1.00  0.00    -0.195 OA 
ENDBRANCH   8  11
BRANCH   9  20
HETATM   20  O   UNL     1      -7.581  12.619  68.610  1.00  0.00    -0.124 OA 
BRANCH  20  21
HETATM   21  C   UNL     1      -6.505  12.916  67.839  1.00  0.00    -0.127 C  
HETATM   22  C   UNL     1      -5.736  14.062  68.427  1.00  0.00    -0.104 C  
HETATM   23  O   UNL     1      -6.198  12.344  66.803  1.00  0.00    -0.178 OA 
ENDBRANCH  20  21
ENDBRANCH   9  20
BRANCH  10  24
HETATM   24  O   UNL     1      -8.385  10.502  67.362  1.00  0.00    -0.121 OA 
BRANCH  24  25
HETATM   25  C   UNL     1      -8.776   9.241  67.683  1.00  0.00    -0.116 C  
HETATM   26  O   UNL     1      -8.459   8.225  67.083  1.00  0.00    -0.121 OA 
HETATM   27  C   UNL     1      -9.702   9.272  68.863  1.00  0.00    -0.164 C  
ENDBRANCH  24  25
ENDBRANCH  10  24
ENDBRANCH   5   6
ENDBRANCH   4   5
ENDBRANCH   2   4
TORSDOF 8
ENDMDL
MODEL      144
REMARK 921   NORMALIZED FREE ENERGY PREDICTED BY IDOCK:   -3.40 KCAL/MOL
REMARK 922        TOTAL FREE ENERGY PREDICTED BY IDOCK:   -6.40 KCAL/MOL
REMARK 923 INTER-LIGAND FREE ENERGY PREDICTED BY IDOCK:   -5.57 KCAL/MOL
REMARK 924 INTRA-LIGAND FREE ENERGY PREDICTED BY IDOCK:   -0.82 KCAL/MOL
REMARK 927      BINDING AFFINITY PREDICTED BY RF-SCORE:    0.00 PKD
ROOT
HETATM    1  C   UNL     1      -8.674  12.452  68.224  1.00  0.00    -0.175 C  
HETATM    2  C   UNL     1     -10.130  12.524  67.886  1.00  0.00    -0.214 C  
HETATM    3  O   UNL     1     -10.927  13.284  68.415  1.00  0.00    -0.244 OA 
ENDROOT
BRANCH   2   4
HETATM    4  O   UNL     1     -10.431  11.621  66.913  1.00  0.00    -0.214 OA 
BRANCH   4   5
HETATM    5  C   UNL     1      -9.683  10.402  66.962  1.00  0.00    -0.178 C  
BRANCH   5   6
HETATM    6  C   UNL     1     -10.540   9.194  67.342  1.00  0.00    -0.244 C  
HETATM    7  O   UNL     1     -10.173   8.104  66.491  1.00  0.00    -0.279 OA 
HETATM    8  C   UNL     1     -10.441   6.896  67.211  1.00  0.00    -0.287 C  
HETATM    9  C   UNL     1     -10.217   7.204  68.699  1.00  0.00    -0.179 C  
HETATM   10  C   UNL     1     -10.360   8.730  68.791  1.00  0.00    -0.213 C  
BRANCH   8  11
HETATM   11  N   UNL     1      -9.595   5.825  66.678  1.00  0.00    -0.147 N  
HETATM   12  N   UNL     1      -7.465   4.990  66.201  1.00  0.00    -0.085 N  
HETATM   13  C   UNL     1     -10.145   4.632  66.243  1.00  0.00    -0.265 C  
HETATM   14  O   UNL     1      -7.197   2.810  65.595  1.00  0.00    -0.063 OA 
HETATM   15  H   UNL     1      -6.461   5.146  66.117  1.00  0.00     0.000 HD 
HETATM   16  C   UNL     1      -9.393   3.606  65.845  1.00  0.00    -0.166 C  
HETATM   17  C   UNL     1      -8.225   6.043  66.645  1.00  0.00    -0.106 C  
HETATM   18  C   UNL     1      -7.930   3.754  65.862  1.00  0.00    -0.093 C  
HETATM   19  O   UNL     1      -7.688   7.090  67.002  1.00  0.00    -0.103 OA 
ENDBRANCH   8  11
BRANCH   9  20
HETATM   20  O   UNL     1     -11.207   6.536  69.505  1.00  0.00    -0.340 OA 
BRANCH  20  21
HETATM   21  C   UNL     1     -10.767   5.606  70.391  1.00  0.00    -0.282 C  
HETATM   22  C   UNL     1     -11.271   5.914  71.770  1.00  0.00    -0.311 C  
HETATM   23  O   UNL     1     -10.055   4.652  70.118  1.00  0.00    -0.246 OA 
ENDBRANCH  20  21
ENDBRANCH   9  20
BRANCH  10  24
HETATM   24  O   UNL     1     -11.530   9.101  69.550  1.00  0.00     0.046 OA 
BRANCH  24  25
HETATM   25  C   UNL     1     -11.331   9.692  70.757  1.00  0.00    -0.340 C  
HETATM   26  O   UNL     1     -10.463   9.390  71.561  1.00  0.00    -0.337 OA 
HETATM   27  C   UNL     1     -12.369  10.749  70.992  1.00  0.00    -0.509 C  
ENDBRANCH  24  25
ENDBRANCH  10  24
ENDBRANCH   5   6
ENDBRANCH   4   5
ENDBRANCH   2   4
TORSDOF 8
ENDMDL
MODEL      145
REMARK 921   NORMALIZED FREE ENERGY PREDICTED BY IDOCK:   -3.36 KCAL/MOL
REMARK 922        TOTAL FREE ENERGY PREDICTED BY IDOCK:   -6.34 KCAL/MOL
REMARK 923 INTER-LIGAND FREE ENERGY PREDICTED BY IDOCK:   -5.55 KCAL/MOL
REMARK 924 INTRA-LIGAND FREE ENERGY PREDICTED BY IDOCK:   -0.80 KCAL/MOL
REMARK 927      BINDING AFFINITY PREDICTED BY RF-SCORE:    0.00 PKD
ROOT
HETATM    1  C   UNL     1      -9.977  11.693  65.635  1.00  0.00    -0.274 C  
HETATM    2  C   UNL     1     -10.914  11.622  66.800  1.00  0.00    -0.290 C  
HETATM    3  O   UNL     1     -11.927  12.295  66.917  1.00  0.00    -0.578 OA 
ENDROOT
BRANCH   2   4
HETATM    4  O   UNL     1     -10.470  10.707  67.705  1.00  0.00    -0.199 OA 
BRANCH   4   5
HETATM    5  C   UNL     1     -10.849  10.958  69.061  1.00  0.00    -0.230 C  
BRANCH   5   6
HETATM    6  C   UNL     1     -11.276   9.690  69.803  1.00  0.00    -0.174 C  
HETATM    7  O   UNL     1     -10.817   8.562  69.053  1.00  0.00    -0.140 OA 
HETATM    8  C   UNL     1     -10.619   7.489  69.980  1.00  0.00    -0.237 C  
HETATM    9  C   UNL     1     -10.193   8.123  71.313  1.00  0.00    -0.195 C  
HETATM   10  C   UNL     1     -10.701   9.569  71.218  1.00  0.00    -0.316 C  
BRANCH   8  11
HETATM   11  N   UNL     1      -9.650   6.545  69.419  1.00  0.00    -0.144 N  
HETATM   12  N   UNL     1      -8.909   4.346  69.140  1.00  0.00    -0.088 N  
HETATM   13  C   UNL     1      -8.636   6.978  68.581  1.00  0.00    -0.120 C  
HETATM   14  O   UNL     1      -7.277   3.870  67.621  1.00  0.00    -0.064 OA 
HETATM   15  H   UNL     1      -8.963   3.363  69.403  1.00  0.00     0.000 HD 
HETATM   16  C   UNL     1      -7.801   6.131  67.979  1.00  0.00    -0.106 C  
HETATM   17  C   UNL     1      -9.797   5.203  69.740  1.00  0.00    -0.212 C  
HETATM   18  C   UNL     1      -7.959   4.690  68.223  1.00  0.00    -0.084 C  
HETATM   19  O   UNL     1     -10.667   4.769  70.492  1.00  0.00    -0.011 OA 
ENDBRANCH   8  11
BRANCH   9  20
HETATM   20  O   UNL     1     -10.800   7.426  72.418  1.00  0.00    -0.231 OA 
BRANCH  20  21
HETATM   21  C   UNL     1      -9.972   6.916  73.365  1.00  0.00    -0.236 C  
HETATM   22  C   UNL     1      -8.542   7.018  72.923  1.00  0.00    -0.132 C  
HETATM   23  O   UNL     1     -10.328   6.433  74.429  1.00  0.00    -0.332 OA 
ENDBRANCH  20  21
ENDBRANCH   9  20
BRANCH  10  24
HETATM   24  O   UNL     1     -11.753   9.817  72.174  1.00  0.00    -0.064 OA 
BRANCH  24  25
HETATM   25  C   UNL     1     -12.981  10.130  71.685  1.00  0.00    -0.456 C  
HETATM   26  O   UNL     1     -13.371  11.254  71.409  1.00  0.00    -0.244 OA 
HETATM   27  C   UNL     1     -13.824   8.894  71.574  1.00  0.00    -0.388 C  
ENDBRANCH  24  25
ENDBRANCH  10  24
ENDBRANCH   5   6
ENDBRANCH   4   5
ENDBRANCH   2   4
TORSDOF 8
ENDMDL
MODEL      146
REMARK 921   NORMALIZED FREE ENERGY PREDICTED BY IDOCK:   -3.33 KCAL/MOL
REMARK 922        TOTAL FREE ENERGY PREDICTED BY IDOCK:   -6.30 KCAL/MOL
REMARK 923 INTER-LIGAND FREE ENERGY PREDICTED BY IDOCK:   -6.22 KCAL/MOL
REMARK 924 INTRA-LIGAND FREE ENERGY PREDICTED BY IDOCK:   -0.08 KCAL/MOL
REMARK 927      BINDING AFFINITY PREDICTED BY RF-SCORE:    0.00 PKD
ROOT
HETATM    1  C   UNL     1     -10.587  17.079  67.946  1.00  0.00    -0.365 C  
HETATM    2  C   UNL     1     -10.649  16.365  66.632  1.00  0.00    -0.239 C  
HETATM    3  O   UNL     1     -10.384  16.874  65.553  1.00  0.00    -0.572 OA 
ENDROOT
BRANCH   2   4
HETATM    4  O   UNL     1     -11.047  15.076  66.817  1.00  0.00    -0.324 OA 
BRANCH   4   5
HETATM    5  C   UNL     1     -10.182  14.283  67.635  1.00  0.00    -0.237 C  
BRANCH   5   6
HETATM    6  C   UNL     1      -9.873  12.916  67.023  1.00  0.00    -0.233 C  
HETATM    7  O   UNL     1      -8.974  12.230  67.899  1.00  0.00    -0.170 OA 
HETATM    8  C   UNL     1      -9.193  10.827  67.715  1.00  0.00    -0.152 C  
HETATM    9  C   UNL     1     -10.677  10.648  67.363  1.00  0.00    -0.276 C  
HETATM   10  C   UNL     1     -11.104  12.024  66.831  1.00  0.00    -0.302 C  
BRANCH   8  11
HETATM   11  N   UNL     1      -8.764  10.115  68.921  1.00  0.00    -0.140 N  
HETATM   12  N   UNL     1      -7.049   9.188  70.211  1.00  0.00    -0.053 N  
HETATM   13  C   UNL     1      -9.668   9.793  69.919  1.00  0.00    -0.238 C  
HETATM   14  O   UNL     1      -7.458   8.516  72.350  1.00  0.00    -0.210 OA 
HETATM   15  H   UNL     1      -6.077   8.895  70.295  1.00  0.00     0.000 HD 
HETATM   16  C   UNL     1      -9.291   9.234  71.068  1.00  0.00    -0.298 C  
HETATM   17  C   UNL     1      -7.419   9.794  69.037  1.00  0.00    -0.080 C  
HETATM   18  C   UNL     1      -7.865   8.943  71.276  1.00  0.00    -0.125 C  
HETATM   19  O   UNL     1      -6.579  10.040  68.173  1.00  0.00    -0.055 OA 
ENDBRANCH   8  11
BRANCH   9  20
HETATM   20  O   UNL     1     -10.837   9.626  66.360  1.00  0.00     0.014 OA 
BRANCH  20  21
HETATM   21  C   UNL     1      -9.973   8.580  66.391  1.00  0.00    -0.244 C  
HETATM   22  C   UNL     1     -10.549   7.445  67.185  1.00  0.00    -0.413 C  
HETATM   23  O   UNL     1      -8.874   8.555  65.858  1.00  0.00    -0.162 OA 
ENDBRANCH  20  21
ENDBRANCH   9  20
BRANCH  10  24
HETATM   24  O   UNL     1     -11.425  11.965  65.426  1.00  0.00    -0.320 OA 
BRANCH  24  25
HETATM   25  C   UNL     1     -10.539  12.518  64.558  1.00  0.00    -0.336 C  
HETATM   26  O   UNL     1     -10.434  13.710  64.313  1.00  0.00    -0.392 OA 
HETATM   27  C   UNL     1      -9.727  11.446  63.894  1.00  0.00    -0.299 C  
ENDBRANCH  24  25
ENDBRANCH  10  24
ENDBRANCH   5   6
ENDBRANCH   4   5
ENDBRANCH   2   4
TORSDOF 8
ENDMDL
MODEL      147
REMARK 921   NORMALIZED FREE ENERGY PREDICTED BY IDOCK:   -3.31 KCAL/MOL
REMARK 922        TOTAL FREE ENERGY PREDICTED BY IDOCK:   -6.26 KCAL/MOL
REMARK 923 INTER-LIGAND FREE ENERGY PREDICTED BY IDOCK:   -5.28 KCAL/MOL
REMARK 924 INTRA-LIGAND FREE ENERGY PREDICTED BY IDOCK:   -0.99 KCAL/MOL
REMARK 927      BINDING AFFINITY PREDICTED BY RF-SCORE:    0.00 PKD
ROOT
HETATM    1  C   UNL     1     -13.072   9.613  71.468  1.00  0.00    -0.488 C  
HETATM    2  C   UNL     1     -11.723   9.040  71.773  1.00  0.00    -0.369 C  
HETATM    3  O   UNL     1     -11.501   8.225  72.656  1.00  0.00    -0.395 OA 
ENDROOT
BRANCH   2   4
HETATM    4  O   UNL     1     -10.790   9.563  70.931  1.00  0.00    -0.285 OA 
BRANCH   4   5
HETATM    5  C   UNL     1     -11.208  10.723  70.205  1.00  0.00    -0.267 C  
BRANCH   5   6
HETATM    6  C   UNL     1     -10.163  11.199  69.194  1.00  0.00    -0.141 C  
HETATM    7  O   UNL     1      -9.087  10.256  69.192  1.00  0.00    -0.171 OA 
HETATM    8  C   UNL     1      -8.485  10.304  67.893  1.00  0.00    -0.118 C  
HETATM    9  C   UNL     1      -9.603  10.642  66.895  1.00  0.00    -0.171 C  
HETATM   10  C   UNL     1     -10.686  11.307  67.758  1.00  0.00    -0.220 C  
BRANCH   8  11
HETATM   11  N   UNL     1      -7.805   9.033  67.636  1.00  0.00    -0.100 N  
HETATM   12  N   UNL     1      -6.105   7.516  68.159  1.00  0.00    -0.035 N  
HETATM   13  C   UNL     1      -8.289   8.143  66.693  1.00  0.00    -0.111 C  
HETATM   14  O   UNL     1      -6.120   5.422  67.259  1.00  0.00    -0.028 OA 
HETATM   15  H   UNL     1      -5.242   7.305  68.658  1.00  0.00     0.000 HD 
HETATM   16  C   UNL     1      -7.748   6.939  66.507  1.00  0.00    -0.101 C  
HETATM   17  C   UNL     1      -6.672   8.745  68.385  1.00  0.00    -0.064 C  
HETATM   18  C   UNL     1      -6.592   6.550  67.328  1.00  0.00    -0.054 C  
HETATM   19  O   UNL     1      -6.191   9.507  69.220  1.00  0.00    -0.040 OA 
ENDBRANCH   8  11
BRANCH   9  20
HETATM   20  O   UNL     1      -9.115  11.542  65.881  1.00  0.00    -0.209 OA 
BRANCH  20  21
HETATM   21  C   UNL     1      -8.891  11.028  64.646  1.00  0.00    -0.013 C  
HETATM   22  C   UNL     1     -10.053  11.309  63.739  1.00  0.00    -0.412 C  
HETATM   23  O   UNL     1      -7.891  10.413  64.307  1.00  0.00    -0.141 OA 
ENDBRANCH  20  21
ENDBRANCH   9  20
BRANCH  10  24
HETATM   24  O   UNL     1     -10.840  12.701  67.420  1.00  0.00    -0.234 OA 
BRANCH  24  25
HETATM   25  C   UNL     1     -11.895  13.041  66.634  1.00  0.00    -0.393 C  
HETATM   26  O   UNL     1     -12.539  12.272  65.938  1.00  0.00    -0.398 OA 
HETATM   27  C   UNL     1     -12.134  14.521  66.701  1.00  0.00    -0.319 C  
ENDBRANCH  24  25
ENDBRANCH  10  24
ENDBRANCH   5   6
ENDBRANCH   4   5
ENDBRANCH   2   4
TORSDOF 8
ENDMDL
MODEL      148
REMARK 921   NORMALIZED FREE ENERGY PREDICTED BY IDOCK:   -3.21 KCAL/MOL
REMARK 922        TOTAL FREE ENERGY PREDICTED BY IDOCK:   -6.11 KCAL/MOL
REMARK 923 INTER-LIGAND FREE ENERGY PREDICTED BY IDOCK:   -4.68 KCAL/MOL
REMARK 924 INTRA-LIGAND FREE ENERGY PREDICTED BY IDOCK:   -1.44 KCAL/MOL
REMARK 927      BINDING AFFINITY PREDICTED BY RF-SCORE:    0.00 PKD
ROOT
HETATM    1  C   UNL     1     -10.458   8.103  71.469  1.00  0.00    -0.276 C  
HETATM    2  C   UNL     1     -11.421   8.100  70.323  1.00  0.00    -0.065 C  
HETATM    3  O   UNL     1     -12.507   7.539  70.332  1.00  0.00     0.100 OA 
ENDROOT
BRANCH   2   4
HETATM    4  O   UNL     1     -10.908   8.804  69.277  1.00  0.00    -0.187 OA 
BRANCH   4   5
HETATM    5  C   UNL     1      -9.560   9.254  69.449  1.00  0.00    -0.168 C  
BRANCH   5   6
HETATM    6  C   UNL     1      -9.030  10.019  68.235  1.00  0.00    -0.119 C  
HETATM    7  O   UNL     1      -8.127   9.162  67.531  1.00  0.00    -0.103 OA 
HETATM    8  C   UNL     1      -8.148   9.564  66.156  1.00  0.00    -0.111 C  
HETATM    9  C   UNL     1      -9.563  10.084  65.865  1.00  0.00    -0.224 C  
HETATM   10  C   UNL     1     -10.117  10.457  67.248  1.00  0.00    -0.200 C  
BRANCH   8  11
HETATM   11  N   UNL     1      -7.733   8.433  65.323  1.00  0.00    -0.093 N  
HETATM   12  N   UNL     1      -6.512   7.610  63.508  1.00  0.00    -0.057 N  
HETATM   13  C   UNL     1      -8.110   7.139  65.637  1.00  0.00    -0.133 C  
HETATM   14  O   UNL     1      -6.250   5.363  63.226  1.00  0.00    -0.021 OA 
HETATM   15  H   UNL     1      -5.969   7.788  62.664  1.00  0.00     0.000 HD 
HETATM   16  C   UNL     1      -7.668   6.083  64.954  1.00  0.00    -0.099 C  
HETATM   17  C   UNL     1      -6.933   8.703  64.221  1.00  0.00    -0.081 C  
HETATM   18  C   UNL     1      -6.755   6.306  63.824  1.00  0.00    -0.037 C  
HETATM   19  O   UNL     1      -6.585   9.834  63.888  1.00  0.00    -0.108 OA 
ENDBRANCH   8  11
BRANCH   9  20
HETATM   20  O   UNL     1      -9.507  11.233  64.996  1.00  0.00    -0.222 OA 
BRANCH  20  21
HETATM   21  C   UNL     1     -10.341  11.247  63.926  1.00  0.00    -0.381 C  
HETATM   22  C   UNL     1      -9.651  10.696  62.713  1.00  0.00    -0.333 C  
HETATM   23  O   UNL     1     -11.493  11.654  63.932  1.00  0.00    -0.385 OA 
ENDBRANCH  20  21
ENDBRANCH   9  20
BRANCH  10  24
HETATM   24  O   UNL     1     -10.311  11.882  67.367  1.00  0.00    -0.203 OA 
BRANCH  24  25
HETATM   25  C   UNL     1     -11.516  12.313  67.821  1.00  0.00    -0.329 C  
HETATM   26  O   UNL     1     -12.229  11.721  68.617  1.00  0.00    -0.405 OA 
HETATM   27  C   UNL     1     -11.880  13.613  67.166  1.00  0.00    -0.435 C  
ENDBRANCH  24  25
ENDBRANCH  10  24
ENDBRANCH   5   6
ENDBRANCH   4   5
ENDBRANCH   2   4
TORSDOF 8
ENDMDL
MODEL      149
REMARK 921   NORMALIZED FREE ENERGY PREDICTED BY IDOCK:   -3.18 KCAL/MOL
REMARK 922        TOTAL FREE ENERGY PREDICTED BY IDOCK:   -6.07 KCAL/MOL
REMARK 923 INTER-LIGAND FREE ENERGY PREDICTED BY IDOCK:   -4.57 KCAL/MOL
REMARK 924 INTRA-LIGAND FREE ENERGY PREDICTED BY IDOCK:   -1.49 KCAL/MOL
REMARK 927      BINDING AFFINITY PREDICTED BY RF-SCORE:    0.00 PKD
ROOT
HETATM    1  C   UNL     1     -11.035  10.676  67.206  1.00  0.00    -0.348 C  
HETATM    2  C   UNL     1      -9.842  11.464  66.762  1.00  0.00    -0.206 C  
HETATM    3  O   UNL     1      -9.888  12.422  66.005  1.00  0.00    -0.251 OA 
ENDROOT
BRANCH   2   4
HETATM    4  O   UNL     1      -8.710  10.954  67.319  1.00  0.00    -0.130 OA 
BRANCH   4   5
HETATM    5  C   UNL     1      -7.789  10.366  66.394  1.00  0.00    -0.128 C  
BRANCH   5   6
HETATM    6  C   UNL     1      -7.652   8.853  66.573  1.00  0.00    -0.092 C  
HETATM    7  O   UNL     1      -8.145   8.514  67.873  1.00  0.00    -0.113 OA 
HETATM    8  C   UNL     1      -8.621   7.165  67.806  1.00  0.00    -0.126 C  
HETATM    9  C   UNL     1      -9.149   6.948  66.381  1.00  0.00    -0.159 C  
HETATM   10  C   UNL     1      -8.441   8.029  65.551  1.00  0.00    -0.144 C  
BRANCH   8  11
HETATM   11  N   UNL     1      -9.616   6.958  68.861  1.00  0.00    -0.139 N  
HETATM   12  N   UNL     1     -10.717   5.518  70.337  1.00  0.00    -0.278 N  
HETATM   13  C   UNL     1     -10.306   8.024  69.410  1.00  0.00    -0.217 C  
HETATM   14  O   UNL     1     -12.034   6.362  71.995  1.00  0.00    -0.329 OA 
HETATM   15  H   UNL     1     -10.927   4.568  70.641  1.00  0.00     0.000 HD 
HETATM   16  C   UNL     1     -11.144   7.878  70.436  1.00  0.00    -0.249 C  
HETATM   17  C   UNL     1      -9.826   5.659  69.303  1.00  0.00    -0.174 C  
HETATM   18  C   UNL     1     -11.346   6.533  70.995  1.00  0.00    -0.323 C  
HETATM   19  O   UNL     1      -9.254   4.675  68.837  1.00  0.00    -0.112 OA 
ENDBRANCH   8  11
BRANCH   9  20
HETATM   20  O   UNL     1      -8.812   5.626  65.916  1.00  0.00    -0.145 OA 
BRANCH  20  21
HETATM   21  C   UNL     1      -9.833   4.828  65.512  1.00  0.00    -0.145 C  
HETATM   22  C   UNL     1      -9.401   3.961  64.365  1.00  0.00    -0.153 C  
HETATM   23  O   UNL     1     -10.953   4.812  65.999  1.00  0.00    -0.213 OA 
ENDBRANCH  20  21
ENDBRANCH   9  20
BRANCH  10  24
HETATM   24  O   UNL     1      -7.517   7.443  64.609  1.00  0.00    -0.080 OA 
BRANCH  24  25
HETATM   25  C   UNL     1      -7.456   7.993  63.369  1.00  0.00    -0.122 C  
HETATM   26  O   UNL     1      -7.011   9.099  63.103  1.00  0.00    -0.090 OA 
HETATM   27  C   UNL     1      -8.063   7.063  62.360  1.00  0.00    -0.108 C  
ENDBRANCH  24  25
ENDBRANCH  10  24
ENDBRANCH   5   6
ENDBRANCH   4   5
ENDBRANCH   2   4
TORSDOF 8
ENDMDL
MODEL      150
REMARK 921   NORMALIZED FREE ENERGY PREDICTED BY IDOCK:   -3.17 KCAL/MOL
REMARK 922        TOTAL FREE ENERGY PREDICTED BY IDOCK:   -6.06 KCAL/MOL
REMARK 923 INTER-LIGAND FREE ENERGY PREDICTED BY IDOCK:   -5.39 KCAL/MOL
REMARK 924 INTRA-LIGAND FREE ENERGY PREDICTED BY IDOCK:   -0.67 KCAL/MOL
REMARK 927      BINDING AFFINITY PREDICTED BY RF-SCORE:    0.00 PKD
ROOT
HETATM    1  C   UNL     1     -10.585  12.285  63.206  1.00  0.00    -0.312 C  
HETATM    2  C   UNL     1     -11.579  12.196  64.321  1.00  0.00    -0.370 C  
HETATM    3  O   UNL     1     -12.628  12.820  64.365  1.00  0.00    -0.591 OA 
ENDROOT
BRANCH   2   4
HETATM    4  O   UNL     1     -11.139  11.327  65.272  1.00  0.00    -0.196 OA 
BRANCH   4   5
HETATM    5  C   UNL     1     -10.279  10.287  64.797  1.00  0.00    -0.168 C  
BRANCH   5   6
HETATM    6  C   UNL     1      -9.045  10.088  65.679  1.00  0.00    -0.183 C  
HETATM    7  O   UNL     1      -8.450  11.369  65.906  1.00  0.00    -0.120 OA 
HETATM    8  C   UNL     1      -7.768  11.301  67.163  1.00  0.00    -0.147 C  
HETATM    9  C   UNL     1      -8.557  10.324  68.048  1.00  0.00    -0.118 C  
HETATM   10  C   UNL     1      -9.347   9.469  67.047  1.00  0.00    -0.148 C  
BRANCH   8  11
HETATM   11  N   UNL     1      -7.645  12.654  67.712  1.00  0.00    -0.127 N  
HETATM   12  N   UNL     1      -8.566  14.426  68.926  1.00  0.00    -0.313 N  
HETATM   13  C   UNL     1      -6.464  13.366  67.595  1.00  0.00    -0.162 C  
HETATM   14  O   UNL     1      -7.259  16.181  69.564  1.00  0.00    -0.217 OA 
HETATM   15  H   UNL     1      -9.377  14.859  69.367  1.00  0.00     0.000 HD 
HETATM   16  C   UNL     1      -6.292  14.557  68.169  1.00  0.00    -0.145 C  
HETATM   17  C   UNL     1      -8.746  13.185  68.370  1.00  0.00    -0.120 C  
HETATM   18  C   UNL     1      -7.401  15.134  68.944  1.00  0.00    -0.142 C  
HETATM   19  O   UNL     1      -9.823  12.602  68.485  1.00  0.00    -0.216 OA 
ENDBRANCH   8  11
BRANCH   9  20
HETATM   20  O   UNL     1      -7.656   9.516  68.831  1.00  0.00    -0.073 OA 
BRANCH  20  21
HETATM   21  C   UNL     1      -7.548   9.805  70.152  1.00  0.00    -0.171 C  
HETATM   22  C   UNL     1      -8.525   8.993  70.951  1.00  0.00    -0.253 C  
HETATM   23  O   UNL     1      -6.773  10.616  70.637  1.00  0.00    -0.332 OA 
ENDBRANCH  20  21
ENDBRANCH   9  20
BRANCH  10  24
HETATM   24  O   UNL     1      -8.889   8.100  67.053  1.00  0.00    -0.127 OA 
BRANCH  24  25
HETATM   25  C   UNL     1      -9.826   7.128  67.202  1.00  0.00    -0.181 C  
HETATM   26  O   UNL     1     -11.027   7.266  67.027  1.00  0.00    -0.358 OA 
HETATM   27  C   UNL     1      -9.181   5.855  67.665  1.00  0.00    -0.104 C  
ENDBRANCH  24  25
ENDBRANCH  10  24
ENDBRANCH   5   6
ENDBRANCH   4   5
ENDBRANCH   2   4
TORSDOF 8
ENDMDL
MODEL      151
REMARK 921   NORMALIZED FREE ENERGY PREDICTED BY IDOCK:   -3.13 KCAL/MOL
REMARK 922        TOTAL FREE ENERGY PREDICTED BY IDOCK:   -6.00 KCAL/MOL
REMARK 923 INTER-LIGAND FREE ENERGY PREDICTED BY IDOCK:   -5.18 KCAL/MOL
REMARK 924 INTRA-LIGAND FREE ENERGY PREDICTED BY IDOCK:   -0.82 KCAL/MOL
REMARK 927      BINDING AFFINITY PREDICTED BY RF-SCORE:    0.00 PKD
ROOT
HETATM    1  C   UNL     1      -9.383   3.980  67.564  1.00  0.00    -0.219 C  
HETATM    2  C   UNL     1     -10.436   4.734  66.814  1.00  0.00    -0.124 C  
HETATM    3  O   UNL     1     -10.753   4.513  65.655  1.00  0.00    -0.285 OA 
ENDROOT
BRANCH   2   4
HETATM    4  O   UNL     1     -10.979   5.697  67.608  1.00  0.00    -0.185 OA 
BRANCH   4   5
HETATM    5  C   UNL     1     -11.117   6.983  66.997  1.00  0.00    -0.177 C  
BRANCH   5   6
HETATM    6  C   UNL     1      -9.773   7.666  66.739  1.00  0.00    -0.222 C  
HETATM    7  O   UNL     1      -9.999   8.775  65.863  1.00  0.00    -0.213 OA 
HETATM    8  C   UNL     1      -8.978   9.742  66.132  1.00  0.00    -0.152 C  
HETATM    9  C   UNL     1      -8.628   9.619  67.623  1.00  0.00    -0.126 C  
HETATM   10  C   UNL     1      -9.093   8.205  68.001  1.00  0.00    -0.133 C  
BRANCH   8  11
HETATM   11  N   UNL     1      -9.456  11.066  65.727  1.00  0.00    -0.202 N  
HETATM   12  N   UNL     1     -10.248  12.496  64.057  1.00  0.00    -0.518 N  
HETATM   13  C   UNL     1      -9.636  12.074  66.657  1.00  0.00    -0.216 C  
HETATM   14  O   UNL     1     -11.123  14.528  64.608  1.00  0.00    -0.382 OA 
HETATM   15  H   UNL     1     -10.413  12.684  63.069  1.00  0.00     0.000 HD 
HETATM   16  C   UNL     1     -10.161  13.256  66.332  1.00  0.00    -0.292 C  
HETATM   17  C   UNL     1      -9.740  11.264  64.383  1.00  0.00    -0.254 C  
HETATM   18  C   UNL     1     -10.552  13.494  64.935  1.00  0.00    -0.397 C  
HETATM   19  O   UNL     1      -9.580  10.409  63.515  1.00  0.00    -0.289 OA 
ENDBRANCH   8  11
BRANCH   9  20
HETATM   20  O   UNL     1      -7.210   9.775  67.821  1.00  0.00    -0.086 OA 
BRANCH  20  21
HETATM   21  C   UNL     1      -6.425   9.811  66.715  1.00  0.00    -0.066 C  
HETATM   22  C   UNL     1      -5.861  11.186  66.513  1.00  0.00    -0.143 C  
HETATM   23  O   UNL     1      -6.205   8.864  65.974  1.00  0.00    -0.055 OA 
ENDBRANCH  20  21
ENDBRANCH   9  20
BRANCH  10  24
HETATM   24  O   UNL     1      -7.972   7.357  68.328  1.00  0.00    -0.119 OA 
BRANCH  24  25
HETATM   25  C   UNL     1      -7.962   6.779  69.557  1.00  0.00    -0.125 C  
HETATM   26  O   UNL     1      -8.939   6.607  70.269  1.00  0.00    -0.150 OA 
HETATM   27  C   UNL     1      -6.559   6.419  69.947  1.00  0.00    -0.048 C  
ENDBRANCH  24  25
ENDBRANCH  10  24
ENDBRANCH   5   6
ENDBRANCH   4   5
ENDBRANCH   2   4
TORSDOF 8
ENDMDL
MODEL      152
REMARK 921   NORMALIZED FREE ENERGY PREDICTED BY IDOCK:   -3.13 KCAL/MOL
REMARK 922        TOTAL FREE ENERGY PREDICTED BY IDOCK:   -6.00 KCAL/MOL
REMARK 923 INTER-LIGAND FREE ENERGY PREDICTED BY IDOCK:   -5.18 KCAL/MOL
REMARK 924 INTRA-LIGAND FREE ENERGY PREDICTED BY IDOCK:   -0.82 KCAL/MOL
REMARK 927      BINDING AFFINITY PREDICTED BY RF-SCORE:    0.00 PKD
ROOT
HETATM    1  C   UNL     1     -13.148  12.406  64.183  1.00  0.00    -0.128 C  
HETATM    2  C   UNL     1     -12.835  13.442  65.218  1.00  0.00    -0.334 C  
HETATM    3  O   UNL     1     -13.235  13.410  66.372  1.00  0.00     0.267 OA 
ENDROOT
BRANCH   2   4
HETATM    4  O   UNL     1     -12.051  14.417  64.684  1.00  0.00    -0.430 OA 
BRANCH   4   5
HETATM    5  C   UNL     1     -10.824  13.963  64.105  1.00  0.00     0.000 C  
BRANCH   5   6
HETATM    6  C   UNL     1      -9.812  13.494  65.152  1.00  0.00    -0.075 C  
HETATM    7  O   UNL     1     -10.068  14.205  66.367  1.00  0.00    -0.276 OA 
HETATM    8  C   UNL     1      -9.630  13.372  67.446  1.00  0.00    -0.223 C  
HETATM    9  C   UNL     1      -9.843  11.917  67.001  1.00  0.00    -0.192 C  
HETATM   10  C   UNL     1      -9.887  11.997  65.468  1.00  0.00    -0.229 C  
BRANCH   8  11
HETATM   11  N   UNL     1     -10.353  13.748  68.663  1.00  0.00    -0.236 N  
HETATM   12  N   UNL     1     -10.572  15.142  70.526  1.00  0.00    -0.525 N  
HETATM   13  C   UNL     1     -11.528  13.110  69.020  1.00  0.00    -0.296 C  
HETATM   14  O   UNL     1     -12.470  15.082  71.786  1.00  0.00    -0.305 OA 
HETATM   15  H   UNL     1     -10.180  15.859  71.135  1.00  0.00     0.000 HD 
HETATM   16  C   UNL     1     -12.257  13.496  70.067  1.00  0.00    -0.381 C  
HETATM   17  C   UNL     1      -9.829  14.778  69.432  1.00  0.00    -0.062 C  
HETATM   18  C   UNL     1     -11.789  14.633  70.873  1.00  0.00    -0.313 C  
HETATM   19  O   UNL     1      -8.780  15.364  69.169  1.00  0.00    -0.208 OA 
ENDBRANCH   8  11
BRANCH   9  20
HETATM   20  O   UNL     1      -8.753  11.089  67.451  1.00  0.00    -0.131 OA 
BRANCH  20  21
HETATM   21  C   UNL     1      -8.498  11.062  68.784  1.00  0.00    -0.144 C  
HETATM   22  C   UNL     1      -9.511  10.216  69.497  1.00  0.00    -0.235 C  
HETATM   23  O   UNL     1      -7.580  11.647  69.340  1.00  0.00     0.039 OA 
ENDBRANCH  20  21
ENDBRANCH   9  20
BRANCH  10  24
HETATM   24  O   UNL     1      -8.749  11.336  64.877  1.00  0.00    -0.006 OA 
BRANCH  24  25
HETATM   25  C   UNL     1      -8.997  10.337  63.991  1.00  0.00    -0.237 C  
HETATM   26  O   UNL     1      -9.034   9.145  64.256  1.00  0.00    -0.163 OA 
HETATM   27  C   UNL     1      -9.173  10.901  62.612  1.00  0.00    -0.357 C  
ENDBRANCH  24  25
ENDBRANCH  10  24
ENDBRANCH   5   6
ENDBRANCH   4   5
ENDBRANCH   2   4
TORSDOF 8
ENDMDL
MODEL      153
REMARK 921   NORMALIZED FREE ENERGY PREDICTED BY IDOCK:   -3.10 KCAL/MOL
REMARK 922        TOTAL FREE ENERGY PREDICTED BY IDOCK:   -5.95 KCAL/MOL
REMARK 923 INTER-LIGAND FREE ENERGY PREDICTED BY IDOCK:   -5.45 KCAL/MOL
REMARK 924 INTRA-LIGAND FREE ENERGY PREDICTED BY IDOCK:   -0.50 KCAL/MOL
REMARK 927      BINDING AFFINITY PREDICTED BY RF-SCORE:    0.00 PKD
ROOT
HETATM    1  C   UNL     1     -12.503  10.942  71.457  1.00  0.00    -0.419 C  
HETATM    2  C   UNL     1     -11.560   9.781  71.404  1.00  0.00    -0.378 C  
HETATM    3  O   UNL     1     -11.466   8.924  72.270  1.00  0.00    -0.348 OA 
ENDROOT
BRANCH   2   4
HETATM    4  O   UNL     1     -10.824   9.827  70.259  1.00  0.00    -0.254 OA 
BRANCH   4   5
HETATM    5  C   UNL     1     -11.585   9.851  69.047  1.00  0.00     0.158 C  
BRANCH   5   6
HETATM    6  C   UNL     1     -10.713  10.016  67.801  1.00  0.00    -0.280 C  
HETATM    7  O   UNL     1     -11.029  11.277  67.203  1.00  0.00    -0.262 OA 
HETATM    8  C   UNL     1      -9.859  11.718  66.504  1.00  0.00    -0.206 C  
HETATM    9  C   UNL     1      -8.646  11.184  67.280  1.00  0.00    -0.140 C  
HETATM   10  C   UNL     1      -9.208  10.002  68.085  1.00  0.00    -0.128 C  
BRANCH   8  11
HETATM   11  N   UNL     1      -9.903  13.176  66.373  1.00  0.00    -0.274 N  
HETATM   12  N   UNL     1      -9.463  15.292  67.262  1.00  0.00    -0.205 N  
HETATM   13  C   UNL     1     -10.345  13.774  65.206  1.00  0.00    -0.361 C  
HETATM   14  O   UNL     1      -9.636  17.147  65.948  1.00  0.00    -0.497 OA 
HETATM   15  H   UNL     1      -9.198  15.870  68.059  1.00  0.00     0.000 HD 
HETATM   16  C   UNL     1     -10.304  15.094  65.023  1.00  0.00    -0.377 C  
HETATM   17  C   UNL     1      -9.468  13.933  67.451  1.00  0.00    -0.226 C  
HETATM   18  C   UNL     1      -9.779  15.940  66.104  1.00  0.00    -0.321 C  
HETATM   19  O   UNL     1      -9.084  13.453  68.516  1.00  0.00    -0.167 OA 
ENDBRANCH   8  11
BRANCH   9  20
HETATM   20  O   UNL     1      -7.616  10.755  66.370  1.00  0.00    -0.131 OA 
BRANCH  20  21
HETATM   21  C   UNL     1      -6.385  11.307  66.515  1.00  0.00    -0.119 C  
HETATM   22  C   UNL     1      -5.324  10.247  66.478  1.00  0.00    -0.047 C  
HETATM   23  O   UNL     1      -6.158  12.498  66.664  1.00  0.00    -0.057 OA 
ENDBRANCH  20  21
ENDBRANCH   9  20
BRANCH  10  24
HETATM   24  O   UNL     1      -8.657   8.750  67.628  1.00  0.00    -0.126 OA 
BRANCH  24  25
HETATM   25  C   UNL     1      -7.739   8.143  68.423  1.00  0.00    -0.113 C  
HETATM   26  O   UNL     1      -6.859   7.385  68.044  1.00  0.00    -0.065 OA 
HETATM   27  C   UNL     1      -7.986   8.496  69.860  1.00  0.00    -0.106 C  
ENDBRANCH  24  25
ENDBRANCH  10  24
ENDBRANCH   5   6
ENDBRANCH   4   5
ENDBRANCH   2   4
TORSDOF 8
ENDMDL
MODEL      154
REMARK 921   NORMALIZED FREE ENERGY PREDICTED BY IDOCK:   -3.07 KCAL/MOL
REMARK 922        TOTAL FREE ENERGY PREDICTED BY IDOCK:   -5.92 KCAL/MOL
REMARK 923 INTER-LIGAND FREE ENERGY PREDICTED BY IDOCK:   -5.54 KCAL/MOL
REMARK 924 INTRA-LIGAND FREE ENERGY PREDICTED BY IDOCK:   -0.38 KCAL/MOL
REMARK 927      BINDING AFFINITY PREDICTED BY RF-SCORE:    0.00 PKD
ROOT
HETATM    1  C   UNL     1      -9.199  18.745  68.498  1.00  0.00    -0.386 C  
HETATM    2  C   UNL     1      -9.222  18.905  67.010  1.00  0.00    -0.303 C  
HETATM    3  O   UNL     1      -9.941  19.688  66.408  1.00  0.00    -0.382 OA 
ENDROOT
BRANCH   2   4
HETATM    4  O   UNL     1      -8.333  18.050  66.433  1.00  0.00    -0.279 OA 
BRANCH   4   5
HETATM    5  C   UNL     1      -8.917  16.963  65.708  1.00  0.00     0.131 C  
BRANCH   5   6
HETATM    6  C   UNL     1      -9.255  15.767  66.600  1.00  0.00    -0.255 C  
HETATM    7  O   UNL     1      -9.896  14.777  65.790  1.00  0.00    -0.317 OA 
HETATM    8  C   UNL     1      -9.626  13.503  66.387  1.00  0.00    -0.259 C  
HETATM    9  C   UNL     1      -8.242  13.603  67.046  1.00  0.00    -0.037 C  
HETATM   10  C   UNL     1      -8.035  15.111  67.254  1.00  0.00    -0.205 C  
BRANCH   8  11
HETATM   11  N   UNL     1      -9.736  12.463  65.361  1.00  0.00    -0.173 N  
HETATM   12  N   UNL     1     -10.510  11.776  63.266  1.00  0.00    -0.611 N  
HETATM   13  C   UNL     1      -9.096  11.246  65.508  1.00  0.00    -0.170 C  
HETATM   14  O   UNL     1      -9.769   9.823  62.354  1.00  0.00    -0.075 OA 
HETATM   15  H   UNL     1     -11.100  11.943  62.451  1.00  0.00     0.000 HD 
HETATM   16  C   UNL     1      -9.098  10.319  64.549  1.00  0.00    -0.270 C  
HETATM   17  C   UNL     1     -10.488  12.751  64.230  1.00  0.00    -0.399 C  
HETATM   18  C   UNL     1      -9.816  10.603  63.298  1.00  0.00    -0.312 C  
HETATM   19  O   UNL     1     -11.091  13.809  64.059  1.00  0.00    -0.252 OA 
ENDBRANCH   8  11
BRANCH   9  20
HETATM   20  O   UNL     1      -8.231  12.895  68.301  1.00  0.00    -0.150 OA 
BRANCH  20  21
HETATM   21  C   UNL     1      -7.319  11.900  68.448  1.00  0.00    -0.095 C  
HETATM   22  C   UNL     1      -7.977  10.656  68.968  1.00  0.00    -0.140 C  
HETATM   23  O   UNL     1      -6.126  11.993  68.203  1.00  0.00    -0.050 OA 
ENDBRANCH  20  21
ENDBRANCH   9  20
BRANCH  10  24
HETATM   24  O   UNL     1      -8.018  15.447  68.657  1.00  0.00    -0.133 OA 
BRANCH  24  25
HETATM   25  C   UNL     1      -6.870  15.969  69.162  1.00  0.00    -0.180 C  
HETATM   26  O   UNL     1      -6.297  16.963  68.743  1.00  0.00    -0.154 OA 
HETATM   27  C   UNL     1      -6.368  15.117  70.290  1.00  0.00    -0.088 C  
ENDBRANCH  24  25
ENDBRANCH  10  24
ENDBRANCH   5   6
ENDBRANCH   4   5
ENDBRANCH   2   4
TORSDOF 8
ENDMDL
MODEL      155
REMARK 921   NORMALIZED FREE ENERGY PREDICTED BY IDOCK:   -3.07 KCAL/MOL
REMARK 922        TOTAL FREE ENERGY PREDICTED BY IDOCK:   -5.92 KCAL/MOL
REMARK 923 INTER-LIGAND FREE ENERGY PREDICTED BY IDOCK:   -5.25 KCAL/MOL
REMARK 924 INTRA-LIGAND FREE ENERGY PREDICTED BY IDOCK:   -0.67 KCAL/MOL
REMARK 927      BINDING AFFINITY PREDICTED BY RF-SCORE:    0.00 PKD
ROOT
HETATM    1  C   UNL     1     -14.011   9.001  72.386  1.00  0.00    -0.517 C  
HETATM    2  C   UNL     1     -13.247   7.918  71.690  1.00  0.00    -0.334 C  
HETATM    3  O   UNL     1     -13.369   6.725  71.923  1.00  0.00    -0.271 OA 
ENDROOT
BRANCH   2   4
HETATM    4  O   UNL     1     -12.400   8.458  70.771  1.00  0.00    -0.123 OA 
BRANCH   4   5
HETATM    5  C   UNL     1     -11.378   9.304  71.308  1.00  0.00    -0.353 C  
BRANCH   5   6
HETATM    6  C   UNL     1     -10.152   9.404  70.399  1.00  0.00    -0.255 C  
HETATM    7  O   UNL     1      -9.566   8.103  70.299  1.00  0.00    -0.169 OA 
HETATM    8  C   UNL     1      -8.896   8.037  69.035  1.00  0.00    -0.145 C  
HETATM    9  C   UNL     1      -9.688   8.923  68.062  1.00  0.00    -0.156 C  
HETATM   10  C   UNL     1     -10.465   9.881  68.977  1.00  0.00    -0.210 C  
BRANCH   8  11
HETATM   11  N   UNL     1      -8.785   6.635  68.627  1.00  0.00    -0.124 N  
HETATM   12  N   UNL     1      -9.809   4.588  68.151  1.00  0.00    -0.123 N  
HETATM   13  C   UNL     1      -7.565   6.093  68.261  1.00  0.00    -0.098 C  
HETATM   14  O   UNL     1      -8.620   2.914  67.162  1.00  0.00    -0.092 OA 
HETATM   15  H   UNL     1     -10.639   3.997  68.175  1.00  0.00     0.000 HD 
HETATM   16  C   UNL     1      -7.450   4.850  67.793  1.00  0.00    -0.079 C  
HETATM   17  C   UNL     1      -9.947   5.877  68.602  1.00  0.00    -0.148 C  
HETATM   18  C   UNL     1      -8.662   4.027  67.673  1.00  0.00    -0.105 C  
HETATM   19  O   UNL     1     -11.051   6.303  68.935  1.00  0.00    -0.336 OA 
ENDBRANCH   8  11
BRANCH   9  20
HETATM   20  O   UNL     1      -8.792   9.640  67.192  1.00  0.00    -0.131 OA 
BRANCH  20  21
HETATM   21  C   UNL     1      -8.313   8.980  66.108  1.00  0.00    -0.121 C  
HETATM   22  C   UNL     1      -6.925   9.444  65.780  1.00  0.00    -0.090 C  
HETATM   23  O   UNL     1      -8.918   8.129  65.474  1.00  0.00    -0.137 OA 
ENDBRANCH  20  21
ENDBRANCH   9  20
BRANCH  10  24
HETATM   24  O   UNL     1     -10.001  11.239  68.826  1.00  0.00    -0.205 OA 
BRANCH  24  25
HETATM   25  C   UNL     1     -10.831  12.118  68.207  1.00  0.00    -0.223 C  
HETATM   26  O   UNL     1     -12.049  12.036  68.164  1.00  0.00    -0.480 OA 
HETATM   27  C   UNL     1     -10.033  13.193  67.530  1.00  0.00    -0.223 C  
ENDBRANCH  24  25
ENDBRANCH  10  24
ENDBRANCH   5   6
ENDBRANCH   4   5
ENDBRANCH   2   4
TORSDOF 8
ENDMDL
MODEL      156
REMARK 921   NORMALIZED FREE ENERGY PREDICTED BY IDOCK:   -3.06 KCAL/MOL
REMARK 922        TOTAL FREE ENERGY PREDICTED BY IDOCK:   -5.89 KCAL/MOL
REMARK 923 INTER-LIGAND FREE ENERGY PREDICTED BY IDOCK:   -5.56 KCAL/MOL
REMARK 924 INTRA-LIGAND FREE ENERGY PREDICTED BY IDOCK:   -0.34 KCAL/MOL
REMARK 927      BINDING AFFINITY PREDICTED BY RF-SCORE:    0.00 PKD
ROOT
HETATM    1  C   UNL     1      -8.286   7.071  70.607  1.00  0.00    -0.119 C  
HETATM    2  C   UNL     1      -8.866   8.395  70.996  1.00  0.00    -0.161 C  
HETATM    3  O   UNL     1      -8.529   9.036  71.980  1.00  0.00    -0.368 OA 
ENDROOT
BRANCH   2   4
HETATM    4  O   UNL     1      -9.820   8.770  70.101  1.00  0.00    -0.169 OA 
BRANCH   4   5
HETATM    5  C   UNL     1     -10.320   7.719  69.268  1.00  0.00    -0.219 C  
BRANCH   5   6
HETATM    6  C   UNL     1     -10.561   8.168  67.826  1.00  0.00    -0.165 C  
HETATM    7  O   UNL     1     -11.141   9.476  67.860  1.00  0.00    -0.179 OA 
HETATM    8  C   UNL     1     -10.774  10.133  66.641  1.00  0.00    -0.086 C  
HETATM    9  C   UNL     1      -9.393   9.592  66.240  1.00  0.00    -0.185 C  
HETATM   10  C   UNL     1      -9.291   8.247  66.975  1.00  0.00    -0.160 C  
BRANCH   8  11
HETATM   11  N   UNL     1     -10.823  11.582  66.847  1.00  0.00    -0.270 N  
HETATM   12  N   UNL     1     -11.547  13.414  68.104  1.00  0.00    -0.319 N  
HETATM   13  C   UNL     1     -10.119  12.443  66.024  1.00  0.00    -0.251 C  
HETATM   14  O   UNL     1     -10.697  15.490  67.701  1.00  0.00    -0.287 OA 
HETATM   15  H   UNL     1     -12.141  13.791  68.843  1.00  0.00     0.000 HD 
HETATM   16  C   UNL     1     -10.066  13.757  66.247  1.00  0.00    -0.304 C  
HETATM   17  C   UNL     1     -11.583  12.057  67.907  1.00  0.00    -0.337 C  
HETATM   18  C   UNL     1     -10.791  14.306  67.402  1.00  0.00    -0.285 C  
HETATM   19  O   UNL     1     -12.241  11.337  68.655  1.00  0.00    -0.562 OA 
ENDBRANCH   8  11
BRANCH   9  20
HETATM   20  O   UNL     1      -9.317   9.417  64.812  1.00  0.00    -0.219 OA 
BRANCH  20  21
HETATM   21  C   UNL     1      -8.269   9.991  64.168  1.00  0.00    -0.159 C  
HETATM   22  C   UNL     1      -7.038   9.948  65.024  1.00  0.00    -0.131 C  
HETATM   23  O   UNL     1      -8.311  10.483  63.051  1.00  0.00    -0.163 OA 
ENDBRANCH  20  21
ENDBRANCH   9  20
BRANCH  10  24
HETATM   24  O   UNL     1      -9.281   7.144  66.044  1.00  0.00    -0.127 OA 
BRANCH  24  25
HETATM   25  C   UNL     1      -8.700   5.986  66.453  1.00  0.00    -0.133 C  
HETATM   26  O   UNL     1      -9.255   4.900  66.528  1.00  0.00    -0.126 OA 
HETATM   27  C   UNL     1      -7.276   6.235  66.853  1.00  0.00    -0.074 C  
ENDBRANCH  24  25
ENDBRANCH  10  24
ENDBRANCH   5   6
ENDBRANCH   4   5
ENDBRANCH   2   4
TORSDOF 8
ENDMDL
MODEL      157
REMARK 921   NORMALIZED FREE ENERGY PREDICTED BY IDOCK:   -2.98 KCAL/MOL
REMARK 922        TOTAL FREE ENERGY PREDICTED BY IDOCK:   -5.78 KCAL/MOL
REMARK 923 INTER-LIGAND FREE ENERGY PREDICTED BY IDOCK:   -4.39 KCAL/MOL
REMARK 924 INTRA-LIGAND FREE ENERGY PREDICTED BY IDOCK:   -1.39 KCAL/MOL
REMARK 927      BINDING AFFINITY PREDICTED BY RF-SCORE:    0.00 PKD
ROOT
HETATM    1  C   UNL     1      -6.987   5.698  63.969  1.00  0.00    -0.050 C  
HETATM    2  C   UNL     1      -7.548   7.069  64.181  1.00  0.00    -0.112 C  
HETATM    3  O   UNL     1      -7.648   7.919  63.309  1.00  0.00    -0.114 OA 
ENDROOT
BRANCH   2   4
HETATM    4  O   UNL     1      -7.923   7.227  65.480  1.00  0.00    -0.108 OA 
BRANCH   4   5
HETATM    5  C   UNL     1      -8.886   6.282  65.955  1.00  0.00    -0.151 C  
BRANCH   5   6
HETATM    6  C   UNL     1      -9.655   6.782  67.179  1.00  0.00    -0.144 C  
HETATM    7  O   UNL     1      -9.379   5.896  68.269  1.00  0.00    -0.116 OA 
HETATM    8  C   UNL     1      -9.519   6.654  69.475  1.00  0.00    -0.147 C  
HETATM    9  C   UNL     1      -9.106   8.097  69.148  1.00  0.00    -0.148 C  
HETATM   10  C   UNL     1      -9.272   8.196  67.624  1.00  0.00    -0.137 C  
BRANCH   8  11
HETATM   11  N   UNL     1      -8.727   6.020  70.532  1.00  0.00    -0.136 N  
HETATM   12  N   UNL     1      -8.633   4.774  72.506  1.00  0.00    -0.115 N  
HETATM   13  C   UNL     1      -7.344   6.012  70.478  1.00  0.00    -0.085 C  
HETATM   14  O   UNL     1      -6.643   3.944  73.246  1.00  0.00    -0.037 OA 
HETATM   15  H   UNL     1      -9.111   4.367  73.310  1.00  0.00     0.000 HD 
HETATM   16  C   UNL     1      -6.601   5.360  71.372  1.00  0.00    -0.040 C  
HETATM   17  C   UNL     1      -9.412   5.413  71.575  1.00  0.00    -0.149 C  
HETATM   18  C   UNL     1      -7.278   4.633  72.456  1.00  0.00    -0.081 C  
HETATM   19  O   UNL     1     -10.637   5.408  71.679  1.00  0.00    -0.227 OA 
ENDBRANCH   8  11
BRANCH   9  20
HETATM   20  O   UNL     1      -9.963   9.033  69.830  1.00  0.00    -0.179 OA 
BRANCH  20  21
HETATM   21  C   UNL     1      -9.906   9.058  71.186  1.00  0.00    -0.300 C  
HETATM   22  C   UNL     1     -11.285   8.993  71.773  1.00  0.00    -0.448 C  
HETATM   23  O   UNL     1      -8.881   9.131  71.848  1.00  0.00    -0.340 OA 
ENDBRANCH  20  21
ENDBRANCH   9  20
BRANCH  10  24
HETATM   24  O   UNL     1     -10.339   9.103  67.273  1.00  0.00    -0.236 OA 
BRANCH  24  25
HETATM   25  C   UNL     1     -10.054  10.089  66.384  1.00  0.00    -0.241 C  
HETATM   26  O   UNL     1      -9.789   9.927  65.203  1.00  0.00    -0.306 OA 
HETATM   27  C   UNL     1     -10.061  11.422  67.073  1.00  0.00    -0.237 C  
ENDBRANCH  24  25
ENDBRANCH  10  24
ENDBRANCH   5   6
ENDBRANCH   4   5
ENDBRANCH   2   4
TORSDOF 8
ENDMDL
MODEL      158
REMARK 921   NORMALIZED FREE ENERGY PREDICTED BY IDOCK:   -2.95 KCAL/MOL
REMARK 922        TOTAL FREE ENERGY PREDICTED BY IDOCK:   -5.74 KCAL/MOL
REMARK 923 INTER-LIGAND FREE ENERGY PREDICTED BY IDOCK:   -4.39 KCAL/MOL
REMARK 924 INTRA-LIGAND FREE ENERGY PREDICTED BY IDOCK:   -1.35 KCAL/MOL
REMARK 927      BINDING AFFINITY PREDICTED BY RF-SCORE:    0.00 PKD
ROOT
HETATM    1  C   UNL     1     -12.161   8.079  72.134  1.00  0.00    -0.391 C  
HETATM    2  C   UNL     1     -12.211   9.378  71.392  1.00  0.00    -0.356 C  
HETATM    3  O   UNL     1     -13.240   9.951  71.068  1.00  0.00    -0.373 OA 
ENDROOT
BRANCH   2   4
HETATM    4  O   UNL     1     -10.950   9.817  71.129  1.00  0.00    -0.348 OA 
BRANCH   4   5
HETATM    5  C   UNL     1     -10.628   9.948  69.741  1.00  0.00    -0.264 C  
BRANCH   5   6
HETATM    6  C   UNL     1      -9.409   9.119  69.333  1.00  0.00    -0.160 C  
HETATM    7  O   UNL     1      -9.216   8.100  70.319  1.00  0.00    -0.150 OA 
HETATM    8  C   UNL     1      -8.571   6.999  69.668  1.00  0.00    -0.134 C  
HETATM    9  C   UNL     1      -9.062   6.990  68.213  1.00  0.00    -0.126 C  
HETATM   10  C   UNL     1      -9.549   8.427  67.974  1.00  0.00    -0.149 C  
BRANCH   8  11
HETATM   11  N   UNL     1      -8.858   5.771  70.413  1.00  0.00    -0.140 N  
HETATM   12  N   UNL     1      -8.130   3.728  71.285  1.00  0.00    -0.063 N  
HETATM   13  C   UNL     1     -10.093   5.566  71.003  1.00  0.00    -0.209 C  
HETATM   14  O   UNL     1      -9.440   2.573  72.749  1.00  0.00    -0.087 OA 
HETATM   15  H   UNL     1      -7.417   3.000  71.335  1.00  0.00     0.000 HD 
HETATM   16  C   UNL     1     -10.349   4.504  71.768  1.00  0.00    -0.175 C  
HETATM   17  C   UNL     1      -7.841   4.832  70.523  1.00  0.00    -0.062 C  
HETATM   18  C   UNL     1      -9.282   3.515  71.982  1.00  0.00    -0.114 C  
HETATM   19  O   UNL     1      -6.734   4.957  70.004  1.00  0.00    -0.035 OA 
ENDBRANCH   8  11
BRANCH   9  20
HETATM   20  O   UNL     1      -7.984   6.647  67.320  1.00  0.00    -0.113 OA 
BRANCH  20  21
HETATM   21  C   UNL     1      -8.050   5.444  66.696  1.00  0.00    -0.105 C  
HETATM   22  C   UNL     1      -6.912   5.289  65.730  1.00  0.00    -0.066 C  
HETATM   23  O   UNL     1      -8.913   4.599  66.879  1.00  0.00    -0.110 OA 
ENDBRANCH  20  21
ENDBRANCH   9  20
BRANCH  10  24
HETATM   24  O   UNL     1      -8.715   9.108  67.013  1.00  0.00    -0.122 OA 
BRANCH  24  25
HETATM   25  C   UNL     1      -9.319   9.982  66.167  1.00  0.00    -0.173 C  
HETATM   26  O   UNL     1     -10.241   9.716  65.411  1.00  0.00    -0.192 OA 
HETATM   27  C   UNL     1      -8.659  11.326  66.254  1.00  0.00    -0.172 C  
ENDBRANCH  24  25
ENDBRANCH  10  24
ENDBRANCH   5   6
ENDBRANCH   4   5
ENDBRANCH   2   4
TORSDOF 8
ENDMDL
MODEL      159
REMARK 921   NORMALIZED FREE ENERGY PREDICTED BY IDOCK:   -2.94 KCAL/MOL
REMARK 922        TOTAL FREE ENERGY PREDICTED BY IDOCK:   -5.72 KCAL/MOL
REMARK 923 INTER-LIGAND FREE ENERGY PREDICTED BY IDOCK:   -4.85 KCAL/MOL
REMARK 924 INTRA-LIGAND FREE ENERGY PREDICTED BY IDOCK:   -0.87 KCAL/MOL
REMARK 927      BINDING AFFINITY PREDICTED BY RF-SCORE:    0.00 PKD
ROOT
HETATM    1  C   UNL     1     -10.590  11.583  66.664  1.00  0.00    -0.294 C  
HETATM    2  C   UNL     1     -11.156  11.056  67.946  1.00  0.00    -0.288 C  
HETATM    3  O   UNL     1     -12.266  11.330  68.378  1.00  0.00    -0.604 OA 
ENDROOT
BRANCH   2   4
HETATM    4  O   UNL     1     -10.254  10.238  68.555  1.00  0.00    -0.160 OA 
BRANCH   4   5
HETATM    5  C   UNL     1     -10.582   9.863  69.897  1.00  0.00    -0.273 C  
BRANCH   5   6
HETATM    6  C   UNL     1     -10.572   8.348  70.109  1.00  0.00    -0.233 C  
HETATM    7  O   UNL     1     -10.377   7.724  68.837  1.00  0.00    -0.208 OA 
HETATM    8  C   UNL     1      -9.738   6.465  69.077  1.00  0.00    -0.134 C  
HETATM    9  C   UNL     1      -8.853   6.644  70.320  1.00  0.00    -0.152 C  
HETATM   10  C   UNL     1      -9.462   7.855  71.042  1.00  0.00    -0.156 C  
BRANCH   8  11
HETATM   11  N   UNL     1      -9.015   6.059  67.870  1.00  0.00    -0.119 N  
HETATM   12  N   UNL     1      -8.445   4.400  66.326  1.00  0.00    -0.112 N  
HETATM   13  C   UNL     1      -8.309   6.981  67.117  1.00  0.00    -0.121 C  
HETATM   14  O   UNL     1      -7.387   4.954  64.385  1.00  0.00    -0.057 OA 
HETATM   15  H   UNL     1      -8.434   3.415  66.061  1.00  0.00     0.000 HD 
HETATM   16  C   UNL     1      -7.724   6.660  65.963  1.00  0.00    -0.089 C  
HETATM   17  C   UNL     1      -9.081   4.724  67.498  1.00  0.00    -0.118 C  
HETATM   18  C   UNL     1      -7.827   5.275  65.482  1.00  0.00    -0.093 C  
HETATM   19  O   UNL     1      -9.677   3.862  68.140  1.00  0.00    -0.146 OA 
ENDBRANCH   8  11
BRANCH   9  20
HETATM   20  O   UNL     1      -8.901   5.464  71.145  1.00  0.00    -0.133 OA 
BRANCH  20  21
HETATM   21  C   UNL     1      -7.881   4.576  71.025  1.00  0.00    -0.073 C  
HETATM   22  C   UNL     1      -6.595   5.290  70.729  1.00  0.00    -0.039 C  
HETATM   23  O   UNL     1      -7.983   3.364  71.134  1.00  0.00    -0.057 OA 
ENDBRANCH  20  21
ENDBRANCH   9  20
BRANCH  10  24
HETATM   24  O   UNL     1     -10.047   7.471  72.304  1.00  0.00    -0.185 OA 
BRANCH  24  25
HETATM   25  C   UNL     1     -11.401   7.504  72.401  1.00  0.00    -0.312 C  
HETATM   26  O   UNL     1     -12.071   8.492  72.664  1.00  0.00    -0.378 OA 
HETATM   27  C   UNL     1     -11.969   6.132  72.188  1.00  0.00    -0.314 C  
ENDBRANCH  24  25
ENDBRANCH  10  24
ENDBRANCH   5   6
ENDBRANCH   4   5
ENDBRANCH   2   4
TORSDOF 8
ENDMDL
MODEL      160
REMARK 921   NORMALIZED FREE ENERGY PREDICTED BY IDOCK:   -2.89 KCAL/MOL
REMARK 922        TOTAL FREE ENERGY PREDICTED BY IDOCK:   -5.65 KCAL/MOL
REMARK 923 INTER-LIGAND FREE ENERGY PREDICTED BY IDOCK:   -5.57 KCAL/MOL
REMARK 924 INTRA-LIGAND FREE ENERGY PREDICTED BY IDOCK:   -0.08 KCAL/MOL
REMARK 927      BINDING AFFINITY PREDICTED BY RF-SCORE:    0.00 PKD
ROOT
HETATM    1  C   UNL     1      -5.453  10.527  64.103  1.00  0.00    -0.134 C  
HETATM    2  C   UNL     1      -6.070  10.390  65.460  1.00  0.00    -0.123 C  
HETATM    3  O   UNL     1      -6.476   9.339  65.933  1.00  0.00    -0.069 OA 
ENDROOT
BRANCH   2   4
HETATM    4  O   UNL     1      -6.114  11.601  66.079  1.00  0.00    -0.034 OA 
BRANCH   4   5
HETATM    5  C   UNL     1      -6.859  11.634  67.300  1.00  0.00    -0.129 C  
BRANCH   5   6
HETATM    6  C   UNL     1      -8.372  11.616  67.074  1.00  0.00    -0.169 C  
HETATM    7  O   UNL     1      -8.916  10.510  67.800  1.00  0.00    -0.131 OA 
HETATM    8  C   UNL     1     -10.268  10.846  68.132  1.00  0.00    -0.176 C  
HETATM    9  C   UNL     1     -10.316  12.369  68.323  1.00  0.00    -0.227 C  
HETATM   10  C   UNL     1      -9.091  12.882  67.552  1.00  0.00    -0.191 C  
BRANCH   8  11
HETATM   11  N   UNL     1     -10.677  10.072  69.307  1.00  0.00    -0.213 N  
HETATM   12  N   UNL     1     -10.531   8.120  70.583  1.00  0.00    -0.207 N  
HETATM   13  C   UNL     1     -11.516  10.617  70.262  1.00  0.00    -0.337 C  
HETATM   14  O   UNL     1     -11.442   8.044  72.671  1.00  0.00    -0.381 OA 
HETATM   15  H   UNL     1     -10.220   7.153  70.674  1.00  0.00     0.000 HD 
HETATM   16  C   UNL     1     -11.826   9.973  71.388  1.00  0.00    -0.447 C  
HETATM   17  C   UNL     1     -10.177   8.784  69.435  1.00  0.00    -0.210 C  
HETATM   18  C   UNL     1     -11.261   8.635  71.613  1.00  0.00    -0.309 C  
HETATM   19  O   UNL     1      -9.444   8.247  68.607  1.00  0.00    -0.146 OA 
ENDBRANCH   8  11
BRANCH   9  20
HETATM   20  O   UNL     1     -11.538  12.906  67.782  1.00  0.00    -0.300 OA 
BRANCH  20  21
HETATM   21  C   UNL     1     -11.916  14.141  68.198  1.00  0.00    -0.332 C  
HETATM   22  C   UNL     1     -11.869  14.230  69.695  1.00  0.00    -0.370 C  
HETATM   23  O   UNL     1     -12.256  15.060  67.467  1.00  0.00    -0.071 OA 
ENDBRANCH  20  21
ENDBRANCH   9  20
BRANCH  10  24
HETATM   24  O   UNL     1      -9.485  13.659  66.402  1.00  0.00    -0.273 OA 
BRANCH  24  25
HETATM   25  C   UNL     1      -8.976  14.912  66.289  1.00  0.00    -0.158 C  
HETATM   26  O   UNL     1      -8.009  15.344  66.899  1.00  0.00    -0.218 OA 
HETATM   27  C   UNL     1      -9.803  15.724  65.337  1.00  0.00    -0.212 C  
ENDBRANCH  24  25
ENDBRANCH  10  24
ENDBRANCH   5   6
ENDBRANCH   4   5
ENDBRANCH   2   4
TORSDOF 8
ENDMDL
MODEL      161
REMARK 921   NORMALIZED FREE ENERGY PREDICTED BY IDOCK:   -2.88 KCAL/MOL
REMARK 922        TOTAL FREE ENERGY PREDICTED BY IDOCK:   -5.64 KCAL/MOL
REMARK 923 INTER-LIGAND FREE ENERGY PREDICTED BY IDOCK:   -4.88 KCAL/MOL
REMARK 924 INTRA-LIGAND FREE ENERGY PREDICTED BY IDOCK:   -0.75 KCAL/MOL
REMARK 927      BINDING AFFINITY PREDICTED BY RF-SCORE:    0.00 PKD
ROOT
HETATM    1  C   UNL     1      -9.451  10.079  62.522  1.00  0.00    -0.232 C  
HETATM    2  C   UNL     1      -9.407  10.714  63.877  1.00  0.00    -0.267 C  
HETATM    3  O   UNL     1     -10.198  11.557  64.272  1.00  0.00    -0.265 OA 
ENDROOT
BRANCH   2   4
HETATM    4  O   UNL     1      -8.360  10.221  64.593  1.00  0.00    -0.162 OA 
BRANCH   4   5
HETATM    5  C   UNL     1      -8.559  10.173  66.009  1.00  0.00    -0.141 C  
BRANCH   5   6
HETATM    6  C   UNL     1      -9.512   9.055  66.437  1.00  0.00    -0.226 C  
HETATM    7  O   UNL     1      -8.857   7.803  66.211  1.00  0.00    -0.146 OA 
HETATM    8  C   UNL     1      -9.399   6.868  67.150  1.00  0.00    -0.141 C  
HETATM    9  C   UNL     1      -9.767   7.662  68.412  1.00  0.00    -0.158 C  
HETATM   10  C   UNL     1      -9.914   9.108  67.914  1.00  0.00    -0.186 C  
BRANCH   8  11
HETATM   11  N   UNL     1      -8.426   5.795  67.369  1.00  0.00    -0.104 N  
HETATM   12  N   UNL     1      -6.313   5.110  68.095  1.00  0.00    -0.035 N  
HETATM   13  C   UNL     1      -8.758   4.472  67.135  1.00  0.00    -0.104 C  
HETATM   14  O   UNL     1      -5.851   2.893  68.353  1.00  0.00    -0.022 OA 
HETATM   15  H   UNL     1      -5.366   5.350  68.389  1.00  0.00     0.000 HD 
HETATM   16  C   UNL     1      -7.928   3.469  67.418  1.00  0.00    -0.082 C  
HETATM   17  C   UNL     1      -7.170   6.151  67.839  1.00  0.00    -0.083 C  
HETATM   18  C   UNL     1      -6.611   3.784  67.991  1.00  0.00    -0.042 C  
HETATM   19  O   UNL     1      -6.818   7.311  68.046  1.00  0.00    -0.065 OA 
ENDBRANCH   8  11
BRANCH   9  20
HETATM   20  O   UNL     1     -11.000   7.173  68.973  1.00  0.00    -0.182 OA 
BRANCH  20  21
HETATM   21  C   UNL     1     -10.921   6.439  70.111  1.00  0.00    -0.334 C  
HETATM   22  C   UNL     1     -12.004   6.835  71.070  1.00  0.00    -0.431 C  
HETATM   23  O   UNL     1     -10.084   5.578  70.340  1.00  0.00    -0.196 OA 
ENDBRANCH  20  21
ENDBRANCH   9  20
BRANCH  10  24
HETATM   24  O   UNL     1     -11.282   9.557  68.011  1.00  0.00    -0.090 OA 
BRANCH  24  25
HETATM   25  C   UNL     1     -11.492  10.871  68.281  1.00  0.00    -0.305 C  
HETATM   26  O   UNL     1     -11.731  11.737  67.454  1.00  0.00    -0.532 OA 
HETATM   27  C   UNL     1     -11.338  11.127  69.751  1.00  0.00    -0.354 C  
ENDBRANCH  24  25
ENDBRANCH  10  24
ENDBRANCH   5   6
ENDBRANCH   4   5
ENDBRANCH   2   4
TORSDOF 8
ENDMDL
MODEL      162
REMARK 921   NORMALIZED FREE ENERGY PREDICTED BY IDOCK:   -2.87 KCAL/MOL
REMARK 922        TOTAL FREE ENERGY PREDICTED BY IDOCK:   -5.61 KCAL/MOL
REMARK 923 INTER-LIGAND FREE ENERGY PREDICTED BY IDOCK:   -6.08 KCAL/MOL
REMARK 924 INTRA-LIGAND FREE ENERGY PREDICTED BY IDOCK:    0.47 KCAL/MOL
REMARK 927      BINDING AFFINITY PREDICTED BY RF-SCORE:    0.00 PKD
ROOT
HETATM    1  C   UNL     1      -5.346  10.183  63.738  1.00  0.00    -0.119 C  
HETATM    2  C   UNL     1      -5.813   9.564  65.019  1.00  0.00    -0.066 C  
HETATM    3  O   UNL     1      -5.918   8.362  65.209  1.00  0.00    -0.044 OA 
ENDROOT
BRANCH   2   4
HETATM    4  O   UNL     1      -6.105  10.533  65.929  1.00  0.00    -0.104 OA 
BRANCH   4   5
HETATM    5  C   UNL     1      -6.925  10.113  67.024  1.00  0.00    -0.088 C  
BRANCH   5   6
HETATM    6  C   UNL     1      -8.415  10.096  66.678  1.00  0.00    -0.126 C  
HETATM    7  O   UNL     1      -9.083   9.271  67.637  1.00  0.00    -0.125 OA 
HETATM    8  C   UNL     1     -10.430   9.746  67.738  1.00  0.00    -0.246 C  
HETATM    9  C   UNL     1     -10.390  11.260  67.484  1.00  0.00    -0.194 C  
HETATM   10  C   UNL     1      -9.080  11.475  66.711  1.00  0.00    -0.181 C  
BRANCH   8  11
HETATM   11  N   UNL     1     -10.975   9.362  69.042  1.00  0.00    -0.129 N  
HETATM   12  N   UNL     1     -11.460   7.701  70.612  1.00  0.00    -0.331 N  
HETATM   13  C   UNL     1     -11.422  10.318  69.937  1.00  0.00    -0.273 C  
HETATM   14  O   UNL     1     -12.089   8.270  72.728  1.00  0.00    -0.353 OA 
HETATM   15  H   UNL     1     -11.543   6.711  70.845  1.00  0.00     0.000 HD 
HETATM   16  C   UNL     1     -11.831  10.006  71.167  1.00  0.00    -0.481 C  
HETATM   17  C   UNL     1     -11.006   8.011  69.356  1.00  0.00    -0.009 C  
HETATM   18  C   UNL     1     -11.812   8.595  71.580  1.00  0.00    -0.306 C  
HETATM   19  O   UNL     1     -10.638   7.121  68.591  1.00  0.00    -0.201 OA 
ENDBRANCH   8  11
BRANCH   9  20
HETATM   20  O   UNL     1     -11.531  11.670  66.705  1.00  0.00    -0.427 OA 
BRANCH  20  21
HETATM   21  C   UNL     1     -11.960  12.949  66.852  1.00  0.00    -0.335 C  
HETATM   22  C   UNL     1     -12.622  13.431  65.595  1.00  0.00    -0.496 C  
HETATM   23  O   UNL     1     -11.826  13.628  67.860  1.00  0.00    -0.339 OA 
ENDBRANCH  20  21
ENDBRANCH   9  20
BRANCH  10  24
HETATM   24  O   UNL     1      -9.337  11.903  65.357  1.00  0.00    -0.164 OA 
BRANCH  24  25
HETATM   25  C   UNL     1      -9.574  10.939  64.430  1.00  0.00    -0.265 C  
HETATM   26  O   UNL     1      -9.192   9.781  64.497  1.00  0.00    -0.243 OA 
HETATM   27  C   UNL     1     -10.337  11.511  63.272  1.00  0.00    -0.435 C  
ENDBRANCH  24  25
ENDBRANCH  10  24
ENDBRANCH   5   6
ENDBRANCH   4   5
ENDBRANCH   2   4
TORSDOF 8
ENDMDL
MODEL      163
REMARK 921   NORMALIZED FREE ENERGY PREDICTED BY IDOCK:   -2.85 KCAL/MOL
REMARK 922        TOTAL FREE ENERGY PREDICTED BY IDOCK:   -5.59 KCAL/MOL
REMARK 923 INTER-LIGAND FREE ENERGY PREDICTED BY IDOCK:   -5.98 KCAL/MOL
REMARK 924 INTRA-LIGAND FREE ENERGY PREDICTED BY IDOCK:    0.38 KCAL/MOL
REMARK 927      BINDING AFFINITY PREDICTED BY RF-SCORE:    0.00 PKD
ROOT
HETATM    1  C   UNL     1      -9.333   8.590  68.730  1.00  0.00    -0.143 C  
HETATM    2  C   UNL     1      -9.762   8.419  67.306  1.00  0.00    -0.184 C  
HETATM    3  O   UNL     1      -9.850   7.343  66.734  1.00  0.00    -0.201 OA 
ENDROOT
BRANCH   2   4
HETATM    4  O   UNL     1     -10.030   9.631  66.748  1.00  0.00    -0.198 OA 
BRANCH   4   5
HETATM    5  C   UNL     1      -9.151  10.690  67.141  1.00  0.00    -0.143 C  
BRANCH   5   6
HETATM    6  C   UNL     1      -9.895  11.984  67.477  1.00  0.00    -0.186 C  
HETATM    7  O   UNL     1      -9.050  12.775  68.319  1.00  0.00    -0.199 OA 
HETATM    8  C   UNL     1      -9.402  14.146  68.104  1.00  0.00    -0.206 C  
HETATM    9  C   UNL     1      -9.856  14.266  66.641  1.00  0.00    -0.281 C  
HETATM   10  C   UNL     1     -10.254  12.834  66.254  1.00  0.00    -0.253 C  
BRANCH   8  11
HETATM   11  N   UNL     1      -8.261  14.992  68.457  1.00  0.00    -0.143 N  
HETATM   12  N   UNL     1      -6.005  15.545  68.193  1.00  0.00    -0.120 N  
HETATM   13  C   UNL     1      -8.409  16.069  69.314  1.00  0.00    -0.217 C  
HETATM   14  O   UNL     1      -5.188  17.482  69.075  1.00  0.00    -0.153 OA 
HETATM   15  H   UNL     1      -5.082  15.311  67.830  1.00  0.00     0.000 HD 
HETATM   16  C   UNL     1      -7.411  16.913  69.576  1.00  0.00     0.164 C  
HETATM   17  C   UNL     1      -7.032  14.688  67.888  1.00  0.00    -0.159 C  
HETATM   18  C   UNL     1      -6.107  16.683  68.938  1.00  0.00    -0.154 C  
HETATM   19  O   UNL     1      -6.842  13.733  67.137  1.00  0.00    -0.141 OA 
ENDBRANCH   8  11
BRANCH   9  20
HETATM   20  O   UNL     1     -10.975  15.168  66.534  1.00  0.00    -0.320 OA 
BRANCH  20  21
HETATM   21  C   UNL     1     -11.375  15.802  67.665  1.00  0.00    -0.194 C  
HETATM   22  C   UNL     1     -10.913  17.230  67.660  1.00  0.00    -0.133 C  
HETATM   23  O   UNL     1     -12.017  15.293  68.571  1.00  0.00    -0.310 OA 
ENDBRANCH  20  21
ENDBRANCH   9  20
BRANCH  10  24
HETATM   24  O   UNL     1     -11.673  12.733  66.014  1.00  0.00    -0.372 OA 
BRANCH  24  25
HETATM   25  C   UNL     1     -12.077  12.511  64.737  1.00  0.00    -0.434 C  
HETATM   26  O   UNL     1     -13.227  12.299  64.382  1.00  0.00    -0.806 OA 
HETATM   27  C   UNL     1     -10.896  12.512  63.813  1.00  0.00    -0.489 C  
ENDBRANCH  24  25
ENDBRANCH  10  24
ENDBRANCH   5   6
ENDBRANCH   4   5
ENDBRANCH   2   4
TORSDOF 8
ENDMDL
MODEL      164
REMARK 921   NORMALIZED FREE ENERGY PREDICTED BY IDOCK:   -2.83 KCAL/MOL
REMARK 922        TOTAL FREE ENERGY PREDICTED BY IDOCK:   -5.55 KCAL/MOL
REMARK 923 INTER-LIGAND FREE ENERGY PREDICTED BY IDOCK:   -4.99 KCAL/MOL
REMARK 924 INTRA-LIGAND FREE ENERGY PREDICTED BY IDOCK:   -0.56 KCAL/MOL
REMARK 927      BINDING AFFINITY PREDICTED BY RF-SCORE:    0.00 PKD
ROOT
HETATM    1  C   UNL     1     -12.736  10.822  71.477  1.00  0.00    -0.536 C  
HETATM    2  C   UNL     1     -11.975   9.760  70.747  1.00  0.00    -0.299 C  
HETATM    3  O   UNL     1     -12.043   8.565  70.994  1.00  0.00    -0.282 OA 
ENDROOT
BRANCH   2   4
HETATM    4  O   UNL     1     -11.198  10.321  69.780  1.00  0.00    -0.248 OA 
BRANCH   4   5
HETATM    5  C   UNL     1     -11.913  10.992  68.738  1.00  0.00    -0.225 C  
BRANCH   5   6
HETATM    6  C   UNL     1     -11.067  11.205  67.481  1.00  0.00    -0.291 C  
HETATM    7  O   UNL     1     -10.552  12.540  67.515  1.00  0.00    -0.216 OA 
HETATM    8  C   UNL     1      -9.325  12.538  66.777  1.00  0.00    -0.230 C  
HETATM    9  C   UNL     1      -8.694  11.150  66.964  1.00  0.00    -0.148 C  
HETATM   10  C   UNL     1      -9.875  10.252  67.359  1.00  0.00    -0.179 C  
BRANCH   8  11
HETATM   11  N   UNL     1      -8.490  13.651  67.236  1.00  0.00    -0.197 N  
HETATM   12  N   UNL     1      -6.819  14.464  68.653  1.00  0.00    -0.090 N  
HETATM   13  C   UNL     1      -8.547  14.887  66.617  1.00  0.00    -0.172 C  
HETATM   14  O   UNL     1      -5.914  16.525  68.294  1.00  0.00    -0.115 OA 
HETATM   15  H   UNL     1      -6.216  14.331  69.465  1.00  0.00     0.000 HD 
HETATM   16  C   UNL     1      -7.731  15.888  66.950  1.00  0.00    -0.268 C  
HETATM   17  C   UNL     1      -7.629  13.415  68.299  1.00  0.00    -0.135 C  
HETATM   18  C   UNL     1      -6.745  15.668  68.018  1.00  0.00    -0.136 C  
HETATM   19  O   UNL     1      -7.553  12.342  68.895  1.00  0.00    -0.073 OA 
ENDBRANCH   8  11
BRANCH   9  20
HETATM   20  O   UNL     1      -8.086  10.705  65.735  1.00  0.00    -0.159 OA 
BRANCH  20  21
HETATM   21  C   UNL     1      -6.759  10.420  65.763  1.00  0.00    -0.126 C  
HETATM   22  C   UNL     1      -6.506   9.035  65.246  1.00  0.00    -0.068 C  
HETATM   23  O   UNL     1      -5.883  11.175  66.158  1.00  0.00    -0.144 OA 
ENDBRANCH  20  21
ENDBRANCH   9  20
BRANCH  10  24
HETATM   24  O   UNL     1     -10.158   9.278  66.332  1.00  0.00    -0.271 OA 
BRANCH  24  25
HETATM   25  C   UNL     1      -9.863   7.980  66.603  1.00  0.00    -0.252 C  
HETATM   26  O   UNL     1      -9.506   7.147  65.784  1.00  0.00     0.096 OA 
HETATM   27  C   UNL     1     -10.086   7.692  68.058  1.00  0.00    -0.226 C  
ENDBRANCH  24  25
ENDBRANCH  10  24
ENDBRANCH   5   6
ENDBRANCH   4   5
ENDBRANCH   2   4
TORSDOF 8
ENDMDL
MODEL      165
REMARK 921   NORMALIZED FREE ENERGY PREDICTED BY IDOCK:   -2.82 KCAL/MOL
REMARK 922        TOTAL FREE ENERGY PREDICTED BY IDOCK:   -5.55 KCAL/MOL
REMARK 923 INTER-LIGAND FREE ENERGY PREDICTED BY IDOCK:   -5.52 KCAL/MOL
REMARK 924 INTRA-LIGAND FREE ENERGY PREDICTED BY IDOCK:   -0.03 KCAL/MOL
REMARK 927      BINDING AFFINITY PREDICTED BY RF-SCORE:    0.00 PKD
ROOT
HETATM    1  C   UNL     1     -13.931   9.179  72.374  1.00  0.00    -0.488 C  
HETATM    2  C   UNL     1     -13.204  10.315  71.725  1.00  0.00    -0.430 C  
HETATM    3  O   UNL     1     -13.250  11.475  72.108  1.00  0.00    -0.505 OA 
ENDROOT
BRANCH   2   4
HETATM    4  O   UNL     1     -12.498   9.868  70.651  1.00  0.00    -0.262 OA 
BRANCH   4   5
HETATM    5  C   UNL     1     -11.557  10.801  70.110  1.00  0.00    -0.337 C  
BRANCH   5   6
HETATM    6  C   UNL     1     -10.331  10.121  69.498  1.00  0.00    -0.240 C  
HETATM    7  O   UNL     1      -9.464   9.727  70.566  1.00  0.00    -0.229 OA 
HETATM    8  C   UNL     1      -8.719   8.592  70.110  1.00  0.00    -0.143 C  
HETATM    9  C   UNL     1      -9.628   7.822  69.141  1.00  0.00    -0.155 C  
HETATM   10  C   UNL     1     -10.654   8.867  68.680  1.00  0.00    -0.147 C  
BRANCH   8  11
HETATM   11  N   UNL     1      -8.272   7.817  71.269  1.00  0.00    -0.100 N  
HETATM   12  N   UNL     1      -8.691   6.965  73.405  1.00  0.00    -0.124 N  
HETATM   13  C   UNL     1      -7.057   7.155  71.259  1.00  0.00    -0.069 C  
HETATM   14  O   UNL     1      -7.292   5.414  74.316  1.00  0.00    -0.085 OA 
HETATM   15  H   UNL     1      -9.271   6.948  74.244  1.00  0.00     0.000 HD 
HETATM   16  C   UNL     1      -6.669   6.364  72.260  1.00  0.00    -0.068 C  
HETATM   17  C   UNL     1      -9.118   7.755  72.368  1.00  0.00    -0.155 C  
HETATM   18  C   UNL     1      -7.562   6.201  73.416  1.00  0.00    -0.096 C  
HETATM   19  O   UNL     1     -10.198   8.340  72.435  1.00  0.00    -0.278 OA 
ENDBRANCH   8  11
BRANCH   9  20
HETATM   20  O   UNL     1      -8.863   7.314  68.030  1.00  0.00    -0.130 OA 
BRANCH  20  21
HETATM   21  C   UNL     1      -8.862   5.971  67.836  1.00  0.00    -0.110 C  
HETATM   22  C   UNL     1      -9.509   5.627  66.526  1.00  0.00    -0.165 C  
HETATM   23  O   UNL     1      -8.409   5.144  68.613  1.00  0.00    -0.089 OA 
ENDBRANCH  20  21
ENDBRANCH   9  20
BRANCH  10  24
HETATM   24  O   UNL     1     -10.497   9.171  67.277  1.00  0.00    -0.254 OA 
BRANCH  24  25
HETATM   25  C   UNL     1     -10.583  10.474  66.906  1.00  0.00    -0.243 C  
HETATM   26  O   UNL     1     -11.605  11.144  66.893  1.00  0.00    -0.428 OA 
HETATM   27  C   UNL     1      -9.241  10.975  66.461  1.00  0.00    -0.187 C  
ENDBRANCH  24  25
ENDBRANCH  10  24
ENDBRANCH   5   6
ENDBRANCH   4   5
ENDBRANCH   2   4
TORSDOF 8
ENDMDL
MODEL      166
REMARK 921   NORMALIZED FREE ENERGY PREDICTED BY IDOCK:   -2.79 KCAL/MOL
REMARK 922        TOTAL FREE ENERGY PREDICTED BY IDOCK:   -5.50 KCAL/MOL
REMARK 923 INTER-LIGAND FREE ENERGY PREDICTED BY IDOCK:   -5.40 KCAL/MOL
REMARK 924 INTRA-LIGAND FREE ENERGY PREDICTED BY IDOCK:   -0.09 KCAL/MOL
REMARK 927      BINDING AFFINITY PREDICTED BY RF-SCORE:    0.00 PKD
ROOT
HETATM    1  C   UNL     1     -10.517   7.274  73.473  1.00  0.00    -0.421 C  
HETATM    2  C   UNL     1      -9.315   7.949  72.891  1.00  0.00    -0.246 C  
HETATM    3  O   UNL     1      -8.671   8.822  73.453  1.00  0.00    -0.284 OA 
ENDROOT
BRANCH   2   4
HETATM    4  O   UNL     1      -9.054   7.453  71.650  1.00  0.00    -0.131 OA 
BRANCH   4   5
HETATM    5  C   UNL     1      -8.547   8.405  70.709  1.00  0.00    -0.145 C  
BRANCH   5   6
HETATM    6  C   UNL     1      -9.410   8.513  69.451  1.00  0.00    -0.154 C  
HETATM    7  O   UNL     1     -10.057   9.790  69.466  1.00  0.00    -0.190 OA 
HETATM    8  C   UNL     1     -10.300  10.157  68.103  1.00  0.00    -0.185 C  
HETATM    9  C   UNL     1      -9.161   9.553  67.268  1.00  0.00    -0.134 C  
HETATM   10  C   UNL     1      -8.623   8.409  68.141  1.00  0.00    -0.139 C  
BRANCH   8  11
HETATM   11  N   UNL     1     -10.411  11.614  68.015  1.00  0.00    -0.186 N  
HETATM   12  N   UNL     1      -9.469  13.729  68.337  1.00  0.00    -0.222 N  
HETATM   13  C   UNL     1     -11.523  12.212  67.449  1.00  0.00    -0.345 C  
HETATM   14  O   UNL     1     -10.475  15.578  67.462  1.00  0.00    -0.269 OA 
HETATM   15  H   UNL     1      -8.730  14.309  68.733  1.00  0.00     0.000 HD 
HETATM   16  C   UNL     1     -11.608  13.530  67.267  1.00  0.00    -0.398 C  
HETATM   17  C   UNL     1      -9.353  12.372  68.500  1.00  0.00    -0.088 C  
HETATM   18  C   UNL     1     -10.483  14.375  67.692  1.00  0.00    -0.245 C  
HETATM   19  O   UNL     1      -8.352  11.892  69.027  1.00  0.00     0.047 OA 
ENDBRANCH   8  11
BRANCH   9  20
HETATM   20  O   UNL     1      -9.666   9.059  66.012  1.00  0.00    -0.265 OA 
BRANCH  20  21
HETATM   21  C   UNL     1      -9.204   9.647  64.879  1.00  0.00    -0.246 C  
HETATM   22  C   UNL     1      -7.707   9.564  64.815  1.00  0.00    -0.119 C  
HETATM   23  O   UNL     1      -9.898  10.180  64.026  1.00  0.00    -0.290 OA 
ENDBRANCH  20  21
ENDBRANCH   9  20
BRANCH  10  24
HETATM   24  O   UNL     1      -8.884   7.124  67.539  1.00  0.00    -0.120 OA 
BRANCH  24  25
HETATM   25  C   UNL     1      -9.733   6.289  68.191  1.00  0.00    -0.122 C  
HETATM   26  O   UNL     1      -9.420   5.501  69.070  1.00  0.00    -0.120 OA 
HETATM   27  C   UNL     1     -11.122   6.433  67.642  1.00  0.00    -0.388 C  
ENDBRANCH  24  25
ENDBRANCH  10  24
ENDBRANCH   5   6
ENDBRANCH   4   5
ENDBRANCH   2   4
TORSDOF 8
ENDMDL
MODEL      167
REMARK 921   NORMALIZED FREE ENERGY PREDICTED BY IDOCK:   -2.77 KCAL/MOL
REMARK 922        TOTAL FREE ENERGY PREDICTED BY IDOCK:   -5.47 KCAL/MOL
REMARK 923 INTER-LIGAND FREE ENERGY PREDICTED BY IDOCK:   -4.18 KCAL/MOL
REMARK 924 INTRA-LIGAND FREE ENERGY PREDICTED BY IDOCK:   -1.29 KCAL/MOL
REMARK 927      BINDING AFFINITY PREDICTED BY RF-SCORE:    0.00 PKD
ROOT
HETATM    1  C   UNL     1     -10.471   3.727  63.971  1.00  0.00    -0.271 C  
HETATM    2  C   UNL     1      -9.363   3.061  64.727  1.00  0.00    -0.148 C  
HETATM    3  O   UNL     1      -9.161   1.856  64.742  1.00  0.00    -0.123 OA 
ENDROOT
BRANCH   2   4
HETATM    4  O   UNL     1      -8.626   3.991  65.394  1.00  0.00    -0.111 OA 
BRANCH   4   5
HETATM    5  C   UNL     1      -9.268   5.256  65.581  1.00  0.00    -0.136 C  
BRANCH   5   6
HETATM    6  C   UNL     1      -8.442   6.221  66.434  1.00  0.00    -0.125 C  
HETATM    7  O   UNL     1      -8.500   7.513  65.823  1.00  0.00    -0.135 OA 
HETATM    8  C   UNL     1      -8.327   8.481  66.864  1.00  0.00    -0.109 C  
HETATM    9  C   UNL     1      -8.938   7.881  68.139  1.00  0.00    -0.131 C  
HETATM   10  C   UNL     1      -8.942   6.368  67.875  1.00  0.00    -0.114 C  
BRANCH   8  11
HETATM   11  N   UNL     1      -8.927   9.749  66.441  1.00  0.00    -0.148 N  
HETATM   12  N   UNL     1      -8.711  12.037  66.016  1.00  0.00    -0.404 N  
HETATM   13  C   UNL     1     -10.236   9.804  65.996  1.00  0.00    -0.193 C  
HETATM   14  O   UNL     1     -10.376  13.166  64.945  1.00  0.00    -0.323 OA 
HETATM   15  H   UNL     1      -8.164  12.894  66.088  1.00  0.00     0.000 HD 
HETATM   16  C   UNL     1     -10.777  10.923  65.514  1.00  0.00    -0.182 C  
HETATM   17  C   UNL     1      -8.131  10.885  66.483  1.00  0.00    -0.154 C  
HETATM   18  C   UNL     1      -9.954  12.140  65.464  1.00  0.00    -0.246 C  
HETATM   19  O   UNL     1      -6.969  10.893  66.887  1.00  0.00    -0.103 OA 
ENDBRANCH   8  11
BRANCH   9  20
HETATM   20  O   UNL     1      -8.132   8.210  69.287  1.00  0.00    -0.113 OA 
BRANCH  20  21
HETATM   21  C   UNL     1      -8.441   9.347  69.961  1.00  0.00    -0.190 C  
HETATM   22  C   UNL     1      -7.194  10.086  70.346  1.00  0.00    -0.119 C  
HETATM   23  O   UNL     1      -9.572   9.723  70.230  1.00  0.00    -0.249 OA 
ENDBRANCH  20  21
ENDBRANCH   9  20
BRANCH  10  24
HETATM   24  O   UNL     1      -8.031   5.681  68.758  1.00  0.00    -0.094 OA 
BRANCH  24  25
HETATM   25  C   UNL     1      -8.524   4.642  69.481  1.00  0.00    -0.078 C  
HETATM   26  O   UNL     1      -9.375   4.724  70.353  1.00  0.00    -0.130 OA 
HETATM   27  C   UNL     1      -7.835   3.368  69.091  1.00  0.00    -0.054 C  
ENDBRANCH  24  25
ENDBRANCH  10  24
ENDBRANCH   5   6
ENDBRANCH   4   5
ENDBRANCH   2   4
TORSDOF 8
ENDMDL
MODEL      168
REMARK 921   NORMALIZED FREE ENERGY PREDICTED BY IDOCK:   -2.73 KCAL/MOL
REMARK 922        TOTAL FREE ENERGY PREDICTED BY IDOCK:   -5.42 KCAL/MOL
REMARK 923 INTER-LIGAND FREE ENERGY PREDICTED BY IDOCK:   -4.97 KCAL/MOL
REMARK 924 INTRA-LIGAND FREE ENERGY PREDICTED BY IDOCK:   -0.45 KCAL/MOL
REMARK 927      BINDING AFFINITY PREDICTED BY RF-SCORE:    0.00 PKD
ROOT
HETATM    1  C   UNL     1     -12.297  12.759  63.952  1.00  0.00    -0.510 C  
HETATM    2  C   UNL     1     -11.042  11.960  63.786  1.00  0.00    -0.436 C  
HETATM    3  O   UNL     1     -10.356  11.950  62.775  1.00  0.00    -0.091 OA 
ENDROOT
BRANCH   2   4
HETATM    4  O   UNL     1     -10.786  11.248  64.917  1.00  0.00    -0.291 OA 
BRANCH   4   5
HETATM    5  C   UNL     1     -11.212  11.867  66.135  1.00  0.00    -0.333 C  
BRANCH   5   6
HETATM    6  C   UNL     1     -10.626  11.197  67.379  1.00  0.00    -0.234 C  
HETATM    7  O   UNL     1     -10.977   9.810  67.342  1.00  0.00    -0.259 OA 
HETATM    8  C   UNL     1      -9.963   9.098  68.059  1.00  0.00    -0.178 C  
HETATM    9  C   UNL     1      -8.649   9.866  67.856  1.00  0.00    -0.125 C  
HETATM   10  C   UNL     1      -9.100  11.285  67.476  1.00  0.00    -0.151 C  
BRANCH   8  11
HETATM   11  N   UNL     1      -9.934   7.710  67.592  1.00  0.00    -0.163 N  
HETATM   12  N   UNL     1      -9.366   6.151  65.946  1.00  0.00    -0.353 N  
HETATM   13  C   UNL     1     -10.369   6.676  68.401  1.00  0.00    -0.193 C  
HETATM   14  O   UNL     1      -9.471   3.919  66.396  1.00  0.00    -0.172 OA 
HETATM   15  H   UNL     1      -9.056   5.954  64.995  1.00  0.00     0.000 HD 
HETATM   16  C   UNL     1     -10.264   5.397  68.040  1.00  0.00    -0.221 C  
HETATM   17  C   UNL     1      -9.437   7.470  66.318  1.00  0.00    -0.096 C  
HETATM   18  C   UNL     1      -9.673   5.080  66.732  1.00  0.00    -0.174 C  
HETATM   19  O   UNL     1      -9.056   8.353  65.553  1.00  0.00    -0.152 OA 
ENDBRANCH   8  11
BRANCH   9  20
HETATM   20  O   UNL     1      -7.875   9.870  69.071  1.00  0.00    -0.084 OA 
BRANCH  20  21
HETATM   21  C   UNL     1      -7.216   8.729  69.395  1.00  0.00    -0.061 C  
HETATM   22  C   UNL     1      -6.744   8.780  70.819  1.00  0.00    -0.053 C  
HETATM   23  O   UNL     1      -7.020   7.788  68.642  1.00  0.00    -0.064 OA 
ENDBRANCH  20  21
ENDBRANCH   9  20
BRANCH  10  24
HETATM   24  O   UNL     1      -8.750  12.236  68.503  1.00  0.00    -0.157 OA 
BRANCH  24  25
HETATM   25  C   UNL     1      -8.096  13.362  68.115  1.00  0.00    -0.155 C  
HETATM   26  O   UNL     1      -8.601  14.316  67.543  1.00  0.00    -0.172 OA 
HETATM   27  C   UNL     1      -6.637  13.253  68.448  1.00  0.00    -0.093 C  
ENDBRANCH  24  25
ENDBRANCH  10  24
ENDBRANCH   5   6
ENDBRANCH   4   5
ENDBRANCH   2   4
TORSDOF 8
ENDMDL
MODEL      169
REMARK 921   NORMALIZED FREE ENERGY PREDICTED BY IDOCK:   -2.70 KCAL/MOL
REMARK 922        TOTAL FREE ENERGY PREDICTED BY IDOCK:   -5.37 KCAL/MOL
REMARK 923 INTER-LIGAND FREE ENERGY PREDICTED BY IDOCK:   -4.24 KCAL/MOL
REMARK 924 INTRA-LIGAND FREE ENERGY PREDICTED BY IDOCK:   -1.13 KCAL/MOL
REMARK 927      BINDING AFFINITY PREDICTED BY RF-SCORE:    0.00 PKD
ROOT
HETATM    1  C   UNL     1     -11.974   7.824  70.836  1.00  0.00    -0.229 C  
HETATM    2  C   UNL     1     -10.726   7.431  70.108  1.00  0.00    -0.242 C  
HETATM    3  O   UNL     1     -10.070   6.429  70.348  1.00  0.00    -0.181 OA 
ENDROOT
BRANCH   2   4
HETATM    4  O   UNL     1     -10.432   8.353  69.150  1.00  0.00    -0.220 OA 
BRANCH   4   5
HETATM    5  C   UNL     1      -9.201   9.057  69.341  1.00  0.00    -0.150 C  
BRANCH   5   6
HETATM    6  C   UNL     1      -8.347   9.114  68.073  1.00  0.00    -0.120 C  
HETATM    7  O   UNL     1      -8.207   7.781  67.572  1.00  0.00    -0.121 OA 
HETATM    8  C   UNL     1      -8.015   7.880  66.156  1.00  0.00    -0.104 C  
HETATM    9  C   UNL     1      -8.796   9.115  65.685  1.00  0.00    -0.185 C  
HETATM   10  C   UNL     1      -8.947   9.969  66.952  1.00  0.00    -0.135 C  
BRANCH   8  11
HETATM   11  N   UNL     1      -8.431   6.622  65.531  1.00  0.00    -0.150 N  
HETATM   12  N   UNL     1      -8.322   5.136  63.731  1.00  0.00    -0.130 N  
HETATM   13  C   UNL     1      -9.247   5.728  66.201  1.00  0.00    -0.156 C  
HETATM   14  O   UNL     1      -9.212   3.046  63.913  1.00  0.00    -0.100 OA 
HETATM   15  H   UNL     1      -8.034   4.939  62.772  1.00  0.00     0.000 HD 
HETATM   16  C   UNL     1      -9.561   4.534  65.696  1.00  0.00    -0.191 C  
HETATM   17  C   UNL     1      -7.962   6.353  64.252  1.00  0.00    -0.102 C  
HETATM   18  C   UNL     1      -9.028   4.165  64.377  1.00  0.00    -0.143 C  
HETATM   19  O   UNL     1      -7.252   7.121  63.607  1.00  0.00    -0.064 OA 
ENDBRANCH   8  11
BRANCH   9  20
HETATM   20  O   UNL     1      -8.059   9.817  64.665  1.00  0.00    -0.132 OA 
BRANCH  20  21
HETATM   21  C   UNL     1      -8.772  10.405  63.672  1.00  0.00    -0.198 C  
HETATM   22  C   UNL     1      -7.898  10.669  62.481  1.00  0.00    -0.173 C  
HETATM   23  O   UNL     1      -9.958  10.692  63.728  1.00  0.00    -0.317 OA 
ENDBRANCH  20  21
ENDBRANCH   9  20
BRANCH  10  24
HETATM   24  O   UNL     1      -8.198  11.197  66.847  1.00  0.00    -0.136 OA 
BRANCH  24  25
HETATM   25  C   UNL     1      -8.892  12.362  66.926  1.00  0.00    -0.205 C  
HETATM   26  O   UNL     1      -8.403  13.481  66.930  1.00  0.00    -0.124 OA 
HETATM   27  C   UNL     1     -10.359  12.081  67.059  1.00  0.00    -0.235 C  
ENDBRANCH  24  25
ENDBRANCH  10  24
ENDBRANCH   5   6
ENDBRANCH   4   5
ENDBRANCH   2   4
TORSDOF 8
ENDMDL
MODEL      170
REMARK 921   NORMALIZED FREE ENERGY PREDICTED BY IDOCK:   -2.70 KCAL/MOL
REMARK 922        TOTAL FREE ENERGY PREDICTED BY IDOCK:   -5.37 KCAL/MOL
REMARK 923 INTER-LIGAND FREE ENERGY PREDICTED BY IDOCK:   -6.00 KCAL/MOL
REMARK 924 INTRA-LIGAND FREE ENERGY PREDICTED BY IDOCK:    0.63 KCAL/MOL
REMARK 927      BINDING AFFINITY PREDICTED BY RF-SCORE:    0.00 PKD
ROOT
HETATM    1  C   UNL     1      -8.780   8.787  69.274  1.00  0.00    -0.135 C  
HETATM    2  C   UNL     1      -9.660   8.975  68.077  1.00  0.00    -0.148 C  
HETATM    3  O   UNL     1     -10.619   8.268  67.806  1.00  0.00    -0.227 OA 
ENDROOT
BRANCH   2   4
HETATM    4  O   UNL     1      -9.232  10.037  67.342  1.00  0.00    -0.137 OA 
BRANCH   4   5
HETATM    5  C   UNL     1      -8.588  11.074  68.088  1.00  0.00    -0.140 C  
BRANCH   5   6
HETATM    6  C   UNL     1      -9.439  12.341  68.200  1.00  0.00    -0.213 C  
HETATM    7  O   UNL     1      -8.555  13.458  68.332  1.00  0.00    -0.171 OA 
HETATM    8  C   UNL     1      -9.235  14.600  67.798  1.00  0.00    -0.196 C  
HETATM    9  C   UNL     1     -10.142  14.092  66.668  1.00  0.00    -0.276 C  
HETATM   10  C   UNL     1     -10.335  12.601  66.985  1.00  0.00    -0.232 C  
BRANCH   8  11
HETATM   11  N   UNL     1      -8.242  15.593  67.380  1.00  0.00    -0.162 N  
HETATM   12  N   UNL     1      -6.008  16.259  67.211  1.00  0.00    -0.158 N  
HETATM   13  C   UNL     1      -8.619  16.733  66.693  1.00  0.00    -0.252 C  
HETATM   14  O   UNL     1      -5.443  18.064  65.939  1.00  0.00    -0.165 OA 
HETATM   15  H   UNL     1      -5.030  16.121  67.465  1.00  0.00     0.000 HD 
HETATM   16  C   UNL     1      -7.729  17.604  66.216  1.00  0.00    -0.324 C  
HETATM   17  C   UNL     1      -6.910  15.338  67.679  1.00  0.00    -0.180 C  
HETATM   18  C   UNL     1      -6.299  17.343  66.437  1.00  0.00    -0.233 C  
HETATM   19  O   UNL     1      -6.524  14.351  68.302  1.00  0.00    -0.094 OA 
ENDBRANCH   8  11
BRANCH   9  20
HETATM   20  O   UNL     1     -11.399  14.796  66.677  1.00  0.00    -0.345 OA 
BRANCH  20  21
HETATM   21  C   UNL     1     -12.042  14.941  65.490  1.00  0.00    -0.036 C  
HETATM   22  C   UNL     1     -11.366  15.983  64.649  1.00  0.00    -0.312 C  
HETATM   23  O   UNL     1     -13.037  14.321  65.145  1.00  0.00    -0.704 OA 
ENDBRANCH  20  21
ENDBRANCH   9  20
BRANCH  10  24
HETATM   24  O   UNL     1     -11.704  12.317  67.344  1.00  0.00    -0.394 OA 
BRANCH  24  25
HETATM   25  C   UNL     1     -11.960  12.012  68.642  1.00  0.00    -0.235 C  
HETATM   26  O   UNL     1     -11.980  10.887  69.118  1.00  0.00    -0.326 OA 
HETATM   27  C   UNL     1     -12.269  13.261  69.415  1.00  0.00    -0.210 C  
ENDBRANCH  24  25
ENDBRANCH  10  24
ENDBRANCH   5   6
ENDBRANCH   4   5
ENDBRANCH   2   4
TORSDOF 8
ENDMDL
MODEL      171
REMARK 921   NORMALIZED FREE ENERGY PREDICTED BY IDOCK:   -2.70 KCAL/MOL
REMARK 922        TOTAL FREE ENERGY PREDICTED BY IDOCK:   -5.37 KCAL/MOL
REMARK 923 INTER-LIGAND FREE ENERGY PREDICTED BY IDOCK:   -4.93 KCAL/MOL
REMARK 924 INTRA-LIGAND FREE ENERGY PREDICTED BY IDOCK:   -0.44 KCAL/MOL
REMARK 927      BINDING AFFINITY PREDICTED BY RF-SCORE:    0.00 PKD
ROOT
HETATM    1  C   UNL     1     -13.936   8.913  72.427  1.00  0.00    -0.516 C  
HETATM    2  C   UNL     1     -12.983   7.967  71.764  1.00  0.00    -0.331 C  
HETATM    3  O   UNL     1     -12.782   6.818  72.128  1.00  0.00    -0.232 OA 
ENDROOT
BRANCH   2   4
HETATM    4  O   UNL     1     -12.376   8.577  70.709  1.00  0.00    -0.128 OA 
BRANCH   4   5
HETATM    5  C   UNL     1     -12.268  10.000  70.809  1.00  0.00    -0.315 C  
BRANCH   5   6
HETATM    6  C   UNL     1     -11.113  10.567  69.980  1.00  0.00    -0.308 C  
HETATM    7  O   UNL     1      -9.917   9.878  70.358  1.00  0.00    -0.259 OA 
HETATM    8  C   UNL     1      -9.040   9.903  69.227  1.00  0.00    -0.189 C  
HETATM    9  C   UNL     1      -9.927   9.882  67.973  1.00  0.00    -0.152 C  
HETATM   10  C   UNL     1     -11.286  10.398  68.468  1.00  0.00    -0.220 C  
BRANCH   8  11
HETATM   11  N   UNL     1      -8.102   8.782  69.326  1.00  0.00    -0.108 N  
HETATM   12  N   UNL     1      -6.096   7.901  70.139  1.00  0.00    -0.032 N  
HETATM   13  C   UNL     1      -8.401   7.551  68.771  1.00  0.00    -0.129 C  
HETATM   14  O   UNL     1      -5.669   5.669  69.964  1.00  0.00    -0.014 OA 
HETATM   15  H   UNL     1      -5.194   8.046  70.592  1.00  0.00     0.000 HD 
HETATM   16  C   UNL     1      -7.612   6.488  68.929  1.00  0.00    -0.100 C  
HETATM   17  C   UNL     1      -6.914   8.995  70.013  1.00  0.00    -0.050 C  
HETATM   18  C   UNL     1      -6.378   6.636  69.714  1.00  0.00    -0.042 C  
HETATM   19  O   UNL     1      -6.592  10.073  70.508  1.00  0.00    -0.118 OA 
ENDBRANCH   8  11
BRANCH   9  20
HETATM   20  O   UNL     1      -9.379  10.743  66.955  1.00  0.00    -0.155 OA 
BRANCH  20  21
HETATM   21  C   UNL     1      -8.106  10.502  66.553  1.00  0.00    -0.134 C  
HETATM   22  C   UNL     1      -7.217  11.660  66.898  1.00  0.00    -0.125 C  
HETATM   23  O   UNL     1      -7.724   9.492  65.982  1.00  0.00    -0.099 OA 
ENDBRANCH  20  21
ENDBRANCH   9  20
BRANCH  10  24
HETATM   24  O   UNL     1     -11.601  11.681  67.887  1.00  0.00    -0.366 OA 
BRANCH  24  25
HETATM   25  C   UNL     1     -11.488  12.774  68.685  1.00  0.00    -0.303 C  
HETATM   26  O   UNL     1     -12.232  13.058  69.611  1.00  0.00    -0.255 OA 
HETATM   27  C   UNL     1     -10.336  13.624  68.237  1.00  0.00    -0.251 C  
ENDBRANCH  24  25
ENDBRANCH  10  24
ENDBRANCH   5   6
ENDBRANCH   4   5
ENDBRANCH   2   4
TORSDOF 8
ENDMDL
MODEL      172
REMARK 921   NORMALIZED FREE ENERGY PREDICTED BY IDOCK:   -2.57 KCAL/MOL
REMARK 922        TOTAL FREE ENERGY PREDICTED BY IDOCK:   -5.18 KCAL/MOL
REMARK 923 INTER-LIGAND FREE ENERGY PREDICTED BY IDOCK:   -5.19 KCAL/MOL
REMARK 924 INTRA-LIGAND FREE ENERGY PREDICTED BY IDOCK:    0.01 KCAL/MOL
REMARK 927      BINDING AFFINITY PREDICTED BY RF-SCORE:    0.00 PKD
ROOT
HETATM    1  C   UNL     1      -8.387   9.927  65.760  1.00  0.00    -0.131 C  
HETATM    2  C   UNL     1      -9.499  10.886  65.471  1.00  0.00    -0.211 C  
HETATM    3  O   UNL     1     -10.209  10.844  64.477  1.00  0.00    -0.311 OA 
ENDROOT
BRANCH   2   4
HETATM    4  O   UNL     1      -9.598  11.806  66.469  1.00  0.00    -0.199 OA 
BRANCH   4   5
HETATM    5  C   UNL     1      -8.860  13.014  66.257  1.00  0.00     0.196 C  
BRANCH   5   6
HETATM    6  C   UNL     1      -9.672  14.270  66.583  1.00  0.00    -0.287 C  
HETATM    7  O   UNL     1      -8.924  15.050  67.521  1.00  0.00    -0.173 OA 
HETATM    8  C   UNL     1      -9.305  16.417  67.332  1.00  0.00    -0.221 C  
HETATM    9  C   UNL     1      -9.645  16.585  65.843  1.00  0.00    -0.248 C  
HETATM   10  C   UNL     1      -9.962  15.158  65.370  1.00  0.00    -0.330 C  
BRANCH   8  11
HETATM   11  N   UNL     1      -8.225  17.283  67.810  1.00  0.00    -0.200 N  
HETATM   12  N   UNL     1      -6.000  17.988  67.675  1.00  0.00    -0.153 N  
HETATM   13  C   UNL     1      -8.458  18.249  68.772  1.00  0.00    -0.221 C  
HETATM   14  O   UNL     1      -5.322  19.860  68.785  1.00  0.00    -0.196 OA 
HETATM   15  H   UNL     1      -5.056  17.848  67.317  1.00  0.00     0.000 HD 
HETATM   16  C   UNL     1      -7.518  19.115  69.154  1.00  0.00    -0.298 C  
HETATM   17  C   UNL     1      -6.967  17.113  67.248  1.00  0.00    -0.167 C  
HETATM   18  C   UNL     1      -6.188  19.030  68.535  1.00  0.00    -0.225 C  
HETATM   19  O   UNL     1      -6.702  16.259  66.404  1.00  0.00    -0.143 OA 
ENDBRANCH   8  11
BRANCH   9  20
HETATM   20  O   UNL     1     -10.782  17.455  65.682  1.00  0.00    -0.458 OA 
BRANCH  20  21
HETATM   21  C   UNL     1     -10.594  18.778  65.918  1.00  0.00    -0.352 C  
HETATM   22  C   UNL     1     -11.429  19.230  67.080  1.00  0.00     0.585 C  
HETATM   23  O   UNL     1      -9.857  19.512  65.278  1.00  0.00    -0.024 OA 
ENDBRANCH  20  21
ENDBRANCH   9  20
BRANCH  10  24
HETATM   24  O   UNL     1     -11.354  15.024  65.013  1.00  0.00    -0.370 OA 
BRANCH  24  25
HETATM   25  C   UNL     1     -12.146  14.303  65.847  1.00  0.00    -0.404 C  
HETATM   26  O   UNL     1     -12.450  14.618  66.988  1.00  0.00    -0.112 OA 
HETATM   27  C   UNL     1     -12.566  13.023  65.186  1.00  0.00    -0.530 C  
ENDBRANCH  24  25
ENDBRANCH  10  24
ENDBRANCH   5   6
ENDBRANCH   4   5
ENDBRANCH   2   4
TORSDOF 8
ENDMDL
MODEL      173
REMARK 921   NORMALIZED FREE ENERGY PREDICTED BY IDOCK:   -2.56 KCAL/MOL
REMARK 922        TOTAL FREE ENERGY PREDICTED BY IDOCK:   -5.17 KCAL/MOL
REMARK 923 INTER-LIGAND FREE ENERGY PREDICTED BY IDOCK:   -4.58 KCAL/MOL
REMARK 924 INTRA-LIGAND FREE ENERGY PREDICTED BY IDOCK:   -0.59 KCAL/MOL
REMARK 927      BINDING AFFINITY PREDICTED BY RF-SCORE:    0.00 PKD
ROOT
HETATM    1  C   UNL     1      -9.348  11.134  66.857  1.00  0.00    -0.189 C  
HETATM    2  C   UNL     1      -8.068  11.502  67.539  1.00  0.00    -0.137 C  
HETATM    3  O   UNL     1      -7.256  12.304  67.101  1.00  0.00    -0.144 OA 
ENDROOT
BRANCH   2   4
HETATM    4  O   UNL     1      -7.942  10.812  68.705  1.00  0.00    -0.119 OA 
BRANCH   4   5
HETATM    5  C   UNL     1      -6.791   9.967  68.791  1.00  0.00    -0.054 C  
BRANCH   5   6
HETATM    6  C   UNL     1      -7.143   8.517  69.131  1.00  0.00    -0.064 C  
HETATM    7  O   UNL     1      -8.093   8.531  70.201  1.00  0.00    -0.103 OA 
HETATM    8  C   UNL     1      -8.878   7.339  70.084  1.00  0.00    -0.145 C  
HETATM    9  C   UNL     1      -8.968   7.008  68.586  1.00  0.00    -0.130 C  
HETATM   10  C   UNL     1      -7.764   7.736  67.970  1.00  0.00    -0.126 C  
BRANCH   8  11
HETATM   11  N   UNL     1     -10.171   7.553  70.738  1.00  0.00    -0.194 N  
HETATM   12  N   UNL     1     -11.441   8.609  72.392  1.00  0.00    -0.348 N  
HETATM   13  C   UNL     1     -11.324   6.965  70.248  1.00  0.00    -0.324 C  
HETATM   14  O   UNL     1     -13.716   8.489  72.342  1.00  0.00    -0.343 OA 
HETATM   15  H   UNL     1     -11.480   9.170  73.242  1.00  0.00     0.000 HD 
HETATM   16  C   UNL     1     -12.527   7.220  70.763  1.00  0.00    -0.189 C  
HETATM   17  C   UNL     1     -10.200   8.382  71.851  1.00  0.00    -0.270 C  
HETATM   18  C   UNL     1     -12.626   8.152  71.896  1.00  0.00    -0.335 C  
HETATM   19  O   UNL     1      -9.204   8.913  72.337  1.00  0.00    -0.362 OA 
ENDBRANCH   8  11
BRANCH   9  20
HETATM   20  O   UNL     1      -8.882   5.585  68.380  1.00  0.00    -0.108 OA 
BRANCH  20  21
HETATM   21  C   UNL     1      -9.766   5.025  67.515  1.00  0.00    -0.157 C  
HETATM   22  C   UNL     1      -9.478   3.563  67.341  1.00  0.00    -0.234 C  
HETATM   23  O   UNL     1     -10.669   5.618  66.946  1.00  0.00    -0.283 OA 
ENDBRANCH  20  21
ENDBRANCH   9  20
BRANCH  10  24
HETATM   24  O   UNL     1      -6.791   6.798  67.462  1.00  0.00    -0.071 OA 
BRANCH  24  25
HETATM   25  C   UNL     1      -6.350   6.982  66.191  1.00  0.00    -0.050 C  
HETATM   26  O   UNL     1      -5.218   6.755  65.792  1.00  0.00    -0.021 OA 
HETATM   27  C   UNL     1      -7.445   7.557  65.342  1.00  0.00    -0.082 C  
ENDBRANCH  24  25
ENDBRANCH  10  24
ENDBRANCH   5   6
ENDBRANCH   4   5
ENDBRANCH   2   4
TORSDOF 8
ENDMDL
MODEL      174
REMARK 921   NORMALIZED FREE ENERGY PREDICTED BY IDOCK:   -2.56 KCAL/MOL
REMARK 922        TOTAL FREE ENERGY PREDICTED BY IDOCK:   -5.16 KCAL/MOL
REMARK 923 INTER-LIGAND FREE ENERGY PREDICTED BY IDOCK:   -3.74 KCAL/MOL
REMARK 924 INTRA-LIGAND FREE ENERGY PREDICTED BY IDOCK:   -1.42 KCAL/MOL
REMARK 927      BINDING AFFINITY PREDICTED BY RF-SCORE:    0.00 PKD
ROOT
HETATM    1  C   UNL     1      -9.702   3.427  64.485  1.00  0.00    -0.167 C  
HETATM    2  C   UNL     1      -9.723   3.883  65.911  1.00  0.00    -0.161 C  
HETATM    3  O   UNL     1      -9.481   3.166  66.871  1.00  0.00    -0.168 OA 
ENDROOT
BRANCH   2   4
HETATM    4  O   UNL     1     -10.056   5.201  65.977  1.00  0.00    -0.185 OA 
BRANCH   4   5
HETATM    5  C   UNL     1      -8.983   6.083  66.324  1.00  0.00    -0.149 C  
BRANCH   5   6
HETATM    6  C   UNL     1      -9.347   7.044  67.457  1.00  0.00    -0.123 C  
HETATM    7  O   UNL     1      -9.825   6.268  68.560  1.00  0.00    -0.133 OA 
HETATM    8  C   UNL     1      -9.548   7.012  69.752  1.00  0.00    -0.151 C  
HETATM    9  C   UNL     1      -8.260   7.808  69.492  1.00  0.00    -0.128 C  
HETATM   10  C   UNL     1      -8.174   7.890  67.961  1.00  0.00    -0.127 C  
BRANCH   8  11
HETATM   11  N   UNL     1      -9.472   6.086  70.884  1.00  0.00    -0.167 N  
HETATM   12  N   UNL     1     -10.136   5.486  73.043  1.00  0.00    -0.175 N  
HETATM   13  C   UNL     1      -8.734   4.918  70.802  1.00  0.00    -0.121 C  
HETATM   14  O   UNL     1      -9.619   3.426  73.872  1.00  0.00    -0.095 OA 
HETATM   15  H   UNL     1     -10.605   5.729  73.915  1.00  0.00     0.000 HD 
HETATM   16  C   UNL     1      -8.726   4.011  71.780  1.00  0.00    -0.132 C  
HETATM   17  C   UNL     1     -10.181   6.412  72.032  1.00  0.00    -0.194 C  
HETATM   18  C   UNL     1      -9.522   4.270  72.988  1.00  0.00    -0.121 C  
HETATM   19  O   UNL     1     -10.836   7.444  72.163  1.00  0.00    -0.220 OA 
ENDBRANCH   8  11
BRANCH   9  20
HETATM   20  O   UNL     1      -8.352   9.119  70.082  1.00  0.00    -0.129 OA 
BRANCH  20  21
HETATM   21  C   UNL     1      -7.263   9.581  70.748  1.00  0.00    -0.091 C  
HETATM   22  C   UNL     1      -6.730   8.532  71.678  1.00  0.00    -0.079 C  
HETATM   23  O   UNL     1      -6.779  10.696  70.622  1.00  0.00    -0.332 OA 
ENDBRANCH  20  21
ENDBRANCH   9  20
BRANCH  10  24
HETATM   24  O   UNL     1      -8.343   9.247  67.500  1.00  0.00    -0.117 OA 
BRANCH  24  25
HETATM   25  C   UNL     1      -7.583   9.650  66.449  1.00  0.00    -0.101 C  
HETATM   26  O   UNL     1      -7.952   9.704  65.285  1.00  0.00    -0.108 OA 
HETATM   27  C   UNL     1      -6.194   9.978  66.911  1.00  0.00    -0.064 C  
ENDBRANCH  24  25
ENDBRANCH  10  24
ENDBRANCH   5   6
ENDBRANCH   4   5
ENDBRANCH   2   4
TORSDOF 8
ENDMDL
MODEL      175
REMARK 921   NORMALIZED FREE ENERGY PREDICTED BY IDOCK:   -2.50 KCAL/MOL
REMARK 922        TOTAL FREE ENERGY PREDICTED BY IDOCK:   -5.07 KCAL/MOL
REMARK 923 INTER-LIGAND FREE ENERGY PREDICTED BY IDOCK:   -4.33 KCAL/MOL
REMARK 924 INTRA-LIGAND FREE ENERGY PREDICTED BY IDOCK:   -0.75 KCAL/MOL
REMARK 927      BINDING AFFINITY PREDICTED BY RF-SCORE:    0.00 PKD
ROOT
HETATM    1  C   UNL     1      -8.496   9.574  68.012  1.00  0.00    -0.119 C  
HETATM    2  C   UNL     1      -7.046   9.581  68.385  1.00  0.00    -0.071 C  
HETATM    3  O   UNL     1      -6.145   9.968  67.656  1.00  0.00    -0.056 OA 
ENDROOT
BRANCH   2   4
HETATM    4  O   UNL     1      -6.883   9.091  69.645  1.00  0.00    -0.048 OA 
BRANCH   4   5
HETATM    5  C   UNL     1      -6.206   7.833  69.726  1.00  0.00    -0.030 C  
BRANCH   5   6
HETATM    6  C   UNL     1      -7.133   6.684  70.126  1.00  0.00    -0.075 C  
HETATM    7  O   UNL     1      -8.149   7.212  70.984  1.00  0.00    -0.102 OA 
HETATM    8  C   UNL     1      -9.305   6.382  70.830  1.00  0.00    -0.158 C  
HETATM    9  C   UNL     1      -9.298   5.870  69.382  1.00  0.00    -0.130 C  
HETATM   10  C   UNL     1      -7.832   6.004  68.945  1.00  0.00    -0.096 C  
BRANCH   8  11
HETATM   11  N   UNL     1     -10.497   7.152  71.196  1.00  0.00    -0.210 N  
HETATM   12  N   UNL     1     -12.517   7.304  72.360  1.00  0.00    -0.505 N  
HETATM   13  C   UNL     1     -10.652   8.464  70.784  1.00  0.00    -0.207 C  
HETATM   14  O   UNL     1     -13.585   9.309  72.549  1.00  0.00    -0.467 OA 
HETATM   15  H   UNL     1     -13.257   6.850  72.895  1.00  0.00     0.000 HD 
HETATM   16  C   UNL     1     -11.677   9.218  71.182  1.00  0.00    -0.394 C  
HETATM   17  C   UNL     1     -11.451   6.526  71.986  1.00  0.00    -0.300 C  
HETATM   18  C   UNL     1     -12.679   8.629  72.083  1.00  0.00    -0.392 C  
HETATM   19  O   UNL     1     -11.370   5.359  72.363  1.00  0.00    -0.244 OA 
ENDBRANCH   8  11
BRANCH   9  20
HETATM   20  O   UNL     1      -9.737   4.498  69.332  1.00  0.00    -0.179 OA 
BRANCH  20  21
HETATM   21  C   UNL     1      -9.804   3.909  68.111  1.00  0.00     0.030 C  
HETATM   22  C   UNL     1     -10.209   4.906  67.066  1.00  0.00    -0.233 C  
HETATM   23  O   UNL     1      -9.576   2.730  67.882  1.00  0.00    -0.194 OA 
ENDBRANCH  20  21
ENDBRANCH   9  20
BRANCH  10  24
HETATM   24  O   UNL     1      -7.231   4.709  68.728  1.00  0.00    -0.052 OA 
BRANCH  24  25
HETATM   25  C   UNL     1      -6.183   4.643  67.867  1.00  0.00    -0.036 C  
HETATM   26  O   UNL     1      -5.157   4.005  68.045  1.00  0.00    -0.006 OA 
HETATM   27  C   UNL     1      -6.441   5.511  66.671  1.00  0.00    -0.050 C  
ENDBRANCH  24  25
ENDBRANCH  10  24
ENDBRANCH   5   6
ENDBRANCH   4   5
ENDBRANCH   2   4
TORSDOF 8
ENDMDL
MODEL      176
REMARK 921   NORMALIZED FREE ENERGY PREDICTED BY IDOCK:   -2.41 KCAL/MOL
REMARK 922        TOTAL FREE ENERGY PREDICTED BY IDOCK:   -4.94 KCAL/MOL
REMARK 923 INTER-LIGAND FREE ENERGY PREDICTED BY IDOCK:   -3.97 KCAL/MOL
REMARK 924 INTRA-LIGAND FREE ENERGY PREDICTED BY IDOCK:   -0.98 KCAL/MOL
REMARK 927      BINDING AFFINITY PREDICTED BY RF-SCORE:    0.00 PKD
ROOT
HETATM    1  C   UNL     1      -9.799   2.860  63.594  1.00  0.00    -0.138 C  
HETATM    2  C   UNL     1      -9.065   3.267  64.833  1.00  0.00    -0.141 C  
HETATM    3  O   UNL     1      -9.073   2.639  65.881  1.00  0.00    -0.145 OA 
ENDROOT
BRANCH   2   4
HETATM    4  O   UNL     1      -8.398   4.434  64.620  1.00  0.00    -0.102 OA 
BRANCH   4   5
HETATM    5  C   UNL     1      -7.779   5.002  65.779  1.00  0.00    -0.091 C  
BRANCH   5   6
HETATM    6  C   UNL     1      -8.596   6.142  66.389  1.00  0.00    -0.131 C  
HETATM    7  O   UNL     1      -9.273   5.635  67.543  1.00  0.00    -0.111 OA 
HETATM    8  C   UNL     1      -9.472   6.737  68.435  1.00  0.00    -0.126 C  
HETATM    9  C   UNL     1      -8.288   7.695  68.234  1.00  0.00    -0.125 C  
HETATM   10  C   UNL     1      -7.757   7.343  66.836  1.00  0.00    -0.110 C  
BRANCH   8  11
HETATM   11  N   UNL     1      -9.614   6.226  69.801  1.00  0.00    -0.150 N  
HETATM   12  N   UNL     1     -10.989   5.591  71.581  1.00  0.00    -0.211 N  
HETATM   13  C   UNL     1      -8.509   5.827  70.531  1.00  0.00    -0.127 C  
HETATM   14  O   UNL     1     -10.111   4.486  73.371  1.00  0.00    -0.147 OA 
HETATM   15  H   UNL     1     -11.915   5.566  72.008  1.00  0.00     0.000 HD 
HETATM   16  C   UNL     1      -8.616   5.268  71.737  1.00  0.00    -0.131 C  
HETATM   17  C   UNL     1     -10.896   6.137  70.325  1.00  0.00    -0.319 C  
HETATM   18  C   UNL     1      -9.957   5.078  72.309  1.00  0.00    -0.182 C  
HETATM   19  O   UNL     1     -11.908   6.494  69.726  1.00  0.00    -0.345 OA 
ENDBRANCH   8  11
BRANCH   9  20
HETATM   20  O   UNL     1      -8.733   9.064  68.296  1.00  0.00    -0.129 OA 
BRANCH  20  21
HETATM   21  C   UNL     1     -10.072   9.285  68.324  1.00  0.00    -0.185 C  
HETATM   22  C   UNL     1     -10.494   9.789  69.672  1.00  0.00    -0.263 C  
HETATM   23  O   UNL     1     -10.838   9.097  67.391  1.00  0.00    -0.243 OA 
ENDBRANCH  20  21
ENDBRANCH   9  20
BRANCH  10  24
HETATM   24  O   UNL     1      -7.965   8.430  65.910  1.00  0.00    -0.092 OA 
BRANCH  24  25
HETATM   25  C   UNL     1      -6.922   8.781  65.113  1.00  0.00    -0.079 C  
HETATM   26  O   UNL     1      -6.656   8.282  64.031  1.00  0.00    -0.070 OA 
HETATM   27  C   UNL     1      -6.102   9.847  65.776  1.00  0.00    -0.076 C  
ENDBRANCH  24  25
ENDBRANCH  10  24
ENDBRANCH   5   6
ENDBRANCH   4   5
ENDBRANCH   2   4
TORSDOF 8
ENDMDL
MODEL      177
REMARK 921   NORMALIZED FREE ENERGY PREDICTED BY IDOCK:   -2.34 KCAL/MOL
REMARK 922        TOTAL FREE ENERGY PREDICTED BY IDOCK:   -4.84 KCAL/MOL
REMARK 923 INTER-LIGAND FREE ENERGY PREDICTED BY IDOCK:   -3.86 KCAL/MOL
REMARK 924 INTRA-LIGAND FREE ENERGY PREDICTED BY IDOCK:   -0.99 KCAL/MOL
REMARK 927      BINDING AFFINITY PREDICTED BY RF-SCORE:    0.00 PKD
ROOT
HETATM    1  C   UNL     1     -11.160   6.214  68.231  1.00  0.00    -0.336 C  
HETATM    2  C   UNL     1     -10.767   6.385  69.666  1.00  0.00    -0.282 C  
HETATM    3  O   UNL     1     -11.537   6.690  70.563  1.00  0.00    -0.345 OA 
ENDROOT
BRANCH   2   4
HETATM    4  O   UNL     1      -9.433   6.157  69.817  1.00  0.00    -0.148 OA 
BRANCH   4   5
HETATM    5  C   UNL     1      -8.683   6.104  68.599  1.00  0.00    -0.112 C  
BRANCH   5   6
HETATM    6  C   UNL     1      -7.561   7.143  68.547  1.00  0.00    -0.115 C  
HETATM    7  O   UNL     1      -8.078   8.322  67.922  1.00  0.00    -0.123 OA 
HETATM    8  C   UNL     1      -7.331   9.432  68.432  1.00  0.00    -0.077 C  
HETATM    9  C   UNL     1      -6.936   9.081  69.874  1.00  0.00    -0.052 C  
HETATM   10  C   UNL     1      -7.019   7.548  69.921  1.00  0.00    -0.059 C  
BRANCH   8  11
HETATM   11  N   UNL     1      -8.137  10.648  68.302  1.00  0.00    -0.113 N  
HETATM   12  N   UNL     1     -10.068  11.851  68.838  1.00  0.00    -0.404 N  
HETATM   13  C   UNL     1      -7.669  11.742  67.596  1.00  0.00    -0.137 C  
HETATM   14  O   UNL     1     -10.224  14.064  68.311  1.00  0.00    -0.235 OA 
HETATM   15  H   UNL     1     -11.003  11.873  69.244  1.00  0.00     0.000 HD 
HETATM   16  C   UNL     1      -8.337  12.895  67.543  1.00  0.00    -0.183 C  
HETATM   17  C   UNL     1      -9.376  10.670  68.928  1.00  0.00    -0.184 C  
HETATM   18  C   UNL     1      -9.620  12.999  68.254  1.00  0.00    -0.213 C  
HETATM   19  O   UNL     1      -9.846   9.720  69.552  1.00  0.00    -0.188 OA 
ENDBRANCH   8  11
BRANCH   9  20
HETATM   20  O   UNL     1      -5.601   9.542  70.156  1.00  0.00    -0.034 OA 
BRANCH  20  21
HETATM   21  C   UNL     1      -5.434  10.347  71.236  1.00  0.00    -0.052 C  
HETATM   22  C   UNL     1      -5.156   9.531  72.464  1.00  0.00    -0.077 C  
HETATM   23  O   UNL     1      -5.505  11.567  71.225  1.00  0.00    -0.315 OA 
ENDBRANCH  20  21
ENDBRANCH   9  20
BRANCH  10  24
HETATM   24  O   UNL     1      -5.714   6.959  70.101  1.00  0.00    -0.022 OA 
BRANCH  24  25
HETATM   25  C   UNL     1      -5.653   5.744  70.703  1.00  0.00    -0.013 C  
HETATM   26  O   UNL     1      -5.501   4.675  70.131  1.00  0.00    -0.007 OA 
HETATM   27  C   UNL     1      -5.850   5.889  72.183  1.00  0.00    -0.031 C  
ENDBRANCH  24  25
ENDBRANCH  10  24
ENDBRANCH   5   6
ENDBRANCH   4   5
ENDBRANCH   2   4
TORSDOF 8
ENDMDL
MODEL      178
REMARK 921   NORMALIZED FREE ENERGY PREDICTED BY IDOCK:   -2.32 KCAL/MOL
REMARK 922        TOTAL FREE ENERGY PREDICTED BY IDOCK:   -4.81 KCAL/MOL
REMARK 923 INTER-LIGAND FREE ENERGY PREDICTED BY IDOCK:   -4.80 KCAL/MOL
REMARK 924 INTRA-LIGAND FREE ENERGY PREDICTED BY IDOCK:   -0.01 KCAL/MOL
REMARK 927      BINDING AFFINITY PREDICTED BY RF-SCORE:    0.00 PKD
ROOT
HETATM    1  C   UNL     1     -13.384   7.008  71.159  1.00  0.00    -0.188 C  
HETATM    2  C   UNL     1     -12.866   8.290  71.732  1.00  0.00    -0.338 C  
HETATM    3  O   UNL     1     -13.373   9.386  71.548  1.00  0.00    -0.364 OA 
ENDROOT
BRANCH   2   4
HETATM    4  O   UNL     1     -11.751   8.053  72.477  1.00  0.00    -0.367 OA 
BRANCH   4   5
HETATM    5  C   UNL     1     -10.991   6.905  72.087  1.00  0.00    -0.236 C  
BRANCH   5   6
HETATM    6  C   UNL     1      -9.565   7.255  71.656  1.00  0.00    -0.151 C  
HETATM    7  O   UNL     1      -9.473   7.070  70.240  1.00  0.00    -0.165 OA 
HETATM    8  C   UNL     1      -8.458   7.960  69.763  1.00  0.00    -0.132 C  
HETATM    9  C   UNL     1      -8.484   9.197  70.673  1.00  0.00    -0.209 C  
HETATM   10  C   UNL     1      -9.156   8.698  71.961  1.00  0.00    -0.241 C  
BRANCH   8  11
HETATM   11  N   UNL     1      -8.699   8.243  68.346  1.00  0.00    -0.133 N  
HETATM   12  N   UNL     1     -10.141   8.965  66.654  1.00  0.00    -0.279 N  
HETATM   13  C   UNL     1      -7.684   8.130  67.413  1.00  0.00    -0.102 C  
HETATM   14  O   UNL     1      -9.333   9.398  64.567  1.00  0.00    -0.189 OA 
HETATM   15  H   UNL     1     -11.082   9.212  66.350  1.00  0.00     0.000 HD 
HETATM   16  C   UNL     1      -7.849   8.475  66.136  1.00  0.00    -0.098 C  
HETATM   17  C   UNL     1      -9.975   8.647  67.978  1.00  0.00    -0.182 C  
HETATM   18  C   UNL     1      -9.160   8.983  65.706  1.00  0.00    -0.219 C  
HETATM   19  O   UNL     1     -10.916   8.744  68.763  1.00  0.00    -0.048 OA 
ENDBRANCH   8  11
BRANCH   9  20
HETATM   20  O   UNL     1      -7.144   9.662  70.927  1.00  0.00    -0.255 OA 
BRANCH  20  21
HETATM   21  C   UNL     1      -6.804  10.882  70.439  1.00  0.00     0.281 C  
HETATM   22  C   UNL     1      -7.633  11.216  69.234  1.00  0.00    -0.057 C  
HETATM   23  O   UNL     1      -5.940  11.612  70.900  1.00  0.00    -0.365 OA 
ENDBRANCH  20  21
ENDBRANCH   9  20
BRANCH  10  24
HETATM   24  O   UNL     1      -8.229   8.698  73.067  1.00  0.00    -0.402 OA 
BRANCH  24  25
HETATM   25  C   UNL     1      -7.665   7.511  73.410  1.00  0.00    -0.103 C  
HETATM   26  O   UNL     1      -6.678   7.016  72.887  1.00  0.00    -0.068 OA 
HETATM   27  C   UNL     1      -8.459   6.857  74.502  1.00  0.00    -0.195 C  
ENDBRANCH  24  25
ENDBRANCH  10  24
ENDBRANCH   5   6
ENDBRANCH   4   5
ENDBRANCH   2   4
TORSDOF 8
ENDMDL
MODEL      179
REMARK 921   NORMALIZED FREE ENERGY PREDICTED BY IDOCK:   -2.29 KCAL/MOL
REMARK 922        TOTAL FREE ENERGY PREDICTED BY IDOCK:   -4.77 KCAL/MOL
REMARK 923 INTER-LIGAND FREE ENERGY PREDICTED BY IDOCK:   -4.68 KCAL/MOL
REMARK 924 INTRA-LIGAND FREE ENERGY PREDICTED BY IDOCK:   -0.09 KCAL/MOL
REMARK 927      BINDING AFFINITY PREDICTED BY RF-SCORE:    0.00 PKD
ROOT
HETATM    1  C   UNL     1      -7.542   5.342  66.492  1.00  0.00    -0.088 C  
HETATM    2  C   UNL     1      -7.908   5.042  67.912  1.00  0.00    -0.090 C  
HETATM    3  O   UNL     1      -8.781   4.257  68.251  1.00  0.00    -0.093 OA 
ENDROOT
BRANCH   2   4
HETATM    4  O   UNL     1      -7.133   5.773  68.760  1.00  0.00    -0.068 OA 
BRANCH   4   5
HETATM    5  C   UNL     1      -7.801   6.857  69.412  1.00  0.00    -0.113 C  
BRANCH   5   6
HETATM    6  C   UNL     1      -8.622   7.715  68.448  1.00  0.00    -0.124 C  
HETATM    7  O   UNL     1      -9.871   8.018  69.077  1.00  0.00    -0.171 OA 
HETATM    8  C   UNL     1     -10.327   9.263  68.536  1.00  0.00    -0.209 C  
HETATM    9  C   UNL     1      -9.076  10.090  68.205  1.00  0.00    -0.121 C  
HETATM   10  C   UNL     1      -7.959   9.044  68.073  1.00  0.00    -0.101 C  
BRANCH   8  11
HETATM   11  N   UNL     1     -11.237   9.894  69.494  1.00  0.00    -0.210 N  
HETATM   12  N   UNL     1     -12.244   9.915  71.603  1.00  0.00    -0.401 N  
HETATM   13  C   UNL     1     -11.860  11.095  69.201  1.00  0.00    -0.350 C  
HETATM   14  O   UNL     1     -13.406  11.747  72.301  1.00  0.00    -0.455 OA 
HETATM   15  H   UNL     1     -12.448   9.439  72.482  1.00  0.00     0.000 HD 
HETATM   16  C   UNL     1     -12.615  11.740  70.090  1.00  0.00    -0.068 C  
HETATM   17  C   UNL     1     -11.437   9.256  70.710  1.00  0.00    -0.292 C  
HETATM   18  C   UNL     1     -12.798  11.147  71.423  1.00  0.00    -0.439 C  
HETATM   19  O   UNL     1     -10.924   8.180  71.012  1.00  0.00    -0.235 OA 
ENDBRANCH   8  11
BRANCH   9  20
HETATM   20  O   UNL     1      -9.263  10.814  66.973  1.00  0.00    -0.151 OA 
BRANCH  20  21
HETATM   21  C   UNL     1      -9.128  12.164  67.015  1.00  0.00    -0.198 C  
HETATM   22  C   UNL     1      -8.263  12.570  68.172  1.00  0.00    -0.170 C  
HETATM   23  O   UNL     1      -9.638  12.950  66.232  1.00  0.00    -0.265 OA 
ENDBRANCH  20  21
ENDBRANCH   9  20
BRANCH  10  24
HETATM   24  O   UNL     1      -7.478   8.961  66.715  1.00  0.00    -0.082 OA 
BRANCH  24  25
HETATM   25  C   UNL     1      -6.217   9.401  66.470  1.00  0.00    -0.065 C  
HETATM   26  O   UNL     1      -5.922  10.495  66.014  1.00  0.00    -0.087 OA 
HETATM   27  C   UNL     1      -5.223   8.325  66.795  1.00  0.00    -0.032 C  
ENDBRANCH  24  25
ENDBRANCH  10  24
ENDBRANCH   5   6
ENDBRANCH   4   5
ENDBRANCH   2   4
TORSDOF 8
ENDMDL
MODEL      180
REMARK 921   NORMALIZED FREE ENERGY PREDICTED BY IDOCK:   -2.21 KCAL/MOL
REMARK 922        TOTAL FREE ENERGY PREDICTED BY IDOCK:   -4.65 KCAL/MOL
REMARK 923 INTER-LIGAND FREE ENERGY PREDICTED BY IDOCK:   -4.16 KCAL/MOL
REMARK 924 INTRA-LIGAND FREE ENERGY PREDICTED BY IDOCK:   -0.49 KCAL/MOL
REMARK 927      BINDING AFFINITY PREDICTED BY RF-SCORE:    0.00 PKD
ROOT
HETATM    1  C   UNL     1     -10.648   3.430  63.706  1.00  0.00    -0.265 C  
HETATM    2  C   UNL     1      -9.484   2.757  64.366  1.00  0.00    -0.145 C  
HETATM    3  O   UNL     1      -9.477   1.594  64.738  1.00  0.00    -0.127 OA 
ENDROOT
BRANCH   2   4
HETATM    4  O   UNL     1      -8.447   3.631  64.492  1.00  0.00    -0.096 OA 
BRANCH   4   5
HETATM    5  C   UNL     1      -8.810   4.948  64.916  1.00  0.00    -0.152 C  
BRANCH   5   6
HETATM    6  C   UNL     1      -8.632   5.158  66.421  1.00  0.00    -0.112 C  
HETATM    7  O   UNL     1      -8.404   6.552  66.650  1.00  0.00    -0.109 OA 
HETATM    8  C   UNL     1      -8.875   6.846  67.970  1.00  0.00    -0.123 C  
HETATM    9  C   UNL     1     -10.058   5.904  68.242  1.00  0.00    -0.166 C  
HETATM   10  C   UNL     1      -9.847   4.745  67.257  1.00  0.00    -0.184 C  
BRANCH   8  11
HETATM   11  N   UNL     1      -9.202   8.271  68.053  1.00  0.00    -0.137 N  
HETATM   12  N   UNL     1      -8.915  10.346  69.090  1.00  0.00    -0.178 N  
HETATM   13  C   UNL     1     -10.029   8.869  67.118  1.00  0.00    -0.226 C  
HETATM   14  O   UNL     1      -9.741  12.237  68.121  1.00  0.00    -0.202 OA 
HETATM   15  H   UNL     1      -8.555  10.893  69.872  1.00  0.00     0.000 HD 
HETATM   16  C   UNL     1     -10.264  10.181  67.112  1.00  0.00    -0.278 C  
HETATM   17  C   UNL     1      -8.637   9.003  69.088  1.00  0.00    -0.133 C  
HETATM   18  C   UNL     1      -9.629  11.017  68.141  1.00  0.00    -0.171 C  
HETATM   19  O   UNL     1      -7.911   8.517  69.954  1.00  0.00    -0.100 OA 
ENDBRANCH   8  11
BRANCH   9  20
HETATM   20  O   UNL     1     -10.030   5.444  69.607  1.00  0.00    -0.185 OA 
BRANCH  20  21
HETATM   21  C   UNL     1     -10.524   6.278  70.557  1.00  0.00    -0.221 C  
HETATM   22  C   UNL     1      -9.781   6.104  71.849  1.00  0.00    -0.169 C  
HETATM   23  O   UNL     1     -11.449   7.060  70.399  1.00  0.00    -0.299 OA 
ENDBRANCH  20  21
ENDBRANCH   9  20
BRANCH  10  24
HETATM   24  O   UNL     1      -9.540   3.518  67.953  1.00  0.00    -0.190 OA 
BRANCH  24  25
HETATM   25  C   UNL     1      -8.230   3.215  68.139  1.00  0.00    -0.077 C  
HETATM   26  O   UNL     1      -7.519   2.618  67.344  1.00  0.00    -0.056 OA 
HETATM   27  C   UNL     1      -7.779   3.677  69.493  1.00  0.00    -0.051 C  
ENDBRANCH  24  25
ENDBRANCH  10  24
ENDBRANCH   5   6
ENDBRANCH   4   5
ENDBRANCH   2   4
TORSDOF 8
ENDMDL
MODEL      181
REMARK 921   NORMALIZED FREE ENERGY PREDICTED BY IDOCK:   -2.17 KCAL/MOL
REMARK 922        TOTAL FREE ENERGY PREDICTED BY IDOCK:   -4.59 KCAL/MOL
REMARK 923 INTER-LIGAND FREE ENERGY PREDICTED BY IDOCK:   -3.27 KCAL/MOL
REMARK 924 INTRA-LIGAND FREE ENERGY PREDICTED BY IDOCK:   -1.33 KCAL/MOL
REMARK 927      BINDING AFFINITY PREDICTED BY RF-SCORE:    0.00 PKD
ROOT
HETATM    1  C   UNL     1      -9.542  13.604  65.644  1.00  0.00    -0.026 C  
HETATM    2  C   UNL     1     -10.243  13.472  66.960  1.00  0.00    -0.249 C  
HETATM    3  O   UNL     1     -10.267  14.337  67.822  1.00  0.00    -0.231 OA 
ENDROOT
BRANCH   2   4
HETATM    4  O   UNL     1     -10.840  12.252  67.052  1.00  0.00    -0.235 OA 
BRANCH   4   5
HETATM    5  C   UNL     1     -10.479  11.484  68.205  1.00  0.00    -0.197 C  
BRANCH   5   6
HETATM    6  C   UNL     1      -9.142  10.759  68.041  1.00  0.00    -0.150 C  
HETATM    7  O   UNL     1      -8.886  10.025  69.242  1.00  0.00    -0.153 OA 
HETATM    8  C   UNL     1      -8.068   8.904  68.887  1.00  0.00    -0.112 C  
HETATM    9  C   UNL     1      -8.461   8.500  67.458  1.00  0.00    -0.128 C  
HETATM   10  C   UNL     1      -9.108   9.766  66.876  1.00  0.00    -0.142 C  
BRANCH   8  11
HETATM   11  N   UNL     1      -8.245   7.849  69.887  1.00  0.00    -0.119 N  
HETATM   12  N   UNL     1      -7.442   6.682  71.746  1.00  0.00    -0.090 N  
HETATM   13  C   UNL     1      -9.413   7.109  69.945  1.00  0.00    -0.153 C  
HETATM   14  O   UNL     1      -8.808   5.250  72.879  1.00  0.00    -0.122 OA 
HETATM   15  H   UNL     1      -6.676   6.468  72.383  1.00  0.00     0.000 HD 
HETATM   16  C   UNL     1      -9.640   6.211  70.903  1.00  0.00    -0.193 C  
HETATM   17  C   UNL     1      -7.209   7.633  70.786  1.00  0.00    -0.062 C  
HETATM   18  C   UNL     1      -8.607   5.996  71.927  1.00  0.00    -0.137 C  
HETATM   19  O   UNL     1      -6.145   8.249  70.766  1.00  0.00    -0.032 OA 
ENDBRANCH   8  11
BRANCH   9  20
HETATM   20  O   UNL     1      -7.294   8.115  66.706  1.00  0.00    -0.080 OA 
BRANCH  20  21
HETATM   21  C   UNL     1      -6.797   6.870  66.919  1.00  0.00    -0.065 C  
HETATM   22  C   UNL     1      -5.320   6.841  66.656  1.00  0.00    -0.017 C  
HETATM   23  O   UNL     1      -7.450   5.899  67.268  1.00  0.00    -0.079 OA 
ENDBRANCH  20  21
ENDBRANCH   9  20
BRANCH  10  24
HETATM   24  O   UNL     1      -8.306  10.320  65.812  1.00  0.00    -0.139 OA 
BRANCH  24  25
HETATM   25  C   UNL     1      -8.719  10.098  64.537  1.00  0.00    -0.196 C  
HETATM   26  O   UNL     1      -9.854   9.795  64.200  1.00  0.00    -0.058 OA 
HETATM   27  C   UNL     1      -7.564  10.229  63.589  1.00  0.00    -0.101 C  
ENDBRANCH  24  25
ENDBRANCH  10  24
ENDBRANCH   5   6
ENDBRANCH   4   5
ENDBRANCH   2   4
TORSDOF 8
ENDMDL
MODEL      182
REMARK 921   NORMALIZED FREE ENERGY PREDICTED BY IDOCK:   -1.90 KCAL/MOL
REMARK 922        TOTAL FREE ENERGY PREDICTED BY IDOCK:   -4.19 KCAL/MOL
REMARK 923 INTER-LIGAND FREE ENERGY PREDICTED BY IDOCK:   -4.57 KCAL/MOL
REMARK 924 INTRA-LIGAND FREE ENERGY PREDICTED BY IDOCK:    0.37 KCAL/MOL
REMARK 927      BINDING AFFINITY PREDICTED BY RF-SCORE:    0.00 PKD
ROOT
HETATM    1  C   UNL     1     -10.326   6.504  74.310  1.00  0.00    -0.309 C  
HETATM    2  C   UNL     1      -8.964   7.044  74.001  1.00  0.00    -0.195 C  
HETATM    3  O   UNL     1      -8.495   8.061  74.490  1.00  0.00    -0.209 OA 
ENDROOT
BRANCH   2   4
HETATM    4  O   UNL     1      -8.337   6.244  73.097  1.00  0.00    -0.117 OA 
BRANCH   4   5
HETATM    5  C   UNL     1      -7.675   6.932  72.031  1.00  0.00    -0.094 C  
BRANCH   5   6
HETATM    6  C   UNL     1      -8.423   6.825  70.700  1.00  0.00    -0.137 C  
HETATM    7  O   UNL     1      -9.312   7.942  70.601  1.00  0.00    -0.157 OA 
HETATM    8  C   UNL     1      -9.498   8.212  69.207  1.00  0.00    -0.159 C  
HETATM    9  C   UNL     1      -8.189   7.830  68.500  1.00  0.00    -0.128 C  
HETATM   10  C   UNL     1      -7.514   6.847  69.468  1.00  0.00    -0.096 C  
BRANCH   8  11
HETATM   11  N   UNL     1      -9.891   9.614  69.042  1.00  0.00    -0.175 N  
HETATM   12  N   UNL     1      -9.290  11.855  68.765  1.00  0.00    -0.395 N  
HETATM   13  C   UNL     1     -11.223   9.971  68.923  1.00  0.00    -0.131 C  
HETATM   14  O   UNL     1     -10.866  13.405  68.210  1.00  0.00    -0.240 OA 
HETATM   15  H   UNL     1      -8.571  12.578  68.775  1.00  0.00     0.000 HD 
HETATM   16  C   UNL     1     -11.604  11.224  68.674  1.00  0.00    -0.384 C  
HETATM   17  C   UNL     1      -8.881  10.564  68.988  1.00  0.00    -0.169 C  
HETATM   18  C   UNL     1     -10.571  12.260  68.530  1.00  0.00    -0.234 C  
HETATM   19  O   UNL     1      -7.686  10.302  69.106  1.00  0.00    -0.097 OA 
ENDBRANCH   8  11
BRANCH   9  20
HETATM   20  O   UNL     1      -8.467   7.208  67.230  1.00  0.00    -0.120 OA 
BRANCH  20  21
HETATM   21  C   UNL     1      -9.440   7.762  66.464  1.00  0.00    -0.201 C  
HETATM   22  C   UNL     1      -8.858   8.776  65.524  1.00  0.00    -0.229 C  
HETATM   23  O   UNL     1     -10.629   7.487  66.525  1.00  0.00    -0.170 OA 
ENDBRANCH  20  21
ENDBRANCH   9  20
BRANCH  10  24
HETATM   24  O   UNL     1      -7.455   5.519  68.906  1.00  0.00    -0.079 OA 
BRANCH  24  25
HETATM   25  C   UNL     1      -8.141   4.538  69.547  1.00  0.00    -0.061 C  
HETATM   26  O   UNL     1      -7.702   3.831  70.442  1.00  0.00    -0.047 OA 
HETATM   27  C   UNL     1      -9.518   4.405  68.965  1.00  0.00    -0.237 C  
ENDBRANCH  24  25
ENDBRANCH  10  24
ENDBRANCH   5   6
ENDBRANCH   4   5
ENDBRANCH   2   4
TORSDOF 8
ENDMDL
MODEL      183
REMARK 921   NORMALIZED FREE ENERGY PREDICTED BY IDOCK:   -1.89 KCAL/MOL
REMARK 922        TOTAL FREE ENERGY PREDICTED BY IDOCK:   -4.19 KCAL/MOL
REMARK 923 INTER-LIGAND FREE ENERGY PREDICTED BY IDOCK:   -4.08 KCAL/MOL
REMARK 924 INTRA-LIGAND FREE ENERGY PREDICTED BY IDOCK:   -0.10 KCAL/MOL
REMARK 927      BINDING AFFINITY PREDICTED BY RF-SCORE:    0.00 PKD
ROOT
HETATM    1  C   UNL     1     -13.140   9.253  71.765  1.00  0.00    -0.472 C  
HETATM    2  C   UNL     1     -11.997   8.302  71.942  1.00  0.00    -0.330 C  
HETATM    3  O   UNL     1     -11.800   7.636  72.947  1.00  0.00    -0.225 OA 
ENDROOT
BRANCH   2   4
HETATM    4  O   UNL     1     -11.214   8.297  70.828  1.00  0.00    -0.260 OA 
BRANCH   4   5
HETATM    5  C   UNL     1     -10.770   9.584  70.390  1.00  0.00    -0.284 C  
BRANCH   5   6
HETATM    6  C   UNL     1      -9.433   9.530  69.648  1.00  0.00    -0.199 C  
HETATM    7  O   UNL     1      -8.877   8.225  69.831  1.00  0.00    -0.136 OA 
HETATM    8  C   UNL     1      -8.050   7.954  68.694  1.00  0.00    -0.126 C  
HETATM    9  C   UNL     1      -8.683   8.681  67.498  1.00  0.00    -0.135 C  
HETATM   10  C   UNL     1      -9.545   9.778  68.140  1.00  0.00    -0.143 C  
BRANCH   8  11
HETATM   11  N   UNL     1      -7.927   6.504  68.528  1.00  0.00    -0.109 N  
HETATM   12  N   UNL     1      -7.008   4.469  69.217  1.00  0.00    -0.049 N  
HETATM   13  C   UNL     1      -8.683   5.827  67.587  1.00  0.00    -0.107 C  
HETATM   14  O   UNL     1      -7.820   2.506  68.393  1.00  0.00    -0.054 OA 
HETATM   15  H   UNL     1      -6.326   3.961  69.781  1.00  0.00     0.000 HD 
HETATM   16  C   UNL     1      -8.663   4.499  67.480  1.00  0.00    -0.109 C  
HETATM   17  C   UNL     1      -7.043   5.833  69.361  1.00  0.00    -0.065 C  
HETATM   18  C   UNL     1      -7.801   3.731  68.390  1.00  0.00    -0.068 C  
HETATM   19  O   UNL     1      -6.335   6.388  70.199  1.00  0.00    -0.036 OA 
ENDBRANCH   8  11
BRANCH   9  20
HETATM   20  O   UNL     1      -7.661   9.245  66.653  1.00  0.00    -0.093 OA 
BRANCH  20  21
HETATM   21  C   UNL     1      -6.455   9.501  67.219  1.00  0.00    -0.070 C  
HETATM   22  C   UNL     1      -5.354   9.328  66.214  1.00  0.00    -0.040 C  
HETATM   23  O   UNL     1      -6.274   9.820  68.385  1.00  0.00    -0.050 OA 
ENDBRANCH  20  21
ENDBRANCH   9  20
BRANCH  10  24
HETATM   24  O   UNL     1      -9.026  11.091  67.842  1.00  0.00    -0.138 OA 
BRANCH  24  25
HETATM   25  C   UNL     1      -9.916  12.115  67.775  1.00  0.00    -0.198 C  
HETATM   26  O   UNL     1      -9.823  13.177  68.371  1.00  0.00    -0.228 OA 
HETATM   27  C   UNL     1     -11.071  11.739  66.894  1.00  0.00    -0.361 C  
ENDBRANCH  24  25
ENDBRANCH  10  24
ENDBRANCH   5   6
ENDBRANCH   4   5
ENDBRANCH   2   4
TORSDOF 8
ENDMDL
MODEL      184
REMARK 921   NORMALIZED FREE ENERGY PREDICTED BY IDOCK:   -1.39 KCAL/MOL
REMARK 922        TOTAL FREE ENERGY PREDICTED BY IDOCK:   -3.45 KCAL/MOL
REMARK 923 INTER-LIGAND FREE ENERGY PREDICTED BY IDOCK:   -4.23 KCAL/MOL
REMARK 924 INTRA-LIGAND FREE ENERGY PREDICTED BY IDOCK:    0.78 KCAL/MOL
REMARK 927      BINDING AFFINITY PREDICTED BY RF-SCORE:    0.00 PKD
ROOT
HETATM    1  C   UNL     1     -10.929  11.103  68.107  1.00  0.00    -0.292 C  
HETATM    2  C   UNL     1      -9.584  10.717  68.638  1.00  0.00    -0.187 C  
HETATM    3  O   UNL     1      -9.324  10.564  69.822  1.00  0.00    -0.089 OA 
ENDROOT
BRANCH   2   4
HETATM    4  O   UNL     1      -8.700  10.571  67.613  1.00  0.00    -0.122 OA 
BRANCH   4   5
HETATM    5  C   UNL     1      -7.573   9.735  67.896  1.00  0.00    -0.086 C  
BRANCH   5   6
HETATM    6  C   UNL     1      -7.849   8.255  67.625  1.00  0.00    -0.106 C  
HETATM    7  O   UNL     1      -8.008   7.595  68.885  1.00  0.00    -0.120 OA 
HETATM    8  C   UNL     1      -8.862   6.467  68.667  1.00  0.00    -0.121 C  
HETATM    9  C   UNL     1      -9.833   6.853  67.540  1.00  0.00    -0.138 C  
HETATM   10  C   UNL     1      -9.116   7.995  66.804  1.00  0.00    -0.155 C  
BRANCH   8  11
HETATM   11  N   UNL     1      -9.510   6.109  69.931  1.00  0.00    -0.151 N  
HETATM   12  N   UNL     1     -11.238   6.433  71.471  1.00  0.00    -0.272 N  
HETATM   13  C   UNL     1      -9.039   5.061  70.702  1.00  0.00    -0.133 C  
HETATM   14  O   UNL     1     -11.554   4.947  73.170  1.00  0.00    -0.324 OA 
HETATM   15  H   UNL     1     -12.025   6.991  71.801  1.00  0.00     0.000 HD 
HETATM   16  C   UNL     1      -9.666   4.651  71.805  1.00  0.00    -0.230 C  
HETATM   17  C   UNL     1     -10.623   6.844  70.315  1.00  0.00    -0.218 C  
HETATM   18  C   UNL     1     -10.894   5.345  72.218  1.00  0.00    -0.227 C  
HETATM   19  O   UNL     1     -11.071   7.795  69.677  1.00  0.00    -0.175 OA 
ENDBRANCH   8  11
BRANCH   9  20
HETATM   20  O   UNL     1     -10.062   5.729  66.668  1.00  0.00    -0.166 OA 
BRANCH  20  21
HETATM   21  C   UNL     1      -9.014   4.902  66.427  1.00  0.00    -0.117 C  
HETATM   22  C   UNL     1      -8.989   4.491  64.984  1.00  0.00    -0.149 C  
HETATM   23  O   UNL     1      -8.202   4.529  67.260  1.00  0.00    -0.101 OA 
ENDBRANCH  20  21
ENDBRANCH   9  20
BRANCH  10  24
HETATM   24  O   UNL     1      -8.736   7.598  65.470  1.00  0.00    -0.135 OA 
BRANCH  24  25
HETATM   25  C   UNL     1      -8.640   8.575  64.531  1.00  0.00    -0.029 C  
HETATM   26  O   UNL     1      -9.221   9.649  64.561  1.00  0.00    -0.248 OA 
HETATM   27  C   UNL     1      -7.748   8.128  63.410  1.00  0.00    -0.143 C  
ENDBRANCH  24  25
ENDBRANCH  10  24
ENDBRANCH   5   6
ENDBRANCH   4   5
ENDBRANCH   2   4
TORSDOF 8
ENDMDL
MODEL      185
REMARK 921   NORMALIZED FREE ENERGY PREDICTED BY IDOCK:   -1.39 KCAL/MOL
REMARK 922        TOTAL FREE ENERGY PREDICTED BY IDOCK:   -3.45 KCAL/MOL
REMARK 923 INTER-LIGAND FREE ENERGY PREDICTED BY IDOCK:   -4.06 KCAL/MOL
REMARK 924 INTRA-LIGAND FREE ENERGY PREDICTED BY IDOCK:    0.61 KCAL/MOL
REMARK 927      BINDING AFFINITY PREDICTED BY RF-SCORE:    0.00 PKD
ROOT
HETATM    1  C   UNL     1     -10.610   3.458  63.548  1.00  0.00    -0.260 C  
HETATM    2  C   UNL     1      -9.277   3.172  64.167  1.00  0.00    -0.120 C  
HETATM    3  O   UNL     1      -9.041   2.220  64.896  1.00  0.00    -0.122 OA 
ENDROOT
BRANCH   2   4
HETATM    4  O   UNL     1      -8.377   4.127  63.804  1.00  0.00    -0.091 OA 
BRANCH   4   5
HETATM    5  C   UNL     1      -8.891   5.462  63.760  1.00  0.00     0.156 C  
BRANCH   5   6
HETATM    6  C   UNL     1      -8.305   6.360  64.851  1.00  0.00    -0.061 C  
HETATM    7  O   UNL     1      -8.413   7.718  64.413  1.00  0.00    -0.022 OA 
HETATM    8  C   UNL     1      -8.497   8.535  65.586  1.00  0.00    -0.155 C  
HETATM    9  C   UNL     1      -9.217   7.704  66.659  1.00  0.00    -0.170 C  
HETATM   10  C   UNL     1      -9.019   6.251  66.202  1.00  0.00    -0.153 C  
BRANCH   8  11
HETATM   11  N   UNL     1      -9.163   9.794  65.244  1.00  0.00    -0.219 N  
HETATM   12  N   UNL     1     -10.066  11.219  63.627  1.00  0.00    -0.342 N  
HETATM   13  C   UNL     1      -9.577  10.672  66.229  1.00  0.00    -0.185 C  
HETATM   14  O   UNL     1     -11.311  13.022  64.254  1.00  0.00    -0.341 OA 
HETATM   15  H   UNL     1     -10.190  11.464  62.645  1.00  0.00     0.000 HD 
HETATM   16  C   UNL     1     -10.271  11.776  65.952  1.00  0.00    -0.272 C  
HETATM   17  C   UNL     1      -9.381  10.062  63.900  1.00  0.00    -0.263 C  
HETATM   18  C   UNL     1     -10.597  12.071  64.549  1.00  0.00    -0.313 C  
HETATM   19  O   UNL     1      -9.016   9.325  62.985  1.00  0.00    -0.215 OA 
ENDBRANCH   8  11
BRANCH   9  20
HETATM   20  O   UNL     1      -8.625   7.931  67.953  1.00  0.00    -0.125 OA 
BRANCH  20  21
HETATM   21  C   UNL     1      -9.466   8.143  68.996  1.00  0.00    -0.155 C  
HETATM   22  C   UNL     1      -9.088   9.395  69.732  1.00  0.00    -0.204 C  
HETATM   23  O   UNL     1     -10.401   7.421  69.308  1.00  0.00    -0.195 OA 
ENDBRANCH  20  21
ENDBRANCH   9  20
BRANCH  10  24
HETATM   24  O   UNL     1      -8.177   5.524  67.120  1.00  0.00    -0.102 OA 
BRANCH  24  25
HETATM   25  C   UNL     1      -6.946   5.154  66.681  1.00  0.00    -0.064 C  
HETATM   26  O   UNL     1      -6.682   4.109  66.106  1.00  0.00    -0.047 OA 
HETATM   27  C   UNL     1      -5.931   6.197  67.047  1.00  0.00    -0.018 C  
ENDBRANCH  24  25
ENDBRANCH  10  24
ENDBRANCH   5   6
ENDBRANCH   4   5
ENDBRANCH   2   4
TORSDOF 8
ENDMDL
MODEL      186
REMARK 921   NORMALIZED FREE ENERGY PREDICTED BY IDOCK:   -1.28 KCAL/MOL
REMARK 922        TOTAL FREE ENERGY PREDICTED BY IDOCK:   -3.29 KCAL/MOL
REMARK 923 INTER-LIGAND FREE ENERGY PREDICTED BY IDOCK:   -3.37 KCAL/MOL
REMARK 924 INTRA-LIGAND FREE ENERGY PREDICTED BY IDOCK:    0.08 KCAL/MOL
REMARK 927      BINDING AFFINITY PREDICTED BY RF-SCORE:    0.00 PKD
ROOT
HETATM    1  C   UNL     1      -7.458   8.802  67.664  1.00  0.00    -0.093 C  
HETATM    2  C   UNL     1      -6.114   8.586  68.286  1.00  0.00    -0.050 C  
HETATM    3  O   UNL     1      -5.172   9.359  68.186  1.00  0.00    -0.037 OA 
ENDROOT
BRANCH   2   4
HETATM    4  O   UNL     1      -6.097   7.409  68.969  1.00  0.00    -0.032 OA 
BRANCH   4   5
HETATM    5  C   UNL     1      -5.588   6.289  68.239  1.00  0.00    -0.008 C  
BRANCH   5   6
HETATM    6  C   UNL     1      -6.607   5.157  68.101  1.00  0.00    -0.049 C  
HETATM    7  O   UNL     1      -7.507   5.233  69.211  1.00  0.00    -0.060 OA 
HETATM    8  C   UNL     1      -8.753   4.672  68.785  1.00  0.00    -0.093 C  
HETATM    9  C   UNL     1      -8.889   4.974  67.285  1.00  0.00    -0.102 C  
HETATM   10  C   UNL     1      -7.446   5.222  66.821  1.00  0.00    -0.087 C  
BRANCH   8  11
HETATM   11  N   UNL     1      -9.830   5.218  69.614  1.00  0.00    -0.184 N  
HETATM   12  N   UNL     1     -10.842   5.443  71.709  1.00  0.00    -0.210 N  
HETATM   13  C   UNL     1     -10.773   6.080  69.082  1.00  0.00    -0.331 C  
HETATM   14  O   UNL     1     -12.509   6.967  72.020  1.00  0.00    -0.312 OA 
HETATM   15  H   UNL     1     -10.916   5.151  72.683  1.00  0.00     0.000 HD 
HETATM   16  C   UNL     1     -11.705   6.668  69.833  1.00  0.00    -0.333 C  
HETATM   17  C   UNL     1      -9.858   4.857  70.954  1.00  0.00    -0.207 C  
HETATM   18  C   UNL     1     -11.733   6.381  71.275  1.00  0.00    -0.300 C  
HETATM   19  O   UNL     1      -9.056   4.082  71.472  1.00  0.00    -0.110 OA 
ENDBRANCH   8  11
BRANCH   9  20
HETATM   20  O   UNL     1      -9.475   3.852  66.597  1.00  0.00    -0.178 OA 
BRANCH  20  21
HETATM   21  C   UNL     1      -9.248   2.617  67.111  1.00  0.00    -0.131 C  
HETATM   22  C   UNL     1      -8.916   1.644  66.018  1.00  0.00    -0.095 C  
HETATM   23  O   UNL     1      -9.308   2.322  68.295  1.00  0.00    -0.187 OA 
ENDBRANCH  20  21
ENDBRANCH   9  20
BRANCH  10  24
HETATM   24  O   UNL     1      -7.003   4.187  65.918  1.00  0.00    -0.062 OA 
BRANCH  24  25
HETATM   25  C   UNL     1      -6.791   4.536  64.623  1.00  0.00    -0.045 C  
HETATM   26  O   UNL     1      -6.916   3.796  63.659  1.00  0.00    -0.043 OA 
HETATM   27  C   UNL     1      -6.330   5.961  64.540  1.00  0.00    -0.033 C  
ENDBRANCH  24  25
ENDBRANCH  10  24
ENDBRANCH   5   6
ENDBRANCH   4   5
ENDBRANCH   2   4
TORSDOF 8
ENDMDL
MODEL      187
REMARK 921   NORMALIZED FREE ENERGY PREDICTED BY IDOCK:   -1.25 KCAL/MOL
REMARK 922        TOTAL FREE ENERGY PREDICTED BY IDOCK:   -3.24 KCAL/MOL
REMARK 923 INTER-LIGAND FREE ENERGY PREDICTED BY IDOCK:   -6.50 KCAL/MOL
REMARK 924 INTRA-LIGAND FREE ENERGY PREDICTED BY IDOCK:    3.26 KCAL/MOL
REMARK 927      BINDING AFFINITY PREDICTED BY RF-SCORE:    0.00 PKD
ROOT
HETATM    1  C   UNL     1     -13.195  15.790  72.889  1.00  0.00    -0.640 C  
HETATM    2  C   UNL     1     -13.535  14.597  72.053  1.00  0.00    -0.380 C  
HETATM    3  O   UNL     1     -14.394  13.775  72.336  1.00  0.00    -0.664 OA 
ENDROOT
BRANCH   2   4
HETATM    4  O   UNL     1     -12.748  14.562  70.943  1.00  0.00    -0.311 OA 
BRANCH   4   5
HETATM    5  C   UNL     1     -12.578  15.817  70.277  1.00  0.00    -0.187 C  
BRANCH   5   6
HETATM    6  C   UNL     1     -11.179  15.990  69.685  1.00  0.00    -0.336 C  
HETATM    7  O   UNL     1     -10.924  14.880  68.818  1.00  0.00    -0.235 OA 
HETATM    8  C   UNL     1      -9.998  15.327  67.821  1.00  0.00    -0.224 C  
HETATM    9  C   UNL     1     -10.282  16.817  67.583  1.00  0.00    -0.289 C  
HETATM   10  C   UNL     1     -11.002  17.270  68.862  1.00  0.00     0.027 C  
BRANCH   8  11
HETATM   11  N   UNL     1     -10.137  14.484  66.630  1.00  0.00    -0.266 N  
HETATM   12  N   UNL     1     -10.188  14.280  64.303  1.00  0.00    -0.300 N  
HETATM   13  C   UNL     1     -10.257  13.110  66.739  1.00  0.00    -0.252 C  
HETATM   14  O   UNL     1     -10.127  12.220  63.330  1.00  0.00    -0.407 OA 
HETATM   15  H   UNL     1     -10.234  14.722  63.385  1.00  0.00     0.000 HD 
HETATM   16  C   UNL     1     -10.287  12.312  65.672  1.00  0.00    -0.287 C  
HETATM   17  C   UNL     1     -10.123  15.112  65.392  1.00  0.00    -0.350 C  
HETATM   18  C   UNL     1     -10.198  12.917  64.335  1.00  0.00    -0.318 C  
HETATM   19  O   UNL     1     -10.037  16.329  65.241  1.00  0.00    -0.528 OA 
ENDBRANCH   8  11
BRANCH   9  20
HETATM   20  O   UNL     1      -9.049  17.539  67.392  1.00  0.00    -0.234 OA 
BRANCH  20  21
HETATM   21  C   UNL     1      -7.905  16.944  67.814  1.00  0.00    -0.178 C  
HETATM   22  C   UNL     1      -6.882  16.933  66.717  1.00  0.00    -0.267 C  
HETATM   23  O   UNL     1      -7.723  16.471  68.926  1.00  0.00    -0.214 OA 
ENDBRANCH  20  21
ENDBRANCH   9  20
BRANCH  10  24
HETATM   24  O   UNL     1     -10.196  18.202  69.613  1.00  0.00     0.023 OA 
BRANCH  24  25
HETATM   25  C   UNL     1     -10.050  19.453  69.106  1.00  0.00    -0.263 C  
HETATM   26  O   UNL     1      -9.638  19.723  67.988  1.00  0.00    -0.354 OA 
HETATM   27  C   UNL     1     -10.423  20.476  70.138  1.00  0.00     0.933 C  
ENDBRANCH  24  25
ENDBRANCH  10  24
ENDBRANCH   5   6
ENDBRANCH   4   5
ENDBRANCH   2   4
TORSDOF 8
ENDMDL
MODEL      188
REMARK 921   NORMALIZED FREE ENERGY PREDICTED BY IDOCK:   -1.06 KCAL/MOL
REMARK 922        TOTAL FREE ENERGY PREDICTED BY IDOCK:   -2.96 KCAL/MOL
REMARK 923 INTER-LIGAND FREE ENERGY PREDICTED BY IDOCK:   -3.73 KCAL/MOL
REMARK 924 INTRA-LIGAND FREE ENERGY PREDICTED BY IDOCK:    0.77 KCAL/MOL
REMARK 927      BINDING AFFINITY PREDICTED BY RF-SCORE:    0.00 PKD
ROOT
HETATM    1  C   UNL     1     -10.338   6.452  74.406  1.00  0.00    -0.268 C  
HETATM    2  C   UNL     1      -8.918   6.698  74.002  1.00  0.00    -0.161 C  
HETATM    3  O   UNL     1      -8.181   7.519  74.527  1.00  0.00    -0.181 OA 
ENDROOT
BRANCH   2   4
HETATM    4  O   UNL     1      -8.577   5.883  72.966  1.00  0.00    -0.124 OA 
BRANCH   4   5
HETATM    5  C   UNL     1      -7.671   6.453  72.016  1.00  0.00    -0.096 C  
BRANCH   5   6
HETATM    6  C   UNL     1      -8.356   6.853  70.708  1.00  0.00    -0.127 C  
HETATM    7  O   UNL     1      -7.687   6.184  69.635  1.00  0.00    -0.094 OA 
HETATM    8  C   UNL     1      -8.643   6.015  68.582  1.00  0.00    -0.112 C  
HETATM    9  C   UNL     1     -10.017   5.846  69.248  1.00  0.00    -0.174 C  
HETATM   10  C   UNL     1      -9.838   6.475  70.637  1.00  0.00    -0.183 C  
BRANCH   8  11
HETATM   11  N   UNL     1      -8.232   4.887  67.742  1.00  0.00    -0.101 N  
HETATM   12  N   UNL     1      -8.087   2.580  67.398  1.00  0.00    -0.069 N  
HETATM   13  C   UNL     1      -7.692   5.094  66.485  1.00  0.00    -0.092 C  
HETATM   14  O   UNL     1      -7.490   1.760  65.357  1.00  0.00    -0.059 OA 
HETATM   15  H   UNL     1      -8.167   1.632  67.765  1.00  0.00     0.000 HD 
HETATM   16  C   UNL     1      -7.400   4.088  65.661  1.00  0.00    -0.076 C  
HETATM   17  C   UNL     1      -8.423   3.607  68.243  1.00  0.00    -0.092 C  
HETATM   18  C   UNL     1      -7.654   2.711  66.111  1.00  0.00    -0.076 C  
HETATM   19  O   UNL     1      -8.881   3.369  69.359  1.00  0.00    -0.078 OA 
ENDBRANCH   8  11
BRANCH   9  20
HETATM   20  O   UNL     1     -11.031   6.532  68.488  1.00  0.00    -0.278 OA 
BRANCH  20  21
HETATM   21  C   UNL     1     -10.839   6.645  67.150  1.00  0.00    -0.401 C  
HETATM   22  C   UNL     1     -11.217   5.371  66.454  1.00  0.00     0.324 C  
HETATM   23  O   UNL     1     -10.412   7.637  66.579  1.00  0.00    -0.215 OA 
ENDBRANCH  20  21
ENDBRANCH   9  20
BRANCH  10  24
HETATM   24  O   UNL     1     -10.634   7.671  70.775  1.00  0.00    -0.216 OA 
BRANCH  24  25
HETATM   25  C   UNL     1      -9.986   8.864  70.713  1.00  0.00    -0.226 C  
HETATM   26  O   UNL     1      -9.109   9.236  71.478  1.00  0.00    -0.315 OA 
HETATM   27  C   UNL     1     -10.536   9.693  69.591  1.00  0.00    -0.246 C  
ENDBRANCH  24  25
ENDBRANCH  10  24
ENDBRANCH   5   6
ENDBRANCH   4   5
ENDBRANCH   2   4
TORSDOF 8
ENDMDL
MODEL      189
REMARK 921   NORMALIZED FREE ENERGY PREDICTED BY IDOCK:   -0.76 KCAL/MOL
REMARK 922        TOTAL FREE ENERGY PREDICTED BY IDOCK:   -2.53 KCAL/MOL
REMARK 923 INTER-LIGAND FREE ENERGY PREDICTED BY IDOCK:   -3.89 KCAL/MOL
REMARK 924 INTRA-LIGAND FREE ENERGY PREDICTED BY IDOCK:    1.36 KCAL/MOL
REMARK 927      BINDING AFFINITY PREDICTED BY RF-SCORE:    0.00 PKD
ROOT
HETATM    1  C   UNL     1      -9.741   3.662  64.810  1.00  0.00    -0.178 C  
HETATM    2  C   UNL     1     -10.397   4.466  65.890  1.00  0.00    -0.204 C  
HETATM    3  O   UNL     1     -11.323   5.242  65.709  1.00  0.00     0.187 OA 
ENDROOT
BRANCH   2   4
HETATM    4  O   UNL     1      -9.808   4.209  67.089  1.00  0.00    -0.205 OA 
BRANCH   4   5
HETATM    5  C   UNL     1     -10.305   4.978  68.189  1.00  0.00    -0.021 C  
BRANCH   5   6
HETATM    6  C   UNL     1      -9.367   6.120  68.586  1.00  0.00    -0.121 C  
HETATM    7  O   UNL     1      -9.625   7.227  67.717  1.00  0.00    -0.136 OA 
HETATM    8  C   UNL     1      -9.284   8.417  68.437  1.00  0.00    -0.135 C  
HETATM    9  C   UNL     1      -9.573   8.141  69.920  1.00  0.00    -0.175 C  
HETATM   10  C   UNL     1      -9.552   6.609  70.026  1.00  0.00    -0.156 C  
BRANCH   8  11
HETATM   11  N   UNL     1     -10.029   9.546  67.873  1.00  0.00    -0.164 N  
HETATM   12  N   UNL     1     -10.977  10.608  66.020  1.00  0.00     0.027 N  
HETATM   13  C   UNL     1     -10.542  10.540  68.687  1.00  0.00    -0.200 C  
HETATM   14  O   UNL     1     -12.374  12.386  66.307  1.00  0.00    -0.577 OA 
HETATM   15  H   UNL     1     -11.084  10.676  65.008  1.00  0.00     0.000 HD 
HETATM   16  C   UNL     1     -11.306  11.524  68.213  1.00  0.00    -0.352 C  
HETATM   17  C   UNL     1     -10.218   9.570  66.498  1.00  0.00    -0.237 C  
HETATM   18  C   UNL     1     -11.603  11.556  66.774  1.00  0.00    -0.051 C  
HETATM   19  O   UNL     1      -9.768   8.723  65.729  1.00  0.00    -0.204 OA 
ENDBRANCH   8  11
BRANCH   9  20
HETATM   20  O   UNL     1      -8.557   8.737  70.750  1.00  0.00    -0.150 OA 
BRANCH  20  21
HETATM   21  C   UNL     1      -7.472   9.263  70.128  1.00  0.00    -0.098 C  
HETATM   22  C   UNL     1      -6.796   8.226  69.281  1.00  0.00    -0.050 C  
HETATM   23  O   UNL     1      -7.084  10.417  70.238  1.00  0.00    -0.201 OA 
ENDBRANCH  20  21
ENDBRANCH   9  20
BRANCH  10  24
HETATM   24  O   UNL     1      -8.436   6.155  70.821  1.00  0.00    -0.127 OA 
BRANCH  24  25
HETATM   25  C   UNL     1      -8.612   5.031  71.562  1.00  0.00    -0.124 C  
HETATM   26  O   UNL     1      -9.563   4.268  71.481  1.00  0.00    -0.145 OA 
HETATM   27  C   UNL     1      -7.488   4.877  72.543  1.00  0.00    -0.090 C  
ENDBRANCH  24  25
ENDBRANCH  10  24
ENDBRANCH   5   6
ENDBRANCH   4   5
ENDBRANCH   2   4
TORSDOF 8
ENDMDL
MODEL      190
REMARK 921   NORMALIZED FREE ENERGY PREDICTED BY IDOCK:   -0.75 KCAL/MOL
REMARK 922        TOTAL FREE ENERGY PREDICTED BY IDOCK:   -2.50 KCAL/MOL
REMARK 923 INTER-LIGAND FREE ENERGY PREDICTED BY IDOCK:   -3.26 KCAL/MOL
REMARK 924 INTRA-LIGAND FREE ENERGY PREDICTED BY IDOCK:    0.76 KCAL/MOL
REMARK 927      BINDING AFFINITY PREDICTED BY RF-SCORE:    0.00 PKD
ROOT
HETATM    1  C   UNL     1      -9.458   3.532  65.087  1.00  0.00    -0.158 C  
HETATM    2  C   UNL     1     -10.162   4.459  66.028  1.00  0.00    -0.219 C  
HETATM    3  O   UNL     1     -11.194   5.059  65.767  1.00  0.00    -0.057 OA 
ENDROOT
BRANCH   2   4
HETATM    4  O   UNL     1      -9.483   4.537  67.205  1.00  0.00    -0.140 OA 
BRANCH   4   5
HETATM    5  C   UNL     1      -9.646   5.765  67.921  1.00  0.00    -0.115 C  
BRANCH   5   6
HETATM    6  C   UNL     1      -8.520   6.765  67.651  1.00  0.00    -0.122 C  
HETATM    7  O   UNL     1      -8.783   7.400  66.396  1.00  0.00    -0.129 OA 
HETATM    8  C   UNL     1      -8.179   8.697  66.444  1.00  0.00    -0.111 C  
HETATM    9  C   UNL     1      -8.241   9.165  67.905  1.00  0.00    -0.112 C  
HETATM   10  C   UNL     1      -8.393   7.865  68.708  1.00  0.00    -0.128 C  
BRANCH   8  11
HETATM   11  N   UNL     1      -8.863   9.577  65.494  1.00  0.00    -0.156 N  
HETATM   12  N   UNL     1      -8.994  10.526  63.362  1.00  0.00    -0.204 N  
HETATM   13  C   UNL     1     -10.054  10.198  65.827  1.00  0.00    -0.254 C  
HETATM   14  O   UNL     1     -10.867  11.656  62.722  1.00  0.00     0.031 OA 
HETATM   15  H   UNL     1      -8.563  10.710  62.456  1.00  0.00     0.000 HD 
HETATM   16  C   UNL     1     -10.747  10.925  64.951  1.00  0.00    -0.240 C  
HETATM   17  C   UNL     1      -8.286   9.748  64.243  1.00  0.00    -0.167 C  
HETATM   18  C   UNL     1     -10.221  11.076  63.587  1.00  0.00    -0.372 C  
HETATM   19  O   UNL     1      -7.222   9.235  63.903  1.00  0.00    -0.095 OA 
ENDBRANCH   8  11
BRANCH   9  20
HETATM   20  O   UNL     1      -7.032   9.863  68.261  1.00  0.00    -0.070 OA 
BRANCH  20  21
HETATM   21  C   UNL     1      -6.925  11.161  67.879  1.00  0.00    -0.069 C  
HETATM   22  C   UNL     1      -7.444  12.071  68.953  1.00  0.00    -0.043 C  
HETATM   23  O   UNL     1      -6.477  11.548  66.810  1.00  0.00    -0.136 OA 
ENDBRANCH  20  21
ENDBRANCH   9  20
BRANCH  10  24
HETATM   24  O   UNL     1      -7.222   7.608  69.512  1.00  0.00    -0.076 OA 
BRANCH  24  25
HETATM   25  C   UNL     1      -6.671   6.370  69.436  1.00  0.00    -0.052 C  
HETATM   26  O   UNL     1      -7.275   5.336  69.195  1.00  0.00    -0.055 OA 
HETATM   27  C   UNL     1      -5.203   6.438  69.742  1.00  0.00    -0.013 C  
ENDBRANCH  24  25
ENDBRANCH  10  24
ENDBRANCH   5   6
ENDBRANCH   4   5
ENDBRANCH   2   4
TORSDOF 8
ENDMDL
MODEL      191
REMARK 921   NORMALIZED FREE ENERGY PREDICTED BY IDOCK:   -0.72 KCAL/MOL
REMARK 922        TOTAL FREE ENERGY PREDICTED BY IDOCK:   -2.46 KCAL/MOL
REMARK 923 INTER-LIGAND FREE ENERGY PREDICTED BY IDOCK:   -1.65 KCAL/MOL
REMARK 924 INTRA-LIGAND FREE ENERGY PREDICTED BY IDOCK:   -0.81 KCAL/MOL
REMARK 927      BINDING AFFINITY PREDICTED BY RF-SCORE:    0.00 PKD
ROOT
HETATM    1  C   UNL     1      -9.348   3.401  65.105  1.00  0.00    -0.155 C  
HETATM    2  C   UNL     1     -10.156   3.912  66.256  1.00  0.00     0.087 C  
HETATM    3  O   UNL     1     -10.987   4.804  66.178  1.00  0.00    -0.161 OA 
ENDROOT
BRANCH   2   4
HETATM    4  O   UNL     1      -9.825   3.243  67.395  1.00  0.00    -0.037 OA 
BRANCH   4   5
HETATM    5  C   UNL     1     -10.073   3.953  68.612  1.00  0.00     0.418 C  
BRANCH   5   6
HETATM    6  C   UNL     1      -8.789   4.330  69.353  1.00  0.00    -0.092 C  
HETATM    7  O   UNL     1      -8.285   5.540  68.779  1.00  0.00    -0.101 OA 
HETATM    8  C   UNL     1      -7.543   6.216  69.800  1.00  0.00    -0.085 C  
HETATM    9  C   UNL     1      -8.214   5.874  71.140  1.00  0.00    -0.123 C  
HETATM   10  C   UNL     1      -8.981   4.574  70.853  1.00  0.00    -0.119 C  
BRANCH   8  11
HETATM   11  N   UNL     1      -7.500   7.647  69.491  1.00  0.00    -0.090 N  
HETATM   12  N   UNL     1      -6.484   9.438  68.386  1.00  0.00    -0.053 N  
HETATM   13  C   UNL     1      -8.484   8.505  69.947  1.00  0.00    -0.125 C  
HETATM   14  O   UNL     1      -7.523  11.464  68.289  1.00  0.00    -0.089 OA 
HETATM   15  H   UNL     1      -5.694   9.808  67.857  1.00  0.00     0.000 HD 
HETATM   16  C   UNL     1      -8.523   9.792  69.600  1.00  0.00    -0.194 C  
HETATM   17  C   UNL     1      -6.449   8.104  68.707  1.00  0.00    -0.053 C  
HETATM   18  C   UNL     1      -7.477  10.314  68.709  1.00  0.00    -0.089 C  
HETATM   19  O   UNL     1      -5.541   7.388  68.292  1.00  0.00    -0.024 OA 
ENDBRANCH   8  11
BRANCH   9  20
HETATM   20  O   UNL     1      -7.220   5.680  72.164  1.00  0.00    -0.084 OA 
BRANCH  20  21
HETATM   21  C   UNL     1      -5.934   5.514  71.763  1.00  0.00    -0.029 C  
HETATM   22  C   UNL     1      -5.162   6.790  71.928  1.00  0.00    -0.028 C  
HETATM   23  O   UNL     1      -5.459   4.478  71.321  1.00  0.00    -0.010 OA 
ENDBRANCH  20  21
ENDBRANCH   9  20
BRANCH  10  24
HETATM   24  O   UNL     1      -8.420   3.464  71.584  1.00  0.00    -0.070 OA 
BRANCH  24  25
HETATM   25  C   UNL     1      -9.281   2.663  72.263  1.00  0.00    -0.092 C  
HETATM   26  O   UNL     1      -9.950   1.765  71.776  1.00  0.00    -0.144 OA 
HETATM   27  C   UNL     1      -9.335   3.069  73.706  1.00  0.00    -0.102 C  
ENDBRANCH  24  25
ENDBRANCH  10  24
ENDBRANCH   5   6
ENDBRANCH   4   5
ENDBRANCH   2   4
TORSDOF 8
ENDMDL
MODEL      192
REMARK 921   NORMALIZED FREE ENERGY PREDICTED BY IDOCK:   -0.45 KCAL/MOL
REMARK 922        TOTAL FREE ENERGY PREDICTED BY IDOCK:   -2.06 KCAL/MOL
REMARK 923 INTER-LIGAND FREE ENERGY PREDICTED BY IDOCK:   -3.90 KCAL/MOL
REMARK 924 INTRA-LIGAND FREE ENERGY PREDICTED BY IDOCK:    1.84 KCAL/MOL
REMARK 927      BINDING AFFINITY PREDICTED BY RF-SCORE:    0.00 PKD
ROOT
HETATM    1  C   UNL     1     -11.213   6.635  67.347  1.00  0.00    -0.294 C  
HETATM    2  C   UNL     1     -10.708   6.922  68.726  1.00  0.00    -0.219 C  
HETATM    3  O   UNL     1     -11.421   7.158  69.690  1.00  0.00    -0.134 OA 
ENDROOT
BRANCH   2   4
HETATM    4  O   UNL     1      -9.347   6.886  68.744  1.00  0.00    -0.132 OA 
BRANCH   4   5
HETATM    5  C   UNL     1      -8.723   6.828  67.458  1.00  0.00    -0.119 C  
BRANCH   5   6
HETATM    6  C   UNL     1      -7.888   8.071  67.146  1.00  0.00    -0.105 C  
HETATM    7  O   UNL     1      -8.716   8.993  66.431  1.00  0.00    -0.124 OA 
HETATM    8  C   UNL     1      -8.219  10.308  66.705  1.00  0.00    -0.125 C  
HETATM    9  C   UNL     1      -7.644  10.281  68.129  1.00  0.00    -0.087 C  
HETATM   10  C   UNL     1      -7.356   8.794  68.387  1.00  0.00    -0.086 C  
BRANCH   8  11
HETATM   11  N   UNL     1      -9.299  11.277  66.504  1.00  0.00    -0.180 N  
HETATM   12  N   UNL     1     -10.155  13.430  66.810  1.00  0.00    -0.254 N  
HETATM   13  C   UNL     1     -10.414  10.956  65.750  1.00  0.00    -0.210 C  
HETATM   14  O   UNL     1     -12.021  14.093  65.681  1.00  0.00    -0.365 OA 
HETATM   15  H   UNL     1     -10.097  14.340  67.265  1.00  0.00     0.000 HD 
HETATM   16  C   UNL     1     -11.364  11.848  65.470  1.00  0.00    -0.334 C  
HETATM   17  C   UNL     1      -9.153  12.532  67.078  1.00  0.00    -0.213 C  
HETATM   18  C   UNL     1     -11.223  13.216  65.989  1.00  0.00    -0.292 C  
HETATM   19  O   UNL     1      -8.192  12.862  67.771  1.00  0.00    -0.147 OA 
ENDBRANCH   8  11
BRANCH   9  20
HETATM   20  O   UNL     1      -6.440  11.068  68.200  1.00  0.00    -0.056 OA 
BRANCH  20  21
HETATM   21  C   UNL     1      -6.321  11.934  69.238  1.00  0.00    -0.105 C  
HETATM   22  C   UNL     1      -5.827  13.267  68.757  1.00  0.00    -0.075 C  
HETATM   23  O   UNL     1      -6.570  11.676  70.406  1.00  0.00    -0.148 OA 
ENDBRANCH  20  21
ENDBRANCH   9  20
BRANCH  10  24
HETATM   24  O   UNL     1      -5.938   8.549  68.500  1.00  0.00    -0.043 OA 
BRANCH  24  25
HETATM   25  C   UNL     1      -5.545   7.484  69.244  1.00  0.00    -0.019 C  
HETATM   26  O   UNL     1      -5.175   6.406  68.803  1.00  0.00    -0.009 OA 
HETATM   27  C   UNL     1      -5.675   7.797  70.705  1.00  0.00    -0.030 C  
ENDBRANCH  24  25
ENDBRANCH  10  24
ENDBRANCH   5   6
ENDBRANCH   4   5
ENDBRANCH   2   4
TORSDOF 8
ENDMDL
MODEL      193
REMARK 921   NORMALIZED FREE ENERGY PREDICTED BY IDOCK:   -0.29 KCAL/MOL
REMARK 922        TOTAL FREE ENERGY PREDICTED BY IDOCK:   -1.84 KCAL/MOL
REMARK 923 INTER-LIGAND FREE ENERGY PREDICTED BY IDOCK:   -2.80 KCAL/MOL
REMARK 924 INTRA-LIGAND FREE ENERGY PREDICTED BY IDOCK:    0.96 KCAL/MOL
REMARK 927      BINDING AFFINITY PREDICTED BY RF-SCORE:    0.00 PKD
ROOT
HETATM    1  C   UNL     1     -10.928   6.855  70.296  1.00  0.00    -0.322 C  
HETATM    2  C   UNL     1     -10.966   7.489  71.651  1.00  0.00    -0.232 C  
HETATM    3  O   UNL     1     -11.793   8.317  72.005  1.00  0.00    -0.303 OA 
ENDROOT
BRANCH   2   4
HETATM    4  O   UNL     1      -9.949   7.014  72.421  1.00  0.00    -0.164 OA 
BRANCH   4   5
HETATM    5  C   UNL     1      -8.967   6.242  71.722  1.00  0.00    -0.140 C  
BRANCH   5   6
HETATM    6  C   UNL     1      -7.842   7.098  71.140  1.00  0.00    -0.098 C  
HETATM    7  O   UNL     1      -7.565   6.626  69.817  1.00  0.00    -0.099 OA 
HETATM    8  C   UNL     1      -7.049   7.735  69.072  1.00  0.00    -0.074 C  
HETATM    9  C   UNL     1      -7.721   8.999  69.630  1.00  0.00    -0.075 C  
HETATM   10  C   UNL     1      -8.179   8.589  71.037  1.00  0.00    -0.140 C  
BRANCH   8  11
HETATM   11  N   UNL     1      -7.285   7.501  67.645  1.00  0.00    -0.088 N  
HETATM   12  N   UNL     1      -8.754   7.455  65.828  1.00  0.00    -0.254 N  
HETATM   13  C   UNL     1      -6.240   7.197  66.790  1.00  0.00    -0.039 C  
HETATM   14  O   UNL     1      -7.947   7.253  63.706  1.00  0.00    -0.133 OA 
HETATM   15  H   UNL     1      -9.709   7.480  65.472  1.00  0.00     0.000 HD 
HETATM   16  C   UNL     1      -6.411   7.076  65.474  1.00  0.00    -0.043 C  
HETATM   17  C   UNL     1      -8.588   7.616  67.181  1.00  0.00    -0.121 C  
HETATM   18  C   UNL     1      -7.758   7.263  64.917  1.00  0.00    -0.117 C  
HETATM   19  O   UNL     1      -9.553   7.865  67.900  1.00  0.00    -0.143 OA 
ENDBRANCH   8  11
BRANCH   9  20
HETATM   20  O   UNL     1      -6.778  10.088  69.683  1.00  0.00    -0.050 OA 
BRANCH  20  21
HETATM   21  C   UNL     1      -7.224  11.318  69.323  1.00  0.00    -0.094 C  
HETATM   22  C   UNL     1      -7.658  11.321  67.887  1.00  0.00    -0.100 C  
HETATM   23  O   UNL     1      -7.265  12.296  70.053  1.00  0.00     0.544 OA 
ENDBRANCH  20  21
ENDBRANCH   9  20
BRANCH  10  24
HETATM   24  O   UNL     1      -7.448   9.305  72.054  1.00  0.00    -0.301 OA 
BRANCH  24  25
HETATM   25  C   UNL     1      -6.717   8.571  72.933  1.00  0.00    -0.048 C  
HETATM   26  O   UNL     1      -7.149   8.033  73.941  1.00  0.00    -0.119 OA 
HETATM   27  C   UNL     1      -5.276   8.552  72.518  1.00  0.00    -0.043 C  
ENDBRANCH  24  25
ENDBRANCH  10  24
ENDBRANCH   5   6
ENDBRANCH   4   5
ENDBRANCH   2   4
TORSDOF 8
ENDMDL
MODEL      194
REMARK 921   NORMALIZED FREE ENERGY PREDICTED BY IDOCK:    0.91 KCAL/MOL
REMARK 922        TOTAL FREE ENERGY PREDICTED BY IDOCK:   -0.08 KCAL/MOL
REMARK 923 INTER-LIGAND FREE ENERGY PREDICTED BY IDOCK:   -2.88 KCAL/MOL
REMARK 924 INTRA-LIGAND FREE ENERGY PREDICTED BY IDOCK:    2.80 KCAL/MOL
REMARK 927      BINDING AFFINITY PREDICTED BY RF-SCORE:    0.00 PKD
ROOT
HETATM    1  C   UNL     1      -8.829   7.712  68.907  1.00  0.00    -0.135 C  
HETATM    2  C   UNL     1      -9.921   8.619  69.385  1.00  0.00    -0.197 C  
HETATM    3  O   UNL     1      -9.771   9.511  70.205  1.00  0.00    -0.231 OA 
ENDROOT
BRANCH   2   4
HETATM    4  O   UNL     1     -11.096   8.298  68.777  1.00  0.00     0.105 OA 
BRANCH   4   5
HETATM    5  C   UNL     1     -10.971   7.748  67.462  1.00  0.00     0.030 C  
BRANCH   5   6
HETATM    6  C   UNL     1     -10.318   8.715  66.473  1.00  0.00    -0.166 C  
HETATM    7  O   UNL     1     -10.612  10.049  66.898  1.00  0.00    -0.236 OA 
HETATM    8  C   UNL     1      -9.547  10.886  66.433  1.00  0.00    -0.197 C  
HETATM    9  C   UNL     1      -8.273  10.028  66.432  1.00  0.00    -0.119 C  
HETATM   10  C   UNL     1      -8.795   8.584  66.382  1.00  0.00    -0.150 C  
BRANCH   8  11
HETATM   11  N   UNL     1      -9.475  12.080  67.279  1.00  0.00    -0.179 N  
HETATM   12  N   UNL     1      -8.478  13.237  69.049  1.00  0.00    -0.303 N  
HETATM   13  C   UNL     1     -10.277  13.179  67.031  1.00  0.00    -0.250 C  
HETATM   14  O   UNL     1      -8.952  15.440  69.390  1.00  0.00    -0.250 OA 
HETATM   15  H   UNL     1      -7.852  13.238  69.854  1.00  0.00     0.000 HD 
HETATM   16  C   UNL     1     -10.164  14.314  67.722  1.00  0.00    -0.235 C  
HETATM   17  C   UNL     1      -8.560  12.075  68.324  1.00  0.00    -0.174 C  
HETATM   18  C   UNL     1      -9.157  14.391  68.791  1.00  0.00    -0.133 C  
HETATM   19  O   UNL     1      -7.838  11.118  68.598  1.00  0.00    -0.123 OA 
ENDBRANCH   8  11
BRANCH   9  20
HETATM   20  O   UNL     1      -7.463  10.332  65.280  1.00  0.00    -0.141 OA 
BRANCH  20  21
HETATM   21  C   UNL     1      -6.152   9.985  65.330  1.00  0.00    -0.104 C  
HETATM   22  C   UNL     1      -5.361  10.766  64.322  1.00  0.00    -0.069 C  
HETATM   23  O   UNL     1      -5.670   9.149  66.080  1.00  0.00    -0.051 OA 
ENDBRANCH  20  21
ENDBRANCH   9  20
BRANCH  10  24
HETATM   24  O   UNL     1      -8.453   7.949  65.132  1.00  0.00    -0.143 OA 
BRANCH  24  25
HETATM   25  C   UNL     1      -8.621   6.604  65.048  1.00  0.00     0.086 C  
HETATM   26  O   UNL     1      -9.683   6.011  65.165  1.00  0.00     0.560 OA 
HETATM   27  C   UNL     1      -7.298   5.930  64.838  1.00  0.00    -0.073 C  
ENDBRANCH  24  25
ENDBRANCH  10  24
ENDBRANCH   5   6
ENDBRANCH   4   5
ENDBRANCH   2   4
TORSDOF 8
ENDMDL
MODEL      195
REMARK 921   NORMALIZED FREE ENERGY PREDICTED BY IDOCK:    0.93 KCAL/MOL
REMARK 922        TOTAL FREE ENERGY PREDICTED BY IDOCK:   -0.04 KCAL/MOL
REMARK 923 INTER-LIGAND FREE ENERGY PREDICTED BY IDOCK:   -6.13 KCAL/MOL
REMARK 924 INTRA-LIGAND FREE ENERGY PREDICTED BY IDOCK:    6.10 KCAL/MOL
REMARK 927      BINDING AFFINITY PREDICTED BY RF-SCORE:    0.00 PKD
ROOT
HETATM    1  C   UNL     1     -10.590  17.703  68.157  1.00  0.00    -0.359 C  
HETATM    2  C   UNL     1      -9.254  18.066  67.586  1.00  0.00    -0.259 C  
HETATM    3  O   UNL     1      -8.941  19.187  67.214  1.00  0.00    -0.289 OA 
ENDROOT
BRANCH   2   4
HETATM    4  O   UNL     1      -8.450  16.969  67.541  1.00  0.00    -0.196 OA 
BRANCH   4   5
HETATM    5  C   UNL     1      -8.056  16.450  68.815  1.00  0.00    -0.234 C  
BRANCH   5   6
HETATM    6  C   UNL     1      -8.208  14.930  68.909  1.00  0.00    -0.171 C  
HETATM    7  O   UNL     1      -9.481  14.577  68.360  1.00  0.00    -0.197 OA 
HETATM    8  C   UNL     1      -9.368  13.242  67.856  1.00  0.00    -0.214 C  
HETATM    9  C   UNL     1      -7.919  13.065  67.378  1.00  0.00    -0.172 C  
HETATM   10  C   UNL     1      -7.139  14.146  68.143  1.00  0.00    -0.127 C  
BRANCH   8  11
HETATM   11  N   UNL     1     -10.380  13.037  66.816  1.00  0.00    -0.252 N  
HETATM   12  N   UNL     1     -12.366  13.704  65.780  1.00  0.00    -0.463 N  
HETATM   13  C   UNL     1     -10.233  12.044  65.864  1.00  0.00    -0.232 C  
HETATM   14  O   UNL     1     -12.984  12.786  63.788  1.00  0.00    -0.676 OA 
HETATM   15  H   UNL     1     -13.207  14.280  65.785  1.00  0.00     0.000 HD 
HETATM   16  C   UNL     1     -11.086  11.898  64.850  1.00  0.00    -0.363 C  
HETATM   17  C   UNL     1     -11.477  13.887  66.810  1.00  0.00    -0.352 C  
HETATM   18  C   UNL     1     -12.227  12.821  64.750  1.00  0.00    -0.459 C  
HETATM   19  O   UNL     1     -11.665  14.772  67.642  1.00  0.00    -0.349 OA 
ENDBRANCH   8  11
BRANCH   9  20
HETATM   20  O   UNL     1      -7.440  11.745  67.703  1.00  0.00    -0.107 OA 
BRANCH  20  21
HETATM   21  C   UNL     1      -7.969  10.703  67.015  1.00  0.00    -0.121 C  
HETATM   22  C   UNL     1      -8.961   9.961  67.863  1.00  0.00    -0.129 C  
HETATM   23  O   UNL     1      -7.683  10.395  65.867  1.00  0.00    -0.134 OA 
ENDBRANCH  20  21
ENDBRANCH   9  20
BRANCH  10  24
HETATM   24  O   UNL     1      -6.222  13.557  69.088  1.00  0.00    -0.085 OA 
BRANCH  24  25
HETATM   25  C   UNL     1      -5.691  12.347  68.775  1.00  0.00    -0.058 C  
HETATM   26  O   UNL     1      -5.623  11.385  69.525  1.00  0.00    -0.052 OA 
HETATM   27  C   UNL     1      -5.147  12.368  67.377  1.00  0.00    -0.084 C  
ENDBRANCH  24  25
ENDBRANCH  10  24
ENDBRANCH   5   6
ENDBRANCH   4   5
ENDBRANCH   2   4
TORSDOF 8
ENDMDL
MODEL      196
REMARK 921   NORMALIZED FREE ENERGY PREDICTED BY IDOCK:    2.89 KCAL/MOL
REMARK 922        TOTAL FREE ENERGY PREDICTED BY IDOCK:    2.84 KCAL/MOL
REMARK 923 INTER-LIGAND FREE ENERGY PREDICTED BY IDOCK:   -2.77 KCAL/MOL
REMARK 924 INTRA-LIGAND FREE ENERGY PREDICTED BY IDOCK:    5.61 KCAL/MOL
REMARK 927      BINDING AFFINITY PREDICTED BY RF-SCORE:    0.00 PKD
ROOT
HETATM    1  C   UNL     1     -10.230   6.451  70.174  1.00  0.00    -0.229 C  
HETATM    2  C   UNL     1     -10.746   6.841  71.524  1.00  0.00    -0.226 C  
HETATM    3  O   UNL     1     -11.679   7.607  71.713  1.00  0.00    -0.265 OA 
ENDROOT
BRANCH   2   4
HETATM    4  O   UNL     1     -10.022   6.226  72.498  1.00  0.00    -0.171 OA 
BRANCH   4   5
HETATM    5  C   UNL     1      -8.942   5.412  72.032  1.00  0.00    -0.134 C  
BRANCH   5   6
HETATM    6  C   UNL     1      -7.842   6.221  71.343  1.00  0.00    -0.104 C  
HETATM    7  O   UNL     1      -7.217   5.380  70.369  1.00  0.00    -0.059 OA 
HETATM    8  C   UNL     1      -6.704   6.234  69.340  1.00  0.00    -0.052 C  
HETATM    9  C   UNL     1      -7.647   7.443  69.251  1.00  0.00    -0.101 C  
HETATM   10  C   UNL     1      -8.347   7.472  70.618  1.00  0.00    -0.126 C  
BRANCH   8  11
HETATM   11  N   UNL     1      -6.583   5.466  68.099  1.00  0.00    -0.048 N  
HETATM   12  N   UNL     1      -7.598   4.355  66.311  1.00  0.00    -0.085 N  
HETATM   13  C   UNL     1      -5.345   5.219  67.531  1.00  0.00    -0.012 C  
HETATM   14  O   UNL     1      -6.356   3.693  64.518  1.00  0.00    -0.023 OA 
HETATM   15  H   UNL     1      -8.438   3.966  65.883  1.00  0.00     0.000 HD 
HETATM   16  C   UNL     1      -5.212   4.608  66.354  1.00  0.00    -0.009 C  
HETATM   17  C   UNL     1      -7.753   5.013  67.505  1.00  0.00    -0.091 C  
HETATM   18  C   UNL     1      -6.423   4.175  65.643  1.00  0.00    -0.036 C  
HETATM   19  O   UNL     1      -8.874   5.188  67.977  1.00  0.00    -0.103 OA 
ENDBRANCH   8  11
BRANCH   9  20
HETATM   20  O   UNL     1      -6.896   8.651  69.021  1.00  0.00    -0.054 OA 
BRANCH  20  21
HETATM   21  C   UNL     1      -7.447   9.582  68.201  1.00  0.00    -0.079 C  
HETATM   22  C   UNL     1      -6.643  10.848  68.226  1.00  0.00    -0.058 C  
HETATM   23  O   UNL     1      -8.460   9.426  67.536  1.00  0.00    -0.121 OA 
ENDBRANCH  20  21
ENDBRANCH   9  20
BRANCH  10  24
HETATM   24  O   UNL     1      -7.964   8.639  71.376  1.00  0.00    -0.118 OA 
BRANCH  24  25
HETATM   25  C   UNL     1      -7.508   8.442  72.640  1.00  0.00    -0.074 C  
HETATM   26  O   UNL     1      -8.202   8.371  73.643  1.00  0.00    -0.325 OA 
HETATM   27  C   UNL     1      -6.009   8.371  72.643  1.00  0.00    -0.070 C  
ENDBRANCH  24  25
ENDBRANCH  10  24
ENDBRANCH   5   6
ENDBRANCH   4   5
ENDBRANCH   2   4
TORSDOF 8
ENDMDL
MODEL      197
REMARK 921   NORMALIZED FREE ENERGY PREDICTED BY IDOCK:    3.90 KCAL/MOL
REMARK 922        TOTAL FREE ENERGY PREDICTED BY IDOCK:    4.31 KCAL/MOL
REMARK 923 INTER-LIGAND FREE ENERGY PREDICTED BY IDOCK:   -0.83 KCAL/MOL
REMARK 924 INTRA-LIGAND FREE ENERGY PREDICTED BY IDOCK:    5.14 KCAL/MOL
REMARK 927      BINDING AFFINITY PREDICTED BY RF-SCORE:    0.00 PKD
ROOT
HETATM    1  C   UNL     1     -11.286  10.466  64.950  1.00  0.00     1.313 C  
HETATM    2  C   UNL     1     -11.298  11.678  65.829  1.00  0.00    -0.182 C  
HETATM    3  O   UNL     1     -11.334  11.648  67.050  1.00  0.00    -0.313 OA 
ENDROOT
BRANCH   2   4
HETATM    4  O   UNL     1     -11.270  12.808  65.070  1.00  0.00    -0.287 OA 
BRANCH   4   5
HETATM    5  C   UNL     1      -9.991  13.139  64.519  1.00  0.00    -0.110 C  
BRANCH   5   6
HETATM    6  C   UNL     1      -8.947  13.457  65.591  1.00  0.00     0.871 C  
HETATM    7  O   UNL     1      -9.474  14.491  66.429  1.00  0.00    -0.276 OA 
HETATM    8  C   UNL     1      -8.869  14.338  67.718  1.00  0.00    -0.185 C  
HETATM    9  C   UNL     1      -8.613  12.837  67.917  1.00  0.00    -0.181 C  
HETATM   10  C   UNL     1      -8.592  12.269  66.490  1.00  0.00    -0.038 C  
BRANCH   8  11
HETATM   11  N   UNL     1      -9.741  14.945  68.728  1.00  0.00    -0.220 N  
HETATM   12  N   UNL     1     -10.641  16.858  69.724  1.00  0.00    -0.250 N  
HETATM   13  C   UNL     1     -10.528  14.162  69.553  1.00  0.00     0.115 C  
HETATM   14  O   UNL     1     -12.373  16.679  71.194  1.00  0.00     0.437 OA 
HETATM   15  H   UNL     1     -10.635  17.871  69.841  1.00  0.00     0.000 HD 
HETATM   16  C   UNL     1     -11.401  14.689  70.412  1.00  0.00    -0.232 C  
HETATM   17  C   UNL     1      -9.762  16.331  68.811  1.00  0.00    -0.240 C  
HETATM   18  C   UNL     1     -11.522  16.152  70.488  1.00  0.00    -0.343 C  
HETATM   19  O   UNL     1      -9.069  17.070  68.116  1.00  0.00    -0.225 OA 
ENDBRANCH   8  11
BRANCH   9  20
HETATM   20  O   UNL     1      -7.354  12.626  68.584  1.00  0.00    -0.108 OA 
BRANCH  20  21
HETATM   21  C   UNL     1      -6.316  13.422  68.225  1.00  0.00    -0.102 C  
HETATM   22  C   UNL     1      -6.751  14.857  68.161  1.00  0.00    -0.136 C  
HETATM   23  O   UNL     1      -5.182  13.038  67.978  1.00  0.00    -0.084 OA 
ENDBRANCH  20  21
ENDBRANCH   9  20
BRANCH  10  24
HETATM   24  O   UNL     1      -7.276  11.793  66.138  1.00  0.00     0.211 OA 
BRANCH  24  25
HETATM   25  C   UNL     1      -6.859  10.632  66.705  1.00  0.00    -0.114 C  
HETATM   26  O   UNL     1      -7.341  10.113  67.700  1.00  0.00    -0.087 OA 
HETATM   27  C   UNL     1      -5.675  10.089  65.960  1.00  0.00    -0.062 C  
ENDBRANCH  24  25
ENDBRANCH  10  24
ENDBRANCH   5   6
ENDBRANCH   4   5
ENDBRANCH   2   4
TORSDOF 8
ENDMDL
MODEL      198
REMARK 921   NORMALIZED FREE ENERGY PREDICTED BY IDOCK:    7.99 KCAL/MOL
REMARK 922        TOTAL FREE ENERGY PREDICTED BY IDOCK:   10.31 KCAL/MOL
REMARK 923 INTER-LIGAND FREE ENERGY PREDICTED BY IDOCK:   -1.06 KCAL/MOL
REMARK 924 INTRA-LIGAND FREE ENERGY PREDICTED BY IDOCK:   11.38 KCAL/MOL
REMARK 927      BINDING AFFINITY PREDICTED BY RF-SCORE:    0.00 PKD
ROOT
HETATM    1  C   UNL     1     -11.348  10.425  64.912  1.00  0.00     1.670 C  
HETATM    2  C   UNL     1     -11.567  11.376  66.047  1.00  0.00     0.241 C  
HETATM    3  O   UNL     1     -11.371  11.108  67.223  1.00  0.00    -0.397 OA 
ENDROOT
BRANCH   2   4
HETATM    4  O   UNL     1     -12.019  12.571  65.577  1.00  0.00    -0.420 OA 
BRANCH   4   5
HETATM    5  C   UNL     1     -11.001  13.480  65.147  1.00  0.00    -0.320 C  
BRANCH   5   6
HETATM    6  C   UNL     1      -9.843  13.587  66.141  1.00  0.00    -0.283 C  
HETATM    7  O   UNL     1      -9.430  14.956  66.194  1.00  0.00    -0.284 OA 
HETATM    8  C   UNL     1      -8.868  15.178  67.492  1.00  0.00    -0.182 C  
HETATM    9  C   UNL     1      -9.616  14.255  68.466  1.00  0.00    -0.220 C  
HETATM   10  C   UNL     1     -10.199  13.156  67.566  1.00  0.00    -0.225 C  
BRANCH   8  11
HETATM   11  N   UNL     1      -8.960  16.604  67.814  1.00  0.00    -0.209 N  
HETATM   12  N   UNL     1      -8.219  18.795  67.482  1.00  0.00    -0.259 N  
HETATM   13  C   UNL     1      -9.930  17.078  68.680  1.00  0.00    -0.294 C  
HETATM   14  O   UNL     1      -9.393  20.547  68.347  1.00  0.00     0.061 OA 
HETATM   15  H   UNL     1      -7.532  19.439  67.089  1.00  0.00     0.000 HD 
HETATM   16  C   UNL     1     -10.099  18.380  68.915  1.00  0.00    -0.352 C  
HETATM   17  C   UNL     1      -8.055  17.462  67.205  1.00  0.00    -0.208 C  
HETATM   18  C   UNL     1      -9.217  19.340  68.236  1.00  0.00    -0.341 C  
HETATM   19  O   UNL     1      -7.164  17.090  66.444  1.00  0.00    -0.250 OA 
ENDBRANCH   8  11
BRANCH   9  20
HETATM   20  O   UNL     1      -8.706  13.707  69.439  1.00  0.00     0.548 OA 
BRANCH  20  21
HETATM   21  C   UNL     1      -7.450  13.409  69.020  1.00  0.00     0.064 C  
HETATM   22  C   UNL     1      -6.891  14.527  68.191  1.00  0.00    -0.129 C  
HETATM   23  O   UNL     1      -6.849  12.375  69.270  1.00  0.00    -0.095 OA 
ENDBRANCH  20  21
ENDBRANCH   9  20
BRANCH  10  24
HETATM   24  O   UNL     1      -9.585  11.879  67.837  1.00  0.00    -0.181 OA 
BRANCH  24  25
HETATM   25  C   UNL     1      -9.784  11.337  69.066  1.00  0.00    -0.054 C  
HETATM   26  O   UNL     1     -10.090  11.955  70.074  1.00  0.00     1.242 OA 
HETATM   27  C   UNL     1      -9.524   9.859  69.027  1.00  0.00    -0.185 C  
ENDBRANCH  24  25
ENDBRANCH  10  24
ENDBRANCH   5   6
ENDBRANCH   4   5
ENDBRANCH   2   4
TORSDOF 8
ENDMDL
MODEL      199
REMARK 921   NORMALIZED FREE ENERGY PREDICTED BY IDOCK:   13.53 KCAL/MOL
REMARK 922        TOTAL FREE ENERGY PREDICTED BY IDOCK:   18.44 KCAL/MOL
REMARK 923 INTER-LIGAND FREE ENERGY PREDICTED BY IDOCK:    8.61 KCAL/MOL
REMARK 924 INTRA-LIGAND FREE ENERGY PREDICTED BY IDOCK:    9.83 KCAL/MOL
REMARK 927      BINDING AFFINITY PREDICTED BY RF-SCORE:    0.00 PKD
ROOT
HETATM    1  C   UNL     1      -7.408  18.304  66.887  1.00  0.00    -0.229 C  
HETATM    2  C   UNL     1      -6.640  18.548  68.148  1.00  0.00    -0.221 C  
HETATM    3  O   UNL     1      -5.574  18.018  68.424  1.00  0.00    -0.161 OA 
ENDROOT
BRANCH   2   4
HETATM    4  O   UNL     1      -7.305  19.435  68.938  1.00  0.00    -0.346 OA 
BRANCH   4   5
HETATM    5  C   UNL     1      -8.732  19.329  68.905  1.00  0.00    -0.298 C  
BRANCH   5   6
HETATM    6  C   UNL     1      -9.248  18.645  67.638  1.00  0.00    -0.281 C  
HETATM    7  O   UNL     1      -8.679  17.333  67.579  1.00  0.00    -0.207 OA 
HETATM    8  C   UNL     1      -9.591  16.509  66.846  1.00  0.00    -0.243 C  
HETATM    9  C   UNL     1     -11.003  17.043  67.130  1.00  0.00     0.031 C  
HETATM   10  C   UNL     1     -10.771  18.491  67.585  1.00  0.00    -0.364 C  
BRANCH   8  11
HETATM   11  N   UNL     1      -9.382  15.110  67.227  1.00  0.00    -0.199 N  
HETATM   12  N   UNL     1      -9.788  13.342  68.702  1.00  0.00    -0.392 N  
HETATM   13  C   UNL     1      -8.659  14.251  66.419  1.00  0.00     0.281 C  
HETATM   14  O   UNL     1      -9.177  11.219  68.143  1.00  0.00    -0.157 OA 
HETATM   15  H   UNL     1     -10.151  13.012  69.595  1.00  0.00     0.000 HD 
HETATM   16  C   UNL     1      -8.536  12.952  66.692  1.00  0.00     0.068 C  
HETATM   17  C   UNL     1      -9.952  14.674  68.416  1.00  0.00    -0.227 C  
HETATM   18  C   UNL     1      -9.184  12.420  67.900  1.00  0.00    -0.192 C  
HETATM   19  O   UNL     1     -10.587  15.400  69.178  1.00  0.00    -0.226 OA 
ENDBRANCH   8  11
BRANCH   9  20
HETATM   20  O   UNL     1     -11.810  16.991  65.938  1.00  0.00     1.597 OA 
BRANCH  20  21
HETATM   21  C   UNL     1     -11.476  16.071  64.997  1.00  0.00    -0.036 C  
HETATM   22  C   UNL     1     -11.863  16.552  63.630  1.00  0.00     2.381 C  
HETATM   23  O   UNL     1     -10.941  14.995  65.220  1.00  0.00    -0.337 OA 
ENDBRANCH  20  21
ENDBRANCH   9  20
BRANCH  10  24
HETATM   24  O   UNL     1     -11.303  19.431  66.629  1.00  0.00    -0.023 OA 
BRANCH  24  25
HETATM   25  C   UNL     1     -10.983  20.740  66.793  1.00  0.00     1.805 C  
HETATM   26  O   UNL     1     -11.028  21.356  67.847  1.00  0.00     2.244 OA 
HETATM   27  C   UNL     1     -10.605  21.349  65.475  1.00  0.00     4.345 C  
ENDBRANCH  24  25
ENDBRANCH  10  24
ENDBRANCH   5   6
ENDBRANCH   4   5
ENDBRANCH   2   4
TORSDOF 8
ENDMDL
MODEL      200
REMARK 921   NORMALIZED FREE ENERGY PREDICTED BY IDOCK:   14.31 KCAL/MOL
REMARK 922        TOTAL FREE ENERGY PREDICTED BY IDOCK:   19.60 KCAL/MOL
REMARK 923 INTER-LIGAND FREE ENERGY PREDICTED BY IDOCK:    6.73 KCAL/MOL
REMARK 924 INTRA-LIGAND FREE ENERGY PREDICTED BY IDOCK:   12.88 KCAL/MOL
REMARK 927      BINDING AFFINITY PREDICTED BY RF-SCORE:    0.00 PKD
ROOT
HETATM    1  C   UNL     1     -11.360  10.379  64.866  1.00  0.00     1.670 C  
HETATM    2  C   UNL     1     -11.279  11.241  66.087  1.00  0.00    -0.065 C  
HETATM    3  O   UNL     1     -10.852  10.869  67.170  1.00  0.00    -0.258 OA 
ENDROOT
BRANCH   2   4
HETATM    4  O   UNL     1     -11.755  12.486  65.814  1.00  0.00    -0.384 OA 
BRANCH   4   5
HETATM    5  C   UNL     1     -10.835  13.357  65.147  1.00  0.00    -0.313 C  
BRANCH   5   6
HETATM    6  C   UNL     1      -9.376  13.053  65.490  1.00  0.00     0.302 C  
HETATM    7  O   UNL     1      -8.720  14.292  65.776  1.00  0.00     0.614 OA 
HETATM    8  C   UNL     1      -7.646  14.005  66.678  1.00  0.00     1.085 C  
HETATM    9  C   UNL     1      -8.095  12.817  67.542  1.00  0.00    -0.180 C  
HETATM   10  C   UNL     1      -9.196  12.143  66.709  1.00  0.00    -0.207 C  
BRANCH   8  11
HETATM   11  N   UNL     1      -7.321  15.217  67.434  1.00  0.00    -0.200 N  
HETATM   12  N   UNL     1      -6.373  17.352  67.505  1.00  0.00    -0.143 N  
HETATM   13  C   UNL     1      -7.739  15.375  68.743  1.00  0.00    -0.150 C  
HETATM   14  O   UNL     1      -6.727  18.705  69.304  1.00  0.00    -0.275 OA 
HETATM   15  H   UNL     1      -5.798  18.071  67.066  1.00  0.00     0.000 HD 
HETATM   16  C   UNL     1      -7.542  16.505  69.422  1.00  0.00    -0.061 C  
HETATM   17  C   UNL     1      -6.598  16.207  66.783  1.00  0.00     0.120 C  
HETATM   18  C   UNL     1      -6.848  17.617  68.755  1.00  0.00    -0.235 C  
HETATM   19  O   UNL     1      -6.187  16.109  65.628  1.00  0.00     2.243 OA 
ENDBRANCH   8  11
BRANCH   9  20
HETATM   20  O   UNL     1      -6.992  11.920  67.776  1.00  0.00    -0.086 OA 
BRANCH  20  21
HETATM   21  C   UNL     1      -6.149  11.684  66.739  1.00  0.00    -0.134 C  
HETATM   22  C   UNL     1      -5.847  12.958  66.006  1.00  0.00     4.012 C  
HETATM   23  O   UNL     1      -5.697  10.592  66.430  1.00  0.00    -0.058 OA 
ENDBRANCH  20  21
ENDBRANCH   9  20
BRANCH  10  24
HETATM   24  O   UNL     1      -8.784  10.835  66.261  1.00  0.00    -0.157 OA 
BRANCH  24  25
HETATM   25  C   UNL     1      -8.830   9.821  67.164  1.00  0.00    -0.132 C  
HETATM   26  O   UNL     1      -8.773   9.948  68.377  1.00  0.00    -0.117 OA 
HETATM   27  C   UNL     1      -8.911   8.501  66.455  1.00  0.00    -0.165 C  
ENDBRANCH  24  25
ENDBRANCH  10  24
ENDBRANCH   5   6
ENDBRANCH   4   5
ENDBRANCH   2   4
TORSDOF 8
ENDMDL
MODEL      201
REMARK 921   NORMALIZED FREE ENERGY PREDICTED BY IDOCK:   19.16 KCAL/MOL
REMARK 922        TOTAL FREE ENERGY PREDICTED BY IDOCK:   26.71 KCAL/MOL
REMARK 923 INTER-LIGAND FREE ENERGY PREDICTED BY IDOCK:   -2.02 KCAL/MOL
REMARK 924 INTRA-LIGAND FREE ENERGY PREDICTED BY IDOCK:   28.73 KCAL/MOL
REMARK 927      BINDING AFFINITY PREDICTED BY RF-SCORE:    0.00 PKD
ROOT
HETATM    1  C   UNL     1      -7.174   4.972  65.536  1.00  0.00    -0.068 C  
HETATM    2  C   UNL     1      -6.396   3.910  64.823  1.00  0.00    -0.027 C  
HETATM    3  O   UNL     1      -6.258   3.850  63.610  1.00  0.00    -0.017 OA 
ENDROOT
BRANCH   2   4
HETATM    4  O   UNL     1      -5.876   3.027  65.719  1.00  0.00    -0.018 OA 
BRANCH   4   5
HETATM    5  C   UNL     1      -6.407   3.122  67.044  1.00  0.00    -0.036 C  
BRANCH   5   6
HETATM    6  C   UNL     1      -7.383   4.288  67.212  1.00  0.00    -0.069 C  
HETATM    7  O   UNL     1      -7.794   4.329  68.582  1.00  0.00    -0.072 OA 
HETATM    8  C   UNL     1      -8.131   5.688  68.881  1.00  0.00    -0.100 C  
HETATM    9  C   UNL     1      -7.222   6.575  68.018  1.00  0.00    -0.088 C  
HETATM   10  C   UNL     1      -6.787   5.656  66.866  1.00  0.00    -0.063 C  
BRANCH   8  11
HETATM   11  N   UNL     1      -8.000   5.904  70.324  1.00  0.00    -0.104 N  
HETATM   12  N   UNL     1      -8.993   6.087  72.432  1.00  0.00    -0.137 N  
HETATM   13  C   UNL     1      -6.756   6.039  70.915  1.00  0.00    -0.061 C  
HETATM   14  O   UNL     1      -7.702   6.110  74.310  1.00  0.00    -0.096 OA 
HETATM   15  H   UNL     1      -9.835   6.176  73.000  1.00  0.00     0.000 HD 
HETATM   16  C   UNL     1      -6.601   6.139  72.235  1.00  0.00    -0.063 C  
HETATM   17  C   UNL     1      -9.165   5.949  71.078  1.00  0.00    -0.150 C  
HETATM   18  C   UNL     1      -7.798   6.114  73.089  1.00  0.00    -0.104 C  
HETATM   19  O   UNL     1     -10.294   5.854  70.601  1.00  0.00    -0.209 OA 
ENDBRANCH   8  11
BRANCH   9  20
HETATM   20  O   UNL     1      -7.950   7.718  67.531  1.00  0.00    -0.119 OA 
BRANCH  20  21
HETATM   21  C   UNL     1      -7.395   8.425  66.514  1.00  0.00    -0.081 C  
HETATM   22  C   UNL     1      -8.433   8.778  65.490  1.00  0.00    -0.181 C  
HETATM   23  O   UNL     1      -6.215   8.731  66.428  1.00  0.00    -0.058 OA 
ENDBRANCH  20  21
ENDBRANCH   9  20
BRANCH  10  24
HETATM   24  O   UNL     1      -7.336   6.102  65.608  1.00  0.00    -0.076 OA 
BRANCH  24  25
HETATM   25  C   UNL     1      -8.412   5.430  65.122  1.00  0.00    -0.150 C  
HETATM   26  O   UNL     1      -9.053   4.583  65.726  1.00  0.00    -0.125 OA 
HETATM   27  C   UNL     1      -8.681   5.842  63.705  1.00  0.00     0.248 C  
ENDBRANCH  24  25
ENDBRANCH  10  24
ENDBRANCH   5   6
ENDBRANCH   4   5
ENDBRANCH   2   4
TORSDOF 8
ENDMDL
MODEL      202
REMARK 921   NORMALIZED FREE ENERGY PREDICTED BY IDOCK:   20.17 KCAL/MOL
REMARK 922        TOTAL FREE ENERGY PREDICTED BY IDOCK:   28.20 KCAL/MOL
REMARK 923 INTER-LIGAND FREE ENERGY PREDICTED BY IDOCK:    9.25 KCAL/MOL
REMARK 924 INTRA-LIGAND FREE ENERGY PREDICTED BY IDOCK:   18.95 KCAL/MOL
REMARK 927      BINDING AFFINITY PREDICTED BY RF-SCORE:    0.00 PKD
ROOT
HETATM    1  C   UNL     1      -7.179   5.031  65.545  1.00  0.00    -0.068 C  
HETATM    2  C   UNL     1      -6.337   3.812  65.329  1.00  0.00    -0.031 C  
HETATM    3  O   UNL     1      -6.125   3.301  64.240  1.00  0.00    -0.021 OA 
ENDROOT
BRANCH   2   4
HETATM    4  O   UNL     1      -5.852   3.360  66.518  1.00  0.00    -0.022 OA 
BRANCH   4   5
HETATM    5  C   UNL     1      -6.331   4.053  67.674  1.00  0.00    -0.037 C  
BRANCH   5   6
HETATM    6  C   UNL     1      -7.231   5.240  67.324  1.00  0.00    -0.075 C  
HETATM    7  O   UNL     1      -7.874   4.956  66.077  1.00  0.00    -0.097 OA 
HETATM    8  C   UNL     1      -9.117   5.667  66.071  1.00  0.00    -0.156 C  
HETATM    9  C   UNL     1      -9.603   5.730  67.527  1.00  0.00    -0.114 C  
HETATM   10  C   UNL     1      -8.327   5.519  68.356  1.00  0.00    -0.098 C  
BRANCH   8  11
HETATM   11  N   UNL     1     -10.041   5.003  65.150  1.00  0.00     0.139 N  
HETATM   12  N   UNL     1     -11.079   4.908  63.058  1.00  0.00     0.653 N  
HETATM   13  C   UNL     1     -10.659   3.813  65.494  1.00  0.00     0.472 C  
HETATM   14  O   UNL     1     -12.251   3.053  62.441  1.00  0.00     0.808 OA 
HETATM   15  H   UNL     1     -11.296   5.352  62.166  1.00  0.00     0.000 HD 
HETATM   16  C   UNL     1     -11.427   3.137  64.640  1.00  0.00     2.122 C  
HETATM   17  C   UNL     1     -10.258   5.598  63.915  1.00  0.00     2.788 C  
HETATM   18  C   UNL     1     -11.630   3.683  63.290  1.00  0.00     1.087 C  
HETATM   19  O   UNL     1      -9.750   6.661  63.567  1.00  0.00     2.847 OA 
ENDBRANCH   8  11
BRANCH   9  20
HETATM   20  O   UNL     1     -10.201   7.011  67.803  1.00  0.00    -0.157 OA 
BRANCH  20  21
HETATM   21  C   UNL     1     -10.244   7.415  69.097  1.00  0.00    -0.196 C  
HETATM   22  C   UNL     1      -9.812   8.846  69.217  1.00  0.00    -0.176 C  
HETATM   23  O   UNL     1     -10.578   6.718  70.044  1.00  0.00    -0.202 OA 
ENDBRANCH  20  21
ENDBRANCH   9  20
BRANCH  10  24
HETATM   24  O   UNL     1      -7.982   6.710  69.095  1.00  0.00    -0.108 OA 
BRANCH  24  25
HETATM   25  C   UNL     1      -6.686   7.113  69.062  1.00  0.00    -0.056 C  
HETATM   26  O   UNL     1      -5.794   6.584  68.416  1.00  0.00    -0.018 OA 
HETATM   27  C   UNL     1      -6.485   8.284  69.977  1.00  0.00    -0.035 C  
ENDBRANCH  24  25
ENDBRANCH  10  24
ENDBRANCH   5   6
ENDBRANCH   4   5
ENDBRANCH   2   4
TORSDOF 8
ENDMDL
MODEL      203
REMARK 921   NORMALIZED FREE ENERGY PREDICTED BY IDOCK:   24.29 KCAL/MOL
REMARK 922        TOTAL FREE ENERGY PREDICTED BY IDOCK:   34.24 KCAL/MOL
REMARK 923 INTER-LIGAND FREE ENERGY PREDICTED BY IDOCK:   -1.23 KCAL/MOL
REMARK 924 INTRA-LIGAND FREE ENERGY PREDICTED BY IDOCK:   35.47 KCAL/MOL
REMARK 927      BINDING AFFINITY PREDICTED BY RF-SCORE:    0.00 PKD
ROOT
HETATM    1  C   UNL     1      -7.180   5.031  65.546  1.00  0.00    -0.068 C  
HETATM    2  C   UNL     1      -6.334   3.816  65.327  1.00  0.00    -0.031 C  
HETATM    3  O   UNL     1      -6.122   3.306  64.237  1.00  0.00    -0.021 OA 
ENDROOT
BRANCH   2   4
HETATM    4  O   UNL     1      -5.847   3.364  66.515  1.00  0.00    -0.022 OA 
BRANCH   4   5
HETATM    5  C   UNL     1      -6.323   4.058  67.672  1.00  0.00    -0.037 C  
BRANCH   5   6
HETATM    6  C   UNL     1      -7.225   5.244  67.324  1.00  0.00    -0.075 C  
HETATM    7  O   UNL     1      -7.315   6.086  68.477  1.00  0.00    -0.081 OA 
HETATM    8  C   UNL     1      -7.563   7.417  68.010  1.00  0.00    -0.114 C  
HETATM    9  C   UNL     1      -6.865   7.550  66.649  1.00  0.00    -0.066 C  
HETATM   10  C   UNL     1      -6.711   6.101  66.164  1.00  0.00    -0.056 C  
BRANCH   8  11
HETATM   11  N   UNL     1      -7.106   8.370  69.024  1.00  0.00    -0.067 N  
HETATM   12  N   UNL     1      -7.426   9.427  71.084  1.00  0.00    -0.022 N  
HETATM   13  C   UNL     1      -5.894   9.024  68.893  1.00  0.00    -0.040 C  
HETATM   14  O   UNL     1      -5.751  10.665  72.010  1.00  0.00    -0.264 OA 
HETATM   15  H   UNL     1      -8.031   9.637  71.877  1.00  0.00     0.000 HD 
HETATM   16  C   UNL     1      -5.409   9.822  69.844  1.00  0.00    -0.033 C  
HETATM   17  C   UNL     1      -7.922   8.578  70.128  1.00  0.00    -0.105 C  
HETATM   18  C   UNL     1      -6.196  10.017  71.070  1.00  0.00    -0.005 C  
HETATM   19  O   UNL     1      -9.015   8.037  70.284  1.00  0.00    -0.144 OA 
ENDBRANCH   8  11
BRANCH   9  20
HETATM   20  O   UNL     1      -7.674   8.323  65.742  1.00  0.00    -0.085 OA 
BRANCH  20  21
HETATM   21  C   UNL     1      -7.468   8.144  64.413  1.00  0.00    -0.103 C  
HETATM   22  C   UNL     1      -8.775   8.007  63.690  1.00  0.00     0.468 C  
HETATM   23  O   UNL     1      -6.375   8.092  63.869  1.00  0.00    -0.064 OA 
ENDBRANCH  20  21
ENDBRANCH   9  20
BRANCH  10  24
HETATM   24  O   UNL     1      -7.526   5.851  65.000  1.00  0.00    -0.073 OA 
BRANCH  24  25
HETATM   25  C   UNL     1      -6.890   5.478  63.859  1.00  0.00    -0.046 C  
HETATM   26  O   UNL     1      -5.869   5.983  63.418  1.00  0.00    -0.021 OA 
HETATM   27  C   UNL     1      -7.651   4.379  63.179  1.00  0.00    -0.058 C  
ENDBRANCH  24  25
ENDBRANCH  10  24
ENDBRANCH   5   6
ENDBRANCH   4   5
ENDBRANCH   2   4
TORSDOF 8
ENDMDL
MODEL      204
REMARK 921   NORMALIZED FREE ENERGY PREDICTED BY IDOCK:   26.88 KCAL/MOL
REMARK 922        TOTAL FREE ENERGY PREDICTED BY IDOCK:   38.04 KCAL/MOL
REMARK 923 INTER-LIGAND FREE ENERGY PREDICTED BY IDOCK:    6.30 KCAL/MOL
REMARK 924 INTRA-LIGAND FREE ENERGY PREDICTED BY IDOCK:   31.74 KCAL/MOL
REMARK 927      BINDING AFFINITY PREDICTED BY RF-SCORE:    0.00 PKD
ROOT
HETATM    1  C   UNL     1      -7.184   5.032  65.548  1.00  0.00    -0.068 C  
HETATM    2  C   UNL     1      -6.311   3.835  65.337  1.00  0.00    -0.032 C  
HETATM    3  O   UNL     1      -6.089   3.322  64.250  1.00  0.00    -0.021 OA 
ENDROOT
BRANCH   2   4
HETATM    4  O   UNL     1      -5.810   3.404  66.527  1.00  0.00    -0.022 OA 
BRANCH   4   5
HETATM    5  C   UNL     1      -6.329   4.070  67.682  1.00  0.00    -0.037 C  
BRANCH   5   6
HETATM    6  C   UNL     1      -7.767   4.556  67.492  1.00  0.00    -0.085 C  
HETATM    7  O   UNL     1      -8.038   5.541  68.493  1.00  0.00    -0.097 OA 
HETATM    8  C   UNL     1      -9.037   6.419  67.963  1.00  0.00    -0.113 C  
HETATM    9  C   UNL     1      -8.817   6.481  66.444  1.00  0.00    -0.143 C  
HETATM   10  C   UNL     1      -8.035   5.197  66.127  1.00  0.00    -0.104 C  
BRANCH   8  11
HETATM   11  N   UNL     1      -8.945   7.712  68.644  1.00  0.00    -0.133 N  
HETATM   12  N   UNL     1      -8.792   8.937  70.628  1.00  0.00    -0.178 N  
HETATM   13  C   UNL     1      -8.839   8.890  67.925  1.00  0.00    -0.133 C  
HETATM   14  O   UNL     1      -8.313  11.165  70.567  1.00  0.00     1.753 OA 
HETATM   15  H   UNL     1      -8.845   8.968  71.646  1.00  0.00     0.000 HD 
HETATM   16  C   UNL     1      -8.656  10.071  68.517  1.00  0.00    -0.119 C  
HETATM   17  C   UNL     1      -8.947   7.712  70.032  1.00  0.00    -0.143 C  
HETATM   18  C   UNL     1      -8.573  10.119  69.984  1.00  0.00     0.016 C  
HETATM   19  O   UNL     1      -9.058   6.697  70.717  1.00  0.00    -0.150 OA 
ENDBRANCH   8  11
BRANCH   9  20
HETATM   20  O   UNL     1     -10.081   6.508  65.753  1.00  0.00     0.423 OA 
BRANCH  20  21
HETATM   21  C   UNL     1     -10.100   6.069  64.469  1.00  0.00     2.766 C  
HETATM   22  C   UNL     1     -11.270   5.158  64.242  1.00  0.00     2.224 C  
HETATM   23  O   UNL     1      -9.282   6.360  63.610  1.00  0.00     1.068 OA 
ENDBRANCH  20  21
ENDBRANCH   9  20
BRANCH  10  24
HETATM   24  O   UNL     1      -8.823   4.289  65.329  1.00  0.00    -0.123 OA 
BRANCH  24  25
HETATM   25  C   UNL     1      -8.341   3.954  64.105  1.00  0.00    -0.092 C  
HETATM   26  O   UNL     1      -7.857   4.729  63.294  1.00  0.00    -0.069 OA 
HETATM   27  C   UNL     1      -8.532   2.486  63.859  1.00  0.00    -0.086 C  
ENDBRANCH  24  25
ENDBRANCH  10  24
ENDBRANCH   5   6
ENDBRANCH   4   5
ENDBRANCH   2   4
TORSDOF 8
ENDMDL
