MODEL        1
REMARK 921   NORMALIZED FREE ENERGY PREDICTED BY IDOCK:   -8.30 KCAL/MOL
REMARK 922        TOTAL FREE ENERGY PREDICTED BY IDOCK:   -8.59 KCAL/MOL
REMARK 923 INTER-LIGAND FREE ENERGY PREDICTED BY IDOCK:   -8.79 KCAL/MOL
REMARK 924 INTRA-LIGAND FREE ENERGY PREDICTED BY IDOCK:    0.20 KCAL/MOL
REMARK 927      BINDING AFFINITY PREDICTED BY RF-SCORE:    0.00 PKD
ROOT
HETATM    1  C   UNL     1     -10.815  12.042  66.156  1.00  0.00    -0.325 C  
HETATM    2  C   UNL     1     -10.753  13.821  66.554  1.00  0.00    -0.284 C  
HETATM    3  C   UNL     1     -11.911  11.873  67.176  1.00  0.00    -0.216 C  
HETATM    4  C   UNL     1      -9.801  14.718  65.676  1.00  0.00    -0.361 C  
HETATM    5  C   UNL     1     -11.192  11.800  68.520  1.00  0.00    -0.306 C  
HETATM    6  C   UNL     1     -12.140  14.580  66.551  1.00  0.00    -0.330 C  
HETATM    7  C   UNL     1     -10.608  10.453  68.299  1.00  0.00    -0.245 C  
HETATM    8  C   UNL     1      -8.489  10.600  66.582  1.00  0.00    -0.137 C  
HETATM    9  C   UNL     1     -10.109   9.597  69.451  1.00  0.00    -0.213 C  
HETATM   10  C   UNL     1     -10.002  10.530  66.884  1.00  0.00    -0.246 C  
HETATM   11  C   UNL     1     -10.356   9.005  66.458  1.00  0.00    -0.263 C  
HETATM   12  C   UNL     1     -11.027   9.950  70.638  1.00  0.00    -0.337 C  
HETATM   13  C   UNL     1      -9.824   7.875  67.571  1.00  0.00    -0.221 C  
HETATM   14  C   UNL     1     -10.830   9.066  71.819  1.00  0.00    -0.437 C  
HETATM   15  O   UNL     1     -12.408   9.816  70.241  1.00  0.00    -0.480 OA 
HETATM   16  H   UNL     1     -12.974  10.033  70.973  1.00  0.00     0.000 HD 
HETATM   17  C   UNL     1     -11.077   7.590  71.481  1.00  0.00    -0.263 C  
HETATM   18  C   UNL     1     -11.115   6.855  72.831  1.00  0.00    -0.297 C  
HETATM   19  C   UNL     1      -9.788   6.487  73.466  1.00  0.00    -0.193 C  
HETATM   20  O   UNL     1      -9.361   7.477  74.401  1.00  0.00    -0.424 OA 
HETATM   21  C   UNL     1      -8.694   6.156  72.459  1.00  0.00    -0.121 C  
HETATM   22  C   UNL     1      -8.716   6.903  71.071  1.00  0.00    -0.136 C  
HETATM   23  H   UNL     1      -8.529   7.246  74.799  1.00  0.00     0.000 HD 
HETATM   24  C   UNL     1     -10.109   7.058  70.364  1.00  0.00    -0.198 C  
HETATM   25  C   UNL     1     -10.548   5.643  69.899  1.00  0.00    -0.399 C  
HETATM   26  C   UNL     1     -10.311   8.097  69.071  1.00  0.00    -0.229 C  
ENDROOT
BRANCH   4  27
HETATM   27  C   UNL     1      -9.858  16.230  66.070  1.00  0.00    -0.371 C  
HETATM   28  O   UNL     1     -10.777  18.366  65.621  1.00  0.00    -0.548 OA 
HETATM   29  C   UNL     1     -10.682  17.088  65.180  1.00  0.00    -0.053 C  
HETATM   30  O   UNL     1     -11.253  16.728  64.151  1.00  0.00    -1.155 OA 
ENDBRANCH   4  27
TORSDOF 1
ENDMDL
MODEL        2
REMARK 921   NORMALIZED FREE ENERGY PREDICTED BY IDOCK:   -8.09 KCAL/MOL
REMARK 922        TOTAL FREE ENERGY PREDICTED BY IDOCK:   -8.37 KCAL/MOL
REMARK 923 INTER-LIGAND FREE ENERGY PREDICTED BY IDOCK:   -8.24 KCAL/MOL
REMARK 924 INTRA-LIGAND FREE ENERGY PREDICTED BY IDOCK:   -0.12 KCAL/MOL
REMARK 927      BINDING AFFINITY PREDICTED BY RF-SCORE:    0.00 PKD
ROOT
HETATM    1  C   UNL     1     -10.287  13.205  66.964  1.00  0.00    -0.249 C  
HETATM    2  C   UNL     1     -10.205  14.822  67.807  1.00  0.00    -0.232 C  
HETATM    3  C   UNL     1     -11.575  12.914  67.690  1.00  0.00    -0.406 C  
HETATM    4  C   UNL     1      -9.046  15.796  67.376  1.00  0.00    -0.206 C  
HETATM    5  C   UNL     1     -11.149  12.448  69.079  1.00  0.00    -0.288 C  
HETATM    6  C   UNL     1     -11.518  15.702  67.745  1.00  0.00    -0.209 C  
HETATM    7  C   UNL     1     -10.610  11.138  68.632  1.00  0.00    -0.222 C  
HETATM    8  C   UNL     1      -8.181  11.466  67.426  1.00  0.00    -0.145 C  
HETATM    9  C   UNL     1     -10.405   9.984  69.599  1.00  0.00    -0.274 C  
HETATM   10  C   UNL     1      -9.726  11.486  67.418  1.00  0.00    -0.191 C  
HETATM   11  C   UNL     1     -10.072  10.153  66.561  1.00  0.00    -0.296 C  
HETATM   12  C   UNL     1     -11.523  10.139  70.649  1.00  0.00    -0.349 C  
HETATM   13  C   UNL     1      -9.842   8.740  67.427  1.00  0.00    -0.250 C  
HETATM   14  C   UNL     1     -11.621   8.982  71.581  1.00  0.00    -0.426 C  
HETATM   15  O   UNL     1     -12.800  10.249  69.986  1.00  0.00    -0.572 OA 
HETATM   16  H   UNL     1     -13.490  10.345  70.633  1.00  0.00     0.000 HD 
HETATM   17  C   UNL     1     -11.877   7.664  70.839  1.00  0.00    -0.272 C  
HETATM   18  C   UNL     1     -12.231   6.637  71.927  1.00  0.00    -0.381 C  
HETATM   19  C   UNL     1     -11.083   5.989  72.678  1.00  0.00    -0.275 C  
HETATM   20  O   UNL     1     -10.799   6.677  73.896  1.00  0.00    -0.486 OA 
HETATM   21  C   UNL     1      -9.828   5.795  71.837  1.00  0.00    -0.195 C  
HETATM   22  C   UNL     1      -9.525   6.850  70.705  1.00  0.00    -0.165 C  
HETATM   23  H   UNL     1     -10.080   6.271  74.367  1.00  0.00     0.000 HD 
HETATM   24  C   UNL     1     -10.735   7.315  69.820  1.00  0.00    -0.253 C  
HETATM   25  C   UNL     1     -11.150   6.107  68.937  1.00  0.00    -0.417 C  
HETATM   26  C   UNL     1     -10.610   8.649  68.819  1.00  0.00    -0.169 C  
ENDROOT
BRANCH   4  27
HETATM   27  C   UNL     1      -9.096  17.167  68.124  1.00  0.00    -0.247 C  
HETATM   28  O   UNL     1      -9.125  19.528  67.945  1.00  0.00    -0.310 OA 
HETATM   29  C   UNL     1      -8.978  18.369  67.259  1.00  0.00    -0.263 C  
HETATM   30  O   UNL     1      -8.784  18.371  66.044  1.00  0.00    -0.499 OA 
ENDBRANCH   4  27
TORSDOF 1
ENDMDL
MODEL        3
REMARK 921   NORMALIZED FREE ENERGY PREDICTED BY IDOCK:   -8.09 KCAL/MOL
REMARK 922        TOTAL FREE ENERGY PREDICTED BY IDOCK:   -8.36 KCAL/MOL
REMARK 923 INTER-LIGAND FREE ENERGY PREDICTED BY IDOCK:   -8.26 KCAL/MOL
REMARK 924 INTRA-LIGAND FREE ENERGY PREDICTED BY IDOCK:   -0.10 KCAL/MOL
REMARK 927      BINDING AFFINITY PREDICTED BY RF-SCORE:    0.00 PKD
ROOT
HETATM    1  C   UNL     1     -10.173  13.000  66.433  1.00  0.00    -0.283 C  
HETATM    2  C   UNL     1     -10.093  14.698  67.096  1.00  0.00    -0.244 C  
HETATM    3  C   UNL     1     -11.464  12.790  67.182  1.00  0.00    -0.394 C  
HETATM    4  C   UNL     1      -8.931  15.619  66.567  1.00  0.00    -0.343 C  
HETATM    5  C   UNL     1     -11.044  12.476  68.614  1.00  0.00    -0.305 C  
HETATM    6  C   UNL     1     -11.404  15.567  66.934  1.00  0.00    -0.079 C  
HETATM    7  C   UNL     1     -10.504  11.125  68.314  1.00  0.00    -0.215 C  
HETATM    8  C   UNL     1      -8.071  11.319  67.088  1.00  0.00    -0.150 C  
HETATM    9  C   UNL     1     -10.304  10.083  69.401  1.00  0.00    -0.245 C  
HETATM   10  C   UNL     1      -9.616  11.340  67.073  1.00  0.00    -0.197 C  
HETATM   11  C   UNL     1      -9.960   9.922  66.364  1.00  0.00    -0.309 C  
HETATM   12  C   UNL     1     -11.426  10.351  70.423  1.00  0.00    -0.337 C  
HETATM   13  C   UNL     1      -9.734   8.611  67.378  1.00  0.00    -0.227 C  
HETATM   14  C   UNL     1     -11.528   9.302  71.475  1.00  0.00    -0.454 C  
HETATM   15  O   UNL     1     -12.700  10.390  69.748  1.00  0.00    -0.563 OA 
HETATM   16  H   UNL     1     -13.392  10.555  70.378  1.00  0.00     0.000 HD 
HETATM   17  C   UNL     1     -11.783   7.912  70.879  1.00  0.00    -0.271 C  
HETATM   18  C   UNL     1     -12.141   7.009  72.070  1.00  0.00    -0.329 C  
HETATM   19  C   UNL     1     -10.997   6.445  72.891  1.00  0.00    -0.250 C  
HETATM   20  O   UNL     1     -10.717   7.260  74.029  1.00  0.00    -0.545 OA 
HETATM   21  C   UNL     1      -9.739   6.160  72.081  1.00  0.00    -0.168 C  
HETATM   22  C   UNL     1      -9.431   7.086  70.843  1.00  0.00    -0.160 C  
HETATM   23  H   UNL     1     -10.000   6.907  74.543  1.00  0.00     0.000 HD 
HETATM   24  C   UNL     1     -10.637   7.453  69.907  1.00  0.00    -0.245 C  
HETATM   25  C   UNL     1     -11.051   6.157  69.159  1.00  0.00    -0.448 C  
HETATM   26  C   UNL     1     -10.508   8.671  68.769  1.00  0.00    -0.209 C  
ENDROOT
BRANCH   4  27
HETATM   27  C   UNL     1      -8.982  17.064  67.162  1.00  0.00    -0.234 C  
HETATM   28  O   UNL     1      -8.295  19.320  66.960  1.00  0.00    -0.266 OA 
HETATM   29  C   UNL     1      -8.139  18.069  66.466  1.00  0.00    -0.269 C  
HETATM   30  O   UNL     1      -7.374  17.849  65.527  1.00  0.00    -0.522 OA 
ENDBRANCH   4  27
TORSDOF 1
ENDMDL
MODEL        4
REMARK 921   NORMALIZED FREE ENERGY PREDICTED BY IDOCK:   -7.84 KCAL/MOL
REMARK 922        TOTAL FREE ENERGY PREDICTED BY IDOCK:   -8.11 KCAL/MOL
REMARK 923 INTER-LIGAND FREE ENERGY PREDICTED BY IDOCK:   -7.94 KCAL/MOL
REMARK 924 INTRA-LIGAND FREE ENERGY PREDICTED BY IDOCK:   -0.17 KCAL/MOL
REMARK 927      BINDING AFFINITY PREDICTED BY RF-SCORE:    0.00 PKD
ROOT
HETATM    1  C   UNL     1     -10.319  12.785  66.144  1.00  0.00    -0.283 C  
HETATM    2  C   UNL     1     -10.275  14.511  66.732  1.00  0.00    -0.266 C  
HETATM    3  C   UNL     1     -11.600  12.578  66.911  1.00  0.00    -0.436 C  
HETATM    4  C   UNL     1      -9.138  15.435  66.155  1.00  0.00    -0.339 C  
HETATM    5  C   UNL     1     -11.164  12.337  68.353  1.00  0.00    -0.311 C  
HETATM    6  C   UNL     1     -11.608  15.342  66.542  1.00  0.00    -0.015 C  
HETATM    7  C   UNL     1     -10.594  10.987  68.108  1.00  0.00    -0.226 C  
HETATM    8  C   UNL     1      -8.174  11.184  66.857  1.00  0.00    -0.149 C  
HETATM    9  C   UNL     1     -10.363   9.998  69.237  1.00  0.00    -0.237 C  
HETATM   10  C   UNL     1      -9.719  11.168  66.852  1.00  0.00    -0.216 C  
HETATM   11  C   UNL     1     -10.034   9.712  66.208  1.00  0.00    -0.335 C  
HETATM   12  C   UNL     1     -11.484  10.284  70.256  1.00  0.00    -0.317 C  
HETATM   13  C   UNL     1      -9.771   8.452  67.277  1.00  0.00    -0.240 C  
HETATM   14  C   UNL     1     -11.555   9.281  71.352  1.00  0.00    -0.437 C  
HETATM   15  O   UNL     1     -12.763  10.264  69.588  1.00  0.00    -0.599 OA 
HETATM   16  H   UNL     1     -13.455  10.441  70.216  1.00  0.00     0.000 HD 
HETATM   17  C   UNL     1     -11.781   7.860  70.820  1.00  0.00    -0.230 C  
HETATM   18  C   UNL     1     -12.111   7.002  72.052  1.00  0.00    -0.329 C  
HETATM   19  C   UNL     1     -10.948   6.502  72.888  1.00  0.00    -0.250 C  
HETATM   20  O   UNL     1     -10.681   7.372  73.988  1.00  0.00    -0.550 OA 
HETATM   21  C   UNL     1      -9.689   6.211  72.083  1.00  0.00    -0.168 C  
HETATM   22  C   UNL     1      -9.411   7.088  70.803  1.00  0.00    -0.161 C  
HETATM   23  H   UNL     1      -9.952   7.059  74.512  1.00  0.00     0.000 HD 
HETATM   24  C   UNL     1     -10.631   7.386  69.861  1.00  0.00    -0.245 C  
HETATM   25  C   UNL     1     -11.018   6.049  69.173  1.00  0.00    -0.429 C  
HETATM   26  C   UNL     1     -10.537   8.556  68.670  1.00  0.00    -0.154 C  
ENDROOT
BRANCH   4  27
HETATM   27  C   UNL     1      -9.220  16.903  66.686  1.00  0.00    -0.278 C  
HETATM   28  O   UNL     1      -8.601  18.440  68.377  1.00  0.00    -0.310 OA 
HETATM   29  C   UNL     1      -8.587  17.136  68.010  1.00  0.00    -0.227 C  
HETATM   30  O   UNL     1      -8.076  16.280  68.731  1.00  0.00    -0.200 OA 
ENDBRANCH   4  27
TORSDOF 1
ENDMDL
MODEL        5
REMARK 921   NORMALIZED FREE ENERGY PREDICTED BY IDOCK:   -7.58 KCAL/MOL
REMARK 922        TOTAL FREE ENERGY PREDICTED BY IDOCK:   -7.83 KCAL/MOL
REMARK 923 INTER-LIGAND FREE ENERGY PREDICTED BY IDOCK:   -7.72 KCAL/MOL
REMARK 924 INTRA-LIGAND FREE ENERGY PREDICTED BY IDOCK:   -0.11 KCAL/MOL
REMARK 927      BINDING AFFINITY PREDICTED BY RF-SCORE:    0.00 PKD
ROOT
HETATM    1  C   UNL     1     -11.805  11.781  69.196  1.00  0.00    -0.389 C  
HETATM    2  C   UNL     1     -10.906  10.360  69.904  1.00  0.00    -0.353 C  
HETATM    3  C   UNL     1     -10.888  11.740  68.001  1.00  0.00    -0.256 C  
HETATM    4  C   UNL     1     -11.475   9.744  71.236  1.00  0.00    -0.457 C  
HETATM    5  C   UNL     1      -9.617  12.452  68.453  1.00  0.00    -0.180 C  
HETATM    6  C   UNL     1     -10.700   9.122  68.941  1.00  0.00    -0.167 C  
HETATM    7  C   UNL     1     -10.216  13.812  68.481  1.00  0.00    -0.235 C  
HETATM    8  C   UNL     1     -11.796  14.114  70.688  1.00  0.00    -0.333 C  
HETATM    9  C   UNL     1      -9.359  15.065  68.449  1.00  0.00    -0.193 C  
HETATM   10  C   UNL     1     -11.542  13.626  69.245  1.00  0.00    -0.363 C  
HETATM   11  C   UNL     1     -12.396  14.697  68.376  1.00  0.00     0.009 C  
HETATM   12  C   UNL     1      -8.129  14.687  67.600  1.00  0.00    -0.173 C  
HETATM   13  C   UNL     1     -11.656  16.193  68.271  1.00  0.00    -0.181 C  
HETATM   14  C   UNL     1      -7.255  15.848  67.277  1.00  0.00    -0.251 C  
HETATM   15  O   UNL     1      -8.560  14.127  66.342  1.00  0.00    -0.427 OA 
HETATM   16  H   UNL     1      -7.802  13.894  65.818  1.00  0.00     0.000 HD 
HETATM   17  C   UNL     1      -8.010  16.943  66.515  1.00  0.00    -0.329 C  
HETATM   18  C   UNL     1      -6.933  17.920  66.015  1.00  0.00    -0.346 C  
HETATM   19  C   UNL     1      -6.421  18.959  66.996  1.00  0.00    -0.191 C  
HETATM   20  O   UNL     1      -5.234  18.517  67.654  1.00  0.00    -0.157 OA 
HETATM   21  C   UNL     1      -7.470  19.437  67.990  1.00  0.00    -0.316 C  
HETATM   22  C   UNL     1      -8.581  18.414  68.444  1.00  0.00    -0.345 C  
HETATM   23  H   UNL     1      -4.913  19.168  68.268  1.00  0.00     0.000 HD 
HETATM   24  C   UNL     1      -9.224  17.517  67.329  1.00  0.00    -0.240 C  
HETATM   25  C   UNL     1     -10.086  18.446  66.431  1.00  0.00    -0.420 C  
HETATM   26  C   UNL     1     -10.161  16.189  67.722  1.00  0.00    -0.250 C  
ENDROOT
BRANCH   4  27
HETATM   27  C   UNL     1     -10.659   8.506  71.730  1.00  0.00    -0.371 C  
HETATM   28  O   UNL     1     -10.693   6.215  72.328  1.00  0.00    -0.212 OA 
HETATM   29  C   UNL     1     -11.459   7.283  71.998  1.00  0.00    -0.269 C  
HETATM   30  O   UNL     1     -12.684   7.188  71.929  1.00  0.00    -0.321 OA 
ENDBRANCH   4  27
TORSDOF 1
ENDMDL
MODEL        6
REMARK 921   NORMALIZED FREE ENERGY PREDICTED BY IDOCK:   -7.45 KCAL/MOL
REMARK 922        TOTAL FREE ENERGY PREDICTED BY IDOCK:   -7.69 KCAL/MOL
REMARK 923 INTER-LIGAND FREE ENERGY PREDICTED BY IDOCK:   -7.58 KCAL/MOL
REMARK 924 INTRA-LIGAND FREE ENERGY PREDICTED BY IDOCK:   -0.11 KCAL/MOL
REMARK 927      BINDING AFFINITY PREDICTED BY RF-SCORE:    0.00 PKD
ROOT
HETATM    1  C   UNL     1     -10.364  13.295  66.636  1.00  0.00    -0.274 C  
HETATM    2  C   UNL     1     -10.104  14.841  67.571  1.00  0.00    -0.224 C  
HETATM    3  C   UNL     1     -11.513  12.959  67.551  1.00  0.00    -0.386 C  
HETATM    4  C   UNL     1      -9.016  15.837  67.020  1.00  0.00    -0.247 C  
HETATM    5  C   UNL     1     -10.865  12.383  68.806  1.00  0.00    -0.263 C  
HETATM    6  C   UNL     1     -11.389  15.733  67.803  1.00  0.00    -0.240 C  
HETATM    7  C   UNL     1     -10.438  11.107  68.175  1.00  0.00    -0.215 C  
HETATM    8  C   UNL     1      -8.247  11.509  66.595  1.00  0.00    -0.156 C  
HETATM    9  C   UNL     1     -10.094   9.881  69.003  1.00  0.00    -0.199 C  
HETATM   10  C   UNL     1      -9.769  11.542  66.856  1.00  0.00    -0.205 C  
HETATM   11  C   UNL     1     -10.286  10.282  65.975  1.00  0.00    -0.298 C  
HETATM   12  C   UNL     1     -11.011   9.962  70.239  1.00  0.00    -0.309 C  
HETATM   13  C   UNL     1      -9.940   8.804  66.679  1.00  0.00    -0.355 C  
HETATM   14  C   UNL     1     -10.971   8.738  71.085  1.00  0.00    -0.334 C  
HETATM   15  O   UNL     1     -12.380  10.134  69.818  1.00  0.00    -0.505 OA 
HETATM   16  H   UNL     1     -12.946  10.184  70.580  1.00  0.00     0.000 HD 
HETATM   17  C   UNL     1     -11.379   7.483  70.302  1.00  0.00    -0.219 C  
HETATM   18  C   UNL     1     -11.561   6.378  71.354  1.00  0.00    -0.368 C  
HETATM   19  C   UNL     1     -10.315   5.665  71.845  1.00  0.00    -0.215 C  
HETATM   20  O   UNL     1      -9.812   6.254  73.043  1.00  0.00    -0.164 OA 
HETATM   21  C   UNL     1      -9.228   5.526  70.787  1.00  0.00    -0.179 C  
HETATM   22  C   UNL     1      -9.103   6.663  69.702  1.00  0.00    -0.142 C  
HETATM   23  H   UNL     1      -9.031   5.807  73.351  1.00  0.00     0.000 HD 
HETATM   24  C   UNL     1     -10.437   7.205  69.077  1.00  0.00    -0.221 C  
HETATM   25  C   UNL     1     -11.023   6.072  68.191  1.00  0.00    -0.340 C  
HETATM   26  C   UNL     1     -10.459   8.611  68.173  1.00  0.00    -0.241 C  
ENDROOT
BRANCH   4  27
HETATM   27  C   UNL     1      -8.908  17.146  67.866  1.00  0.00    -0.226 C  
HETATM   28  O   UNL     1      -9.028  19.511  67.890  1.00  0.00    -0.308 OA 
HETATM   29  C   UNL     1      -9.031  18.412  67.098  1.00  0.00    -0.268 C  
HETATM   30  O   UNL     1      -9.142  18.511  65.876  1.00  0.00    -0.477 OA 
ENDBRANCH   4  27
TORSDOF 1
ENDMDL
MODEL        7
REMARK 921   NORMALIZED FREE ENERGY PREDICTED BY IDOCK:   -7.42 KCAL/MOL
REMARK 922        TOTAL FREE ENERGY PREDICTED BY IDOCK:   -7.65 KCAL/MOL
REMARK 923 INTER-LIGAND FREE ENERGY PREDICTED BY IDOCK:   -7.58 KCAL/MOL
REMARK 924 INTRA-LIGAND FREE ENERGY PREDICTED BY IDOCK:   -0.07 KCAL/MOL
REMARK 927      BINDING AFFINITY PREDICTED BY RF-SCORE:    0.00 PKD
ROOT
HETATM    1  C   UNL     1     -10.868  13.744  67.146  1.00  0.00    -0.288 C  
HETATM    2  C   UNL     1     -10.632  15.162  68.269  1.00  0.00    -0.243 C  
HETATM    3  C   UNL     1     -11.901  13.191  68.093  1.00  0.00    -0.386 C  
HETATM    4  C   UNL     1      -9.672  16.311  67.780  1.00  0.00    -0.233 C  
HETATM    5  C   UNL     1     -11.100  12.503  69.194  1.00  0.00    -0.254 C  
HETATM    6  C   UNL     1     -11.949  15.905  68.732  1.00  0.00    -0.167 C  
HETATM    7  C   UNL     1     -10.645  11.366  68.354  1.00  0.00    -0.230 C  
HETATM    8  C   UNL     1      -8.644  12.161  66.673  1.00  0.00    -0.122 C  
HETATM    9  C   UNL     1     -10.140  10.070  68.965  1.00  0.00    -0.211 C  
HETATM   10  C   UNL     1     -10.134  12.032  67.061  1.00  0.00    -0.221 C  
HETATM   11  C   UNL     1     -10.640  10.867  66.052  1.00  0.00    -0.254 C  
HETATM   12  C   UNL     1     -10.942   9.905  70.271  1.00  0.00    -0.309 C  
HETATM   13  C   UNL     1     -10.127   9.340  66.505  1.00  0.00    -0.343 C  
HETATM   14  C   UNL     1     -10.738   8.583  70.925  1.00  0.00    -0.268 C  
HETATM   15  O   UNL     1     -12.353  10.019  69.992  1.00  0.00    -0.493 OA 
HETATM   16  H   UNL     1     -12.848   9.917  70.797  1.00  0.00     0.000 HD 
HETATM   17  C   UNL     1     -11.128   7.419  70.005  1.00  0.00    -0.238 C  
HETATM   18  C   UNL     1     -11.134   6.168  70.899  1.00  0.00    -0.371 C  
HETATM   19  C   UNL     1      -9.800   5.500  71.177  1.00  0.00    -0.181 C  
HETATM   20  O   UNL     1      -9.230   5.958  72.403  1.00  0.00    -0.144 OA 
HETATM   21  C   UNL     1      -8.809   5.598  70.025  1.00  0.00    -0.136 C  
HETATM   22  C   UNL     1      -8.865   6.880  69.109  1.00  0.00    -0.134 C  
HETATM   23  H   UNL     1      -8.395   5.539  72.578  1.00  0.00     0.000 HD 
HETATM   24  C   UNL     1     -10.286   7.391  68.680  1.00  0.00    -0.203 C  
HETATM   25  C   UNL     1     -10.871   6.346  67.691  1.00  0.00    -0.425 C  
HETATM   26  C   UNL     1     -10.490   8.901  67.993  1.00  0.00    -0.263 C  
ENDROOT
BRANCH   4  27
HETATM   27  C   UNL     1      -9.578  17.496  68.794  1.00  0.00    -0.277 C  
HETATM   28  O   UNL     1     -10.027  19.780  69.227  1.00  0.00    -0.412 OA 
HETATM   29  C   UNL     1     -10.038  18.812  68.280  1.00  0.00    -0.383 C  
HETATM   30  O   UNL     1     -10.414  19.051  67.133  1.00  0.00    -0.390 OA 
ENDBRANCH   4  27
TORSDOF 1
ENDMDL
MODEL        8
REMARK 921   NORMALIZED FREE ENERGY PREDICTED BY IDOCK:   -7.30 KCAL/MOL
REMARK 922        TOTAL FREE ENERGY PREDICTED BY IDOCK:   -7.53 KCAL/MOL
REMARK 923 INTER-LIGAND FREE ENERGY PREDICTED BY IDOCK:   -7.36 KCAL/MOL
REMARK 924 INTRA-LIGAND FREE ENERGY PREDICTED BY IDOCK:   -0.17 KCAL/MOL
REMARK 927      BINDING AFFINITY PREDICTED BY RF-SCORE:    0.00 PKD
ROOT
HETATM    1  C   UNL     1      -8.982  13.976  66.240  1.00  0.00     0.053 C  
HETATM    2  C   UNL     1      -9.994  15.492  66.313  1.00  0.00    -0.313 C  
HETATM    3  C   UNL     1     -10.242  13.168  66.070  1.00  0.00    -0.287 C  
HETATM    4  C   UNL     1      -9.223  16.865  66.372  1.00  0.00    -0.308 C  
HETATM    5  C   UNL     1     -10.810  13.018  67.478  1.00  0.00    -0.264 C  
HETATM    6  C   UNL     1     -11.055  15.673  65.154  1.00  0.00    -0.357 C  
HETATM    7  C   UNL     1      -9.764  12.077  67.956  1.00  0.00    -0.198 C  
HETATM    8  C   UNL     1      -7.439  13.414  68.471  1.00  0.00    -0.118 C  
HETATM    9  C   UNL     1      -9.978  11.195  69.174  1.00  0.00    -0.104 C  
HETATM   10  C   UNL     1      -8.439  12.727  67.514  1.00  0.00    -0.181 C  
HETATM   11  C   UNL     1      -7.670  11.341  67.169  1.00  0.00    -0.147 C  
HETATM   12  C   UNL     1     -11.486  10.876  69.178  1.00  0.00    -0.303 C  
HETATM   13  C   UNL     1      -7.720  10.235  68.423  1.00  0.00    -0.093 C  
HETATM   14  C   UNL     1     -11.870   9.852  70.188  1.00  0.00    -0.191 C  
HETATM   15  O   UNL     1     -11.877  10.359  67.889  1.00  0.00    -0.702 OA 
HETATM   16  H   UNL     1     -12.807  10.162  67.891  1.00  0.00     0.000 HD 
HETATM   17  C   UNL     1     -11.129   8.526  69.974  1.00  0.00    -0.152 C  
HETATM   18  C   UNL     1     -11.825   7.508  70.891  1.00  0.00    -0.293 C  
HETATM   19  C   UNL     1     -11.424   7.494  72.354  1.00  0.00    -0.315 C  
HETATM   20  O   UNL     1     -12.299   8.297  73.145  1.00  0.00    -0.622 OA 
HETATM   21  C   UNL     1      -9.963   7.850  72.596  1.00  0.00    -0.330 C  
HETATM   22  C   UNL     1      -9.276   8.868  71.606  1.00  0.00    -0.302 C  
HETATM   23  H   UNL     1     -12.048   8.288  74.062  1.00  0.00     0.000 HD 
HETATM   24  C   UNL     1      -9.569   8.684  70.075  1.00  0.00    -0.175 C  
HETATM   25  C   UNL     1      -8.864   7.376  69.625  1.00  0.00    -0.141 C  
HETATM   26  C   UNL     1      -9.172   9.875  68.970  1.00  0.00    -0.168 C  
ENDROOT
BRANCH   4  27
HETATM   27  C   UNL     1     -10.183  18.099  66.384  1.00  0.00    -0.405 C  
HETATM   28  O   UNL     1     -11.211  19.803  67.667  1.00  0.00    -0.157 OA 
HETATM   29  C   UNL     1     -10.455  18.680  67.724  1.00  0.00    -0.411 C  
HETATM   30  O   UNL     1     -10.051  18.241  68.800  1.00  0.00    -0.378 OA 
ENDBRANCH   4  27
TORSDOF 1
ENDMDL
MODEL        9
REMARK 921   NORMALIZED FREE ENERGY PREDICTED BY IDOCK:   -7.21 KCAL/MOL
REMARK 922        TOTAL FREE ENERGY PREDICTED BY IDOCK:   -7.43 KCAL/MOL
REMARK 923 INTER-LIGAND FREE ENERGY PREDICTED BY IDOCK:   -7.33 KCAL/MOL
REMARK 924 INTRA-LIGAND FREE ENERGY PREDICTED BY IDOCK:   -0.10 KCAL/MOL
REMARK 927      BINDING AFFINITY PREDICTED BY RF-SCORE:    0.00 PKD
ROOT
HETATM    1  C   UNL     1     -10.288  10.387  68.904  1.00  0.00    -0.227 C  
HETATM    2  C   UNL     1      -9.230   9.677  70.210  1.00  0.00    -0.285 C  
HETATM    3  C   UNL     1      -9.049  10.802  68.154  1.00  0.00    -0.151 C  
HETATM    4  C   UNL     1      -9.952   8.893  71.368  1.00  0.00    -0.378 C  
HETATM    5  C   UNL     1      -8.591  12.091  68.829  1.00  0.00     0.076 C  
HETATM    6  C   UNL     1      -8.082   8.707  69.719  1.00  0.00    -0.114 C  
HETATM    7  C   UNL     1      -9.702  12.929  68.308  1.00  0.00    -0.217 C  
HETATM    8  C   UNL     1     -12.009  12.416  69.677  1.00  0.00    -0.341 C  
HETATM    9  C   UNL     1      -9.609  14.445  68.267  1.00  0.00    -0.211 C  
HETATM   10  C   UNL     1     -10.967  12.093  68.582  1.00  0.00    -0.284 C  
HETATM   11  C   UNL     1     -11.758  12.526  67.233  1.00  0.00    -0.431 C  
HETATM   12  C   UNL     1      -8.118  14.749  68.023  1.00  0.00    -0.139 C  
HETATM   13  C   UNL     1     -11.840  14.184  67.025  1.00  0.00    -0.458 C  
HETATM   14  C   UNL     1      -7.846  16.186  67.748  1.00  0.00    -0.157 C  
HETATM   15  O   UNL     1      -7.654  14.009  66.874  1.00  0.00    -0.309 OA 
HETATM   16  H   UNL     1      -6.734  14.196  66.723  1.00  0.00     0.000 HD 
HETATM   17  C   UNL     1      -8.617  16.695  66.524  1.00  0.00    -0.320 C  
HETATM   18  C   UNL     1      -8.026  18.078  66.206  1.00  0.00    -0.276 C  
HETATM   19  C   UNL     1      -8.533  19.258  67.013  1.00  0.00    -0.284 C  
HETATM   20  O   UNL     1      -7.689  19.530  68.132  1.00  0.00    -0.288 OA 
HETATM   21  C   UNL     1      -9.994  19.140  67.427  1.00  0.00    -0.432 C  
HETATM   22  C   UNL     1     -10.570  17.698  67.703  1.00  0.00    -0.364 C  
HETATM   23  H   UNL     1      -8.007  20.269  68.637  1.00  0.00     0.000 HD 
HETATM   24  C   UNL     1     -10.173  16.564  66.694  1.00  0.00    -0.302 C  
HETATM   25  C   UNL     1     -10.890  16.871  65.351  1.00  0.00    -0.113 C  
HETATM   26  C   UNL     1     -10.445  14.954  67.052  1.00  0.00    -0.272 C  
ENDROOT
BRANCH   4  27
HETATM   27  C   UNL     1      -8.953   8.287  72.406  1.00  0.00    -0.297 C  
HETATM   28  O   UNL     1      -8.636   6.812  74.232  1.00  0.00    -0.136 OA 
HETATM   29  C   UNL     1      -9.557   7.385  73.420  1.00  0.00    -0.249 C  
HETATM   30  O   UNL     1     -10.756   7.135  73.546  1.00  0.00    -0.368 OA 
ENDBRANCH   4  27
TORSDOF 1
ENDMDL
MODEL       10
REMARK 921   NORMALIZED FREE ENERGY PREDICTED BY IDOCK:   -7.21 KCAL/MOL
REMARK 922        TOTAL FREE ENERGY PREDICTED BY IDOCK:   -7.43 KCAL/MOL
REMARK 923 INTER-LIGAND FREE ENERGY PREDICTED BY IDOCK:   -7.31 KCAL/MOL
REMARK 924 INTRA-LIGAND FREE ENERGY PREDICTED BY IDOCK:   -0.12 KCAL/MOL
REMARK 927      BINDING AFFINITY PREDICTED BY RF-SCORE:    0.00 PKD
ROOT
HETATM    1  C   UNL     1     -11.866  11.970  68.901  1.00  0.00    -0.356 C  
HETATM    2  C   UNL     1     -10.962  10.448  69.342  1.00  0.00    -0.296 C  
HETATM    3  C   UNL     1     -11.076  12.044  67.621  1.00  0.00    -0.319 C  
HETATM    4  C   UNL     1     -11.422   9.696  70.647  1.00  0.00    -0.376 C  
HETATM    5  C   UNL     1      -9.737  12.658  68.017  1.00  0.00    -0.215 C  
HETATM    6  C   UNL     1     -10.908   9.328  68.227  1.00  0.00    -0.132 C  
HETATM    7  C   UNL     1     -10.270  14.022  68.264  1.00  0.00    -0.249 C  
HETATM    8  C   UNL     1     -11.607  14.108  70.645  1.00  0.00    -0.169 C  
HETATM    9  C   UNL     1      -9.367  15.243  68.288  1.00  0.00    -0.194 C  
HETATM   10  C   UNL     1     -11.520  13.787  69.136  1.00  0.00    -0.346 C  
HETATM   11  C   UNL     1     -12.410  14.981  68.490  1.00  0.00     0.095 C  
HETATM   12  C   UNL     1      -8.246  14.931  67.277  1.00  0.00    -0.209 C  
HETATM   13  C   UNL     1     -11.620  16.455  68.482  1.00  0.00    -0.100 C  
HETATM   14  C   UNL     1      -7.359  16.095  67.002  1.00  0.00    -0.266 C  
HETATM   15  O   UNL     1      -8.825  14.540  66.015  1.00  0.00    -0.450 OA 
HETATM   16  H   UNL     1      -8.133  14.347  65.391  1.00  0.00     0.000 HD 
HETATM   17  C   UNL     1      -8.139  17.296  66.454  1.00  0.00    -0.328 C  
HETATM   18  C   UNL     1      -7.077  18.292  65.961  1.00  0.00    -0.307 C  
HETATM   19  C   UNL     1      -6.424  19.189  66.996  1.00  0.00    -0.194 C  
HETATM   20  O   UNL     1      -5.198  18.636  67.472  1.00  0.00    -0.151 OA 
HETATM   21  C   UNL     1      -7.347  19.578  68.144  1.00  0.00    -0.334 C  
HETATM   22  C   UNL     1      -8.450  18.543  68.589  1.00  0.00    -0.326 C  
HETATM   23  H   UNL     1      -4.789  19.198  68.120  1.00  0.00     0.000 HD 
HETATM   24  C   UNL     1      -9.240  17.806  67.451  1.00  0.00    -0.248 C  
HETATM   25  C   UNL     1     -10.146  18.862  66.761  1.00  0.00    -0.425 C  
HETATM   26  C   UNL     1     -10.189  16.470  67.784  1.00  0.00    -0.278 C  
ENDROOT
BRANCH   4  27
HETATM   27  C   UNL     1     -10.615   8.382  70.906  1.00  0.00    -0.243 C  
HETATM   28  O   UNL     1     -10.692   6.050  71.310  1.00  0.00    -0.242 OA 
HETATM   29  C   UNL     1     -11.435   7.177  71.190  1.00  0.00    -0.290 C  
HETATM   30  O   UNL     1     -12.660   7.143  71.300  1.00  0.00    -0.364 OA 
ENDBRANCH   4  27
TORSDOF 1
ENDMDL
MODEL       11
REMARK 921   NORMALIZED FREE ENERGY PREDICTED BY IDOCK:   -7.15 KCAL/MOL
REMARK 922        TOTAL FREE ENERGY PREDICTED BY IDOCK:   -7.37 KCAL/MOL
REMARK 923 INTER-LIGAND FREE ENERGY PREDICTED BY IDOCK:   -7.25 KCAL/MOL
REMARK 924 INTRA-LIGAND FREE ENERGY PREDICTED BY IDOCK:   -0.12 KCAL/MOL
REMARK 927      BINDING AFFINITY PREDICTED BY RF-SCORE:    0.00 PKD
ROOT
HETATM    1  C   UNL     1     -11.157  10.646  69.085  1.00  0.00    -0.309 C  
HETATM    2  C   UNL     1     -10.200   9.623  70.253  1.00  0.00    -0.333 C  
HETATM    3  C   UNL     1      -9.944  10.728  68.195  1.00  0.00    -0.176 C  
HETATM    4  C   UNL     1     -10.978   9.027  71.486  1.00  0.00    -0.418 C  
HETATM    5  C   UNL     1      -9.070  11.814  68.816  1.00  0.00     0.009 C  
HETATM    6  C   UNL     1      -9.432   8.390  69.626  1.00  0.00    -0.166 C  
HETATM    7  C   UNL     1      -9.952  12.946  68.434  1.00  0.00    -0.211 C  
HETATM    8  C   UNL     1     -12.142  13.043  70.064  1.00  0.00    -0.367 C  
HETATM    9  C   UNL     1      -9.445  14.377  68.389  1.00  0.00    -0.207 C  
HETATM   10  C   UNL     1     -11.362  12.485  68.853  1.00  0.00    -0.346 C  
HETATM   11  C   UNL     1     -12.147  13.169  67.608  1.00  0.00    -0.281 C  
HETATM   12  C   UNL     1      -7.965  14.263  67.971  1.00  0.00    -0.142 C  
HETATM   13  C   UNL     1     -11.784  14.791  67.418  1.00  0.00    -0.371 C  
HETATM   14  C   UNL     1      -7.334  15.578  67.672  1.00  0.00    -0.197 C  
HETATM   15  O   UNL     1      -7.859  13.467  66.772  1.00  0.00    -0.351 OA 
HETATM   16  H   UNL     1      -6.946  13.397  66.514  1.00  0.00     0.000 HD 
HETATM   17  C   UNL     1      -8.064  16.325  66.549  1.00  0.00    -0.337 C  
HETATM   18  C   UNL     1      -7.150  17.501  66.169  1.00  0.00    -0.341 C  
HETATM   19  C   UNL     1      -7.212  18.745  67.035  1.00  0.00    -0.209 C  
HETATM   20  O   UNL     1      -6.205  18.730  68.048  1.00  0.00    -0.200 OA 
HETATM   21  C   UNL     1      -8.591  19.021  67.619  1.00  0.00    -0.317 C  
HETATM   22  C   UNL     1      -9.513  17.787  67.956  1.00  0.00    -0.281 C  
HETATM   23  H   UNL     1      -6.244  19.509  68.590  1.00  0.00     0.000 HD 
HETATM   24  C   UNL     1      -9.565  16.626  66.901  1.00  0.00    -0.259 C  
HETATM   25  C   UNL     1     -10.314  17.169  65.654  1.00  0.00    -0.198 C  
HETATM   26  C   UNL     1     -10.236  15.142  67.283  1.00  0.00    -0.243 C  
ENDROOT
BRANCH   4  27
HETATM   27  C   UNL     1     -10.078   8.130  72.396  1.00  0.00    -0.355 C  
HETATM   28  O   UNL     1      -9.823   6.056  73.510  1.00  0.00    -0.157 OA 
HETATM   29  C   UNL     1     -10.679   6.835  72.806  1.00  0.00    -0.246 C  
HETATM   30  O   UNL     1     -11.820   6.451  72.549  1.00  0.00    -0.236 OA 
ENDBRANCH   4  27
TORSDOF 1
ENDMDL
MODEL       12
REMARK 921   NORMALIZED FREE ENERGY PREDICTED BY IDOCK:   -7.13 KCAL/MOL
REMARK 922        TOTAL FREE ENERGY PREDICTED BY IDOCK:   -7.35 KCAL/MOL
REMARK 923 INTER-LIGAND FREE ENERGY PREDICTED BY IDOCK:   -7.24 KCAL/MOL
REMARK 924 INTRA-LIGAND FREE ENERGY PREDICTED BY IDOCK:   -0.11 KCAL/MOL
REMARK 927      BINDING AFFINITY PREDICTED BY RF-SCORE:    0.00 PKD
ROOT
HETATM    1  C   UNL     1      -8.808   8.106  71.457  1.00  0.00    -0.195 C  
HETATM    2  C   UNL     1     -10.030   6.834  71.925  1.00  0.00    -0.187 C  
HETATM    3  C   UNL     1      -9.805   9.172  71.828  1.00  0.00    -0.219 C  
HETATM    4  C   UNL     1      -9.551   5.335  71.891  1.00  0.00    -0.191 C  
HETATM    5  C   UNL     1     -10.740   9.274  70.627  1.00  0.00    -0.331 C  
HETATM    6  C   UNL     1     -10.704   7.012  73.344  1.00  0.00    -0.379 C  
HETATM    7  C   UNL     1      -9.749   9.916  69.726  1.00  0.00    -0.266 C  
HETATM    8  C   UNL     1      -7.944   8.076  68.825  1.00  0.00    -0.119 C  
HETATM    9  C   UNL     1     -10.173  10.678  68.482  1.00  0.00    -0.191 C  
HETATM   10  C   UNL     1      -8.478   9.060  69.889  1.00  0.00    -0.139 C  
HETATM   11  C   UNL     1      -7.424  10.287  69.768  1.00  0.00    -0.169 C  
HETATM   12  C   UNL     1     -11.537  11.301  68.839  1.00  0.00    -0.319 C  
HETATM   13  C   UNL     1      -7.668  11.228  68.407  1.00  0.00    -0.125 C  
HETATM   14  C   UNL     1     -12.034  12.260  67.815  1.00  0.00    -0.229 C  
HETATM   15  O   UNL     1     -11.428  12.032  70.078  1.00  0.00    -0.490 OA 
HETATM   16  H   UNL     1     -12.269  12.416  70.299  1.00  0.00     0.000 HD 
HETATM   17  C   UNL     1     -11.055  13.419  67.588  1.00  0.00    -0.288 C  
HETATM   18  C   UNL     1     -11.819  14.447  66.739  1.00  0.00    -0.431 C  
HETATM   19  C   UNL     1     -11.884  14.210  65.241  1.00  0.00    -0.367 C  
HETATM   20  O   UNL     1     -13.078  13.522  64.871  1.00  0.00    -0.718 OA 
HETATM   21  C   UNL     1     -10.644  13.533  64.671  1.00  0.00    -0.441 C  
HETATM   22  C   UNL     1      -9.868  12.515  65.591  1.00  0.00    -0.227 C  
HETATM   23  H   UNL     1     -13.118  13.373  63.933  1.00  0.00     0.000 HD 
HETATM   24  C   UNL     1      -9.649  12.930  67.089  1.00  0.00    -0.225 C  
HETATM   25  C   UNL     1      -8.634  14.105  67.098  1.00  0.00    -0.230 C  
HETATM   26  C   UNL     1      -9.138  11.817  68.227  1.00  0.00    -0.187 C  
ENDROOT
BRANCH   4  27
HETATM   27  C   UNL     1     -10.659   4.333  72.354  1.00  0.00    -0.145 C  
HETATM   28  O   UNL     1     -11.283   2.622  73.867  1.00  0.00    -0.201 OA 
HETATM   29  C   UNL     1     -10.260   3.399  73.438  1.00  0.00    -0.141 C  
HETATM   30  O   UNL     1      -9.140   3.308  73.941  1.00  0.00    -0.089 OA 
ENDBRANCH   4  27
TORSDOF 1
ENDMDL
MODEL       13
REMARK 921   NORMALIZED FREE ENERGY PREDICTED BY IDOCK:   -7.07 KCAL/MOL
REMARK 922        TOTAL FREE ENERGY PREDICTED BY IDOCK:   -7.28 KCAL/MOL
REMARK 923 INTER-LIGAND FREE ENERGY PREDICTED BY IDOCK:   -7.13 KCAL/MOL
REMARK 924 INTRA-LIGAND FREE ENERGY PREDICTED BY IDOCK:   -0.16 KCAL/MOL
REMARK 927      BINDING AFFINITY PREDICTED BY RF-SCORE:    0.00 PKD
ROOT
HETATM    1  C   UNL     1     -10.756  16.344  67.326  1.00  0.00    -0.257 C  
HETATM    2  C   UNL     1      -9.542  17.705  67.386  1.00  0.00    -0.267 C  
HETATM    3  C   UNL     1     -10.041  15.683  68.475  1.00  0.00    -0.211 C  
HETATM    4  C   UNL     1      -9.793  18.930  66.429  1.00  0.00    -0.412 C  
HETATM    5  C   UNL     1      -8.846  14.976  67.844  1.00  0.00    -0.171 C  
HETATM    6  C   UNL     1      -9.293  18.348  68.810  1.00  0.00    -0.301 C  
HETATM    7  C   UNL     1      -9.642  13.916  67.174  1.00  0.00    -0.247 C  
HETATM    8  C   UNL     1     -10.888  14.913  64.958  1.00  0.00    -0.439 C  
HETATM    9  C   UNL     1      -9.011  12.615  66.706  1.00  0.00    -0.197 C  
HETATM   10  C   UNL     1     -10.786  14.682  66.482  1.00  0.00    -0.315 C  
HETATM   11  C   UNL     1     -11.925  13.552  66.724  1.00  0.00    -0.453 C  
HETATM   12  C   UNL     1      -7.883  12.331  67.718  1.00  0.00    -0.151 C  
HETATM   13  C   UNL     1     -11.459  12.031  66.205  1.00  0.00    -0.408 C  
HETATM   14  C   UNL     1      -7.266  10.987  67.552  1.00  0.00    -0.096 C  
HETATM   15  O   UNL     1      -8.410  12.386  69.061  1.00  0.00    -0.340 OA 
HETATM   16  H   UNL     1      -7.714  12.211  69.685  1.00  0.00     0.000 HD 
HETATM   17  C   UNL     1      -8.296   9.859  67.695  1.00  0.00    -0.114 C  
HETATM   18  C   UNL     1      -7.479   8.560  67.783  1.00  0.00    -0.097 C  
HETATM   19  C   UNL     1      -6.994   7.948  66.482  1.00  0.00    -0.071 C  
HETATM   20  O   UNL     1      -5.664   8.364  66.171  1.00  0.00    -0.042 OA 
HETATM   21  C   UNL     1      -7.939   8.167  65.308  1.00  0.00    -0.126 C  
HETATM   22  C   UNL     1      -8.788   9.495  65.279  1.00  0.00    -0.220 C  
HETATM   23  H   UNL     1      -5.359   7.982  65.356  1.00  0.00     0.000 HD 
HETATM   24  C   UNL     1      -9.445   9.953  66.629  1.00  0.00    -0.220 C  
HETATM   25  C   UNL     1     -10.572   8.938  66.960  1.00  0.00    -0.279 C  
HETATM   26  C   UNL     1     -10.085  11.488  66.801  1.00  0.00    -0.245 C  
ENDROOT
BRANCH   4  27
HETATM   27  C   UNL     1      -8.723  20.058  66.594  1.00  0.00    -0.397 C  
HETATM   28  O   UNL     1      -6.595  20.885  65.965  1.00  0.00    -0.224 OA 
HETATM   29  C   UNL     1      -7.446  19.835  65.868  1.00  0.00    -0.324 C  
HETATM   30  O   UNL     1      -7.146  18.833  65.219  1.00  0.00    -0.503 OA 
ENDBRANCH   4  27
TORSDOF 1
ENDMDL
MODEL       14
REMARK 921   NORMALIZED FREE ENERGY PREDICTED BY IDOCK:   -6.98 KCAL/MOL
REMARK 922        TOTAL FREE ENERGY PREDICTED BY IDOCK:   -7.19 KCAL/MOL
REMARK 923 INTER-LIGAND FREE ENERGY PREDICTED BY IDOCK:   -7.09 KCAL/MOL
REMARK 924 INTRA-LIGAND FREE ENERGY PREDICTED BY IDOCK:   -0.10 KCAL/MOL
REMARK 927      BINDING AFFINITY PREDICTED BY RF-SCORE:    0.00 PKD
ROOT
HETATM    1  C   UNL     1     -10.056   9.584  68.439  1.00  0.00    -0.199 C  
HETATM    2  C   UNL     1      -9.146   8.865  69.848  1.00  0.00    -0.166 C  
HETATM    3  C   UNL     1      -8.753  10.103  67.888  1.00  0.00    -0.122 C  
HETATM    4  C   UNL     1      -9.972   7.985  70.859  1.00  0.00    -0.207 C  
HETATM    5  C   UNL     1      -8.470  11.378  68.676  1.00  0.00    -0.131 C  
HETATM    6  C   UNL     1      -7.885   7.985  69.480  1.00  0.00    -0.105 C  
HETATM    7  C   UNL     1      -9.548  12.182  68.043  1.00  0.00    -0.204 C  
HETATM    8  C   UNL     1     -11.985  11.476  69.053  1.00  0.00    -0.377 C  
HETATM    9  C   UNL     1      -9.542  13.700  68.081  1.00  0.00    -0.221 C  
HETATM   10  C   UNL     1     -10.786  11.266  68.101  1.00  0.00    -0.263 C  
HETATM   11  C   UNL     1     -11.410  11.725  66.675  1.00  0.00    -0.381 C  
HETATM   12  C   UNL     1      -8.052  14.095  68.061  1.00  0.00    -0.149 C  
HETATM   13  C   UNL     1     -11.562  13.385  66.530  1.00  0.00    -0.394 C  
HETATM   14  C   UNL     1      -7.832  15.558  67.890  1.00  0.00    -0.142 C  
HETATM   15  O   UNL     1      -7.391  13.442  66.957  1.00  0.00    -0.355 OA 
HETATM   16  H   UNL     1      -6.473  13.686  66.944  1.00  0.00     0.000 HD 
HETATM   17  C   UNL     1      -8.457  16.087  66.594  1.00  0.00    -0.323 C  
HETATM   18  C   UNL     1      -7.913  17.514  66.422  1.00  0.00    -0.320 C  
HETATM   19  C   UNL     1      -8.596  18.623  67.201  1.00  0.00    -0.269 C  
HETATM   20  O   UNL     1      -7.931  18.881  68.438  1.00  0.00    -0.313 OA 
HETATM   21  C   UNL     1     -10.090  18.405  67.402  1.00  0.00    -0.369 C  
HETATM   22  C   UNL     1     -10.610  16.922  67.532  1.00  0.00    -0.307 C  
HETATM   23  H   UNL     1      -8.359  19.575  68.926  1.00  0.00     0.000 HD 
HETATM   24  C   UNL     1     -10.011  15.865  66.539  1.00  0.00    -0.286 C  
HETATM   25  C   UNL     1     -10.555  16.202  65.124  1.00  0.00    -0.366 C  
HETATM   26  C   UNL     1     -10.233  14.226  66.785  1.00  0.00    -0.272 C  
ENDROOT
BRANCH   4  27
HETATM   27  C   UNL     1      -9.089   7.381  71.999  1.00  0.00    -0.149 C  
HETATM   28  O   UNL     1      -9.015   6.473  74.184  1.00  0.00    -0.142 OA 
HETATM   29  C   UNL     1      -9.803   7.084  73.267  1.00  0.00    -0.214 C  
HETATM   30  O   UNL     1     -10.984   7.329  73.509  1.00  0.00    -0.345 OA 
ENDBRANCH   4  27
TORSDOF 1
ENDMDL
MODEL       15
REMARK 921   NORMALIZED FREE ENERGY PREDICTED BY IDOCK:   -6.93 KCAL/MOL
REMARK 922        TOTAL FREE ENERGY PREDICTED BY IDOCK:   -7.14 KCAL/MOL
REMARK 923 INTER-LIGAND FREE ENERGY PREDICTED BY IDOCK:   -7.03 KCAL/MOL
REMARK 924 INTRA-LIGAND FREE ENERGY PREDICTED BY IDOCK:   -0.10 KCAL/MOL
REMARK 927      BINDING AFFINITY PREDICTED BY RF-SCORE:    0.00 PKD
ROOT
HETATM    1  C   UNL     1     -10.676  10.597  68.034  1.00  0.00    -0.275 C  
HETATM    2  C   UNL     1      -9.767   9.468  69.141  1.00  0.00    -0.178 C  
HETATM    3  C   UNL     1      -9.368  11.007  67.409  1.00  0.00    -0.165 C  
HETATM    4  C   UNL     1     -10.625   8.539  70.079  1.00  0.00    -0.230 C  
HETATM    5  C   UNL     1      -8.773  12.030  68.372  1.00  0.00    -0.147 C  
HETATM    6  C   UNL     1      -8.735   8.495  68.441  1.00  0.00    -0.143 C  
HETATM    7  C   UNL     1      -9.747  13.107  68.058  1.00  0.00    -0.224 C  
HETATM    8  C   UNL     1     -12.149  12.601  69.255  1.00  0.00    -0.218 C  
HETATM    9  C   UNL     1      -9.459  14.564  68.375  1.00  0.00    -0.209 C  
HETATM   10  C   UNL     1     -11.118  12.407  68.120  1.00  0.00    -0.288 C  
HETATM   11  C   UNL     1     -11.797  13.243  66.907  1.00  0.00    -0.446 C  
HETATM   12  C   UNL     1      -7.933  14.715  68.217  1.00  0.00    -0.133 C  
HETATM   13  C   UNL     1     -11.658  14.899  67.095  1.00  0.00    -0.327 C  
HETATM   14  C   UNL     1      -7.469  16.127  68.291  1.00  0.00    -0.145 C  
HETATM   15  O   UNL     1      -7.526  14.208  66.929  1.00  0.00    -0.290 OA 
HETATM   16  H   UNL     1      -6.585  14.301  66.831  1.00  0.00     0.000 HD 
HETATM   17  C   UNL     1      -8.123  17.005  67.216  1.00  0.00    -0.203 C  
HETATM   18  C   UNL     1      -7.348  18.333  67.237  1.00  0.00    -0.218 C  
HETATM   19  C   UNL     1      -7.729  19.349  68.297  1.00  0.00    -0.321 C  
HETATM   20  O   UNL     1      -6.898  19.238  69.452  1.00  0.00    -0.312 OA 
HETATM   21  C   UNL     1      -9.207  19.334  68.664  1.00  0.00    -0.436 C  
HETATM   22  C   UNL     1      -9.973  17.957  68.589  1.00  0.00    -0.387 C  
HETATM   23  H   UNL     1      -7.136  19.875  70.116  1.00  0.00     0.000 HD 
HETATM   24  C   UNL     1      -9.688  17.047  67.343  1.00  0.00    -0.252 C  
HETATM   25  C   UNL     1     -10.310  17.751  66.107  1.00  0.00    -0.340 C  
HETATM   26  C   UNL     1     -10.178  15.449  67.310  1.00  0.00    -0.254 C  
ENDROOT
BRANCH   4  27
HETATM   27  C   UNL     1      -9.751   7.580  70.950  1.00  0.00    -0.173 C  
HETATM   28  O   UNL     1      -9.574   6.312  72.941  1.00  0.00    -0.154 OA 
HETATM   29  C   UNL     1     -10.325   7.219  72.271  1.00  0.00    -0.210 C  
HETATM   30  O   UNL     1     -11.373   7.653  72.749  1.00  0.00    -0.356 OA 
ENDBRANCH   4  27
TORSDOF 1
ENDMDL
MODEL       16
REMARK 921   NORMALIZED FREE ENERGY PREDICTED BY IDOCK:   -6.93 KCAL/MOL
REMARK 922        TOTAL FREE ENERGY PREDICTED BY IDOCK:   -7.13 KCAL/MOL
REMARK 923 INTER-LIGAND FREE ENERGY PREDICTED BY IDOCK:   -7.03 KCAL/MOL
REMARK 924 INTRA-LIGAND FREE ENERGY PREDICTED BY IDOCK:   -0.10 KCAL/MOL
REMARK 927      BINDING AFFINITY PREDICTED BY RF-SCORE:    0.00 PKD
ROOT
HETATM    1  C   UNL     1      -8.856  10.985  65.870  1.00  0.00    -0.204 C  
HETATM    2  C   UNL     1     -10.332  11.881  65.280  1.00  0.00    -0.316 C  
HETATM    3  C   UNL     1      -9.580   9.683  65.640  1.00  0.00    -0.338 C  
HETATM    4  C   UNL     1     -10.210  13.444  65.135  1.00  0.00    -0.316 C  
HETATM    5  C   UNL     1     -10.479   9.509  66.860  1.00  0.00    -0.279 C  
HETATM    6  C   UNL     1     -10.934  11.392  63.902  1.00  0.00    -0.442 C  
HETATM    7  C   UNL     1      -9.376   9.218  67.812  1.00  0.00    -0.145 C  
HETATM    8  C   UNL     1      -8.048  11.513  68.467  1.00  0.00    -0.146 C  
HETATM    9  C   UNL     1      -9.627   8.527  69.141  1.00  0.00    -0.167 C  
HETATM   10  C   UNL     1      -8.333  10.317  67.530  1.00  0.00    -0.114 C  
HETATM   11  C   UNL     1      -7.027   9.385  67.773  1.00  0.00    -0.080 C  
HETATM   12  C   UNL     1     -10.809   7.573  68.879  1.00  0.00    -0.037 C  
HETATM   13  C   UNL     1      -7.064   8.576  69.237  1.00  0.00    -0.059 C  
HETATM   14  C   UNL     1     -11.084   6.649  70.014  1.00  0.00    -0.394 C  
HETATM   15  O   UNL     1     -10.523   6.748  67.730  1.00  0.00    -0.178 OA 
HETATM   16  H   UNL     1     -11.252   6.160  67.569  1.00  0.00     0.000 HD 
HETATM   17  C   UNL     1      -9.869   5.779  70.356  1.00  0.00    -0.241 C  
HETATM   18  C   UNL     1     -10.385   4.707  71.329  1.00  0.00    -0.148 C  
HETATM   19  C   UNL     1     -10.517   5.094  72.791  1.00  0.00    -0.214 C  
HETATM   20  O   UNL     1     -11.841   5.529  73.100  1.00  0.00    -0.536 OA 
HETATM   21  C   UNL     1      -9.472   6.097  73.260  1.00  0.00    -0.143 C  
HETATM   22  C   UNL     1      -8.939   7.152  72.217  1.00  0.00    -0.147 C  
HETATM   23  H   UNL     1     -11.924   5.771  74.016  1.00  0.00     0.000 HD 
HETATM   24  C   UNL     1      -8.616   6.630  70.772  1.00  0.00    -0.135 C  
HETATM   25  C   UNL     1      -7.360   5.724  70.881  1.00  0.00    -0.085 C  
HETATM   26  C   UNL     1      -8.361   7.692  69.506  1.00  0.00    -0.130 C  
ENDROOT
BRANCH   4  27
HETATM   27  C   UNL     1     -11.512  14.106  64.579  1.00  0.00    -0.380 C  
HETATM   28  O   UNL     1     -12.598  16.103  63.916  1.00  0.00    -0.703 OA 
HETATM   29  C   UNL     1     -11.485  15.589  64.493  1.00  0.00    -0.308 C  
HETATM   30  O   UNL     1     -10.572  16.321  64.874  1.00  0.00    -0.650 OA 
ENDBRANCH   4  27
TORSDOF 1
ENDMDL
MODEL       17
REMARK 921   NORMALIZED FREE ENERGY PREDICTED BY IDOCK:   -6.90 KCAL/MOL
REMARK 922        TOTAL FREE ENERGY PREDICTED BY IDOCK:   -7.10 KCAL/MOL
REMARK 923 INTER-LIGAND FREE ENERGY PREDICTED BY IDOCK:   -7.15 KCAL/MOL
REMARK 924 INTRA-LIGAND FREE ENERGY PREDICTED BY IDOCK:    0.05 KCAL/MOL
REMARK 927      BINDING AFFINITY PREDICTED BY RF-SCORE:    0.00 PKD
ROOT
HETATM    1  C   UNL     1     -10.416  11.292  66.486  1.00  0.00    -0.299 C  
HETATM    2  C   UNL     1     -10.499  13.035  67.019  1.00  0.00    -0.249 C  
HETATM    3  C   UNL     1     -11.565  10.977  67.409  1.00  0.00    -0.105 C  
HETATM    4  C   UNL     1      -9.552  14.055  66.282  1.00  0.00    -0.284 C  
HETATM    5  C   UNL     1     -10.936  10.843  68.792  1.00  0.00    -0.285 C  
HETATM    6  C   UNL     1     -11.931  13.706  66.972  1.00  0.00    -0.448 C  
HETATM    7  C   UNL     1     -10.250   9.555  68.515  1.00  0.00    -0.223 C  
HETATM    8  C   UNL     1      -8.033   9.966  66.973  1.00  0.00    -0.109 C  
HETATM    9  C   UNL     1      -9.775   8.643  69.633  1.00  0.00    -0.179 C  
HETATM   10  C   UNL     1      -9.556   9.780  67.157  1.00  0.00    -0.211 C  
HETATM   11  C   UNL     1      -9.778   8.275  66.595  1.00  0.00    -0.321 C  
HETATM   12  C   UNL     1     -10.793   8.845  70.773  1.00  0.00    -0.241 C  
HETATM   13  C   UNL     1      -9.248   7.095  67.656  1.00  0.00    -0.127 C  
HETATM   14  C   UNL     1     -10.618   7.884  71.896  1.00  0.00    -0.285 C  
HETATM   15  O   UNL     1     -12.131   8.658  70.268  1.00  0.00    -0.462 OA 
HETATM   16  H   UNL     1     -12.759   8.782  70.971  1.00  0.00     0.000 HD 
HETATM   17  C   UNL     1     -10.742   6.427  71.433  1.00  0.00    -0.290 C  
HETATM   18  C   UNL     1     -10.824   5.587  72.718  1.00  0.00    -0.308 C  
HETATM   19  C   UNL     1      -9.521   5.251  73.419  1.00  0.00    -0.137 C  
HETATM   20  O   UNL     1      -9.225   6.189  74.454  1.00  0.00    -0.139 OA 
HETATM   21  C   UNL     1      -8.341   5.068  72.473  1.00  0.00    -0.117 C  
HETATM   22  C   UNL     1      -8.319   5.920  71.146  1.00  0.00    -0.124 C  
HETATM   23  H   UNL     1      -8.409   5.978  74.893  1.00  0.00     0.000 HD 
HETATM   24  C   UNL     1      -9.668   6.044  70.353  1.00  0.00    -0.206 C  
HETATM   25  C   UNL     1      -9.980   4.647  69.753  1.00  0.00    -0.295 C  
HETATM   26  C   UNL     1      -9.850   7.168  69.129  1.00  0.00    -0.160 C  
ENDROOT
BRANCH   4  27
HETATM   27  C   UNL     1      -9.736  15.525  66.782  1.00  0.00    -0.252 C  
HETATM   28  O   UNL     1     -10.650  17.667  66.356  1.00  0.00    -0.308 OA 
HETATM   29  C   UNL     1     -10.431  16.435  65.836  1.00  0.00    -0.337 C  
HETATM   30  O   UNL     1     -10.804  16.152  64.698  1.00  0.00    -0.650 OA 
ENDBRANCH   4  27
TORSDOF 1
ENDMDL
MODEL       18
REMARK 921   NORMALIZED FREE ENERGY PREDICTED BY IDOCK:   -6.75 KCAL/MOL
REMARK 922        TOTAL FREE ENERGY PREDICTED BY IDOCK:   -6.94 KCAL/MOL
REMARK 923 INTER-LIGAND FREE ENERGY PREDICTED BY IDOCK:   -6.83 KCAL/MOL
REMARK 924 INTRA-LIGAND FREE ENERGY PREDICTED BY IDOCK:   -0.11 KCAL/MOL
REMARK 927      BINDING AFFINITY PREDICTED BY RF-SCORE:    0.00 PKD
ROOT
HETATM    1  C   UNL     1      -8.888   7.022  69.122  1.00  0.00    -0.135 C  
HETATM    2  C   UNL     1      -9.655   6.848  70.768  1.00  0.00    -0.167 C  
HETATM    3  C   UNL     1      -8.515   8.440  69.468  1.00  0.00    -0.124 C  
HETATM    4  C   UNL     1     -10.196   5.422  71.159  1.00  0.00    -0.287 C  
HETATM    5  C   UNL     1      -9.786   9.252  69.235  1.00  0.00    -0.169 C  
HETATM    6  C   UNL     1      -8.765   7.294  71.997  1.00  0.00    -0.129 C  
HETATM    7  C   UNL     1      -9.751   9.154  67.754  1.00  0.00    -0.188 C  
HETATM    8  C   UNL     1     -10.559   6.675  66.940  1.00  0.00    -0.376 C  
HETATM    9  C   UNL     1     -10.522  10.118  66.869  1.00  0.00    -0.286 C  
HETATM   10  C   UNL     1      -9.496   7.659  67.479  1.00  0.00    -0.168 C  
HETATM   11  C   UNL     1      -8.555   7.879  66.176  1.00  0.00    -0.164 C  
HETATM   12  C   UNL     1     -10.527  11.453  67.641  1.00  0.00    -0.194 C  
HETATM   13  C   UNL     1      -9.254   8.868  65.022  1.00  0.00    -0.033 C  
HETATM   14  C   UNL     1     -11.066  12.591  66.848  1.00  0.00    -0.323 C  
HETATM   15  O   UNL     1      -9.178  11.804  68.013  1.00  0.00    -0.168 OA 
HETATM   16  H   UNL     1      -9.182  12.627  68.489  1.00  0.00     0.000 HD 
HETATM   17  C   UNL     1     -10.271  12.820  65.556  1.00  0.00    -0.293 C  
HETATM   18  C   UNL     1     -10.755  14.171  65.004  1.00  0.00    -0.429 C  
HETATM   19  C   UNL     1     -12.047  14.180  64.208  1.00  0.00    -0.444 C  
HETATM   20  O   UNL     1     -13.168  14.499  65.033  1.00  0.00    -0.469 OA 
HETATM   21  C   UNL     1     -12.284  12.909  63.404  1.00  0.00    -0.574 C  
HETATM   22  C   UNL     1     -11.735  11.551  63.988  1.00  0.00    -0.226 C  
HETATM   23  H   UNL     1     -13.977  14.505  64.534  1.00  0.00     0.000 HD 
HETATM   24  C   UNL     1     -10.292  11.570  64.605  1.00  0.00    -0.349 C  
HETATM   25  C   UNL     1      -9.292  11.766  63.434  1.00  0.00    -0.075 C  
HETATM   26  C   UNL     1      -9.733  10.298  65.535  1.00  0.00    -0.326 C  
ENDROOT
BRANCH   4  27
HETATM   27  C   UNL     1     -10.789   5.372  72.604  1.00  0.00    -0.307 C  
HETATM   28  O   UNL     1     -11.139   4.092  74.565  1.00  0.00    -0.084 OA 
HETATM   29  C   UNL     1     -10.701   4.054  73.283  1.00  0.00    -0.201 C  
HETATM   30  O   UNL     1     -10.270   3.012  72.790  1.00  0.00    -0.144 OA 
ENDBRANCH   4  27
TORSDOF 1
ENDMDL
MODEL       19
REMARK 921   NORMALIZED FREE ENERGY PREDICTED BY IDOCK:   -6.73 KCAL/MOL
REMARK 922        TOTAL FREE ENERGY PREDICTED BY IDOCK:   -6.92 KCAL/MOL
REMARK 923 INTER-LIGAND FREE ENERGY PREDICTED BY IDOCK:   -6.75 KCAL/MOL
REMARK 924 INTRA-LIGAND FREE ENERGY PREDICTED BY IDOCK:   -0.18 KCAL/MOL
REMARK 927      BINDING AFFINITY PREDICTED BY RF-SCORE:    0.00 PKD
ROOT
HETATM    1  C   UNL     1     -11.321  12.696  66.795  1.00  0.00    -0.373 C  
HETATM    2  C   UNL     1     -10.466  11.464  65.755  1.00  0.00    -0.314 C  
HETATM    3  C   UNL     1     -11.210  13.692  65.669  1.00  0.00    -0.305 C  
HETATM    4  C   UNL     1     -10.338  10.005  66.334  1.00  0.00    -0.249 C  
HETATM    5  C   UNL     1      -9.788  14.236  65.760  1.00  0.00    -0.314 C  
HETATM    6  C   UNL     1     -11.041  11.271  64.295  1.00  0.00    -0.293 C  
HETATM    7  C   UNL     1     -10.013  15.022  67.000  1.00  0.00    -0.242 C  
HETATM    8  C   UNL     1     -10.080  13.374  69.177  1.00  0.00     0.224 C  
HETATM    9  C   UNL     1      -9.090  16.157  67.407  1.00  0.00    -0.203 C  
HETATM   10  C   UNL     1     -10.733  14.040  67.945  1.00  0.00    -0.246 C  
HETATM   11  C   UNL     1     -11.702  15.142  68.637  1.00  0.00    -0.364 C  
HETATM   12  C   UNL     1      -8.600  16.770  66.080  1.00  0.00    -0.264 C  
HETATM   13  C   UNL     1     -10.869  16.466  69.230  1.00  0.00    -0.327 C  
HETATM   14  C   UNL     1      -7.834  18.034  66.261  1.00  0.00    -0.288 C  
HETATM   15  O   UNL     1      -9.732  17.083  65.243  1.00  0.00    -0.284 OA 
HETATM   16  H   UNL     1      -9.430  17.461  64.424  1.00  0.00     0.000 HD 
HETATM   17  C   UNL     1      -8.660  19.110  66.977  1.00  0.00    -0.309 C  
HETATM   18  C   UNL     1      -7.857  20.413  66.836  1.00  0.00    -0.342 C  
HETATM   19  C   UNL     1      -6.717  20.641  67.811  1.00  0.00    -0.328 C  
HETATM   20  O   UNL     1      -5.469  20.211  67.269  1.00  0.00    -0.167 OA 
HETATM   21  C   UNL     1      -6.961  20.052  69.194  1.00  0.00    -0.258 C  
HETATM   22  C   UNL     1      -7.826  18.737  69.296  1.00  0.00    -0.001 C  
HETATM   23  H   UNL     1      -4.755  20.354  67.880  1.00  0.00     0.000 HD 
HETATM   24  C   UNL     1      -9.120  18.662  68.411  1.00  0.00    -0.352 C  
HETATM   25  C   UNL     1     -10.136  19.681  68.994  1.00  0.00    -0.443 C  
HETATM   26  C   UNL     1      -9.929  17.217  68.185  1.00  0.00    -0.303 C  
ENDROOT
BRANCH   4  27
HETATM   27  C   UNL     1      -9.633   9.020  65.346  1.00  0.00    -0.084 C  
HETATM   28  O   UNL     1      -7.640   7.885  64.758  1.00  0.00    -0.095 OA 
HETATM   29  C   UNL     1      -8.179   8.819  65.577  1.00  0.00    -0.132 C  
HETATM   30  O   UNL     1      -7.492   9.399  66.418  1.00  0.00    -0.092 OA 
ENDBRANCH   4  27
TORSDOF 1
ENDMDL
MODEL       20
REMARK 921   NORMALIZED FREE ENERGY PREDICTED BY IDOCK:   -6.72 KCAL/MOL
REMARK 922        TOTAL FREE ENERGY PREDICTED BY IDOCK:   -6.92 KCAL/MOL
REMARK 923 INTER-LIGAND FREE ENERGY PREDICTED BY IDOCK:   -6.81 KCAL/MOL
REMARK 924 INTRA-LIGAND FREE ENERGY PREDICTED BY IDOCK:   -0.11 KCAL/MOL
REMARK 927      BINDING AFFINITY PREDICTED BY RF-SCORE:    0.00 PKD
ROOT
HETATM    1  C   UNL     1      -9.597  12.836  68.498  1.00  0.00    -0.113 C  
HETATM    2  C   UNL     1      -9.678  14.152  67.237  1.00  0.00    -0.236 C  
HETATM    3  C   UNL     1      -8.344  12.314  67.844  1.00  0.00    -0.163 C  
HETATM    4  C   UNL     1     -10.800  15.243  67.411  1.00  0.00    -0.304 C  
HETATM    5  C   UNL     1      -8.832  11.489  66.657  1.00  0.00    -0.187 C  
HETATM    6  C   UNL     1      -8.346  14.974  67.008  1.00  0.00    -0.254 C  
HETATM    7  C   UNL     1      -9.381  10.374  67.471  1.00  0.00    -0.163 C  
HETATM    8  C   UNL     1     -11.754  11.101  68.610  1.00  0.00    -0.389 C  
HETATM    9  C   UNL     1      -9.646   9.002  66.875  1.00  0.00    -0.242 C  
HETATM   10  C   UNL     1     -10.210  11.076  68.564  1.00  0.00    -0.203 C  
HETATM   11  C   UNL     1      -9.858  10.027  69.751  1.00  0.00    -0.270 C  
HETATM   12  C   UNL     1      -8.565   8.821  65.791  1.00  0.00    -0.164 C  
HETATM   13  C   UNL     1     -10.150   8.436  69.327  1.00  0.00    -0.202 C  
HETATM   14  C   UNL     1      -8.527   7.447  65.220  1.00  0.00    -0.066 C  
HETATM   15  O   UNL     1      -7.262   9.075  66.356  1.00  0.00    -0.085 OA 
HETATM   16  H   UNL     1      -6.596   8.964  65.687  1.00  0.00     0.000 HD 
HETATM   17  C   UNL     1      -8.269   6.384  66.295  1.00  0.00    -0.118 C  
HETATM   18  C   UNL     1      -7.978   5.082  65.531  1.00  0.00    -0.104 C  
HETATM   19  C   UNL     1      -9.167   4.284  65.028  1.00  0.00    -0.155 C  
HETATM   20  O   UNL     1      -9.483   4.610  63.675  1.00  0.00    -0.322 OA 
HETATM   21  C   UNL     1     -10.393   4.372  65.928  1.00  0.00    -0.234 C  
HETATM   22  C   UNL     1     -10.631   5.711  66.726  1.00  0.00    -0.372 C  
HETATM   23  H   UNL     1     -10.228   4.110  63.360  1.00  0.00     0.000 HD 
HETATM   24  C   UNL     1      -9.379   6.369  67.406  1.00  0.00    -0.119 C  
HETATM   25  C   UNL     1      -8.955   5.446  68.581  1.00  0.00    -0.115 C  
HETATM   26  C   UNL     1      -9.438   7.934  67.993  1.00  0.00    -0.159 C  
ENDROOT
BRANCH   4  27
HETATM   27  C   UNL     1     -10.750  16.346  66.306  1.00  0.00    -0.161 C  
HETATM   28  O   UNL     1     -11.297  16.959  64.085  1.00  0.00    -1.208 OA 
HETATM   29  C   UNL     1     -11.273  15.939  64.976  1.00  0.00    -0.290 C  
HETATM   30  O   UNL     1     -11.669  14.816  64.665  1.00  0.00    -0.409 OA 
ENDBRANCH   4  27
TORSDOF 1
ENDMDL
MODEL       21
REMARK 921   NORMALIZED FREE ENERGY PREDICTED BY IDOCK:   -6.72 KCAL/MOL
REMARK 922        TOTAL FREE ENERGY PREDICTED BY IDOCK:   -6.91 KCAL/MOL
REMARK 923 INTER-LIGAND FREE ENERGY PREDICTED BY IDOCK:   -6.92 KCAL/MOL
REMARK 924 INTRA-LIGAND FREE ENERGY PREDICTED BY IDOCK:    0.00 KCAL/MOL
REMARK 927      BINDING AFFINITY PREDICTED BY RF-SCORE:    0.00 PKD
ROOT
HETATM    1  C   UNL     1     -11.249  10.858  66.491  1.00  0.00    -0.009 C  
HETATM    2  C   UNL     1     -10.852  12.638  66.415  1.00  0.00    -0.295 C  
HETATM    3  C   UNL     1     -11.563  11.012  67.957  1.00  0.00    -0.326 C  
HETATM    4  C   UNL     1     -10.525  13.238  64.997  1.00  0.00    -0.367 C  
HETATM    5  C   UNL     1     -10.207  10.993  68.656  1.00  0.00    -0.211 C  
HETATM    6  C   UNL     1     -11.934  13.615  67.029  1.00  0.00    -0.448 C  
HETATM    7  C   UNL     1      -9.947   9.548  68.427  1.00  0.00    -0.184 C  
HETATM    8  C   UNL     1      -9.202   9.109  65.837  1.00  0.00    -0.286 C  
HETATM    9  C   UNL     1      -8.932   8.777  69.254  1.00  0.00    -0.144 C  
HETATM   10  C   UNL     1     -10.265   9.338  66.934  1.00  0.00    -0.327 C  
HETATM   11  C   UNL     1     -10.898   7.853  67.098  1.00  0.00    -0.187 C  
HETATM   12  C   UNL     1      -8.971   9.431  70.649  1.00  0.00    -0.228 C  
HETATM   13  C   UNL     1      -9.896   6.802  67.930  1.00  0.00    -0.146 C  
HETATM   14  C   UNL     1      -8.187   8.687  71.672  1.00  0.00    -0.199 C  
HETATM   15  O   UNL     1     -10.333   9.483  71.123  1.00  0.00    -0.308 OA 
HETATM   16  H   UNL     1     -10.357   9.887  71.983  1.00  0.00     0.000 HD 
HETATM   17  C   UNL     1      -8.679   7.243  71.837  1.00  0.00    -0.124 C  
HETATM   18  C   UNL     1      -7.979   6.707  73.096  1.00  0.00    -0.106 C  
HETATM   19  C   UNL     1      -6.556   6.203  72.946  1.00  0.00    -0.065 C  
HETATM   20  O   UNL     1      -5.604   7.220  73.262  1.00  0.00    -0.045 OA 
HETATM   21  C   UNL     1      -6.268   5.564  71.594  1.00  0.00    -0.038 C  
HETATM   22  C   UNL     1      -7.038   6.118  70.335  1.00  0.00    -0.071 C  
HETATM   23  H   UNL     1      -4.713   6.904  73.168  1.00  0.00     0.000 HD 
HETATM   24  C   UNL     1      -8.570   6.414  70.507  1.00  0.00    -0.143 C  
HETATM   25  C   UNL     1      -9.289   5.047  70.664  1.00  0.00    -0.216 C  
HETATM   26  C   UNL     1      -9.413   7.297  69.365  1.00  0.00    -0.154 C  
ENDROOT
BRANCH   4  27
HETATM   27  C   UNL     1     -10.246  14.776  65.038  1.00  0.00    -0.379 C  
HETATM   28  O   UNL     1     -11.045  16.953  64.560  1.00  0.00    -1.054 OA 
HETATM   29  C   UNL     1     -11.288  15.628  64.410  1.00  0.00    -0.263 C  
HETATM   30  O   UNL     1     -12.292  15.230  63.819  1.00  0.00    -0.594 OA 
ENDBRANCH   4  27
TORSDOF 1
ENDMDL
MODEL       22
REMARK 921   NORMALIZED FREE ENERGY PREDICTED BY IDOCK:   -6.62 KCAL/MOL
REMARK 922        TOTAL FREE ENERGY PREDICTED BY IDOCK:   -6.81 KCAL/MOL
REMARK 923 INTER-LIGAND FREE ENERGY PREDICTED BY IDOCK:   -6.70 KCAL/MOL
REMARK 924 INTRA-LIGAND FREE ENERGY PREDICTED BY IDOCK:   -0.11 KCAL/MOL
REMARK 927      BINDING AFFINITY PREDICTED BY RF-SCORE:    0.00 PKD
ROOT
HETATM    1  C   UNL     1      -8.652   6.388  68.868  1.00  0.00    -0.123 C  
HETATM    2  C   UNL     1      -8.976   5.875  70.589  1.00  0.00    -0.151 C  
HETATM    3  C   UNL     1      -7.964   7.624  69.387  1.00  0.00    -0.125 C  
HETATM    4  C   UNL     1      -9.631   4.459  70.802  1.00  0.00    -0.259 C  
HETATM    5  C   UNL     1      -9.093   8.592  69.725  1.00  0.00    -0.150 C  
HETATM    6  C   UNL     1      -7.730   5.896  71.563  1.00  0.00    -0.101 C  
HETATM    7  C   UNL     1      -9.466   8.876  68.315  1.00  0.00    -0.150 C  
HETATM    8  C   UNL     1     -10.872   6.786  67.260  1.00  0.00    -0.443 C  
HETATM    9  C   UNL     1     -10.267  10.109  67.932  1.00  0.00    -0.217 C  
HETATM   10  C   UNL     1      -9.553   7.484  67.659  1.00  0.00    -0.171 C  
HETATM   11  C   UNL     1      -8.965   7.934  66.215  1.00  0.00    -0.207 C  
HETATM   12  C   UNL     1      -9.840  11.193  68.941  1.00  0.00    -0.162 C  
HETATM   13  C   UNL     1      -9.764   9.253  65.566  1.00  0.00    -0.247 C  
HETATM   14  C   UNL     1     -10.366  12.546  68.611  1.00  0.00    -0.193 C  
HETATM   15  O   UNL     1      -8.401  11.298  68.962  1.00  0.00    -0.316 OA 
HETATM   16  H   UNL     1      -8.138  11.966  69.585  1.00  0.00     0.000 HD 
HETATM   17  C   UNL     1      -9.912  13.017  67.223  1.00  0.00    -0.232 C  
HETATM   18  C   UNL     1     -10.286  14.506  67.148  1.00  0.00    -0.265 C  
HETATM   19  C   UNL     1     -11.721  14.851  66.794  1.00  0.00    -0.233 C  
HETATM   20  O   UNL     1     -12.513  15.060  67.963  1.00  0.00    -0.436 OA 
HETATM   21  C   UNL     1     -12.376  13.860  65.841  1.00  0.00    -0.517 C  
HETATM   22  C   UNL     1     -11.932  12.350  65.925  1.00  0.00    -0.434 C  
HETATM   23  H   UNL     1     -13.412  15.276  67.741  1.00  0.00     0.000 HD 
HETATM   24  C   UNL     1     -10.397  12.063  66.074  1.00  0.00    -0.271 C  
HETATM   25  C   UNL     1      -9.723  12.451  64.730  1.00  0.00     0.001 C  
HETATM   26  C   UNL     1      -9.839  10.544  66.496  1.00  0.00    -0.255 C  
ENDROOT
BRANCH   4  27
HETATM   27  C   UNL     1      -9.821   4.100  72.312  1.00  0.00    -0.228 C  
HETATM   28  O   UNL     1     -11.123   4.377  74.270  1.00  0.00    -0.249 OA 
HETATM   29  C   UNL     1     -10.942   4.796  72.995  1.00  0.00    -0.272 C  
HETATM   30  O   UNL     1     -11.670   5.656  72.500  1.00  0.00    -0.297 OA 
ENDBRANCH   4  27
TORSDOF 1
ENDMDL
MODEL       23
REMARK 921   NORMALIZED FREE ENERGY PREDICTED BY IDOCK:   -6.47 KCAL/MOL
REMARK 922        TOTAL FREE ENERGY PREDICTED BY IDOCK:   -6.65 KCAL/MOL
REMARK 923 INTER-LIGAND FREE ENERGY PREDICTED BY IDOCK:   -6.49 KCAL/MOL
REMARK 924 INTRA-LIGAND FREE ENERGY PREDICTED BY IDOCK:   -0.16 KCAL/MOL
REMARK 927      BINDING AFFINITY PREDICTED BY RF-SCORE:    0.00 PKD
ROOT
HETATM    1  C   UNL     1     -11.202  15.191  66.842  1.00  0.00    -0.292 C  
HETATM    2  C   UNL     1     -10.223  16.643  67.353  1.00  0.00    -0.286 C  
HETATM    3  C   UNL     1     -10.937  14.565  68.187  1.00  0.00    -0.261 C  
HETATM    4  C   UNL     1     -10.182  17.864  66.360  1.00  0.00    -0.372 C  
HETATM    5  C   UNL     1      -9.536  13.970  68.077  1.00  0.00    -0.217 C  
HETATM    6  C   UNL     1     -10.599  17.274  68.754  1.00  0.00    -0.305 C  
HETATM    7  C   UNL     1      -9.920  12.864  67.164  1.00  0.00    -0.240 C  
HETATM    8  C   UNL     1     -10.287  13.804  64.626  1.00  0.00    -0.393 C  
HETATM    9  C   UNL     1      -9.053  11.628  66.993  1.00  0.00    -0.179 C  
HETATM   10  C   UNL     1     -10.765  13.550  66.073  1.00  0.00    -0.280 C  
HETATM   11  C   UNL     1     -11.812  12.327  65.867  1.00  0.00    -0.420 C  
HETATM   12  C   UNL     1      -8.387  11.414  68.367  1.00  0.00    -0.153 C  
HETATM   13  C   UNL     1     -11.058  10.860  65.587  1.00  0.00     0.068 C  
HETATM   14  C   UNL     1      -7.646  10.127  68.469  1.00  0.00    -0.088 C  
HETATM   15  O   UNL     1      -9.396  11.398  69.399  1.00  0.00    -0.370 OA 
HETATM   16  H   UNL     1      -8.985  11.266  70.246  1.00  0.00     0.000 HD 
HETATM   17  C   UNL     1      -8.554   8.918  68.214  1.00  0.00    -0.134 C  
HETATM   18  C   UNL     1      -7.732   7.686  68.627  1.00  0.00    -0.119 C  
HETATM   19  C   UNL     1      -6.731   7.144  67.624  1.00  0.00    -0.064 C  
HETATM   20  O   UNL     1      -5.424   7.672  67.850  1.00  0.00    -0.029 OA 
HETATM   21  C   UNL     1      -7.161   7.311  66.173  1.00  0.00    -0.070 C  
HETATM   22  C   UNL     1      -8.038   8.567  65.801  1.00  0.00    -0.116 C  
HETATM   23  H   UNL     1      -4.797   7.332  67.222  1.00  0.00     0.000 HD 
HETATM   24  C   UNL     1      -9.203   8.941  66.784  1.00  0.00    -0.201 C  
HETATM   25  C   UNL     1     -10.283   7.832  66.663  1.00  0.00    -0.288 C  
HETATM   26  C   UNL     1      -9.983  10.416  66.677  1.00  0.00    -0.262 C  
ENDROOT
BRANCH   4  27
HETATM   27  C   UNL     1      -9.356  19.070  66.914  1.00  0.00    -0.346 C  
HETATM   28  O   UNL     1      -7.412  20.406  66.713  1.00  0.00    -0.283 OA 
HETATM   29  C   UNL     1      -8.040  19.293  66.263  1.00  0.00    -0.312 C  
HETATM   30  O   UNL     1      -7.532  18.586  65.393  1.00  0.00    -0.484 OA 
ENDBRANCH   4  27
TORSDOF 1
ENDMDL
MODEL       24
REMARK 921   NORMALIZED FREE ENERGY PREDICTED BY IDOCK:   -6.43 KCAL/MOL
REMARK 922        TOTAL FREE ENERGY PREDICTED BY IDOCK:   -6.61 KCAL/MOL
REMARK 923 INTER-LIGAND FREE ENERGY PREDICTED BY IDOCK:   -6.50 KCAL/MOL
REMARK 924 INTRA-LIGAND FREE ENERGY PREDICTED BY IDOCK:   -0.11 KCAL/MOL
REMARK 927      BINDING AFFINITY PREDICTED BY RF-SCORE:    0.00 PKD
ROOT
HETATM    1  C   UNL     1      -7.566   8.130  71.199  1.00  0.00    -0.082 C  
HETATM    2  C   UNL     1      -8.429   6.579  71.622  1.00  0.00    -0.124 C  
HETATM    3  C   UNL     1      -8.787   8.902  71.626  1.00  0.00    -0.214 C  
HETATM    4  C   UNL     1      -7.598   5.246  71.517  1.00  0.00    -0.102 C  
HETATM    5  C   UNL     1      -9.743   8.820  70.440  1.00  0.00    -0.209 C  
HETATM    6  C   UNL     1      -9.098   6.528  73.054  1.00  0.00    -0.136 C  
HETATM    7  C   UNL     1      -8.957   9.723  69.559  1.00  0.00    -0.215 C  
HETATM    8  C   UNL     1      -6.774   8.421  68.560  1.00  0.00    -0.063 C  
HETATM    9  C   UNL     1      -9.580  10.407  68.354  1.00  0.00    -0.153 C  
HETATM   10  C   UNL     1      -7.512   9.199  69.672  1.00  0.00    -0.078 C  
HETATM   11  C   UNL     1      -6.793  10.652  69.596  1.00  0.00    -0.124 C  
HETATM   12  C   UNL     1     -11.048  10.660  68.752  1.00  0.00    -0.265 C  
HETATM   13  C   UNL     1      -7.288  11.559  68.280  1.00  0.00    -0.091 C  
HETATM   14  C   UNL     1     -11.785  11.508  67.776  1.00  0.00    -0.299 C  
HETATM   15  O   UNL     1     -11.096  11.345  70.021  1.00  0.00    -0.472 OA 
HETATM   16  H   UNL     1     -12.001  11.501  70.267  1.00  0.00     0.000 HD 
HETATM   17  C   UNL     1     -11.125  12.880  67.591  1.00  0.00    -0.297 C  
HETATM   18  C   UNL     1     -12.135  13.723  66.796  1.00  0.00    -0.460 C  
HETATM   19  C   UNL     1     -12.169  13.539  65.290  1.00  0.00    -0.441 C  
HETATM   20  O   UNL     1     -13.165  12.594  64.901  1.00  0.00    -0.819 OA 
HETATM   21  C   UNL     1     -10.813  13.211  64.679  1.00  0.00    -0.383 C  
HETATM   22  C   UNL     1      -9.792  12.379  65.546  1.00  0.00    -0.215 C  
HETATM   23  H   UNL     1     -13.187  12.478  63.958  1.00  0.00     0.000 HD 
HETATM   24  C   UNL     1      -9.652  12.773  67.058  1.00  0.00    -0.229 C  
HETATM   25  C   UNL     1      -8.957  14.161  67.110  1.00  0.00    -0.236 C  
HETATM   26  C   UNL     1      -8.861  11.775  68.141  1.00  0.00    -0.169 C  
ENDROOT
BRANCH   4  27
HETATM   27  C   UNL     1      -8.417   3.985  71.945  1.00  0.00    -0.107 C  
HETATM   28  O   UNL     1     -10.023   2.357  71.332  1.00  0.00    -0.144 OA 
HETATM   29  C   UNL     1      -9.412   3.505  70.952  1.00  0.00    -0.166 C  
HETATM   30  O   UNL     1      -9.684   4.043  69.879  1.00  0.00    -0.203 OA 
ENDBRANCH   4  27
TORSDOF 1
ENDMDL
MODEL       25
REMARK 921   NORMALIZED FREE ENERGY PREDICTED BY IDOCK:   -6.35 KCAL/MOL
REMARK 922        TOTAL FREE ENERGY PREDICTED BY IDOCK:   -6.53 KCAL/MOL
REMARK 923 INTER-LIGAND FREE ENERGY PREDICTED BY IDOCK:   -6.61 KCAL/MOL
REMARK 924 INTRA-LIGAND FREE ENERGY PREDICTED BY IDOCK:    0.09 KCAL/MOL
REMARK 927      BINDING AFFINITY PREDICTED BY RF-SCORE:    0.00 PKD
ROOT
HETATM    1  C   UNL     1     -10.965  11.649  67.004  1.00  0.00    -0.338 C  
HETATM    2  C   UNL     1     -10.889  13.375  67.592  1.00  0.00    -0.273 C  
HETATM    3  C   UNL     1     -11.970  11.346  68.084  1.00  0.00    -0.201 C  
HETATM    4  C   UNL     1     -10.024  14.382  66.746  1.00  0.00    -0.265 C  
HETATM    5  C   UNL     1     -11.142  11.140  69.349  1.00  0.00    -0.314 C  
HETATM    6  C   UNL     1     -12.281  14.101  67.787  1.00  0.00    -0.208 C  
HETATM    7  C   UNL     1     -10.563   9.838  68.932  1.00  0.00    -0.240 C  
HETATM    8  C   UNL     1      -8.595  10.217  67.076  1.00  0.00    -0.129 C  
HETATM    9  C   UNL     1      -9.961   8.870  69.937  1.00  0.00    -0.197 C  
HETATM   10  C   UNL     1     -10.078  10.083  67.490  1.00  0.00    -0.243 C  
HETATM   11  C   UNL     1     -10.449   8.608  66.927  1.00  0.00    -0.329 C  
HETATM   12  C   UNL     1     -10.782   9.071  71.226  1.00  0.00    -0.309 C  
HETATM   13  C   UNL     1      -9.813   7.372  67.859  1.00  0.00    -0.177 C  
HETATM   14  C   UNL     1     -10.478   8.066  72.281  1.00  0.00    -0.344 C  
HETATM   15  O   UNL     1     -12.189   8.953  70.930  1.00  0.00    -0.434 OA 
HETATM   16  H   UNL     1     -12.695   9.077  71.725  1.00  0.00     0.000 HD 
HETATM   17  C   UNL     1     -10.735   6.632  71.801  1.00  0.00    -0.257 C  
HETATM   18  C   UNL     1     -10.653   5.752  73.059  1.00  0.00    -0.272 C  
HETATM   19  C   UNL     1      -9.274   5.342  73.539  1.00  0.00    -0.130 C  
HETATM   20  O   UNL     1      -8.782   6.232  74.542  1.00  0.00    -0.129 OA 
HETATM   21  C   UNL     1      -8.263   5.147  72.417  1.00  0.00    -0.117 C  
HETATM   22  C   UNL     1      -8.409   6.043  71.127  1.00  0.00    -0.124 C  
HETATM   23  H   UNL     1      -7.918   5.975  74.843  1.00  0.00     0.000 HD 
HETATM   24  C   UNL     1      -9.857   6.246  70.557  1.00  0.00    -0.207 C  
HETATM   25  C   UNL     1     -10.318   4.883  69.974  1.00  0.00    -0.242 C  
HETATM   26  C   UNL     1     -10.177   7.418  69.409  1.00  0.00    -0.201 C  
ENDROOT
BRANCH   4  27
HETATM   27  C   UNL     1     -10.065  15.840  67.309  1.00  0.00    -0.247 C  
HETATM   28  O   UNL     1      -9.461  17.309  69.066  1.00  0.00    -0.234 OA 
HETATM   29  C   UNL     1      -9.488  16.014  68.667  1.00  0.00    -0.224 C  
HETATM   30  O   UNL     1      -9.053  15.119  69.391  1.00  0.00    -0.227 OA 
ENDBRANCH   4  27
TORSDOF 1
ENDMDL
MODEL       26
REMARK 921   NORMALIZED FREE ENERGY PREDICTED BY IDOCK:   -6.34 KCAL/MOL
REMARK 922        TOTAL FREE ENERGY PREDICTED BY IDOCK:   -6.51 KCAL/MOL
REMARK 923 INTER-LIGAND FREE ENERGY PREDICTED BY IDOCK:   -6.35 KCAL/MOL
REMARK 924 INTRA-LIGAND FREE ENERGY PREDICTED BY IDOCK:   -0.15 KCAL/MOL
REMARK 927      BINDING AFFINITY PREDICTED BY RF-SCORE:    0.00 PKD
ROOT
HETATM    1  C   UNL     1      -8.455   7.564  69.264  1.00  0.00    -0.136 C  
HETATM    2  C   UNL     1      -8.953   5.962  68.547  1.00  0.00    -0.113 C  
HETATM    3  C   UNL     1      -9.909   7.943  69.375  1.00  0.00    -0.180 C  
HETATM    4  C   UNL     1      -7.810   4.913  68.274  1.00  0.00    -0.082 C  
HETATM    5  C   UNL     1     -10.304   8.410  67.978  1.00  0.00    -0.270 C  
HETATM    6  C   UNL     1     -10.057   5.159  69.346  1.00  0.00    -0.305 C  
HETATM    7  C   UNL     1      -9.531   9.678  68.025  1.00  0.00    -0.146 C  
HETATM    8  C   UNL     1      -6.867   9.186  67.677  1.00  0.00    -0.077 C  
HETATM    9  C   UNL     1      -9.832  10.836  67.089  1.00  0.00    -0.216 C  
HETATM   10  C   UNL     1      -8.143   9.255  68.546  1.00  0.00    -0.106 C  
HETATM   11  C   UNL     1      -7.873  10.590  69.427  1.00  0.00    -0.151 C  
HETATM   12  C   UNL     1     -11.353  10.767  66.845  1.00  0.00     0.100 C  
HETATM   13  C   UNL     1      -8.081  12.003  68.557  1.00  0.00    -0.123 C  
HETATM   14  C   UNL     1     -11.885  11.944  66.106  1.00  0.00    -0.108 C  
HETATM   15  O   UNL     1     -12.047  10.718  68.109  1.00  0.00    -0.802 OA 
HETATM   16  H   UNL     1     -12.984  10.676  67.958  1.00  0.00     0.000 HD 
HETATM   17  C   UNL     1     -11.606  13.261  66.842  1.00  0.00    -0.408 C  
HETATM   18  C   UNL     1     -12.445  14.327  66.120  1.00  0.00    -0.362 C  
HETATM   19  C   UNL     1     -11.875  14.921  64.845  1.00  0.00    -0.337 C  
HETATM   20  O   UNL     1     -12.361  14.241  63.688  1.00  0.00    -1.035 OA 
HETATM   21  C   UNL     1     -10.356  15.026  64.839  1.00  0.00    -0.317 C  
HETATM   22  C   UNL     1      -9.536  13.934  65.628  1.00  0.00    -0.067 C  
HETATM   23  H   UNL     1     -12.004  14.613  62.889  1.00  0.00     0.000 HD 
HETATM   24  C   UNL     1     -10.071  13.524  67.045  1.00  0.00    -0.244 C  
HETATM   25  C   UNL     1      -9.851  14.737  67.989  1.00  0.00    -0.218 C  
HETATM   26  C   UNL     1      -9.489  12.166  67.828  1.00  0.00    -0.192 C  
ENDROOT
BRANCH   4  27
HETATM   27  C   UNL     1      -8.350   3.562  67.705  1.00  0.00    -0.096 C  
HETATM   28  O   UNL     1      -9.003   2.333  65.789  1.00  0.00    -0.129 OA 
HETATM   29  C   UNL     1      -8.632   3.553  66.246  1.00  0.00    -0.117 C  
HETATM   30  O   UNL     1      -8.540   4.515  65.484  1.00  0.00    -0.118 OA 
ENDBRANCH   4  27
TORSDOF 1
ENDMDL
MODEL       27
REMARK 921   NORMALIZED FREE ENERGY PREDICTED BY IDOCK:   -6.33 KCAL/MOL
REMARK 922        TOTAL FREE ENERGY PREDICTED BY IDOCK:   -6.50 KCAL/MOL
REMARK 923 INTER-LIGAND FREE ENERGY PREDICTED BY IDOCK:   -6.37 KCAL/MOL
REMARK 924 INTRA-LIGAND FREE ENERGY PREDICTED BY IDOCK:   -0.13 KCAL/MOL
REMARK 927      BINDING AFFINITY PREDICTED BY RF-SCORE:    0.00 PKD
ROOT
HETATM    1  C   UNL     1     -11.510  13.110  68.617  1.00  0.00    -0.342 C  
HETATM    2  C   UNL     1     -10.652  11.522  68.350  1.00  0.00    -0.227 C  
HETATM    3  C   UNL     1     -11.196  13.495  67.194  1.00  0.00    -0.324 C  
HETATM    4  C   UNL     1     -10.710  10.472  69.522  1.00  0.00    -0.291 C  
HETATM    5  C   UNL     1      -9.751  13.985  67.227  1.00  0.00    -0.237 C  
HETATM    6  C   UNL     1     -11.080  10.712  67.060  1.00  0.00    -0.217 C  
HETATM    7  C   UNL     1     -10.044  15.248  67.952  1.00  0.00    -0.233 C  
HETATM    8  C   UNL     1     -10.484  14.748  70.601  1.00  0.00     0.380 C  
HETATM    9  C   UNL     1      -9.079  16.421  67.939  1.00  0.00    -0.201 C  
HETATM   10  C   UNL     1     -10.941  14.811  69.127  1.00  0.00    -0.277 C  
HETATM   11  C   UNL     1     -11.884  16.131  69.127  1.00  0.00    -0.182 C  
HETATM   12  C   UNL     1      -8.398  16.363  66.557  1.00  0.00    -0.302 C  
HETATM   13  C   UNL     1     -11.013  17.558  69.183  1.00  0.00     0.433 C  
HETATM   14  C   UNL     1      -7.555  17.555  66.264  1.00  0.00    -0.343 C  
HETATM   15  O   UNL     1      -9.403  16.299  65.523  1.00  0.00    -0.424 OA 
HETATM   16  H   UNL     1      -8.983  16.264  64.670  1.00  0.00     0.000 HD 
HETATM   17  C   UNL     1      -8.361  18.858  66.316  1.00  0.00    -0.274 C  
HETATM   18  C   UNL     1      -7.442  19.940  65.726  1.00  0.00    -0.330 C  
HETATM   19  C   UNL     1      -6.400  20.550  66.645  1.00  0.00    -0.218 C  
HETATM   20  O   UNL     1      -5.140  19.890  66.520  1.00  0.00    -0.166 OA 
HETATM   21  C   UNL     1      -6.841  20.647  68.099  1.00  0.00    -0.257 C  
HETATM   22  C   UNL     1      -7.818  19.540  68.651  1.00  0.00    -0.383 C  
HETATM   23  H   UNL     1      -4.487  20.273  67.095  1.00  0.00     0.000 HD 
HETATM   24  C   UNL     1      -9.009  19.111  67.724  1.00  0.00    -0.338 C  
HETATM   25  C   UNL     1      -9.995  20.308  67.658  1.00  0.00    -0.551 C  
HETATM   26  C   UNL     1      -9.907  17.739  68.051  1.00  0.00    -0.317 C  
ENDROOT
BRANCH   4  27
HETATM   27  C   UNL     1      -9.986   9.131  69.173  1.00  0.00    -0.189 C  
HETATM   28  O   UNL     1      -8.333   7.550  69.782  1.00  0.00    -0.130 OA 
HETATM   29  C   UNL     1      -8.860   8.764  70.070  1.00  0.00    -0.146 C  
HETATM   30  O   UNL     1      -8.422   9.442  70.999  1.00  0.00    -0.285 OA 
ENDBRANCH   4  27
TORSDOF 1
ENDMDL
MODEL       28
REMARK 921   NORMALIZED FREE ENERGY PREDICTED BY IDOCK:   -6.32 KCAL/MOL
REMARK 922        TOTAL FREE ENERGY PREDICTED BY IDOCK:   -6.49 KCAL/MOL
REMARK 923 INTER-LIGAND FREE ENERGY PREDICTED BY IDOCK:   -6.38 KCAL/MOL
REMARK 924 INTRA-LIGAND FREE ENERGY PREDICTED BY IDOCK:   -0.11 KCAL/MOL
REMARK 927      BINDING AFFINITY PREDICTED BY RF-SCORE:    0.00 PKD
ROOT
HETATM    1  C   UNL     1      -9.613  13.397  68.348  1.00  0.00    -0.188 C  
HETATM    2  C   UNL     1      -9.583  14.679  67.049  1.00  0.00    -0.246 C  
HETATM    3  C   UNL     1      -8.348  12.814  67.773  1.00  0.00    -0.177 C  
HETATM    4  C   UNL     1     -10.673  15.813  67.137  1.00  0.00    -0.312 C  
HETATM    5  C   UNL     1      -8.805  11.973  66.584  1.00  0.00    -0.191 C  
HETATM    6  C   UNL     1      -8.213  15.448  66.868  1.00  0.00    -0.281 C  
HETATM    7  C   UNL     1      -9.433  10.902  67.398  1.00  0.00    -0.170 C  
HETATM    8  C   UNL     1     -11.834  11.742  68.395  1.00  0.00    -0.347 C  
HETATM    9  C   UNL     1      -9.717   9.523  66.826  1.00  0.00    -0.254 C  
HETATM   10  C   UNL     1     -10.291  11.662  68.429  1.00  0.00    -0.215 C  
HETATM   11  C   UNL     1     -10.037  10.636  69.659  1.00  0.00    -0.120 C  
HETATM   12  C   UNL     1      -8.590   9.275  65.804  1.00  0.00    -0.152 C  
HETATM   13  C   UNL     1     -10.364   9.044  69.262  1.00  0.00    -0.227 C  
HETATM   14  C   UNL     1      -8.573   7.885  65.272  1.00  0.00    -0.084 C  
HETATM   15  O   UNL     1      -7.309   9.500  66.428  1.00  0.00    -0.092 OA 
HETATM   16  H   UNL     1      -6.614   9.347  65.797  1.00  0.00     0.000 HD 
HETATM   17  C   UNL     1      -8.408   6.844  66.386  1.00  0.00    -0.125 C  
HETATM   18  C   UNL     1      -8.125   5.512  65.673  1.00  0.00    -0.118 C  
HETATM   19  C   UNL     1      -9.315   4.742  65.131  1.00  0.00    -0.127 C  
HETATM   20  O   UNL     1      -9.551   5.040  63.755  1.00  0.00    -0.336 OA 
HETATM   21  C   UNL     1     -10.581   4.897  65.964  1.00  0.00    -0.312 C  
HETATM   22  C   UNL     1     -10.810   6.265  66.713  1.00  0.00    -0.367 C  
HETATM   23  H   UNL     1     -10.296   4.557  63.416  1.00  0.00     0.000 HD 
HETATM   24  C   UNL     1      -9.572   6.899  67.439  1.00  0.00    -0.163 C  
HETATM   25  C   UNL     1      -9.240   5.995  68.658  1.00  0.00    -0.115 C  
HETATM   26  C   UNL     1      -9.604   8.480  67.981  1.00  0.00    -0.168 C  
ENDROOT
BRANCH   4  27
HETATM   27  C   UNL     1     -10.528  16.883  66.007  1.00  0.00    -0.297 C  
HETATM   28  O   UNL     1     -10.227  19.167  65.461  1.00  0.00    -0.430 OA 
HETATM   29  C   UNL     1     -10.449  18.291  66.471  1.00  0.00    -0.356 C  
HETATM   30  O   UNL     1     -10.550  18.679  67.635  1.00  0.00    -0.407 OA 
ENDBRANCH   4  27
TORSDOF 1
ENDMDL
MODEL       29
REMARK 921   NORMALIZED FREE ENERGY PREDICTED BY IDOCK:   -6.25 KCAL/MOL
REMARK 922        TOTAL FREE ENERGY PREDICTED BY IDOCK:   -6.42 KCAL/MOL
REMARK 923 INTER-LIGAND FREE ENERGY PREDICTED BY IDOCK:   -6.30 KCAL/MOL
REMARK 924 INTRA-LIGAND FREE ENERGY PREDICTED BY IDOCK:   -0.12 KCAL/MOL
REMARK 927      BINDING AFFINITY PREDICTED BY RF-SCORE:    0.00 PKD
ROOT
HETATM    1  C   UNL     1     -10.539  12.134  66.341  1.00  0.00    -0.275 C  
HETATM    2  C   UNL     1     -10.576  13.681  67.307  1.00  0.00    -0.267 C  
HETATM    3  C   UNL     1     -11.453  11.501  67.358  1.00  0.00    -0.349 C  
HETATM    4  C   UNL     1      -9.846  14.931  66.685  1.00  0.00    -0.272 C  
HETATM    5  C   UNL     1     -10.540  11.094  68.511  1.00  0.00    -0.219 C  
HETATM    6  C   UNL     1     -12.010  14.210  67.713  1.00  0.00    -0.389 C  
HETATM    7  C   UNL     1      -9.878   9.980  67.785  1.00  0.00    -0.185 C  
HETATM    8  C   UNL     1      -8.057  10.952  65.997  1.00  0.00    -0.142 C  
HETATM    9  C   UNL     1      -9.142   8.872  68.519  1.00  0.00    -0.137 C  
HETATM   10  C   UNL     1      -9.498  10.589  66.422  1.00  0.00    -0.208 C  
HETATM   11  C   UNL     1      -9.775   9.251  65.548  1.00  0.00    -0.247 C  
HETATM   12  C   UNL     1      -9.903   8.698  69.848  1.00  0.00    -0.183 C  
HETATM   13  C   UNL     1      -8.986   7.903  66.148  1.00  0.00    -0.214 C  
HETATM   14  C   UNL     1      -9.456   7.514  70.632  1.00  0.00    -0.164 C  
HETATM   15  O   UNL     1     -11.309   8.518  69.584  1.00  0.00    -0.448 OA 
HETATM   16  H   UNL     1     -11.778   8.411  70.403  1.00  0.00     0.000 HD 
HETATM   17  C   UNL     1      -9.619   6.208  69.846  1.00  0.00    -0.183 C  
HETATM   18  C   UNL     1      -9.393   5.079  70.864  1.00  0.00    -0.204 C  
HETATM   19  C   UNL     1      -7.959   4.703  71.187  1.00  0.00    -0.087 C  
HETATM   20  O   UNL     1      -7.488   5.386  72.349  1.00  0.00    -0.092 OA 
HETATM   21  C   UNL     1      -7.001   4.863  70.014  1.00  0.00    -0.049 C  
HETATM   22  C   UNL     1      -7.293   6.009  68.971  1.00  0.00    -0.085 C  
HETATM   23  H   UNL     1      -6.590   5.151  72.552  1.00  0.00     0.000 HD 
HETATM   24  C   UNL     1      -8.783   6.197  68.516  1.00  0.00    -0.111 C  
HETATM   25  C   UNL     1      -9.160   4.964  67.651  1.00  0.00    -0.126 C  
HETATM   26  C   UNL     1      -9.265   7.563  67.680  1.00  0.00    -0.135 C  
ENDROOT
BRANCH   4  27
HETATM   27  C   UNL     1      -9.978  16.213  67.569  1.00  0.00    -0.243 C  
HETATM   28  O   UNL     1     -10.387  18.544  67.639  1.00  0.00    -0.369 OA 
HETATM   29  C   UNL     1     -10.182  17.482  66.824  1.00  0.00    -0.327 C  
HETATM   30  O   UNL     1     -10.189  17.610  65.600  1.00  0.00    -0.593 OA 
ENDBRANCH   4  27
TORSDOF 1
ENDMDL
MODEL       30
REMARK 921   NORMALIZED FREE ENERGY PREDICTED BY IDOCK:   -6.21 KCAL/MOL
REMARK 922        TOTAL FREE ENERGY PREDICTED BY IDOCK:   -6.37 KCAL/MOL
REMARK 923 INTER-LIGAND FREE ENERGY PREDICTED BY IDOCK:   -6.19 KCAL/MOL
REMARK 924 INTRA-LIGAND FREE ENERGY PREDICTED BY IDOCK:   -0.18 KCAL/MOL
REMARK 927      BINDING AFFINITY PREDICTED BY RF-SCORE:    0.00 PKD
ROOT
HETATM    1  C   UNL     1     -10.404   5.572  72.536  1.00  0.00    -0.246 C  
HETATM    2  C   UNL     1      -9.291   4.131  72.415  1.00  0.00    -0.164 C  
HETATM    3  C   UNL     1     -10.900   5.280  71.143  1.00  0.00    -0.131 C  
HETATM    4  C   UNL     1      -8.477   3.746  73.707  1.00  0.00    -0.090 C  
HETATM    5  C   UNL     1      -9.839   5.864  70.215  1.00  0.00    -0.234 C  
HETATM    6  C   UNL     1      -9.959   2.779  71.939  1.00  0.00    -0.210 C  
HETATM    7  C   UNL     1     -10.170   7.285  70.493  1.00  0.00    -0.203 C  
HETATM    8  C   UNL     1      -9.196   8.034  72.932  1.00  0.00    -0.332 C  
HETATM    9  C   UNL     1      -9.751   8.403  69.553  1.00  0.00    -0.177 C  
HETATM   10  C   UNL     1     -10.254   7.361  72.030  1.00  0.00    -0.221 C  
HETATM   11  C   UNL     1     -11.470   8.433  72.086  1.00  0.00    -0.442 C  
HETATM   12  C   UNL     1      -9.780   7.775  68.146  1.00  0.00    -0.155 C  
HETATM   13  C   UNL     1     -11.181   9.799  71.163  1.00  0.00    -0.444 C  
HETATM   14  C   UNL     1      -9.593   8.768  67.053  1.00  0.00    -0.236 C  
HETATM   15  O   UNL     1     -11.057   7.143  67.922  1.00  0.00    -0.486 OA 
HETATM   16  H   UNL     1     -11.075   6.756  67.054  1.00  0.00     0.000 HD 
HETATM   17  C   UNL     1     -10.666   9.864  67.080  1.00  0.00    -0.276 C  
HETATM   18  C   UNL     1     -10.512  10.629  65.756  1.00  0.00    -0.235 C  
HETATM   19  C   UNL     1      -9.432  11.692  65.683  1.00  0.00    -0.209 C  
HETATM   20  O   UNL     1      -8.222  11.172  65.131  1.00  0.00    -0.372 OA 
HETATM   21  C   UNL     1      -9.185  12.411  67.002  1.00  0.00    -0.208 C  
HETATM   22  C   UNL     1      -9.394  11.600  68.338  1.00  0.00    -0.191 C  
HETATM   23  H   UNL     1      -7.545  11.838  65.086  1.00  0.00     0.000 HD 
HETATM   24  C   UNL     1     -10.662  10.679  68.423  1.00  0.00    -0.260 C  
HETATM   25  C   UNL     1     -11.903  11.609  68.493  1.00  0.00    -0.357 C  
HETATM   26  C   UNL     1     -10.821   9.537  69.634  1.00  0.00    -0.255 C  
ENDROOT
BRANCH   4  27
HETATM   27  C   UNL     1      -7.593   2.472  73.509  1.00  0.00    -0.046 C  
HETATM   28  O   UNL     1      -5.454   1.600  72.986  1.00  0.00     0.000 OA 
HETATM   29  C   UNL     1      -6.204   2.727  73.047  1.00  0.00    -0.009 C  
HETATM   30  O   UNL     1      -5.727   3.822  72.752  1.00  0.00    -0.003 OA 
ENDBRANCH   4  27
TORSDOF 1
ENDMDL
MODEL       31
REMARK 921   NORMALIZED FREE ENERGY PREDICTED BY IDOCK:   -6.16 KCAL/MOL
REMARK 922        TOTAL FREE ENERGY PREDICTED BY IDOCK:   -6.32 KCAL/MOL
REMARK 923 INTER-LIGAND FREE ENERGY PREDICTED BY IDOCK:   -6.30 KCAL/MOL
REMARK 924 INTRA-LIGAND FREE ENERGY PREDICTED BY IDOCK:   -0.03 KCAL/MOL
REMARK 927      BINDING AFFINITY PREDICTED BY RF-SCORE:    0.00 PKD
ROOT
HETATM    1  C   UNL     1      -9.747  11.047  68.118  1.00  0.00    -0.180 C  
HETATM    2  C   UNL     1     -10.598  11.388  66.540  1.00  0.00    -0.309 C  
HETATM    3  C   UNL     1      -8.768  10.173  67.377  1.00  0.00    -0.125 C  
HETATM    4  C   UNL     1     -11.771  12.438  66.573  1.00  0.00    -0.443 C  
HETATM    5  C   UNL     1      -9.488   8.841  67.192  1.00  0.00    -0.208 C  
HETATM    6  C   UNL     1      -9.675  11.849  65.341  1.00  0.00    -0.228 C  
HETATM    7  C   UNL     1      -9.419   8.439  68.620  1.00  0.00    -0.147 C  
HETATM    8  C   UNL     1     -11.255   9.824  70.094  1.00  0.00    -0.324 C  
HETATM    9  C   UNL     1      -9.590   6.994  69.055  1.00  0.00    -0.141 C  
HETATM   10  C   UNL     1      -9.886   9.690  69.389  1.00  0.00    -0.203 C  
HETATM   11  C   UNL     1      -8.880   9.508  70.649  1.00  0.00    -0.208 C  
HETATM   12  C   UNL     1      -9.008   6.157  67.898  1.00  0.00    -0.112 C  
HETATM   13  C   UNL     1      -8.961   7.985  71.336  1.00  0.00    -0.173 C  
HETATM   14  C   UNL     1      -8.897   4.707  68.217  1.00  0.00    -0.122 C  
HETATM   15  O   UNL     1      -7.677   6.618  67.587  1.00  0.00    -0.103 OA 
HETATM   16  H   UNL     1      -7.318   6.102  66.874  1.00  0.00     0.000 HD 
HETATM   17  C   UNL     1      -8.016   4.453  69.446  1.00  0.00    -0.061 C  
HETATM   18  C   UNL     1      -7.771   2.935  69.476  1.00  0.00    -0.045 C  
HETATM   19  C   UNL     1      -8.857   2.062  70.076  1.00  0.00    -0.066 C  
HETATM   20  O   UNL     1      -9.739   1.559  69.073  1.00  0.00    -0.101 OA 
HETATM   21  C   UNL     1      -9.621   2.724  71.215  1.00  0.00    -0.227 C  
HETATM   22  C   UNL     1      -9.813   4.289  71.166  1.00  0.00    -0.250 C  
HETATM   23  H   UNL     1     -10.419   1.012  69.449  1.00  0.00     0.000 HD 
HETATM   24  C   UNL     1      -8.571   5.148  70.740  1.00  0.00    -0.131 C  
HETATM   25  C   UNL     1      -7.532   5.057  71.891  1.00  0.00    -0.090 C  
HETATM   26  C   UNL     1      -8.735   6.763  70.339  1.00  0.00    -0.151 C  
ENDROOT
BRANCH   4  27
HETATM   27  C   UNL     1     -12.399  12.691  65.163  1.00  0.00    -0.547 C  
HETATM   28  O   UNL     1     -12.654  14.179  63.340  1.00  0.00    -0.818 OA 
HETATM   29  C   UNL     1     -12.174  14.047  64.600  1.00  0.00    -0.435 C  
HETATM   30  O   UNL     1     -11.607  14.982  65.165  1.00  0.00    -0.348 OA 
ENDBRANCH   4  27
TORSDOF 1
ENDMDL
MODEL       32
REMARK 921   NORMALIZED FREE ENERGY PREDICTED BY IDOCK:   -6.10 KCAL/MOL
REMARK 922        TOTAL FREE ENERGY PREDICTED BY IDOCK:   -6.26 KCAL/MOL
REMARK 923 INTER-LIGAND FREE ENERGY PREDICTED BY IDOCK:   -6.21 KCAL/MOL
REMARK 924 INTRA-LIGAND FREE ENERGY PREDICTED BY IDOCK:   -0.05 KCAL/MOL
REMARK 927      BINDING AFFINITY PREDICTED BY RF-SCORE:    0.00 PKD
ROOT
HETATM    1  C   UNL     1     -10.418  15.253  68.663  1.00  0.00    -0.235 C  
HETATM    2  C   UNL     1      -9.338  16.380  67.717  1.00  0.00    -0.213 C  
HETATM    3  C   UNL     1      -9.193  14.643  69.294  1.00  0.00     0.030 C  
HETATM    4  C   UNL     1     -10.045  17.486  66.847  1.00  0.00    -0.324 C  
HETATM    5  C   UNL     1      -8.661  13.661  68.256  1.00  0.00    -0.170 C  
HETATM    6  C   UNL     1      -8.247  17.160  68.555  1.00  0.00    -0.261 C  
HETATM    7  C   UNL     1      -9.758  12.672  68.417  1.00  0.00    -0.187 C  
HETATM    8  C   UNL     1     -12.028  13.554  67.182  1.00  0.00    -0.426 C  
HETATM    9  C   UNL     1      -9.609  11.230  67.962  1.00  0.00    -0.182 C  
HETATM   10  C   UNL     1     -11.043  13.521  68.372  1.00  0.00    -0.298 C  
HETATM   11  C   UNL     1     -11.867  12.649  69.463  1.00  0.00    -0.376 C  
HETATM   12  C   UNL     1      -8.118  10.898  68.165  1.00  0.00    -0.119 C  
HETATM   13  C   UNL     1     -11.894  11.014  69.110  1.00  0.00    -0.407 C  
HETATM   14  C   UNL     1      -7.802   9.457  67.964  1.00  0.00    -0.091 C  
HETATM   15  O   UNL     1      -7.726  11.227  69.514  1.00  0.00    -0.362 OA 
HETATM   16  H   UNL     1      -6.806  11.022  69.640  1.00  0.00     0.000 HD 
HETATM   17  C   UNL     1      -8.599   8.555  68.914  1.00  0.00    -0.127 C  
HETATM   18  C   UNL     1      -7.968   7.158  68.788  1.00  0.00    -0.123 C  
HETATM   19  C   UNL     1      -8.399   6.299  67.614  1.00  0.00    -0.117 C  
HETATM   20  O   UNL     1      -7.502   6.433  66.510  1.00  0.00    -0.083 OA 
HETATM   21  C   UNL     1      -9.846   6.514  67.191  1.00  0.00    -0.187 C  
HETATM   22  C   UNL     1     -10.466   7.952  67.377  1.00  0.00    -0.360 C  
HETATM   23  H   UNL     1      -7.772   5.894  65.775  1.00  0.00     0.000 HD 
HETATM   24  C   UNL     1     -10.151   8.698  68.721  1.00  0.00    -0.210 C  
HETATM   25  C   UNL     1     -10.907   7.948  69.851  1.00  0.00    -0.221 C  
HETATM   26  C   UNL     1     -10.471  10.329  68.900  1.00  0.00    -0.231 C  
ENDROOT
BRANCH   4  27
HETATM   27  C   UNL     1      -9.031  18.424  66.116  1.00  0.00    -0.116 C  
HETATM   28  O   UNL     1      -8.093  20.591  65.952  1.00  0.00    -0.005 OA 
HETATM   29  C   UNL     1      -9.056  19.845  66.545  1.00  0.00    -0.379 C  
HETATM   30  O   UNL     1      -9.833  20.344  67.359  1.00  0.00    -0.425 OA 
ENDBRANCH   4  27
TORSDOF 1
ENDMDL
MODEL       33
REMARK 921   NORMALIZED FREE ENERGY PREDICTED BY IDOCK:   -6.03 KCAL/MOL
REMARK 922        TOTAL FREE ENERGY PREDICTED BY IDOCK:   -6.19 KCAL/MOL
REMARK 923 INTER-LIGAND FREE ENERGY PREDICTED BY IDOCK:   -6.01 KCAL/MOL
REMARK 924 INTRA-LIGAND FREE ENERGY PREDICTED BY IDOCK:   -0.18 KCAL/MOL
REMARK 927      BINDING AFFINITY PREDICTED BY RF-SCORE:    0.00 PKD
ROOT
HETATM    1  C   UNL     1      -9.707  11.883  68.682  1.00  0.00    -0.116 C  
HETATM    2  C   UNL     1     -10.174  12.842  67.201  1.00  0.00    -0.235 C  
HETATM    3  C   UNL     1      -8.468  11.415  67.964  1.00  0.00    -0.145 C  
HETATM    4  C   UNL     1     -11.445  13.764  67.317  1.00  0.00    -0.367 C  
HETATM    5  C   UNL     1      -8.938  10.273  67.069  1.00  0.00    -0.147 C  
HETATM    6  C   UNL     1      -9.049  13.776  66.599  1.00  0.00    -0.196 C  
HETATM    7  C   UNL     1      -9.175   9.310  68.175  1.00  0.00    -0.136 C  
HETATM    8  C   UNL     1     -11.487   9.922  69.494  1.00  0.00    -0.120 C  
HETATM    9  C   UNL     1      -9.258   7.813  67.930  1.00  0.00    -0.141 C  
HETATM   10  C   UNL     1      -9.981  10.117  69.212  1.00  0.00    -0.234 C  
HETATM   11  C   UNL     1      -9.307   9.439  70.523  1.00  0.00    -0.319 C  
HETATM   12  C   UNL     1      -8.301   7.547  66.752  1.00  0.00    -0.126 C  
HETATM   13  C   UNL     1      -9.357   7.767  70.494  1.00  0.00    -0.163 C  
HETATM   14  C   UNL     1      -8.084   6.099  66.484  1.00  0.00    -0.110 C  
HETATM   15  O   UNL     1      -7.007   8.116  67.039  1.00  0.00    -0.071 OA 
HETATM   16  H   UNL     1      -6.416   7.952  66.313  1.00  0.00     0.000 HD 
HETATM   17  C   UNL     1      -7.513   5.366  67.704  1.00  0.00    -0.084 C  
HETATM   18  C   UNL     1      -7.086   3.980  67.194  1.00  0.00    -0.064 C  
HETATM   19  C   UNL     1      -8.163   2.920  67.064  1.00  0.00    -0.088 C  
HETATM   20  O   UNL     1      -8.692   2.870  65.739  1.00  0.00    -0.116 OA 
HETATM   21  C   UNL     1      -9.268   3.032  68.106  1.00  0.00    -0.248 C  
HETATM   22  C   UNL     1      -9.646   4.470  68.631  1.00  0.00    -0.222 C  
HETATM   23  H   UNL     1      -9.366   2.205  65.657  1.00  0.00     0.000 HD 
HETATM   24  C   UNL     1      -8.461   5.447  68.954  1.00  0.00    -0.099 C  
HETATM   25  C   UNL     1      -7.740   4.897  70.214  1.00  0.00    -0.062 C  
HETATM   26  C   UNL     1      -8.730   7.079  69.201  1.00  0.00    -0.132 C  
ENDROOT
BRANCH   4  27
HETATM   27  C   UNL     1     -11.727  14.574  66.010  1.00  0.00    -0.347 C  
HETATM   28  O   UNL     1     -12.832  14.646  63.917  1.00  0.00    -0.691 OA 
HETATM   29  C   UNL     1     -12.535  13.866  64.984  1.00  0.00    -0.419 C  
HETATM   30  O   UNL     1     -12.933  12.703  65.050  1.00  0.00    -0.812 OA 
ENDBRANCH   4  27
TORSDOF 1
ENDMDL
MODEL       34
REMARK 921   NORMALIZED FREE ENERGY PREDICTED BY IDOCK:   -5.98 KCAL/MOL
REMARK 922        TOTAL FREE ENERGY PREDICTED BY IDOCK:   -6.13 KCAL/MOL
REMARK 923 INTER-LIGAND FREE ENERGY PREDICTED BY IDOCK:   -6.02 KCAL/MOL
REMARK 924 INTRA-LIGAND FREE ENERGY PREDICTED BY IDOCK:   -0.11 KCAL/MOL
REMARK 927      BINDING AFFINITY PREDICTED BY RF-SCORE:    0.00 PKD
ROOT
HETATM    1  C   UNL     1     -10.274   7.747  68.430  1.00  0.00    -0.230 C  
HETATM    2  C   UNL     1      -9.035   6.729  67.560  1.00  0.00    -0.115 C  
HETATM    3  C   UNL     1     -10.731   8.291  67.101  1.00  0.00    -0.240 C  
HETATM    4  C   UNL     1      -8.199   5.718  68.432  1.00  0.00    -0.108 C  
HETATM    5  C   UNL     1      -9.720   9.378  66.750  1.00  0.00    -0.257 C  
HETATM    6  C   UNL     1      -9.575   5.868  66.348  1.00  0.00    -0.173 C  
HETATM    7  C   UNL     1     -10.179  10.342  67.783  1.00  0.00    -0.225 C  
HETATM    8  C   UNL     1      -9.296   9.588  70.255  1.00  0.00    -0.305 C  
HETATM    9  C   UNL     1      -9.856  11.823  67.696  1.00  0.00    -0.192 C  
HETATM   10  C   UNL     1     -10.282   9.498  69.069  1.00  0.00    -0.211 C  
HETATM   11  C   UNL     1     -11.590  10.249  69.667  1.00  0.00    -0.267 C  
HETATM   12  C   UNL     1      -9.817  12.136  66.187  1.00  0.00    -0.237 C  
HETATM   13  C   UNL     1     -11.419  11.912  69.729  1.00  0.00    -0.303 C  
HETATM   14  C   UNL     1      -9.712  13.591  65.889  1.00  0.00    -0.199 C  
HETATM   15  O   UNL     1     -11.031  11.669  65.562  1.00  0.00    -0.297 OA 
HETATM   16  H   UNL     1     -11.007  11.862  64.632  1.00  0.00     0.000 HD 
HETATM   17  C   UNL     1     -10.880  14.387  66.485  1.00  0.00    -0.310 C  
HETATM   18  C   UNL     1     -10.785  15.791  65.865  1.00  0.00    -0.320 C  
HETATM   19  C   UNL     1      -9.805  16.767  66.487  1.00  0.00    -0.290 C  
HETATM   20  O   UNL     1      -8.548  16.752  65.809  1.00  0.00    -0.485 OA 
HETATM   21  C   UNL     1      -9.633  16.594  67.991  1.00  0.00    -0.225 C  
HETATM   22  C   UNL     1      -9.779  15.143  68.590  1.00  0.00    -0.216 C  
HETATM   23  H   UNL     1      -7.934  17.363  66.199  1.00  0.00     0.000 HD 
HETATM   24  C   UNL     1     -10.960  14.261  68.048  1.00  0.00    -0.261 C  
HETATM   25  C   UNL     1     -12.280  14.887  68.573  1.00  0.00    -0.084 C  
HETATM   26  C   UNL     1     -11.024  12.619  68.358  1.00  0.00    -0.284 C  
ENDROOT
BRANCH   4  27
HETATM   27  C   UNL     1      -7.202   4.864  67.583  1.00  0.00    -0.070 C  
HETATM   28  O   UNL     1      -6.049   2.810  67.345  1.00  0.00    -0.026 OA 
HETATM   29  C   UNL     1      -6.836   3.548  68.165  1.00  0.00    -0.050 C  
HETATM   30  O   UNL     1      -7.192   3.115  69.261  1.00  0.00    -0.044 OA 
ENDBRANCH   4  27
TORSDOF 1
ENDMDL
MODEL       35
REMARK 921   NORMALIZED FREE ENERGY PREDICTED BY IDOCK:   -5.97 KCAL/MOL
REMARK 922        TOTAL FREE ENERGY PREDICTED BY IDOCK:   -6.12 KCAL/MOL
REMARK 923 INTER-LIGAND FREE ENERGY PREDICTED BY IDOCK:   -6.00 KCAL/MOL
REMARK 924 INTRA-LIGAND FREE ENERGY PREDICTED BY IDOCK:   -0.12 KCAL/MOL
REMARK 927      BINDING AFFINITY PREDICTED BY RF-SCORE:    0.00 PKD
ROOT
HETATM    1  C   UNL     1      -9.840  10.907  67.646  1.00  0.00    -0.192 C  
HETATM    2  C   UNL     1      -9.453   9.671  68.931  1.00  0.00    -0.157 C  
HETATM    3  C   UNL     1      -8.364  11.102  67.417  1.00  0.00    -0.135 C  
HETATM    4  C   UNL     1     -10.667   8.899  69.571  1.00  0.00    -0.206 C  
HETATM    5  C   UNL     1      -7.911  12.039  68.533  1.00  0.00    -0.132 C  
HETATM    6  C   UNL     1      -8.427   8.540  68.517  1.00  0.00    -0.131 C  
HETATM    7  C   UNL     1      -8.587  13.246  67.991  1.00  0.00    -0.178 C  
HETATM    8  C   UNL     1     -11.274  13.131  68.466  1.00  0.00    -0.307 C  
HETATM    9  C   UNL     1      -8.182  14.648  68.414  1.00  0.00    -0.154 C  
HETATM   10  C   UNL     1     -10.011  12.763  67.655  1.00  0.00    -0.217 C  
HETATM   11  C   UNL     1     -10.194  13.673  66.324  1.00  0.00    -0.296 C  
HETATM   12  C   UNL     1      -6.667  14.562  68.687  1.00  0.00    -0.088 C  
HETATM   13  C   UNL     1      -9.864  15.292  66.587  1.00  0.00    -0.263 C  
HETATM   14  C   UNL     1      -6.034  15.888  68.923  1.00  0.00    -0.113 C  
HETATM   15  O   UNL     1      -6.001  13.978  67.548  1.00  0.00    -0.334 OA 
HETATM   16  H   UNL     1      -5.067  13.925  67.716  1.00  0.00     0.000 HD 
HETATM   17  C   UNL     1      -6.226  16.838  67.733  1.00  0.00    -0.161 C  
HETATM   18  C   UNL     1      -5.296  18.032  68.001  1.00  0.00    -0.152 C  
HETATM   19  C   UNL     1      -5.797  19.112  68.942  1.00  0.00    -0.214 C  
HETATM   20  O   UNL     1      -5.345  18.895  70.278  1.00  0.00    -0.201 OA 
HETATM   21  C   UNL     1      -7.304  19.327  68.886  1.00  0.00    -0.392 C  
HETATM   22  C   UNL     1      -8.218  18.082  68.568  1.00  0.00    -0.311 C  
HETATM   23  H   UNL     1      -5.659  19.571  70.867  1.00  0.00     0.000 HD 
HETATM   24  C   UNL     1      -7.740  17.119  67.424  1.00  0.00    -0.191 C  
HETATM   25  C   UNL     1      -7.883  17.889  66.084  1.00  0.00    -0.257 C  
HETATM   26  C   UNL     1      -8.436  15.614  67.216  1.00  0.00    -0.214 C  
ENDROOT
BRANCH   4  27
HETATM   27  C   UNL     1     -10.222   7.832  70.624  1.00  0.00    -0.199 C  
HETATM   28  O   UNL     1     -10.403   5.599  71.387  1.00  0.00    -0.211 OA 
HETATM   29  C   UNL     1     -10.895   6.513  70.517  1.00  0.00    -0.271 C  
HETATM   30  O   UNL     1     -11.796   6.220  69.731  1.00  0.00    -0.319 OA 
ENDBRANCH   4  27
TORSDOF 1
ENDMDL
MODEL       36
REMARK 921   NORMALIZED FREE ENERGY PREDICTED BY IDOCK:   -5.84 KCAL/MOL
REMARK 922        TOTAL FREE ENERGY PREDICTED BY IDOCK:   -5.98 KCAL/MOL
REMARK 923 INTER-LIGAND FREE ENERGY PREDICTED BY IDOCK:   -5.88 KCAL/MOL
REMARK 924 INTRA-LIGAND FREE ENERGY PREDICTED BY IDOCK:   -0.10 KCAL/MOL
REMARK 927      BINDING AFFINITY PREDICTED BY RF-SCORE:    0.00 PKD
ROOT
HETATM    1  C   UNL     1     -12.325   9.778  70.200  1.00  0.00     0.107 C  
HETATM    2  C   UNL     1     -12.193  11.393  71.037  1.00  0.00    -0.391 C  
HETATM    3  C   UNL     1     -12.622   9.135  71.530  1.00  0.00    -0.413 C  
HETATM    4  C   UNL     1     -11.992  12.659  70.122  1.00  0.00    -0.375 C  
HETATM    5  C   UNL     1     -11.261   8.958  72.196  1.00  0.00    -0.362 C  
HETATM    6  C   UNL     1     -13.390  11.775  71.998  1.00  0.00    -0.417 C  
HETATM    7  C   UNL     1     -10.799   7.871  71.295  1.00  0.00    -0.263 C  
HETATM    8  C   UNL     1     -10.063   8.889  68.870  1.00  0.00    -0.209 C  
HETATM    9  C   UNL     1      -9.663   6.940  71.681  1.00  0.00    -0.163 C  
HETATM   10  C   UNL     1     -11.120   8.391  69.880  1.00  0.00    -0.109 C  
HETATM   11  C   UNL     1     -11.527   6.951  69.253  1.00  0.00    -0.070 C  
HETATM   12  C   UNL     1      -9.763   6.800  73.213  1.00  0.00    -0.176 C  
HETATM   13  C   UNL     1     -10.363   5.776  69.504  1.00  0.00    -0.333 C  
HETATM   14  C   UNL     1      -8.854   5.761  73.770  1.00  0.00    -0.127 C  
HETATM   15  O   UNL     1     -11.106   6.420  73.579  1.00  0.00    -0.465 OA 
HETATM   16  H   UNL     1     -11.168   6.333  74.524  1.00  0.00     0.000 HD 
HETATM   17  C   UNL     1      -9.127   4.376  73.172  1.00  0.00    -0.126 C  
HETATM   18  C   UNL     1      -8.326   3.386  74.034  1.00  0.00    -0.074 C  
HETATM   19  C   UNL     1      -6.849   3.226  73.727  1.00  0.00    -0.036 C  
HETATM   20  O   UNL     1      -6.047   4.070  74.554  1.00  0.00    -0.026 OA 
HETATM   21  C   UNL     1      -6.504   3.392  72.253  1.00  0.00    -0.014 C  
HETATM   22  C   UNL     1      -7.377   4.387  71.396  1.00  0.00    -0.055 C  
HETATM   23  H   UNL     1      -5.122   3.970  74.361  1.00  0.00     0.000 HD 
HETATM   24  C   UNL     1      -8.931   4.343  71.614  1.00  0.00    -0.160 C  
HETATM   25  C   UNL     1      -9.439   2.995  71.034  1.00  0.00    -0.228 C  
HETATM   26  C   UNL     1      -9.921   5.551  71.018  1.00  0.00    -0.253 C  
ENDROOT
BRANCH   4  27
HETATM   27  C   UNL     1     -11.939  13.993  70.935  1.00  0.00    -0.343 C  
HETATM   28  O   UNL     1     -11.220  16.248  71.007  1.00  0.00    -0.337 OA 
HETATM   29  C   UNL     1     -11.152  15.088  70.310  1.00  0.00    -0.229 C  
HETATM   30  O   UNL     1     -10.504  15.011  69.267  1.00  0.00    -0.235 OA 
ENDBRANCH   4  27
TORSDOF 1
ENDMDL
MODEL       37
REMARK 921   NORMALIZED FREE ENERGY PREDICTED BY IDOCK:   -5.84 KCAL/MOL
REMARK 922        TOTAL FREE ENERGY PREDICTED BY IDOCK:   -5.98 KCAL/MOL
REMARK 923 INTER-LIGAND FREE ENERGY PREDICTED BY IDOCK:   -5.88 KCAL/MOL
REMARK 924 INTRA-LIGAND FREE ENERGY PREDICTED BY IDOCK:   -0.10 KCAL/MOL
REMARK 927      BINDING AFFINITY PREDICTED BY RF-SCORE:    0.00 PKD
ROOT
HETATM    1  C   UNL     1      -8.156   9.639  68.637  1.00  0.00    -0.100 C  
HETATM    2  C   UNL     1      -9.383   8.517  67.885  1.00  0.00    -0.148 C  
HETATM    3  C   UNL     1      -9.283  10.413  69.272  1.00  0.00    -0.198 C  
HETATM    4  C   UNL     1      -8.826   7.272  67.099  1.00  0.00    -0.125 C  
HETATM    5  C   UNL     1      -9.808  11.325  68.167  1.00  0.00    -0.190 C  
HETATM    6  C   UNL     1     -10.470   7.923  68.867  1.00  0.00    -0.205 C  
HETATM    7  C   UNL     1      -8.629  12.229  68.154  1.00  0.00    -0.181 C  
HETATM    8  C   UNL     1      -6.524  11.035  66.887  1.00  0.00    -0.108 C  
HETATM    9  C   UNL     1      -8.696  13.623  67.555  1.00  0.00    -0.198 C  
HETATM   10  C   UNL     1      -7.420  11.273  68.123  1.00  0.00    -0.091 C  
HETATM   11  C   UNL     1      -6.457  12.180  69.062  1.00  0.00    -0.092 C  
HETATM   12  C   UNL     1     -10.140  14.100  67.811  1.00  0.00    -0.239 C  
HETATM   13  C   UNL     1      -6.328  13.762  68.533  1.00  0.00    -0.092 C  
HETATM   14  C   UNL     1     -10.356  15.534  67.475  1.00  0.00    -0.271 C  
HETATM   15  O   UNL     1     -10.461  13.946  69.209  1.00  0.00    -0.420 OA 
HETATM   16  H   UNL     1     -11.352  14.239  69.367  1.00  0.00     0.000 HD 
HETATM   17  C   UNL     1      -9.427  16.458  68.272  1.00  0.00    -0.217 C  
HETATM   18  C   UNL     1      -9.954  17.882  68.034  1.00  0.00    -0.333 C  
HETATM   19  C   UNL     1      -9.541  18.577  66.749  1.00  0.00    -0.321 C  
HETATM   20  O   UNL     1     -10.519  18.407  65.723  1.00  0.00    -0.594 OA 
HETATM   21  C   UNL     1      -8.147  18.198  66.266  1.00  0.00    -0.254 C  
HETATM   22  C   UNL     1      -7.630  16.740  66.568  1.00  0.00    -0.334 C  
HETATM   23  H   UNL     1     -10.260  18.842  64.919  1.00  0.00     0.000 HD 
HETATM   24  C   UNL     1      -7.908  16.166  68.002  1.00  0.00    -0.150 C  
HETATM   25  C   UNL     1      -7.020  16.961  68.996  1.00  0.00    -0.224 C  
HETATM   26  C   UNL     1      -7.704  14.540  68.336  1.00  0.00    -0.128 C  
ENDROOT
BRANCH   4  27
HETATM   27  C   UNL     1      -9.958   6.353  66.537  1.00  0.00    -0.162 C  
HETATM   28  O   UNL     1     -10.514   4.321  65.456  1.00  0.00    -0.233 OA 
HETATM   29  C   UNL     1      -9.494   5.128  65.836  1.00  0.00    -0.156 C  
HETATM   30  O   UNL     1      -8.324   4.820  65.612  1.00  0.00    -0.114 OA 
ENDBRANCH   4  27
TORSDOF 1
ENDMDL
MODEL       38
REMARK 921   NORMALIZED FREE ENERGY PREDICTED BY IDOCK:   -5.83 KCAL/MOL
REMARK 922        TOTAL FREE ENERGY PREDICTED BY IDOCK:   -5.97 KCAL/MOL
REMARK 923 INTER-LIGAND FREE ENERGY PREDICTED BY IDOCK:   -5.79 KCAL/MOL
REMARK 924 INTRA-LIGAND FREE ENERGY PREDICTED BY IDOCK:   -0.18 KCAL/MOL
REMARK 927      BINDING AFFINITY PREDICTED BY RF-SCORE:    0.00 PKD
ROOT
HETATM    1  C   UNL     1      -9.660  12.468  66.700  1.00  0.00    -0.239 C  
HETATM    2  C   UNL     1     -11.039  13.350  67.505  1.00  0.00    -0.294 C  
HETATM    3  C   UNL     1     -10.634  11.424  66.221  1.00  0.00    -0.312 C  
HETATM    4  C   UNL     1     -10.712  14.742  68.164  1.00  0.00    -0.247 C  
HETATM    5  C   UNL     1     -10.849  10.504  67.419  1.00  0.00    -0.349 C  
HETATM    6  C   UNL     1     -12.309  13.619  66.602  1.00  0.00    -0.381 C  
HETATM    7  C   UNL     1      -9.502   9.882  67.368  1.00  0.00    -0.173 C  
HETATM    8  C   UNL     1      -7.619  11.595  68.358  1.00  0.00    -0.126 C  
HETATM    9  C   UNL     1      -9.206   8.555  68.046  1.00  0.00    -0.143 C  
HETATM   10  C   UNL     1      -8.538  11.076  67.229  1.00  0.00    -0.130 C  
HETATM   11  C   UNL     1      -7.477  10.333  66.253  1.00  0.00    -0.118 C  
HETATM   12  C   UNL     1     -10.523   7.758  67.957  1.00  0.00    -0.185 C  
HETATM   13  C   UNL     1      -6.955   8.861  66.853  1.00  0.00    -0.078 C  
HETATM   14  C   UNL     1     -10.385   6.341  68.390  1.00  0.00    -0.237 C  
HETATM   15  O   UNL     1     -10.985   7.734  66.590  1.00  0.00    -0.348 OA 
HETATM   16  H   UNL     1     -11.797   7.243  66.535  1.00  0.00     0.000 HD 
HETATM   17  C   UNL     1      -9.343   5.583  67.559  1.00  0.00    -0.114 C  
HETATM   18  C   UNL     1      -9.517   4.100  67.925  1.00  0.00    -0.219 C  
HETATM   19  C   UNL     1      -8.855   3.610  69.199  1.00  0.00    -0.102 C  
HETATM   20  O   UNL     1      -9.759   3.640  70.304  1.00  0.00    -0.189 OA 
HETATM   21  C   UNL     1      -7.546   4.318  69.524  1.00  0.00    -0.054 C  
HETATM   22  C   UNL     1      -7.394   5.827  69.094  1.00  0.00    -0.083 C  
HETATM   23  H   UNL     1      -9.344   3.333  71.102  1.00  0.00     0.000 HD 
HETATM   24  C   UNL     1      -7.910   6.218  67.665  1.00  0.00    -0.106 C  
HETATM   25  C   UNL     1      -6.952   5.563  66.634  1.00  0.00    -0.064 C  
HETATM   26  C   UNL     1      -8.102   7.819  67.224  1.00  0.00    -0.119 C  
ENDROOT
BRANCH   4  27
HETATM   27  C   UNL     1     -11.970  15.432  68.783  1.00  0.00    -0.278 C  
HETATM   28  O   UNL     1     -13.253  15.848  70.729  1.00  0.00    -0.491 OA 
HETATM   29  C   UNL     1     -12.209  15.150  70.221  1.00  0.00    -0.350 C  
HETATM   30  O   UNL     1     -11.553  14.386  70.929  1.00  0.00    -0.260 OA 
ENDBRANCH   4  27
TORSDOF 1
ENDMDL
MODEL       39
REMARK 921   NORMALIZED FREE ENERGY PREDICTED BY IDOCK:   -5.77 KCAL/MOL
REMARK 922        TOTAL FREE ENERGY PREDICTED BY IDOCK:   -5.91 KCAL/MOL
REMARK 923 INTER-LIGAND FREE ENERGY PREDICTED BY IDOCK:   -5.81 KCAL/MOL
REMARK 924 INTRA-LIGAND FREE ENERGY PREDICTED BY IDOCK:   -0.10 KCAL/MOL
REMARK 927      BINDING AFFINITY PREDICTED BY RF-SCORE:    0.00 PKD
ROOT
HETATM    1  C   UNL     1     -10.872   6.625  70.632  1.00  0.00    -0.301 C  
HETATM    2  C   UNL     1      -9.551   5.387  70.407  1.00  0.00    -0.233 C  
HETATM    3  C   UNL     1     -10.905   6.831  69.140  1.00  0.00    -0.298 C  
HETATM    4  C   UNL     1      -9.078   4.603  71.688  1.00  0.00    -0.172 C  
HETATM    5  C   UNL     1      -9.737   7.767  68.844  1.00  0.00    -0.160 C  
HETATM    6  C   UNL     1      -9.829   4.265  69.327  1.00  0.00    -0.180 C  
HETATM    7  C   UNL     1     -10.359   8.971  69.452  1.00  0.00    -0.217 C  
HETATM    8  C   UNL     1     -10.241   8.835  72.177  1.00  0.00    -0.371 C  
HETATM    9  C   UNL     1      -9.883  10.375  69.117  1.00  0.00    -0.237 C  
HETATM   10  C   UNL     1     -10.881   8.480  70.817  1.00  0.00    -0.268 C  
HETATM   11  C   UNL     1     -12.222   9.393  70.831  1.00  0.00    -0.297 C  
HETATM   12  C   UNL     1      -9.415  10.299  67.650  1.00  0.00    -0.151 C  
HETATM   13  C   UNL     1     -11.914  11.013  70.550  1.00  0.00    -0.474 C  
HETATM   14  C   UNL     1      -9.095  11.629  67.064  1.00  0.00    -0.179 C  
HETATM   15  O   UNL     1     -10.458   9.724  66.836  1.00  0.00    -0.238 OA 
HETATM   16  H   UNL     1     -10.169   9.677  65.932  1.00  0.00     0.000 HD 
HETATM   17  C   UNL     1     -10.296  12.581  67.105  1.00  0.00    -0.230 C  
HETATM   18  C   UNL     1      -9.906  13.782  66.228  1.00  0.00    -0.314 C  
HETATM   19  C   UNL     1      -9.036  14.855  66.856  1.00  0.00    -0.253 C  
HETATM   20  O   UNL     1      -7.652  14.635  66.582  1.00  0.00    -0.233 OA 
HETATM   21  C   UNL     1      -9.288  15.059  68.345  1.00  0.00    -0.193 C  
HETATM   22  C   UNL     1      -9.727  13.808  69.199  1.00  0.00     0.263 C  
HETATM   23  H   UNL     1      -7.108  15.308  66.975  1.00  0.00     0.000 HD 
HETATM   24  C   UNL     1     -10.800  12.853  68.568  1.00  0.00    -0.283 C  
HETATM   25  C   UNL     1     -12.146  13.627  68.540  1.00  0.00    -0.321 C  
HETATM   26  C   UNL     1     -11.102  11.343  69.220  1.00  0.00    -0.313 C  
ENDROOT
BRANCH   4  27
HETATM   27  C   UNL     1      -7.979   3.537  71.377  1.00  0.00    -0.060 C  
HETATM   28  O   UNL     1      -6.147   2.276  72.190  1.00  0.00    -0.012 OA 
HETATM   29  C   UNL     1      -7.016   3.276  72.477  1.00  0.00    -0.038 C  
HETATM   30  O   UNL     1      -6.974   3.861  73.559  1.00  0.00    -0.047 OA 
ENDBRANCH   4  27
TORSDOF 1
ENDMDL
MODEL       40
REMARK 921   NORMALIZED FREE ENERGY PREDICTED BY IDOCK:   -5.72 KCAL/MOL
REMARK 922        TOTAL FREE ENERGY PREDICTED BY IDOCK:   -5.86 KCAL/MOL
REMARK 923 INTER-LIGAND FREE ENERGY PREDICTED BY IDOCK:   -5.71 KCAL/MOL
REMARK 924 INTRA-LIGAND FREE ENERGY PREDICTED BY IDOCK:   -0.14 KCAL/MOL
REMARK 927      BINDING AFFINITY PREDICTED BY RF-SCORE:    0.00 PKD
ROOT
HETATM    1  C   UNL     1      -7.121   7.676  69.455  1.00  0.00    -0.064 C  
HETATM    2  C   UNL     1      -7.987   6.076  69.604  1.00  0.00    -0.106 C  
HETATM    3  C   UNL     1      -8.262   8.338  70.185  1.00  0.00    -0.118 C  
HETATM    4  C   UNL     1      -7.218   4.797  69.101  1.00  0.00    -0.053 C  
HETATM    5  C   UNL     1      -9.342   8.542  69.127  1.00  0.00    -0.153 C  
HETATM    6  C   UNL     1      -8.498   5.698  71.052  1.00  0.00    -0.122 C  
HETATM    7  C   UNL     1      -8.627   9.618  68.395  1.00  0.00    -0.119 C  
HETATM    8  C   UNL     1      -6.611   8.567  66.882  1.00  0.00    -0.058 C  
HETATM    9  C   UNL     1      -9.353  10.569  67.459  1.00  0.00    -0.162 C  
HETATM   10  C   UNL     1      -7.197   9.070  68.220  1.00  0.00    -0.078 C  
HETATM   11  C   UNL     1      -6.441  10.495  68.399  1.00  0.00    -0.055 C  
HETATM   12  C   UNL     1     -10.759  10.734  68.068  1.00  0.00    -0.228 C  
HETATM   13  C   UNL     1      -7.044  11.687  67.393  1.00  0.00    -0.124 C  
HETATM   14  C   UNL     1     -11.568  11.793  67.405  1.00  0.00    -0.352 C  
HETATM   15  O   UNL     1     -10.646  11.105  69.458  1.00  0.00    -0.389 OA 
HETATM   16  H   UNL     1     -11.513  11.208  69.834  1.00  0.00     0.000 HD 
HETATM   17  C   UNL     1     -10.885  13.165  67.467  1.00  0.00    -0.269 C  
HETATM   18  C   UNL     1     -11.945  14.178  67.007  1.00  0.00    -0.471 C  
HETATM   19  C   UNL     1     -12.149  14.350  65.514  1.00  0.00    -0.356 C  
HETATM   20  O   UNL     1     -13.214  13.529  65.032  1.00  0.00    -0.721 OA 
HETATM   21  C   UNL     1     -10.880  14.162  64.693  1.00  0.00    -0.401 C  
HETATM   22  C   UNL     1      -9.800  13.143  65.223  1.00  0.00    -0.096 C  
HETATM   23  H   UNL     1     -13.341  13.637  64.097  1.00  0.00     0.000 HD 
HETATM   24  C   UNL     1      -9.483  13.173  66.760  1.00  0.00    -0.252 C  
HETATM   25  C   UNL     1      -8.739  14.504  67.050  1.00  0.00    -0.256 C  
HETATM   26  C   UNL     1      -8.614  11.943  67.487  1.00  0.00    -0.160 C  
ENDROOT
BRANCH   4  27
HETATM   27  C   UNL     1      -8.029   3.478  69.318  1.00  0.00    -0.057 C  
HETATM   28  O   UNL     1      -9.694   2.011  68.491  1.00  0.00    -0.151 OA 
HETATM   29  C   UNL     1      -9.090   3.211  68.313  1.00  0.00    -0.164 C  
HETATM   30  O   UNL     1      -9.418   3.955  67.389  1.00  0.00    -0.178 OA 
ENDBRANCH   4  27
TORSDOF 1
ENDMDL
MODEL       41
REMARK 921   NORMALIZED FREE ENERGY PREDICTED BY IDOCK:   -5.65 KCAL/MOL
REMARK 922        TOTAL FREE ENERGY PREDICTED BY IDOCK:   -5.78 KCAL/MOL
REMARK 923 INTER-LIGAND FREE ENERGY PREDICTED BY IDOCK:   -5.65 KCAL/MOL
REMARK 924 INTRA-LIGAND FREE ENERGY PREDICTED BY IDOCK:   -0.13 KCAL/MOL
REMARK 927      BINDING AFFINITY PREDICTED BY RF-SCORE:    0.00 PKD
ROOT
HETATM    1  C   UNL     1      -8.820  13.447  67.328  1.00  0.00    -0.220 C  
HETATM    2  C   UNL     1     -10.370  14.129  68.008  1.00  0.00    -0.231 C  
HETATM    3  C   UNL     1      -9.627  12.679  66.313  1.00  0.00    -0.244 C  
HETATM    4  C   UNL     1     -10.237  15.215  69.141  1.00  0.00    -0.249 C  
HETATM    5  C   UNL     1     -10.133  11.448  67.059  1.00  0.00    -0.237 C  
HETATM    6  C   UNL     1     -11.369  14.760  66.957  1.00  0.00    -0.358 C  
HETATM    7  C   UNL     1      -8.811  10.777  67.143  1.00  0.00    -0.135 C  
HETATM    8  C   UNL     1      -7.264  11.951  69.064  1.00  0.00    -0.068 C  
HETATM    9  C   UNL     1      -8.685   9.286  67.408  1.00  0.00    -0.121 C  
HETATM   10  C   UNL     1      -7.857  11.881  67.639  1.00  0.00    -0.142 C  
HETATM   11  C   UNL     1      -6.573  11.407  66.768  1.00  0.00    -0.136 C  
HETATM   12  C   UNL     1      -9.926   8.656  66.745  1.00  0.00    -0.273 C  
HETATM   13  C   UNL     1      -6.207   9.787  66.970  1.00  0.00    -0.064 C  
HETATM   14  C   UNL     1      -9.889   7.169  66.718  1.00  0.00    -0.272 C  
HETATM   15  O   UNL     1     -10.022   9.097  65.375  1.00  0.00    -0.428 OA 
HETATM   16  H   UNL     1     -10.787   8.708  64.966  1.00  0.00     0.000 HD 
HETATM   17  C   UNL     1      -8.659   6.637  65.971  1.00  0.00    -0.152 C  
HETATM   18  C   UNL     1      -8.906   5.131  65.784  1.00  0.00    -0.143 C  
HETATM   19  C   UNL     1      -8.587   4.218  66.954  1.00  0.00    -0.108 C  
HETATM   20  O   UNL     1      -9.744   3.965  67.751  1.00  0.00    -0.168 OA 
HETATM   21  C   UNL     1      -7.413   4.690  67.801  1.00  0.00    -0.077 C  
HETATM   22  C   UNL     1      -7.172   6.243  67.932  1.00  0.00    -0.087 C  
HETATM   23  H   UNL     1      -9.544   3.393  68.483  1.00  0.00     0.000 HD 
HETATM   24  C   UNL     1      -7.309   7.100  66.625  1.00  0.00    -0.084 C  
HETATM   25  C   UNL     1      -6.111   6.734  65.707  1.00  0.00    -0.038 C  
HETATM   26  C   UNL     1      -7.399   8.769  66.691  1.00  0.00    -0.082 C  
ENDROOT
BRANCH   4  27
HETATM   27  C   UNL     1     -11.620  15.766  69.619  1.00  0.00    -0.363 C  
HETATM   28  O   UNL     1     -13.517  15.443  70.998  1.00  0.00    -0.487 OA 
HETATM   29  C   UNL     1     -12.375  14.877  70.539  1.00  0.00    -0.342 C  
HETATM   30  O   UNL     1     -12.040  13.747  70.893  1.00  0.00    -0.341 OA 
ENDBRANCH   4  27
TORSDOF 1
ENDMDL
MODEL       42
REMARK 921   NORMALIZED FREE ENERGY PREDICTED BY IDOCK:   -5.60 KCAL/MOL
REMARK 922        TOTAL FREE ENERGY PREDICTED BY IDOCK:   -5.73 KCAL/MOL
REMARK 923 INTER-LIGAND FREE ENERGY PREDICTED BY IDOCK:   -5.61 KCAL/MOL
REMARK 924 INTRA-LIGAND FREE ENERGY PREDICTED BY IDOCK:   -0.12 KCAL/MOL
REMARK 927      BINDING AFFINITY PREDICTED BY RF-SCORE:    0.00 PKD
ROOT
HETATM    1  C   UNL     1      -9.626   8.539  66.876  1.00  0.00    -0.257 C  
HETATM    2  C   UNL     1      -8.812   7.345  67.989  1.00  0.00    -0.126 C  
HETATM    3  C   UNL     1      -8.272   9.078  66.495  1.00  0.00    -0.114 C  
HETATM    4  C   UNL     1      -9.733   6.279  68.692  1.00  0.00    -0.137 C  
HETATM    5  C   UNL     1      -7.887  10.021  67.631  1.00  0.00    -0.095 C  
HETATM    6  C   UNL     1      -7.630   6.505  67.357  1.00  0.00    -0.100 C  
HETATM    7  C   UNL     1      -8.875  11.075  67.285  1.00  0.00    -0.135 C  
HETATM    8  C   UNL     1     -11.385  10.325  68.057  1.00  0.00    -0.219 C  
HETATM    9  C   UNL     1      -8.731  12.502  67.784  1.00  0.00    -0.178 C  
HETATM   10  C   UNL     1     -10.193  10.304  67.074  1.00  0.00    -0.282 C  
HETATM   11  C   UNL     1     -10.745  11.231  65.862  1.00  0.00    -0.291 C  
HETATM   12  C   UNL     1      -7.211  12.745  67.869  1.00  0.00    -0.120 C  
HETATM   13  C   UNL     1     -10.742  12.863  66.232  1.00  0.00    -0.292 C  
HETATM   14  C   UNL     1      -6.855  14.163  68.149  1.00  0.00    -0.129 C  
HETATM   15  O   UNL     1      -6.592  12.400  66.611  1.00  0.00    -0.438 OA 
HETATM   16  H   UNL     1      -5.655  12.550  66.663  1.00  0.00     0.000 HD 
HETATM   17  C   UNL     1      -7.405  15.117  67.082  1.00  0.00    -0.145 C  
HETATM   18  C   UNL     1      -6.729  16.472  67.348  1.00  0.00    -0.195 C  
HETATM   19  C   UNL     1      -7.321  17.349  68.435  1.00  0.00    -0.227 C  
HETATM   20  O   UNL     1      -6.658  17.156  69.684  1.00  0.00    -0.227 OA 
HETATM   21  C   UNL     1      -8.832  17.220  68.575  1.00  0.00    -0.269 C  
HETATM   22  C   UNL     1      -9.489  15.823  68.253  1.00  0.00    -0.200 C  
HETATM   23  H   UNL     1      -7.029  17.705  70.365  1.00  0.00     0.000 HD 
HETATM   24  C   UNL     1      -8.971  15.067  66.979  1.00  0.00    -0.255 C  
HETATM   25  C   UNL     1      -9.456  15.868  65.740  1.00  0.00    -0.316 C  
HETATM   26  C   UNL     1      -9.347  13.459  66.716  1.00  0.00    -0.260 C  
ENDROOT
BRANCH   4  27
HETATM   27  C   UNL     1      -8.930   5.277  69.584  1.00  0.00    -0.133 C  
HETATM   28  O   UNL     1      -8.750   4.185  71.678  1.00  0.00    -0.107 OA 
HETATM   29  C   UNL     1      -9.419   5.135  70.980  1.00  0.00    -0.160 C  
HETATM   30  O   UNL     1     -10.337   5.772  71.495  1.00  0.00    -0.205 OA 
ENDBRANCH   4  27
TORSDOF 1
ENDMDL
MODEL       43
REMARK 921   NORMALIZED FREE ENERGY PREDICTED BY IDOCK:   -5.59 KCAL/MOL
REMARK 922        TOTAL FREE ENERGY PREDICTED BY IDOCK:   -5.72 KCAL/MOL
REMARK 923 INTER-LIGAND FREE ENERGY PREDICTED BY IDOCK:   -5.60 KCAL/MOL
REMARK 924 INTRA-LIGAND FREE ENERGY PREDICTED BY IDOCK:   -0.12 KCAL/MOL
REMARK 927      BINDING AFFINITY PREDICTED BY RF-SCORE:    0.00 PKD
ROOT
HETATM    1  C   UNL     1      -9.093  15.371  68.157  1.00  0.00    -0.184 C  
HETATM    2  C   UNL     1      -7.669  16.139  67.315  1.00  0.00    -0.212 C  
HETATM    3  C   UNL     1      -8.138  14.642  69.065  1.00  0.00    -0.115 C  
HETATM    4  C   UNL     1      -7.985  17.223  66.217  1.00  0.00    -0.330 C  
HETATM    5  C   UNL     1      -7.655  13.444  68.253  1.00  0.00    -0.135 C  
HETATM    6  C   UNL     1      -6.592  16.817  68.255  1.00  0.00    -0.152 C  
HETATM    7  C   UNL     1      -8.942  12.704  68.310  1.00  0.00    -0.176 C  
HETATM    8  C   UNL     1     -10.755  13.804  66.589  1.00  0.00    -0.277 C  
HETATM    9  C   UNL     1      -9.018  11.210  68.045  1.00  0.00    -0.149 C  
HETATM   10  C   UNL     1     -10.002  13.758  67.938  1.00  0.00    -0.240 C  
HETATM   11  C   UNL     1     -11.153  13.211  68.942  1.00  0.00    -0.310 C  
HETATM   12  C   UNL     1      -7.679  10.644  68.556  1.00  0.00    -0.107 C  
HETATM   13  C   UNL     1     -11.454  11.575  68.764  1.00  0.00    -0.349 C  
HETATM   14  C   UNL     1      -7.635   9.156  68.570  1.00  0.00    -0.085 C  
HETATM   15  O   UNL     1      -7.453  11.081  69.912  1.00  0.00    -0.357 OA 
HETATM   16  H   UNL     1      -6.627  10.731  70.228  1.00  0.00     0.000 HD 
HETATM   17  C   UNL     1      -8.742   8.555  69.445  1.00  0.00    -0.136 C  
HETATM   18  C   UNL     1      -8.397   7.063  69.585  1.00  0.00    -0.133 C  
HETATM   19  C   UNL     1      -8.797   6.142  68.448  1.00  0.00    -0.113 C  
HETATM   20  O   UNL     1      -7.726   5.955  67.523  1.00  0.00    -0.095 OA 
HETATM   21  C   UNL     1     -10.082   6.555  67.743  1.00  0.00    -0.176 C  
HETATM   22  C   UNL     1     -10.418   8.093  67.658  1.00  0.00    -0.300 C  
HETATM   23  H   UNL     1      -7.977   5.377  66.811  1.00  0.00     0.000 HD 
HETATM   24  C   UNL     1     -10.180   8.949  68.952  1.00  0.00    -0.220 C  
HETATM   25  C   UNL     1     -11.246   8.514  69.994  1.00  0.00    -0.086 C  
HETATM   26  C   UNL     1     -10.186  10.620  68.895  1.00  0.00    -0.216 C  
ENDROOT
BRANCH   4  27
HETATM   27  C   UNL     1      -6.696  17.849  65.593  1.00  0.00    -0.181 C  
HETATM   28  O   UNL     1      -5.529  19.826  65.012  1.00  0.00    -0.156 OA 
HETATM   29  C   UNL     1      -6.705  19.329  65.466  1.00  0.00    -0.272 C  
HETATM   30  O   UNL     1      -7.644  20.075  65.743  1.00  0.00    -0.331 OA 
ENDBRANCH   4  27
TORSDOF 1
ENDMDL
MODEL       44
REMARK 921   NORMALIZED FREE ENERGY PREDICTED BY IDOCK:   -5.42 KCAL/MOL
REMARK 922        TOTAL FREE ENERGY PREDICTED BY IDOCK:   -5.54 KCAL/MOL
REMARK 923 INTER-LIGAND FREE ENERGY PREDICTED BY IDOCK:   -5.37 KCAL/MOL
REMARK 924 INTRA-LIGAND FREE ENERGY PREDICTED BY IDOCK:   -0.16 KCAL/MOL
REMARK 927      BINDING AFFINITY PREDICTED BY RF-SCORE:    0.00 PKD
ROOT
HETATM    1  C   UNL     1      -7.872   7.688  66.581  1.00  0.00    -0.106 C  
HETATM    2  C   UNL     1      -6.923   6.939  67.948  1.00  0.00    -0.083 C  
HETATM    3  C   UNL     1      -6.825   8.766  66.472  1.00  0.00    -0.072 C  
HETATM    4  C   UNL     1      -7.446   5.566  68.514  1.00  0.00    -0.076 C  
HETATM    5  C   UNL     1      -7.163   9.759  67.580  1.00  0.00    -0.089 C  
HETATM    6  C   UNL     1      -5.383   6.705  67.675  1.00  0.00    -0.008 C  
HETATM    7  C   UNL     1      -8.387  10.291  66.929  1.00  0.00    -0.123 C  
HETATM    8  C   UNL     1     -10.448   8.515  67.174  1.00  0.00    -0.370 C  
HETATM    9  C   UNL     1      -8.986  11.630  67.322  1.00  0.00    -0.169 C  
HETATM   10  C   UNL     1      -9.161   9.032  66.492  1.00  0.00    -0.226 C  
HETATM   11  C   UNL     1      -9.743   9.654  65.111  1.00  0.00    -0.287 C  
HETATM   12  C   UNL     1      -7.782  12.503  67.728  1.00  0.00    -0.142 C  
HETATM   13  C   UNL     1     -10.520  11.119  65.330  1.00  0.00    -0.326 C  
HETATM   14  C   UNL     1      -8.139  13.930  67.959  1.00  0.00    -0.154 C  
HETATM   15  O   UNL     1      -6.793  12.485  66.678  1.00  0.00    -0.377 OA 
HETATM   16  H   UNL     1      -6.050  13.023  66.928  1.00  0.00     0.000 HD 
HETATM   17  C   UNL     1      -8.766  14.575  66.717  1.00  0.00    -0.214 C  
HETATM   18  C   UNL     1      -8.814  16.083  67.010  1.00  0.00    -0.235 C  
HETATM   19  C   UNL     1      -9.965  16.596  67.855  1.00  0.00    -0.254 C  
HETATM   20  O   UNL     1      -9.605  16.682  69.234  1.00  0.00    -0.238 OA 
HETATM   21  C   UNL     1     -11.264  15.825  67.660  1.00  0.00    -0.246 C  
HETATM   22  C   UNL     1     -11.168  14.288  67.320  1.00  0.00    -0.330 C  
HETATM   23  H   UNL     1     -10.326  17.004  69.763  1.00  0.00     0.000 HD 
HETATM   24  C   UNL     1     -10.088  13.856  66.266  1.00  0.00    -0.306 C  
HETATM   25  C   UNL     1     -10.551  14.394  64.885  1.00  0.00    -0.456 C  
HETATM   26  C   UNL     1      -9.671  12.250  66.065  1.00  0.00    -0.254 C  
ENDROOT
BRANCH   4  27
HETATM   27  C   UNL     1      -6.537   4.991  69.648  1.00  0.00    -0.039 C  
HETATM   28  O   UNL     1      -6.299   4.518  71.955  1.00  0.00    -0.020 OA 
HETATM   29  C   UNL     1      -7.080   5.118  71.025  1.00  0.00    -0.059 C  
HETATM   30  O   UNL     1      -8.126   5.682  71.343  1.00  0.00    -0.113 OA 
ENDBRANCH   4  27
TORSDOF 1
ENDMDL
MODEL       45
REMARK 921   NORMALIZED FREE ENERGY PREDICTED BY IDOCK:   -5.40 KCAL/MOL
REMARK 922        TOTAL FREE ENERGY PREDICTED BY IDOCK:   -5.52 KCAL/MOL
REMARK 923 INTER-LIGAND FREE ENERGY PREDICTED BY IDOCK:   -5.41 KCAL/MOL
REMARK 924 INTRA-LIGAND FREE ENERGY PREDICTED BY IDOCK:   -0.11 KCAL/MOL
REMARK 927      BINDING AFFINITY PREDICTED BY RF-SCORE:    0.00 PKD
ROOT
HETATM    1  C   UNL     1     -10.937   7.138  69.946  1.00  0.00    -0.278 C  
HETATM    2  C   UNL     1      -9.569   6.280  69.097  1.00  0.00    -0.148 C  
HETATM    3  C   UNL     1     -11.314   7.787  68.639  1.00  0.00     0.630 C  
HETATM    4  C   UNL     1      -8.748   5.233  69.940  1.00  0.00    -0.117 C  
HETATM    5  C   UNL     1     -10.346   8.957  68.485  1.00  0.00    -0.229 C  
HETATM    6  C   UNL     1      -9.951   5.517  67.765  1.00  0.00    -0.188 C  
HETATM    7  C   UNL     1     -10.949   9.786  69.559  1.00  0.00    -0.256 C  
HETATM    8  C   UNL     1     -10.231   8.837  72.017  1.00  0.00    -0.401 C  
HETATM    9  C   UNL     1     -10.712  11.284  69.642  1.00  0.00    -0.085 C  
HETATM   10  C   UNL     1     -11.107   8.814  70.745  1.00  0.00    -0.306 C  
HETATM   11  C   UNL     1     -12.504   9.431  71.292  1.00  0.00    -0.416 C  
HETATM   12  C   UNL     1     -10.566  11.748  68.179  1.00  0.00    -0.203 C  
HETATM   13  C   UNL     1     -12.442  11.086  71.527  1.00  0.00    -0.389 C  
HETATM   14  C   UNL     1     -10.527  13.229  68.032  1.00  0.00    -0.248 C  
HETATM   15  O   UNL     1     -11.692  11.282  67.407  1.00  0.00    -0.580 OA 
HETATM   16  H   UNL     1     -11.602  11.568  66.505  1.00  0.00     0.000 HD 
HETATM   17  C   UNL     1     -11.787  13.898  68.593  1.00  0.00    -0.407 C  
HETATM   18  C   UNL     1     -11.728  15.359  68.121  1.00  0.00    -0.276 C  
HETATM   19  C   UNL     1     -10.865  16.320  68.918  1.00  0.00    -0.317 C  
HETATM   20  O   UNL     1      -9.558  16.440  68.356  1.00  0.00    -0.209 OA 
HETATM   21  C   UNL     1     -10.810  16.007  70.407  1.00  0.00    -0.295 C  
HETATM   22  C   UNL     1     -10.916  14.497  70.851  1.00  0.00     0.327 C  
HETATM   23  H   UNL     1      -9.018  17.041  68.856  1.00  0.00     0.000 HD 
HETATM   24  C   UNL     1     -11.990  13.612  70.125  1.00  0.00    -0.407 C  
HETATM   25  C   UNL     1     -13.386  14.111  70.587  1.00  0.00    -0.017 C  
HETATM   26  C   UNL     1     -11.978  11.947  70.269  1.00  0.00    -0.416 C  
ENDROOT
BRANCH   4  27
HETATM   27  C   UNL     1      -7.633   4.523  69.106  1.00  0.00    -0.056 C  
HETATM   28  O   UNL     1      -6.749   2.477  68.307  1.00  0.00    -0.035 OA 
HETATM   29  C   UNL     1      -7.675   3.038  69.121  1.00  0.00    -0.047 C  
HETATM   30  O   UNL     1      -8.453   2.341  69.772  1.00  0.00    -0.045 OA 
ENDBRANCH   4  27
TORSDOF 1
ENDMDL
MODEL       46
REMARK 921   NORMALIZED FREE ENERGY PREDICTED BY IDOCK:   -5.38 KCAL/MOL
REMARK 922        TOTAL FREE ENERGY PREDICTED BY IDOCK:   -5.50 KCAL/MOL
REMARK 923 INTER-LIGAND FREE ENERGY PREDICTED BY IDOCK:   -5.32 KCAL/MOL
REMARK 924 INTRA-LIGAND FREE ENERGY PREDICTED BY IDOCK:   -0.18 KCAL/MOL
REMARK 927      BINDING AFFINITY PREDICTED BY RF-SCORE:    0.00 PKD
ROOT
HETATM    1  C   UNL     1      -8.660  11.828  67.171  1.00  0.00    -0.168 C  
HETATM    2  C   UNL     1      -8.716  13.531  67.825  1.00  0.00    -0.189 C  
HETATM    3  C   UNL     1     -10.084  11.630  67.622  1.00  0.00    -0.204 C  
HETATM    4  C   UNL     1      -7.461  14.442  67.555  1.00  0.00    -0.206 C  
HETATM    5  C   UNL     1      -9.987  11.325  69.114  1.00  0.00    -0.058 C  
HETATM    6  C   UNL     1      -9.955  14.404  67.376  1.00  0.00    -0.242 C  
HETATM    7  C   UNL     1      -9.403   9.969  68.947  1.00  0.00    -0.172 C  
HETATM    8  C   UNL     1      -6.761  10.143  68.279  1.00  0.00    -0.054 C  
HETATM    9  C   UNL     1      -9.450   8.934  70.058  1.00  0.00    -0.189 C  
HETATM   10  C   UNL     1      -8.265  10.170  67.927  1.00  0.00    -0.109 C  
HETATM   11  C   UNL     1      -8.456   8.749  67.169  1.00  0.00    -0.110 C  
HETATM   12  C   UNL     1     -10.766   9.215  70.810  1.00  0.00    -0.263 C  
HETATM   13  C   UNL     1      -8.464   7.444  68.217  1.00  0.00    -0.125 C  
HETATM   14  C   UNL     1     -11.101   8.174  71.821  1.00  0.00    -0.329 C  
HETATM   15  O   UNL     1     -11.863   9.255  69.873  1.00  0.00    -0.446 OA 
HETATM   16  H   UNL     1     -12.674   9.427  70.337  1.00  0.00     0.000 HD 
HETATM   17  C   UNL     1     -11.229   6.781  71.193  1.00  0.00    -0.327 C  
HETATM   18  C   UNL     1     -11.843   5.888  72.283  1.00  0.00    -0.266 C  
HETATM   19  C   UNL     1     -10.908   5.326  73.337  1.00  0.00    -0.302 C  
HETATM   20  O   UNL     1     -10.877   6.148  74.503  1.00  0.00    -0.324 OA 
HETATM   21  C   UNL     1      -9.506   5.029  72.822  1.00  0.00    -0.157 C  
HETATM   22  C   UNL     1      -8.931   5.944  71.674  1.00  0.00    -0.142 C  
HETATM   23  H   UNL     1     -10.292   5.796  75.163  1.00  0.00     0.000 HD 
HETATM   24  C   UNL     1      -9.902   6.310  70.497  1.00  0.00    -0.207 C  
HETATM   25  C   UNL     1     -10.151   5.010  69.684  1.00  0.00    -0.321 C  
HETATM   26  C   UNL     1      -9.521   7.518  69.406  1.00  0.00    -0.155 C  
ENDROOT
BRANCH   4  27
HETATM   27  C   UNL     1      -7.632  15.892  68.116  1.00  0.00    -0.135 C  
HETATM   28  O   UNL     1      -7.126  17.423  69.849  1.00  0.00     0.246 OA 
HETATM   29  C   UNL     1      -7.035  16.130  69.455  1.00  0.00    -0.220 C  
HETATM   30  O   UNL     1      -6.490  15.287  70.167  1.00  0.00    -0.152 OA 
ENDBRANCH   4  27
TORSDOF 1
ENDMDL
MODEL       47
REMARK 921   NORMALIZED FREE ENERGY PREDICTED BY IDOCK:   -5.33 KCAL/MOL
REMARK 922        TOTAL FREE ENERGY PREDICTED BY IDOCK:   -5.44 KCAL/MOL
REMARK 923 INTER-LIGAND FREE ENERGY PREDICTED BY IDOCK:   -5.32 KCAL/MOL
REMARK 924 INTRA-LIGAND FREE ENERGY PREDICTED BY IDOCK:   -0.12 KCAL/MOL
REMARK 927      BINDING AFFINITY PREDICTED BY RF-SCORE:    0.00 PKD
ROOT
HETATM    1  C   UNL     1     -10.711  14.287  68.189  1.00  0.00    -0.249 C  
HETATM    2  C   UNL     1      -9.946  15.928  67.960  1.00  0.00    -0.220 C  
HETATM    3  C   UNL     1      -9.410  13.782  68.756  1.00  0.00     0.000 C  
HETATM    4  C   UNL     1     -10.883  17.091  67.461  1.00  0.00    -0.203 C  
HETATM    5  C   UNL     1      -8.539  13.481  67.540  1.00  0.00    -0.193 C  
HETATM    6  C   UNL     1      -9.196  16.524  69.218  1.00  0.00    -0.122 C  
HETATM    7  C   UNL     1      -9.305  12.285  67.106  1.00  0.00    -0.196 C  
HETATM    8  C   UNL     1     -11.640  13.029  65.902  1.00  0.00    -0.405 C  
HETATM    9  C   UNL     1      -8.707  11.246  66.173  1.00  0.00    -0.179 C  
HETATM   10  C   UNL     1     -10.776  12.741  67.150  1.00  0.00    -0.264 C  
HETATM   11  C   UNL     1     -11.384  11.323  67.654  1.00  0.00    -0.352 C  
HETATM   12  C   UNL     1      -7.202  11.227  66.508  1.00  0.00    -0.096 C  
HETATM   13  C   UNL     1     -10.903  10.031  66.708  1.00  0.00    -0.091 C  
HETATM   14  C   UNL     1      -6.463  10.123  65.836  1.00  0.00    -0.104 C  
HETATM   15  O   UNL     1      -7.022  11.046  67.928  1.00  0.00    -0.071 OA 
HETATM   16  H   UNL     1      -6.094  11.034  68.134  1.00  0.00     0.000 HD 
HETATM   17  C   UNL     1      -7.025   8.744  66.206  1.00  0.00    -0.081 C  
HETATM   18  C   UNL     1      -6.004   7.724  65.677  1.00  0.00    -0.038 C  
HETATM   19  C   UNL     1      -6.077   7.357  64.207  1.00  0.00    -0.037 C  
HETATM   20  O   UNL     1      -5.184   8.149  63.424  1.00  0.00    -0.048 OA 
HETATM   21  C   UNL     1      -7.490   7.375  63.637  1.00  0.00    -0.104 C  
HETATM   22  C   UNL     1      -8.516   8.411  64.237  1.00  0.00    -0.036 C  
HETATM   23  H   UNL     1      -5.230   7.919  62.503  1.00  0.00     0.000 HD 
HETATM   24  C   UNL     1      -8.532   8.579  65.797  1.00  0.00    -0.167 C  
HETATM   25  C   UNL     1      -9.113   7.269  66.396  1.00  0.00    -0.192 C  
HETATM   26  C   UNL     1      -9.330   9.858  66.520  1.00  0.00    -0.206 C  
ENDROOT
BRANCH   4  27
HETATM   27  C   UNL     1     -10.140  18.461  67.344  1.00  0.00    -0.369 C  
HETATM   28  O   UNL     1      -9.678  20.363  66.011  1.00  0.00    -0.326 OA 
HETATM   29  C   UNL     1     -10.257  19.138  66.027  1.00  0.00    -0.424 C  
HETATM   30  O   UNL     1     -10.821  18.690  65.029  1.00  0.00    -0.546 OA 
ENDBRANCH   4  27
TORSDOF 1
ENDMDL
MODEL       48
REMARK 921   NORMALIZED FREE ENERGY PREDICTED BY IDOCK:   -5.18 KCAL/MOL
REMARK 922        TOTAL FREE ENERGY PREDICTED BY IDOCK:   -5.29 KCAL/MOL
REMARK 923 INTER-LIGAND FREE ENERGY PREDICTED BY IDOCK:   -5.19 KCAL/MOL
REMARK 924 INTRA-LIGAND FREE ENERGY PREDICTED BY IDOCK:   -0.10 KCAL/MOL
REMARK 927      BINDING AFFINITY PREDICTED BY RF-SCORE:    0.00 PKD
ROOT
HETATM    1  C   UNL     1      -8.294  13.203  66.790  1.00  0.00     0.064 C  
HETATM    2  C   UNL     1      -9.254  14.559  67.545  1.00  0.00    -0.194 C  
HETATM    3  C   UNL     1      -9.579  12.454  66.550  1.00  0.00    -0.242 C  
HETATM    4  C   UNL     1      -8.460  15.856  67.954  1.00  0.00    -0.164 C  
HETATM    5  C   UNL     1      -9.914  11.804  67.889  1.00  0.00    -0.187 C  
HETATM    6  C   UNL     1     -10.485  15.087  66.704  1.00  0.00    -0.284 C  
HETATM    7  C   UNL     1      -8.822  10.798  67.839  1.00  0.00    -0.132 C  
HETATM    8  C   UNL     1      -6.421  11.965  68.412  1.00  0.00    -0.054 C  
HETATM    9  C   UNL     1      -8.851   9.542  68.691  1.00  0.00    -0.132 C  
HETATM   10  C   UNL     1      -7.574  11.614  67.447  1.00  0.00    -0.139 C  
HETATM   11  C   UNL     1      -6.897  10.464  66.524  1.00  0.00    -0.107 C  
HETATM   12  C   UNL     1     -10.345   9.181  68.822  1.00  0.00    -0.214 C  
HETATM   13  C   UNL     1      -6.763   8.991  67.306  1.00  0.00    -0.069 C  
HETATM   14  C   UNL     1     -10.578   7.857  69.460  1.00  0.00    -0.220 C  
HETATM   15  O   UNL     1     -10.948   9.127  67.513  1.00  0.00    -0.466 OA 
HETATM   16  H   UNL     1     -11.869   8.904  67.594  1.00  0.00     0.000 HD 
HETATM   17  C   UNL     1      -9.905   6.717  68.684  1.00  0.00    -0.142 C  
HETATM   18  C   UNL     1     -10.462   5.418  69.287  1.00  0.00    -0.309 C  
HETATM   19  C   UNL     1      -9.829   4.914  70.571  1.00  0.00    -0.227 C  
HETATM   20  O   UNL     1     -10.551   5.358  71.720  1.00  0.00    -0.224 OA 
HETATM   21  C   UNL     1      -8.342   5.223  70.688  1.00  0.00    -0.113 C  
HETATM   22  C   UNL     1      -7.807   6.546  70.018  1.00  0.00    -0.111 C  
HETATM   23  H   UNL     1     -10.154   5.043  72.525  1.00  0.00     0.000 HD 
HETATM   24  C   UNL     1      -8.347   6.892  68.586  1.00  0.00    -0.121 C  
HETATM   25  C   UNL     1      -7.748   5.850  67.604  1.00  0.00    -0.097 C  
HETATM   26  C   UNL     1      -8.113   8.406  67.917  1.00  0.00    -0.123 C  
ENDROOT
BRANCH   4  27
HETATM   27  C   UNL     1      -9.382  16.970  68.547  1.00  0.00    -0.265 C  
HETATM   28  O   UNL     1     -10.231  19.170  68.328  1.00  0.00    -0.381 OA 
HETATM   29  C   UNL     1      -9.343  18.273  67.834  1.00  0.00    -0.276 C  
HETATM   30  O   UNL     1      -8.615  18.559  66.884  1.00  0.00    -0.262 OA 
ENDBRANCH   4  27
TORSDOF 1
ENDMDL
MODEL       49
REMARK 921   NORMALIZED FREE ENERGY PREDICTED BY IDOCK:   -5.10 KCAL/MOL
REMARK 922        TOTAL FREE ENERGY PREDICTED BY IDOCK:   -5.20 KCAL/MOL
REMARK 923 INTER-LIGAND FREE ENERGY PREDICTED BY IDOCK:   -5.08 KCAL/MOL
REMARK 924 INTRA-LIGAND FREE ENERGY PREDICTED BY IDOCK:   -0.12 KCAL/MOL
REMARK 927      BINDING AFFINITY PREDICTED BY RF-SCORE:    0.00 PKD
ROOT
HETATM    1  C   UNL     1      -9.050   8.281  66.567  1.00  0.00    -0.219 C  
HETATM    2  C   UNL     1      -8.128   7.113  67.623  1.00  0.00    -0.114 C  
HETATM    3  C   UNL     1      -7.750   8.956  66.214  1.00  0.00    -0.098 C  
HETATM    4  C   UNL     1      -8.948   5.937  68.275  1.00  0.00    -0.112 C  
HETATM    5  C   UNL     1      -7.447   9.875  67.394  1.00  0.00    -0.091 C  
HETATM    6  C   UNL     1      -6.878   6.413  66.953  1.00  0.00    -0.066 C  
HETATM    7  C   UNL     1      -8.526  10.852  67.096  1.00  0.00    -0.128 C  
HETATM    8  C   UNL     1     -10.956   9.845  67.830  1.00  0.00    -0.278 C  
HETATM    9  C   UNL     1      -8.508  12.262  67.663  1.00  0.00    -0.166 C  
HETATM   10  C   UNL     1      -9.771   9.978  66.848  1.00  0.00    -0.237 C  
HETATM   11  C   UNL     1     -10.408  10.907  65.681  1.00  0.00    -0.305 C  
HETATM   12  C   UNL     1      -7.016  12.635  67.761  1.00  0.00    -0.125 C  
HETATM   13  C   UNL     1     -10.549  12.513  66.127  1.00  0.00    -0.279 C  
HETATM   14  C   UNL     1      -6.787  14.064  68.109  1.00  0.00    -0.122 C  
HETATM   15  O   UNL     1      -6.373  12.407  66.489  1.00  0.00    -0.430 OA 
HETATM   16  H   UNL     1      -5.453  12.637  66.549  1.00  0.00     0.000 HD 
HETATM   17  C   UNL     1      -7.424  15.014  67.087  1.00  0.00    -0.145 C  
HETATM   18  C   UNL     1      -6.871  16.410  67.417  1.00  0.00    -0.201 C  
HETATM   19  C   UNL     1      -7.536  17.179  68.544  1.00  0.00    -0.238 C  
HETATM   20  O   UNL     1      -6.853  16.986  69.783  1.00  0.00    -0.101 OA 
HETATM   21  C   UNL     1      -9.029  16.909  68.677  1.00  0.00    -0.266 C  
HETATM   22  C   UNL     1      -9.559  15.475  68.288  1.00  0.00    -0.201 C  
HETATM   23  H   UNL     1      -7.270  17.468  70.489  1.00  0.00     0.000 HD 
HETATM   24  C   UNL     1      -8.980  14.830  66.980  1.00  0.00    -0.258 C  
HETATM   25  C   UNL     1      -9.538  15.641  65.780  1.00  0.00    -0.361 C  
HETATM   26  C   UNL     1      -9.211  13.209  66.641  1.00  0.00    -0.220 C  
ENDROOT
BRANCH   4  27
HETATM   27  C   UNL     1      -8.056   4.970  69.119  1.00  0.00    -0.083 C  
HETATM   28  O   UNL     1      -7.408   2.734  69.551  1.00  0.00    -0.044 OA 
HETATM   29  C   UNL     1      -8.272   3.522  68.867  1.00  0.00    -0.060 C  
HETATM   30  O   UNL     1      -9.117   3.035  68.117  1.00  0.00    -0.133 OA 
ENDBRANCH   4  27
TORSDOF 1
ENDMDL
MODEL       50
REMARK 921   NORMALIZED FREE ENERGY PREDICTED BY IDOCK:   -4.95 KCAL/MOL
REMARK 922        TOTAL FREE ENERGY PREDICTED BY IDOCK:   -5.04 KCAL/MOL
REMARK 923 INTER-LIGAND FREE ENERGY PREDICTED BY IDOCK:   -4.86 KCAL/MOL
REMARK 924 INTRA-LIGAND FREE ENERGY PREDICTED BY IDOCK:   -0.18 KCAL/MOL
REMARK 927      BINDING AFFINITY PREDICTED BY RF-SCORE:    0.00 PKD
ROOT
HETATM    1  C   UNL     1      -6.498   7.270  66.491  1.00  0.00    -0.052 C  
HETATM    2  C   UNL     1      -7.201   5.766  65.733  1.00  0.00    -0.075 C  
HETATM    3  C   UNL     1      -7.702   7.354  67.393  1.00  0.00    -0.114 C  
HETATM    4  C   UNL     1      -6.307   5.010  64.681  1.00  0.00    -0.034 C  
HETATM    5  C   UNL     1      -8.793   7.993  66.539  1.00  0.00    -0.175 C  
HETATM    6  C   UNL     1      -7.679   4.643  66.739  1.00  0.00    -0.095 C  
HETATM    7  C   UNL     1      -8.184   9.348  66.518  1.00  0.00    -0.115 C  
HETATM    8  C   UNL     1      -6.066   9.418  64.795  1.00  0.00    -0.072 C  
HETATM    9  C   UNL     1      -8.996  10.586  66.177  1.00  0.00    -0.178 C  
HETATM   10  C   UNL     1      -6.706   9.094  66.164  1.00  0.00    -0.074 C  
HETATM   11  C   UNL     1      -6.096  10.268  67.103  1.00  0.00    -0.055 C  
HETATM   12  C   UNL     1     -10.415  10.291  66.703  1.00  0.00    -0.194 C  
HETATM   13  C   UNL     1      -6.810  11.757  66.835  1.00  0.00    -0.104 C  
HETATM   14  C   UNL     1     -11.323  11.469  66.645  1.00  0.00    -0.285 C  
HETATM   15  O   UNL     1     -10.346   9.884  68.085  1.00  0.00    -0.174 OA 
HETATM   16  H   UNL     1     -11.221   9.702  68.410  1.00  0.00     0.000 HD 
HETATM   17  C   UNL     1     -10.780  12.654  67.453  1.00  0.00    -0.251 C  
HETATM   18  C   UNL     1     -11.933  13.667  67.531  1.00  0.00    -0.393 C  
HETATM   19  C   UNL     1     -12.146  14.580  66.338  1.00  0.00    -0.301 C  
HETATM   20  O   UNL     1     -13.121  14.051  65.440  1.00  0.00    -0.763 OA 
HETATM   21  C   UNL     1     -10.860  14.957  65.614  1.00  0.00    -0.347 C  
HETATM   22  C   UNL     1      -9.687  13.903  65.593  1.00  0.00    -0.157 C  
HETATM   23  H   UNL     1     -13.254  14.623  64.693  1.00  0.00     0.000 HD 
HETATM   24  C   UNL     1      -9.382  13.148  66.935  1.00  0.00    -0.246 C  
HETATM   25  C   UNL     1      -8.776  14.184  67.919  1.00  0.00    -0.182 C  
HETATM   26  C   UNL     1      -8.398  11.796  66.960  1.00  0.00    -0.172 C  
ENDROOT
BRANCH   4  27
HETATM   27  C   UNL     1      -6.983   3.713  64.130  1.00  0.00    -0.046 C  
HETATM   28  O   UNL     1      -8.351   2.742  62.460  1.00  0.00    -0.072 OA 
HETATM   29  C   UNL     1      -7.870   3.907  62.955  1.00  0.00    -0.066 C  
HETATM   30  O   UNL     1      -8.160   4.985  62.435  1.00  0.00    -0.072 OA 
ENDBRANCH   4  27
TORSDOF 1
ENDMDL
MODEL       51
REMARK 921   NORMALIZED FREE ENERGY PREDICTED BY IDOCK:   -4.94 KCAL/MOL
REMARK 922        TOTAL FREE ENERGY PREDICTED BY IDOCK:   -5.04 KCAL/MOL
REMARK 923 INTER-LIGAND FREE ENERGY PREDICTED BY IDOCK:   -4.92 KCAL/MOL
REMARK 924 INTRA-LIGAND FREE ENERGY PREDICTED BY IDOCK:   -0.11 KCAL/MOL
REMARK 927      BINDING AFFINITY PREDICTED BY RF-SCORE:    0.00 PKD
ROOT
HETATM    1  C   UNL     1      -9.128  11.868  68.208  1.00  0.00    -0.183 C  
HETATM    2  C   UNL     1      -9.764  12.991  66.918  1.00  0.00    -0.238 C  
HETATM    3  C   UNL     1      -8.051  11.417  67.257  1.00  0.00    -0.148 C  
HETATM    4  C   UNL     1     -10.940  13.955  67.325  1.00  0.00    -0.299 C  
HETATM    5  C   UNL     1      -8.726  10.394  66.349  1.00  0.00    -0.149 C  
HETATM    6  C   UNL     1      -8.693  13.928  66.228  1.00  0.00     0.352 C  
HETATM    7  C   UNL     1      -8.845   9.337  67.386  1.00  0.00    -0.124 C  
HETATM    8  C   UNL     1     -10.876   9.919  69.117  1.00  0.00    -0.248 C  
HETATM    9  C   UNL     1      -9.059   7.878  67.021  1.00  0.00    -0.162 C  
HETATM   10  C   UNL     1      -9.424  10.071  68.611  1.00  0.00    -0.156 C  
HETATM   11  C   UNL     1      -8.594   9.234  69.726  1.00  0.00    -0.164 C  
HETATM   12  C   UNL     1      -8.318   7.687  65.683  1.00  0.00    -0.140 C  
HETATM   13  C   UNL     1      -8.751   7.578  69.551  1.00  0.00    -0.137 C  
HETATM   14  C   UNL     1      -8.237   6.265  65.251  1.00  0.00    -0.138 C  
HETATM   15  O   UNL     1      -6.962   8.164  65.805  1.00  0.00    -0.062 OA 
HETATM   16  H   UNL     1      -6.505   8.047  64.980  1.00  0.00     0.000 HD 
HETATM   17  C   UNL     1      -7.526   5.388  66.288  1.00  0.00    -0.087 C  
HETATM   18  C   UNL     1      -7.273   4.042  65.590  1.00  0.00    -0.071 C  
HETATM   19  C   UNL     1      -8.420   3.051  65.541  1.00  0.00    -0.104 C  
HETATM   20  O   UNL     1      -9.155   3.159  64.322  1.00  0.00    -0.109 OA 
HETATM   21  C   UNL     1      -9.337   3.108  66.756  1.00  0.00    -0.148 C  
HETATM   22  C   UNL     1      -9.536   4.502  67.466  1.00  0.00    -0.211 C  
HETATM   23  H   UNL     1      -9.874   2.539  64.291  1.00  0.00     0.000 HD 
HETATM   24  C   UNL     1      -8.257   5.386  67.678  1.00  0.00    -0.100 C  
HETATM   25  C   UNL     1      -7.381   4.679  68.748  1.00  0.00    -0.060 C  
HETATM   26  C   UNL     1      -8.381   6.995  68.115  1.00  0.00    -0.123 C  
ENDROOT
BRANCH   4  27
HETATM   27  C   UNL     1     -11.376  14.905  66.162  1.00  0.00    -0.307 C  
HETATM   28  O   UNL     1     -12.620  15.157  64.163  1.00  0.00    -0.737 OA 
HETATM   29  C   UNL     1     -12.189  14.270  65.093  1.00  0.00    -0.421 C  
HETATM   30  O   UNL     1     -12.483  13.078  65.016  1.00  0.00    -0.450 OA 
ENDBRANCH   4  27
TORSDOF 1
ENDMDL
MODEL       52
REMARK 921   NORMALIZED FREE ENERGY PREDICTED BY IDOCK:   -4.92 KCAL/MOL
REMARK 922        TOTAL FREE ENERGY PREDICTED BY IDOCK:   -5.01 KCAL/MOL
REMARK 923 INTER-LIGAND FREE ENERGY PREDICTED BY IDOCK:   -4.84 KCAL/MOL
REMARK 924 INTRA-LIGAND FREE ENERGY PREDICTED BY IDOCK:   -0.17 KCAL/MOL
REMARK 927      BINDING AFFINITY PREDICTED BY RF-SCORE:    0.00 PKD
ROOT
HETATM    1  C   UNL     1      -6.831   8.251  68.623  1.00  0.00    -0.063 C  
HETATM    2  C   UNL     1      -7.066   8.268  70.433  1.00  0.00    -0.037 C  
HETATM    3  C   UNL     1      -6.614   9.742  68.658  1.00  0.00    -0.051 C  
HETATM    4  C   UNL     1      -7.234   6.874  71.145  1.00  0.00    -0.076 C  
HETATM    5  C   UNL     1      -8.014  10.344  68.720  1.00  0.00    -0.122 C  
HETATM    6  C   UNL     1      -5.952   9.018  71.268  1.00  0.00    -0.059 C  
HETATM    7  C   UNL     1      -8.380  10.002  67.322  1.00  0.00    -0.121 C  
HETATM    8  C   UNL     1      -8.967   7.343  67.110  1.00  0.00    -0.134 C  
HETATM    9  C   UNL     1      -9.516  10.704  66.597  1.00  0.00    -0.195 C  
HETATM   10  C   UNL     1      -7.972   8.524  67.174  1.00  0.00    -0.101 C  
HETATM   11  C   UNL     1      -7.483   8.630  65.630  1.00  0.00    -0.085 C  
HETATM   12  C   UNL     1      -9.523  12.140  67.159  1.00  0.00    -0.190 C  
HETATM   13  C   UNL     1      -8.631   9.319  64.627  1.00  0.00    -0.209 C  
HETATM   14  C   UNL     1     -10.441  13.055  66.428  1.00  0.00    -0.285 C  
HETATM   15  O   UNL     1      -8.200  12.707  67.058  1.00  0.00    -0.264 OA 
HETATM   16  H   UNL     1      -8.204  13.593  67.405  1.00  0.00     0.000 HD 
HETATM   17  C   UNL     1     -10.090  13.155  64.939  1.00  0.00    -0.236 C  
HETATM   18  C   UNL     1     -10.924  14.326  64.393  1.00  0.00    -0.204 C  
HETATM   19  C   UNL     1     -12.370  14.046  64.031  1.00  0.00    -0.298 C  
HETATM   20  O   UNL     1     -13.251  14.364  65.108  1.00  0.00    -0.602 OA 
HETATM   21  C   UNL     1     -12.612  12.638  63.503  1.00  0.00    -0.415 C  
HETATM   22  C   UNL     1     -11.706  11.473  64.060  1.00  0.00    -0.226 C  
HETATM   23  H   UNL     1     -14.157  14.188  64.881  1.00  0.00     0.000 HD 
HETATM   24  C   UNL     1     -10.172  11.769  64.205  1.00  0.00    -0.344 C  
HETATM   25  C   UNL     1      -9.587  11.882  62.771  1.00  0.00     0.286 C  
HETATM   26  C   UNL     1      -9.174  10.748  65.075  1.00  0.00    -0.241 C  
ENDROOT
BRANCH   4  27
HETATM   27  C   UNL     1      -7.382   6.999  72.696  1.00  0.00    -0.080 C  
HETATM   28  O   UNL     1      -8.845   7.281  74.537  1.00  0.00    -0.202 OA 
HETATM   29  C   UNL     1      -8.756   7.280  73.185  1.00  0.00    -0.136 C  
HETATM   30  O   UNL     1      -9.748   7.481  72.484  1.00  0.00    -0.152 OA 
ENDBRANCH   4  27
TORSDOF 1
ENDMDL
MODEL       53
REMARK 921   NORMALIZED FREE ENERGY PREDICTED BY IDOCK:   -4.84 KCAL/MOL
REMARK 922        TOTAL FREE ENERGY PREDICTED BY IDOCK:   -4.92 KCAL/MOL
REMARK 923 INTER-LIGAND FREE ENERGY PREDICTED BY IDOCK:   -4.74 KCAL/MOL
REMARK 924 INTRA-LIGAND FREE ENERGY PREDICTED BY IDOCK:   -0.18 KCAL/MOL
REMARK 927      BINDING AFFINITY PREDICTED BY RF-SCORE:    0.00 PKD
ROOT
HETATM    1  C   UNL     1      -7.463   8.213  68.598  1.00  0.00    -0.098 C  
HETATM    2  C   UNL     1      -7.807   6.877  67.404  1.00  0.00    -0.111 C  
HETATM    3  C   UNL     1      -8.928   8.566  68.595  1.00  0.00    -0.139 C  
HETATM    4  C   UNL     1      -6.608   5.930  67.024  1.00  0.00    -0.056 C  
HETATM    5  C   UNL     1      -9.130   9.405  67.337  1.00  0.00    -0.141 C  
HETATM    6  C   UNL     1      -8.991   5.899  67.782  1.00  0.00    -0.111 C  
HETATM    7  C   UNL     1      -8.408  10.600  67.842  1.00  0.00    -0.120 C  
HETATM    8  C   UNL     1      -5.709  10.190  67.765  1.00  0.00    -0.042 C  
HETATM    9  C   UNL     1      -8.604  11.975  67.226  1.00  0.00    -0.177 C  
HETATM   10  C   UNL     1      -7.098  10.033  68.424  1.00  0.00    -0.072 C  
HETATM   11  C   UNL     1      -6.995  11.070  69.667  1.00  0.00    -0.110 C  
HETATM   12  C   UNL     1     -10.071  11.995  66.753  1.00  0.00    -0.203 C  
HETATM   13  C   UNL     1      -7.116  12.671  69.197  1.00  0.00     0.028 C  
HETATM   14  C   UNL     1     -10.525  13.337  66.296  1.00  0.00    -0.289 C  
HETATM   15  O   UNL     1     -10.938  11.609  67.840  1.00  0.00    -0.200 OA 
HETATM   16  H   UNL     1     -11.843  11.622  67.548  1.00  0.00     0.000 HD 
HETATM   17  C   UNL     1     -10.392  14.396  67.397  1.00  0.00    -0.252 C  
HETATM   18  C   UNL     1     -11.147  15.631  66.881  1.00  0.00    -0.181 C  
HETATM   19  C   UNL     1     -10.418  16.546  65.915  1.00  0.00    -0.323 C  
HETATM   20  O   UNL     1     -10.712  16.217  64.557  1.00  0.00    -0.828 OA 
HETATM   21  C   UNL     1      -8.917  16.629  66.160  1.00  0.00    -0.321 C  
HETATM   22  C   UNL     1      -8.188  15.352  66.729  1.00  0.00    -0.252 C  
HETATM   23  H   UNL     1     -10.255  16.790  63.952  1.00  0.00     0.000 HD 
HETATM   24  C   UNL     1      -8.910  14.574  67.886  1.00  0.00    -0.176 C  
HETATM   25  C   UNL     1      -8.862  15.477  69.148  1.00  0.00    -0.253 C  
HETATM   26  C   UNL     1      -8.408  13.046  68.343  1.00  0.00    -0.118 C  
ENDROOT
BRANCH   4  27
HETATM   27  C   UNL     1      -7.022   4.794  66.033  1.00  0.00    -0.066 C  
HETATM   28  O   UNL     1      -7.174   4.081  63.780  1.00  0.00    -0.049 OA 
HETATM   29  C   UNL     1      -6.896   5.130  64.591  1.00  0.00    -0.049 C  
HETATM   30  O   UNL     1      -6.565   6.221  64.127  1.00  0.00    -0.032 OA 
ENDBRANCH   4  27
TORSDOF 1
ENDMDL
MODEL       54
REMARK 921   NORMALIZED FREE ENERGY PREDICTED BY IDOCK:   -4.77 KCAL/MOL
REMARK 922        TOTAL FREE ENERGY PREDICTED BY IDOCK:   -4.85 KCAL/MOL
REMARK 923 INTER-LIGAND FREE ENERGY PREDICTED BY IDOCK:   -4.77 KCAL/MOL
REMARK 924 INTRA-LIGAND FREE ENERGY PREDICTED BY IDOCK:   -0.08 KCAL/MOL
REMARK 927      BINDING AFFINITY PREDICTED BY RF-SCORE:    0.00 PKD
ROOT
HETATM    1  C   UNL     1      -9.667  14.447  67.714  1.00  0.00    -0.221 C  
HETATM    2  C   UNL     1      -8.467  15.765  67.322  1.00  0.00    -0.212 C  
HETATM    3  C   UNL     1      -8.633  13.795  68.594  1.00  0.00    -0.057 C  
HETATM    4  C   UNL     1      -8.985  16.969  66.450  1.00  0.00    -0.308 C  
HETATM    5  C   UNL     1      -7.727  13.027  67.637  1.00  0.00    -0.161 C  
HETATM    6  C   UNL     1      -7.752  16.440  68.561  1.00  0.00    -0.195 C  
HETATM    7  C   UNL     1      -8.724  11.977  67.305  1.00  0.00    -0.175 C  
HETATM    8  C   UNL     1     -10.599  12.952  65.576  1.00  0.00    -0.298 C  
HETATM    9  C   UNL     1      -8.312  10.641  66.711  1.00  0.00    -0.132 C  
HETATM   10  C   UNL     1     -10.012  12.763  66.992  1.00  0.00    -0.231 C  
HETATM   11  C   UNL     1     -11.037  11.683  67.636  1.00  0.00    -0.314 C  
HETATM   12  C   UNL     1      -6.923  10.346  67.312  1.00  0.00    -0.086 C  
HETATM   13  C   UNL     1     -10.803  10.132  67.055  1.00  0.00    -0.221 C  
HETATM   14  C   UNL     1      -6.428   8.976  67.008  1.00  0.00    -0.061 C  
HETATM   15  O   UNL     1      -6.982  10.460  68.749  1.00  0.00    -0.063 OA 
HETATM   16  H   UNL     1      -6.126  10.278  69.120  1.00  0.00     0.000 HD 
HETATM   17  C   UNL     1      -7.382   7.891  67.523  1.00  0.00    -0.092 C  
HETATM   18  C   UNL     1      -6.614   6.566  67.393  1.00  0.00    -0.061 C  
HETATM   19  C   UNL     1      -6.594   5.899  66.030  1.00  0.00    -0.047 C  
HETATM   20  O   UNL     1      -5.428   6.257  65.288  1.00  0.00    -0.016 OA 
HETATM   21  C   UNL     1      -7.865   6.117  65.219  1.00  0.00    -0.105 C  
HETATM   22  C   UNL     1      -8.644   7.474  65.414  1.00  0.00    -0.069 C  
HETATM   23  H   UNL     1      -5.416   5.839  64.435  1.00  0.00     0.000 HD 
HETATM   24  C   UNL     1      -8.814   7.995  66.885  1.00  0.00    -0.146 C  
HETATM   25  C   UNL     1      -9.796   7.032  67.604  1.00  0.00    -0.180 C  
HETATM   26  C   UNL     1      -9.324   9.556  67.195  1.00  0.00    -0.174 C  
ENDROOT
BRANCH   4  27
HETATM   27  C   UNL     1      -7.892  18.061  66.213  1.00  0.00    -0.288 C  
HETATM   28  O   UNL     1      -7.206  20.297  66.583  1.00  0.00    -0.249 OA 
HETATM   29  C   UNL     1      -8.224  19.415  66.727  1.00  0.00    -0.292 C  
HETATM   30  O   UNL     1      -9.286  19.752  67.250  1.00  0.00    -0.314 OA 
ENDBRANCH   4  27
TORSDOF 1
ENDMDL
MODEL       55
REMARK 921   NORMALIZED FREE ENERGY PREDICTED BY IDOCK:   -4.59 KCAL/MOL
REMARK 922        TOTAL FREE ENERGY PREDICTED BY IDOCK:   -4.66 KCAL/MOL
REMARK 923 INTER-LIGAND FREE ENERGY PREDICTED BY IDOCK:   -4.66 KCAL/MOL
REMARK 924 INTRA-LIGAND FREE ENERGY PREDICTED BY IDOCK:   -0.00 KCAL/MOL
REMARK 927      BINDING AFFINITY PREDICTED BY RF-SCORE:    0.00 PKD
ROOT
HETATM    1  C   UNL     1      -9.460  11.822  68.742  1.00  0.00    -0.037 C  
HETATM    2  C   UNL     1      -9.868  12.772  67.239  1.00  0.00    -0.207 C  
HETATM    3  C   UNL     1      -8.259  11.252  68.032  1.00  0.00    -0.134 C  
HETATM    4  C   UNL     1     -11.073  13.781  67.335  1.00  0.00    -0.312 C  
HETATM    5  C   UNL     1      -8.810  10.122  67.168  1.00  0.00    -0.138 C  
HETATM    6  C   UNL     1      -8.686  13.612  66.609  1.00  0.00    -0.018 C  
HETATM    7  C   UNL     1      -9.106   9.206  68.299  1.00  0.00    -0.132 C  
HETATM    8  C   UNL     1     -11.365  10.007  69.610  1.00  0.00    -0.253 C  
HETATM    9  C   UNL     1      -9.292   7.713  68.093  1.00  0.00    -0.146 C  
HETATM   10  C   UNL     1      -9.850  10.092  69.318  1.00  0.00    -0.227 C  
HETATM   11  C   UNL     1      -9.216   9.403  70.644  1.00  0.00    -0.303 C  
HETATM   12  C   UNL     1      -8.361   7.353  66.918  1.00  0.00    -0.122 C  
HETATM   13  C   UNL     1      -9.379   7.738  70.657  1.00  0.00    -0.162 C  
HETATM   14  C   UNL     1      -8.244   5.887  66.687  1.00  0.00    -0.106 C  
HETATM   15  O   UNL     1      -7.029   7.840  67.187  1.00  0.00    -0.073 OA 
HETATM   16  H   UNL     1      -6.455   7.618  66.462  1.00  0.00     0.000 HD 
HETATM   17  C   UNL     1      -7.717   5.148  67.923  1.00  0.00    -0.087 C  
HETATM   18  C   UNL     1      -7.388   3.724  67.448  1.00  0.00    -0.067 C  
HETATM   19  C   UNL     1      -8.535   2.736  67.348  1.00  0.00    -0.095 C  
HETATM   20  O   UNL     1      -9.073   2.689  66.027  1.00  0.00    -0.159 OA 
HETATM   21  C   UNL     1      -9.624   2.949  68.391  1.00  0.00    -0.111 C  
HETATM   22  C   UNL     1      -9.901   4.422  68.881  1.00  0.00    -0.163 C  
HETATM   23  H   UNL     1      -9.792   2.070  65.964  1.00  0.00     0.000 HD 
HETATM   24  C   UNL     1      -8.651   5.325  69.174  1.00  0.00    -0.102 C  
HETATM   25  C   UNL     1      -7.963   4.759  70.445  1.00  0.00    -0.065 C  
HETATM   26  C   UNL     1      -8.807   6.976  69.380  1.00  0.00    -0.136 C  
ENDROOT
BRANCH   4  27
HETATM   27  C   UNL     1     -11.307  14.575  66.009  1.00  0.00    -0.341 C  
HETATM   28  O   UNL     1     -11.113  16.642  64.871  1.00  0.00    -0.557 OA 
HETATM   29  C   UNL     1     -10.985  16.024  66.070  1.00  0.00    -0.097 C  
HETATM   30  O   UNL     1     -10.623  16.645  67.069  1.00  0.00    -0.311 OA 
ENDBRANCH   4  27
TORSDOF 1
ENDMDL
MODEL       56
REMARK 921   NORMALIZED FREE ENERGY PREDICTED BY IDOCK:   -4.50 KCAL/MOL
REMARK 922        TOTAL FREE ENERGY PREDICTED BY IDOCK:   -4.56 KCAL/MOL
REMARK 923 INTER-LIGAND FREE ENERGY PREDICTED BY IDOCK:   -4.47 KCAL/MOL
REMARK 924 INTRA-LIGAND FREE ENERGY PREDICTED BY IDOCK:   -0.10 KCAL/MOL
REMARK 927      BINDING AFFINITY PREDICTED BY RF-SCORE:    0.00 PKD
ROOT
HETATM    1  C   UNL     1      -8.346   7.981  72.364  1.00  0.00    -0.205 C  
HETATM    2  C   UNL     1      -9.590   6.761  72.904  1.00  0.00    -0.167 C  
HETATM    3  C   UNL     1      -9.430   8.734  71.637  1.00  0.00    -0.358 C  
HETATM    4  C   UNL     1      -9.108   5.642  73.903  1.00  0.00    -0.126 C  
HETATM    5  C   UNL     1      -9.623   7.980  70.325  1.00  0.00    -0.171 C  
HETATM    6  C   UNL     1     -10.901   7.353  73.562  1.00  0.00    -0.269 C  
HETATM    7  C   UNL     1      -8.334   8.406  69.722  1.00  0.00    -0.125 C  
HETATM    8  C   UNL     1      -6.258   7.014  70.822  1.00  0.00    -0.036 C  
HETATM    9  C   UNL     1      -8.089   8.340  68.224  1.00  0.00    -0.124 C  
HETATM   10  C   UNL     1      -7.296   8.158  70.834  1.00  0.00    -0.059 C  
HETATM   11  C   UNL     1      -6.371   9.449  70.501  1.00  0.00    -0.072 C  
HETATM   12  C   UNL     1      -9.466   8.604  67.582  1.00  0.00    -0.141 C  
HETATM   13  C   UNL     1      -5.919   9.534  68.892  1.00  0.00    -0.042 C  
HETATM   14  C   UNL     1      -9.403   8.780  66.105  1.00  0.00    -0.297 C  
HETATM   15  O   UNL     1     -10.030   9.816  68.124  1.00  0.00    -0.146 OA 
HETATM   16  H   UNL     1     -10.879   9.979  67.728  1.00  0.00     0.000 HD 
HETATM   17  C   UNL     1      -8.487   9.942  65.702  1.00  0.00    -0.152 C  
HETATM   18  C   UNL     1      -8.745  10.175  64.205  1.00  0.00    -0.216 C  
HETATM   19  C   UNL     1      -8.028   9.270  63.221  1.00  0.00    -0.145 C  
HETATM   20  O   UNL     1      -8.840   8.159  62.842  1.00  0.00    -0.398 OA 
HETATM   21  C   UNL     1      -6.648   8.825  63.687  1.00  0.00    -0.088 C  
HETATM   22  C   UNL     1      -6.415   8.638  65.236  1.00  0.00    -0.063 C  
HETATM   23  H   UNL     1      -8.390   7.592  62.226  1.00  0.00     0.000 HD 
HETATM   24  C   UNL     1      -7.007   9.738  66.185  1.00  0.00    -0.095 C  
HETATM   25  C   UNL     1      -6.182  11.034  65.959  1.00  0.00    -0.075 C  
HETATM   26  C   UNL     1      -7.110   9.491  67.836  1.00  0.00    -0.081 C  
ENDROOT
BRANCH   4  27
HETATM   27  C   UNL     1     -10.261   4.680  74.338  1.00  0.00    -0.288 C  
HETATM   28  O   UNL     1     -11.618   2.824  73.773  1.00  0.00    -0.162 OA 
HETATM   29  C   UNL     1     -10.688   3.694  73.312  1.00  0.00    -0.198 C  
HETATM   30  O   UNL     1     -10.266   3.620  72.158  1.00  0.00    -0.167 OA 
ENDBRANCH   4  27
TORSDOF 1
ENDMDL
MODEL       57
REMARK 921   NORMALIZED FREE ENERGY PREDICTED BY IDOCK:   -4.45 KCAL/MOL
REMARK 922        TOTAL FREE ENERGY PREDICTED BY IDOCK:   -4.51 KCAL/MOL
REMARK 923 INTER-LIGAND FREE ENERGY PREDICTED BY IDOCK:   -4.41 KCAL/MOL
REMARK 924 INTRA-LIGAND FREE ENERGY PREDICTED BY IDOCK:   -0.10 KCAL/MOL
REMARK 927      BINDING AFFINITY PREDICTED BY RF-SCORE:    0.00 PKD
ROOT
HETATM    1  C   UNL     1      -7.311  11.807  68.760  1.00  0.00    -0.114 C  
HETATM    2  C   UNL     1      -7.858  10.541  67.564  1.00  0.00    -0.106 C  
HETATM    3  C   UNL     1      -8.744  12.241  68.925  1.00  0.00     0.264 C  
HETATM    4  C   UNL     1      -6.764   9.544  67.027  1.00  0.00    -0.072 C  
HETATM    5  C   UNL     1      -9.026  13.140  67.725  1.00  0.00    -0.194 C  
HETATM    6  C   UNL     1      -9.053   9.618  68.032  1.00  0.00    -0.128 C  
HETATM    7  C   UNL     1      -8.184  14.272  68.191  1.00  0.00    -0.146 C  
HETATM    8  C   UNL     1      -5.537  13.713  67.814  1.00  0.00    -0.075 C  
HETATM    9  C   UNL     1      -8.360  15.679  67.647  1.00  0.00    -0.168 C  
HETATM   10  C   UNL     1      -6.857  13.609  68.610  1.00  0.00    -0.097 C  
HETATM   11  C   UNL     1      -6.563  14.587  69.871  1.00  0.00    -0.151 C  
HETATM   12  C   UNL     1      -9.864  15.801  67.333  1.00  0.00    -0.233 C  
HETATM   13  C   UNL     1      -6.635  16.210  69.471  1.00  0.00    -0.200 C  
HETATM   14  C   UNL     1     -10.281  17.184  66.973  1.00  0.00    -0.313 C  
HETATM   15  O   UNL     1     -10.635  15.421  68.492  1.00  0.00    -0.231 OA 
HETATM   16  H   UNL     1     -11.562  15.497  68.299  1.00  0.00     0.000 HD 
HETATM   17  C   UNL     1      -9.970  18.189  68.089  1.00  0.00    -0.368 C  
HETATM   18  C   UNL     1     -10.699  19.484  67.698  1.00  0.00    -0.527 C  
HETATM   19  C   UNL     1     -10.020  20.394  66.692  1.00  0.00    -0.355 C  
HETATM   20  O   UNL     1     -10.473  20.138  65.363  1.00  0.00    -0.329 OA 
HETATM   21  C   UNL     1      -8.499  20.382  66.779  1.00  0.00    -0.275 C  
HETATM   22  C   UNL     1      -7.794  19.044  67.224  1.00  0.00    -0.263 C  
HETATM   23  H   UNL     1     -10.048  20.708  64.733  1.00  0.00     0.000 HD 
HETATM   24  C   UNL     1      -8.437  18.262  68.424  1.00  0.00    -0.319 C  
HETATM   25  C   UNL     1      -8.204  19.110  69.704  1.00  0.00     0.433 C  
HETATM   26  C   UNL     1      -7.984  16.691  68.773  1.00  0.00    -0.239 C  
ENDROOT
BRANCH   4  27
HETATM   27  C   UNL     1      -7.347   8.474  66.048  1.00  0.00    -0.081 C  
HETATM   28  O   UNL     1      -6.920   6.958  64.280  1.00  0.00    -0.048 OA 
HETATM   29  C   UNL     1      -6.393   7.950  65.037  1.00  0.00    -0.041 C  
HETATM   30  O   UNL     1      -5.233   8.327  64.871  1.00  0.00    -0.035 OA 
ENDBRANCH   4  27
TORSDOF 1
ENDMDL
MODEL       58
REMARK 921   NORMALIZED FREE ENERGY PREDICTED BY IDOCK:   -4.45 KCAL/MOL
REMARK 922        TOTAL FREE ENERGY PREDICTED BY IDOCK:   -4.51 KCAL/MOL
REMARK 923 INTER-LIGAND FREE ENERGY PREDICTED BY IDOCK:   -4.35 KCAL/MOL
REMARK 924 INTRA-LIGAND FREE ENERGY PREDICTED BY IDOCK:   -0.16 KCAL/MOL
REMARK 927      BINDING AFFINITY PREDICTED BY RF-SCORE:    0.00 PKD
ROOT
HETATM    1  C   UNL     1      -7.589   9.474  64.184  1.00  0.00    -0.123 C  
HETATM    2  C   UNL     1      -6.713   8.123  65.042  1.00  0.00    -0.052 C  
HETATM    3  C   UNL     1      -6.655  10.464  64.829  1.00  0.00    -0.045 C  
HETATM    4  C   UNL     1      -7.145   6.651  64.689  1.00  0.00    -0.057 C  
HETATM    5  C   UNL     1      -7.206  10.667  66.237  1.00  0.00    -0.137 C  
HETATM    6  C   UNL     1      -5.137   8.126  64.908  1.00  0.00    -0.032 C  
HETATM    7  C   UNL     1      -8.406  11.432  65.814  1.00  0.00     0.100 C  
HETATM    8  C   UNL     1     -10.285   9.755  64.757  1.00  0.00     0.441 C  
HETATM    9  C   UNL     1      -9.179  12.312  66.782  1.00  0.00    -0.210 C  
HETATM   10  C   UNL     1      -8.996  10.601  64.658  1.00  0.00    -0.216 C  
HETATM   11  C   UNL     1      -9.496  11.865  63.771  1.00  0.00    -0.029 C  
HETATM   12  C   UNL     1      -8.120  12.851  67.765  1.00  0.00    -0.166 C  
HETATM   13  C   UNL     1     -10.440  12.941  64.638  1.00  0.00    -0.385 C  
HETATM   14  C   UNL     1      -8.646  13.900  68.680  1.00  0.00    -0.077 C  
HETATM   15  O   UNL     1      -7.032  13.447  67.027  1.00  0.00    -0.406 OA 
HETATM   16  H   UNL     1      -6.379  13.779  67.633  1.00  0.00     0.000 HD 
HETATM   17  C   UNL     1      -9.206  15.105  67.915  1.00  0.00    -0.184 C  
HETATM   18  C   UNL     1      -9.440  16.197  68.971  1.00  0.00    -0.246 C  
HETATM   19  C   UNL     1     -10.719  16.121  69.785  1.00  0.00    -0.336 C  
HETATM   20  O   UNL     1     -10.513  15.442  71.023  1.00  0.00    -0.373 OA 
HETATM   21  C   UNL     1     -11.903  15.547  69.019  1.00  0.00    -0.373 C  
HETATM   22  C   UNL     1     -11.613  14.459  67.915  1.00  0.00    -0.374 C  
HETATM   23  H   UNL     1     -11.314  15.395  71.533  1.00  0.00     0.000 HD 
HETATM   24  C   UNL     1     -10.393  14.715  66.962  1.00  0.00    -0.263 C  
HETATM   25  C   UNL     1     -10.766  15.913  66.047  1.00  0.00    -0.289 C  
HETATM   26  C   UNL     1      -9.793  13.502  65.982  1.00  0.00    -0.277 C  
ENDROOT
BRANCH   4  27
HETATM   27  C   UNL     1      -6.301   5.573  65.443  1.00  0.00    -0.038 C  
HETATM   28  O   UNL     1      -6.272   3.855  67.072  1.00  0.00    -0.030 OA 
HETATM   29  C   UNL     1      -7.018   4.842  66.519  1.00  0.00    -0.067 C  
HETATM   30  O   UNL     1      -8.169   5.055  66.898  1.00  0.00    -0.107 OA 
ENDBRANCH   4  27
TORSDOF 1
ENDMDL
MODEL       59
REMARK 921   NORMALIZED FREE ENERGY PREDICTED BY IDOCK:   -4.36 KCAL/MOL
REMARK 922        TOTAL FREE ENERGY PREDICTED BY IDOCK:   -4.42 KCAL/MOL
REMARK 923 INTER-LIGAND FREE ENERGY PREDICTED BY IDOCK:   -4.29 KCAL/MOL
REMARK 924 INTRA-LIGAND FREE ENERGY PREDICTED BY IDOCK:   -0.12 KCAL/MOL
REMARK 927      BINDING AFFINITY PREDICTED BY RF-SCORE:    0.00 PKD
ROOT
HETATM    1  C   UNL     1      -8.432   7.422  68.078  1.00  0.00    -0.123 C  
HETATM    2  C   UNL     1      -9.400   6.572  66.785  1.00  0.00    -0.179 C  
HETATM    3  C   UNL     1      -9.657   8.221  68.441  1.00  0.00    -0.153 C  
HETATM    4  C   UNL     1      -8.688   5.398  66.014  1.00  0.00    -0.137 C  
HETATM    5  C   UNL     1      -9.721   9.339  67.406  1.00  0.00    -0.208 C  
HETATM    6  C   UNL     1     -10.790   5.972  67.243  1.00  0.00    -0.403 C  
HETATM    7  C   UNL     1      -8.554  10.091  67.932  1.00  0.00    -0.121 C  
HETATM    8  C   UNL     1      -6.223   8.857  67.222  1.00  0.00    -0.059 C  
HETATM    9  C   UNL     1      -8.329  11.556  67.600  1.00  0.00    -0.135 C  
HETATM   10  C   UNL     1      -7.467   9.016  68.125  1.00  0.00    -0.084 C  
HETATM   11  C   UNL     1      -6.822   9.658  69.469  1.00  0.00    -0.056 C  
HETATM   12  C   UNL     1      -9.742  12.155  67.457  1.00  0.00    -0.185 C  
HETATM   13  C   UNL     1      -6.425  11.274  69.297  1.00  0.00    -0.089 C  
HETATM   14  C   UNL     1      -9.743  13.638  67.327  1.00  0.00    -0.243 C  
HETATM   15  O   UNL     1     -10.525  11.838  68.626  1.00  0.00    -0.215 OA 
HETATM   16  H   UNL     1     -11.397  12.207  68.538  1.00  0.00     0.000 HD 
HETATM   17  C   UNL     1      -9.083  14.322  68.531  1.00  0.00    -0.191 C  
HETATM   18  C   UNL     1      -9.410  15.818  68.390  1.00  0.00    -0.196 C  
HETATM   19  C   UNL     1      -8.545  16.639  67.452  1.00  0.00    -0.189 C  
HETATM   20  O   UNL     1      -9.128  16.736  66.152  1.00  0.00    -0.343 OA 
HETATM   21  C   UNL     1      -7.096  16.174  67.384  1.00  0.00    -0.209 C  
HETATM   22  C   UNL     1      -6.802  14.637  67.575  1.00  0.00    -0.174 C  
HETATM   23  H   UNL     1      -8.587  17.250  65.564  1.00  0.00     0.000 HD 
HETATM   24  C   UNL     1      -7.582  13.897  68.718  1.00  0.00    -0.108 C  
HETATM   25  C   UNL     1      -7.034  14.429  70.069  1.00  0.00     0.033 C  
HETATM   26  C   UNL     1      -7.604  12.227  68.807  1.00  0.00    -0.044 C  
ENDROOT
BRANCH   4  27
HETATM   27  C   UNL     1      -9.619   4.710  64.964  1.00  0.00    -0.113 C  
HETATM   28  O   UNL     1     -10.419   2.678  64.048  1.00  0.00    -0.109 OA 
HETATM   29  C   UNL     1      -9.523   3.229  64.902  1.00  0.00    -0.151 C  
HETATM   30  O   UNL     1      -8.745   2.525  65.546  1.00  0.00    -0.108 OA 
ENDBRANCH   4  27
TORSDOF 1
ENDMDL
MODEL       60
REMARK 921   NORMALIZED FREE ENERGY PREDICTED BY IDOCK:   -4.34 KCAL/MOL
REMARK 922        TOTAL FREE ENERGY PREDICTED BY IDOCK:   -4.40 KCAL/MOL
REMARK 923 INTER-LIGAND FREE ENERGY PREDICTED BY IDOCK:   -4.26 KCAL/MOL
REMARK 924 INTRA-LIGAND FREE ENERGY PREDICTED BY IDOCK:   -0.14 KCAL/MOL
REMARK 927      BINDING AFFINITY PREDICTED BY RF-SCORE:    0.00 PKD
ROOT
HETATM    1  C   UNL     1      -9.443   9.836  67.330  1.00  0.00    -0.183 C  
HETATM    2  C   UNL     1      -9.248  11.423  68.209  1.00  0.00    -0.183 C  
HETATM    3  C   UNL     1     -10.522   9.449  68.308  1.00  0.00    -0.260 C  
HETATM    4  C   UNL     1      -8.260  12.473  67.578  1.00  0.00    -0.175 C  
HETATM    5  C   UNL     1      -9.776   8.957  69.545  1.00  0.00    -0.173 C  
HETATM    6  C   UNL     1     -10.580  12.232  68.480  1.00  0.00    -0.254 C  
HETATM    7  C   UNL     1      -9.291   7.695  68.929  1.00  0.00    -0.145 C  
HETATM    8  C   UNL     1      -7.211   8.198  67.232  1.00  0.00    -0.084 C  
HETATM    9  C   UNL     1      -8.824   6.520  69.771  1.00  0.00    -0.143 C  
HETATM   10  C   UNL     1      -8.718   8.135  67.567  1.00  0.00    -0.129 C  
HETATM   11  C   UNL     1      -9.187   6.816  66.746  1.00  0.00    -0.172 C  
HETATM   12  C   UNL     1      -9.685   6.576  71.048  1.00  0.00    -0.175 C  
HETATM   13  C   UNL     1      -8.705   5.388  67.472  1.00  0.00    -0.107 C  
HETATM   14  C   UNL     1      -9.520   5.383  71.923  1.00  0.00    -0.176 C  
HETATM   15  O   UNL     1     -11.082   6.641  70.690  1.00  0.00    -0.259 OA 
HETATM   16  H   UNL     1     -11.613   6.675  71.477  1.00  0.00     0.000 HD 
HETATM   17  C   UNL     1      -9.876   4.081  71.195  1.00  0.00    -0.236 C  
HETATM   18  C   UNL     1      -9.931   2.998  72.284  1.00  0.00    -0.237 C  
HETATM   19  C   UNL     1      -8.616   2.386  72.732  1.00  0.00    -0.067 C  
HETATM   20  O   UNL     1      -8.099   3.044  73.888  1.00  0.00    -0.067 OA 
HETATM   21  C   UNL     1      -7.573   2.291  71.626  1.00  0.00    -0.040 C  
HETATM   22  C   UNL     1      -7.579   3.401  70.506  1.00  0.00    -0.040 C  
HETATM   23  H   UNL     1      -7.275   2.661  74.168  1.00  0.00     0.000 HD 
HETATM   24  C   UNL     1      -8.975   3.831  69.933  1.00  0.00    -0.166 C  
HETATM   25  C   UNL     1      -9.523   2.635  69.108  1.00  0.00    -0.148 C  
HETATM   26  C   UNL     1      -9.138   5.204  68.994  1.00  0.00    -0.137 C  
ENDROOT
BRANCH   4  27
HETATM   27  C   UNL     1      -8.203  13.813  68.383  1.00  0.00    -0.151 C  
HETATM   28  O   UNL     1      -6.868  15.347  69.594  1.00  0.00    -0.169 OA 
HETATM   29  C   UNL     1      -6.887  14.133  68.993  1.00  0.00    -0.110 C  
HETATM   30  O   UNL     1      -5.885  13.419  68.973  1.00  0.00    -0.073 OA 
ENDBRANCH   4  27
TORSDOF 1
ENDMDL
MODEL       61
REMARK 921   NORMALIZED FREE ENERGY PREDICTED BY IDOCK:   -4.31 KCAL/MOL
REMARK 922        TOTAL FREE ENERGY PREDICTED BY IDOCK:   -4.36 KCAL/MOL
REMARK 923 INTER-LIGAND FREE ENERGY PREDICTED BY IDOCK:   -4.24 KCAL/MOL
REMARK 924 INTRA-LIGAND FREE ENERGY PREDICTED BY IDOCK:   -0.12 KCAL/MOL
REMARK 927      BINDING AFFINITY PREDICTED BY RF-SCORE:    0.00 PKD
ROOT
HETATM    1  C   UNL     1      -9.973   8.908  66.340  1.00  0.00    -0.354 C  
HETATM    2  C   UNL     1     -10.051  10.541  67.151  1.00  0.00    -0.253 C  
HETATM    3  C   UNL     1     -10.777   8.328  67.475  1.00  0.00    -0.217 C  
HETATM    4  C   UNL     1      -9.447  11.762  66.362  1.00  0.00    -0.234 C  
HETATM    5  C   UNL     1      -9.768   8.096  68.596  1.00  0.00    -0.158 C  
HETATM    6  C   UNL     1     -11.488  11.021  67.603  1.00  0.00    -0.303 C  
HETATM    7  C   UNL     1      -9.081   6.955  67.937  1.00  0.00    -0.122 C  
HETATM    8  C   UNL     1      -7.445   7.848  65.941  1.00  0.00    -0.078 C  
HETATM    9  C   UNL     1      -8.228   5.973  68.722  1.00  0.00    -0.104 C  
HETATM   10  C   UNL     1      -8.829   7.445  66.498  1.00  0.00    -0.165 C  
HETATM   11  C   UNL     1      -9.071   6.010  65.780  1.00  0.00    -0.083 C  
HETATM   12  C   UNL     1      -8.890   5.890  70.112  1.00  0.00    -0.142 C  
HETATM   13  C   UNL     1      -8.159   4.779  66.452  1.00  0.00    -0.107 C  
HETATM   14  C   UNL     1      -8.317   4.820  70.974  1.00  0.00    -0.102 C  
HETATM   15  O   UNL     1     -10.295   5.600  69.965  1.00  0.00    -0.225 OA 
HETATM   16  H   UNL     1     -10.703   5.549  70.822  1.00  0.00     0.000 HD 
HETATM   17  C   UNL     1      -8.443   3.433  70.331  1.00  0.00    -0.094 C  
HETATM   18  C   UNL     1      -8.079   2.428  71.436  1.00  0.00    -0.058 C  
HETATM   19  C   UNL     1      -6.605   2.174  71.694  1.00  0.00    -0.019 C  
HETATM   20  O   UNL     1      -6.108   2.998  72.749  1.00  0.00    -0.008 OA 
HETATM   21  C   UNL     1      -5.736   2.271  70.448  1.00  0.00    -0.017 C  
HETATM   22  C   UNL     1      -6.169   3.285  69.321  1.00  0.00    -0.028 C  
HETATM   23  H   UNL     1      -5.185   2.838  72.910  1.00  0.00     0.000 HD 
HETATM   24  C   UNL     1      -7.694   3.338  68.954  1.00  0.00    -0.051 C  
HETATM   25  C   UNL     1      -8.043   2.003  68.242  1.00  0.00    -0.067 C  
HETATM   26  C   UNL     1      -8.317   4.580  68.025  1.00  0.00    -0.094 C  
ENDROOT
BRANCH   4  27
HETATM   27  C   UNL     1      -9.607  13.117  67.124  1.00  0.00    -0.235 C  
HETATM   28  O   UNL     1     -10.417  15.341  67.073  1.00  0.00    -0.279 OA 
HETATM   29  C   UNL     1     -10.212  14.222  66.337  1.00  0.00    -0.291 C  
HETATM   30  O   UNL     1     -10.528  14.178  65.148  1.00  0.00    -0.353 OA 
ENDBRANCH   4  27
TORSDOF 1
ENDMDL
MODEL       62
REMARK 921   NORMALIZED FREE ENERGY PREDICTED BY IDOCK:   -4.16 KCAL/MOL
REMARK 922        TOTAL FREE ENERGY PREDICTED BY IDOCK:   -4.21 KCAL/MOL
REMARK 923 INTER-LIGAND FREE ENERGY PREDICTED BY IDOCK:   -4.03 KCAL/MOL
REMARK 924 INTRA-LIGAND FREE ENERGY PREDICTED BY IDOCK:   -0.17 KCAL/MOL
REMARK 927      BINDING AFFINITY PREDICTED BY RF-SCORE:    0.00 PKD
ROOT
HETATM    1  C   UNL     1      -9.917  10.739  67.827  1.00  0.00    -0.195 C  
HETATM    2  C   UNL     1     -10.312   9.907  69.402  1.00  0.00    -0.238 C  
HETATM    3  C   UNL     1      -8.816  11.494  68.525  1.00  0.00    -0.139 C  
HETATM    4  C   UNL     1     -11.408   8.778  69.360  1.00  0.00     0.300 C  
HETATM    5  C   UNL     1      -9.517  12.643  69.242  1.00  0.00     0.848 C  
HETATM    6  C   UNL     1      -9.090   9.257  70.168  1.00  0.00    -0.248 C  
HETATM    7  C   UNL     1      -9.839  13.407  68.010  1.00  0.00    -0.229 C  
HETATM    8  C   UNL     1     -11.937  12.257  66.693  1.00  0.00    -0.257 C  
HETATM    9  C   UNL     1     -10.177  14.888  68.050  1.00  0.00    -0.228 C  
HETATM   10  C   UNL     1     -10.439  12.355  67.057  1.00  0.00    -0.238 C  
HETATM   11  C   UNL     1      -9.805  12.968  65.696  1.00  0.00    -0.181 C  
HETATM   12  C   UNL     1      -9.349  15.455  69.220  1.00  0.00    -0.254 C  
HETATM   13  C   UNL     1     -10.125  14.599  65.501  1.00  0.00    -0.405 C  
HETATM   14  C   UNL     1      -9.386  16.941  69.302  1.00  0.00    -0.031 C  
HETATM   15  O   UNL     1      -7.965  15.080  69.062  1.00  0.00    -0.157 OA 
HETATM   16  H   UNL     1      -7.454  15.430  69.783  1.00  0.00     0.000 HD 
HETATM   17  C   UNL     1      -8.867  17.602  68.019  1.00  0.00    -0.257 C  
HETATM   18  C   UNL     1      -8.701  19.092  68.357  1.00  0.00    -0.387 C  
HETATM   19  C   UNL     1      -9.940  19.965  68.303  1.00  0.00    -0.432 C  
HETATM   20  O   UNL     1     -10.550  20.090  69.587  1.00  0.00    -0.506 OA 
HETATM   21  C   UNL     1     -10.947  19.541  67.242  1.00  0.00    -0.460 C  
HETATM   22  C   UNL     1     -11.055  18.006  66.897  1.00  0.00     0.300 C  
HETATM   23  H   UNL     1     -11.327  20.636  69.553  1.00  0.00     0.000 HD 
HETATM   24  C   UNL     1      -9.711  17.209  66.754  1.00  0.00    -0.277 C  
HETATM   25  C   UNL     1      -9.013  17.711  65.462  1.00  0.00     0.918 C  
HETATM   26  C   UNL     1      -9.697  15.537  66.715  1.00  0.00    -0.252 C  
ENDROOT
BRANCH   4  27
HETATM   27  C   UNL     1     -11.636   8.100  70.750  1.00  0.00    -0.249 C  
HETATM   28  O   UNL     1     -12.812   8.129  72.805  1.00  0.00    -0.075 OA 
HETATM   29  C   UNL     1     -12.577   8.808  71.656  1.00  0.00    -0.345 C  
HETATM   30  O   UNL     1     -13.125   9.887  71.434  1.00  0.00    -0.359 OA 
ENDBRANCH   4  27
TORSDOF 1
ENDMDL
MODEL       63
REMARK 921   NORMALIZED FREE ENERGY PREDICTED BY IDOCK:   -4.00 KCAL/MOL
REMARK 922        TOTAL FREE ENERGY PREDICTED BY IDOCK:   -4.03 KCAL/MOL
REMARK 923 INTER-LIGAND FREE ENERGY PREDICTED BY IDOCK:   -3.91 KCAL/MOL
REMARK 924 INTRA-LIGAND FREE ENERGY PREDICTED BY IDOCK:   -0.12 KCAL/MOL
REMARK 927      BINDING AFFINITY PREDICTED BY RF-SCORE:    0.00 PKD
ROOT
HETATM    1  C   UNL     1     -10.621  13.521  67.812  1.00  0.00    -0.252 C  
HETATM    2  C   UNL     1      -9.436  14.873  67.500  1.00  0.00    -0.200 C  
HETATM    3  C   UNL     1      -9.873  13.184  69.075  1.00  0.00     0.257 C  
HETATM    4  C   UNL     1      -9.727  15.811  66.270  1.00  0.00    -0.328 C  
HETATM    5  C   UNL     1      -8.674  12.360  68.617  1.00  0.00     0.034 C  
HETATM    6  C   UNL     1      -9.177  15.859  68.710  1.00  0.00    -0.218 C  
HETATM    7  C   UNL     1      -9.459  11.152  68.254  1.00  0.00    -0.182 C  
HETATM    8  C   UNL     1     -10.762  11.536  65.885  1.00  0.00    -0.325 C  
HETATM    9  C   UNL     1      -8.808   9.786  68.117  1.00  0.00    -0.119 C  
HETATM   10  C   UNL     1     -10.630  11.699  67.416  1.00  0.00    -0.257 C  
HETATM   11  C   UNL     1     -11.741  10.649  67.960  1.00  0.00    -0.029 C  
HETATM   12  C   UNL     1      -7.658   9.785  69.143  1.00  0.00    -0.085 C  
HETATM   13  C   UNL     1     -11.251   9.054  67.832  1.00  0.00     0.405 C  
HETATM   14  C   UNL     1      -7.016   8.452  69.309  1.00  0.00    -0.054 C  
HETATM   15  O   UNL     1      -8.163  10.169  70.439  1.00  0.00    -0.392 OA 
HETATM   16  H   UNL     1      -7.454  10.168  71.072  1.00  0.00     0.000 HD 
HETATM   17  C   UNL     1      -8.019   7.381  69.754  1.00  0.00    -0.125 C  
HETATM   18  C   UNL     1      -7.174   6.159  70.150  1.00  0.00    -0.076 C  
HETATM   19  C   UNL     1      -6.697   5.247  69.035  1.00  0.00    -0.053 C  
HETATM   20  O   UNL     1      -5.382   5.592  68.601  1.00  0.00    -0.003 OA 
HETATM   21  C   UNL     1      -7.666   5.146  67.864  1.00  0.00    -0.087 C  
HETATM   22  C   UNL     1      -8.544   6.410  67.519  1.00  0.00    -0.115 C  
HETATM   23  H   UNL     1      -5.083   5.021  67.903  1.00  0.00     0.000 HD 
HETATM   24  C   UNL     1      -9.188   7.183  68.724  1.00  0.00    -0.136 C  
HETATM   25  C   UNL     1     -10.288   6.267  69.324  1.00  0.00    -0.266 C  
HETATM   26  C   UNL     1      -9.857   8.701  68.517  1.00  0.00    -0.183 C  
ENDROOT
BRANCH   4  27
HETATM   27  C   UNL     1      -8.679  16.961  66.122  1.00  0.00    -0.280 C  
HETATM   28  O   UNL     1      -8.303  19.283  65.852  1.00  0.00    -0.443 OA 
HETATM   29  C   UNL     1      -9.247  18.312  65.875  1.00  0.00     0.203 C  
HETATM   30  O   UNL     1     -10.437  18.580  65.717  1.00  0.00    -0.598 OA 
ENDBRANCH   4  27
TORSDOF 1
ENDMDL
MODEL       64
REMARK 921   NORMALIZED FREE ENERGY PREDICTED BY IDOCK:   -3.78 KCAL/MOL
REMARK 922        TOTAL FREE ENERGY PREDICTED BY IDOCK:   -3.80 KCAL/MOL
REMARK 923 INTER-LIGAND FREE ENERGY PREDICTED BY IDOCK:   -3.70 KCAL/MOL
REMARK 924 INTRA-LIGAND FREE ENERGY PREDICTED BY IDOCK:   -0.10 KCAL/MOL
REMARK 927      BINDING AFFINITY PREDICTED BY RF-SCORE:    0.00 PKD
ROOT
HETATM    1  C   UNL     1      -8.475   7.949  66.107  1.00  0.00    -0.139 C  
HETATM    2  C   UNL     1      -9.385   6.370  66.199  1.00  0.00    -0.110 C  
HETATM    3  C   UNL     1      -8.556   8.060  67.608  1.00  0.00    -0.130 C  
HETATM    4  C   UNL     1      -9.564   5.568  64.856  1.00  0.00     0.523 C  
HETATM    5  C   UNL     1      -9.955   8.597  67.890  1.00  0.00    -0.232 C  
HETATM    6  C   UNL     1      -8.830   5.310  67.233  1.00  0.00    -0.105 C  
HETATM    7  C   UNL     1      -9.690   9.966  67.378  1.00  0.00    -0.199 C  
HETATM    8  C   UNL     1      -9.669   9.978  64.647  1.00  0.00    -0.339 C  
HETATM    9  C   UNL     1     -10.566  11.148  67.760  1.00  0.00    -0.248 C  
HETATM   10  C   UNL     1      -9.001   9.736  66.019  1.00  0.00    -0.186 C  
HETATM   11  C   UNL     1      -7.985  10.996  66.122  1.00  0.00    -0.129 C  
HETATM   12  C   UNL     1     -11.043  10.845  69.194  1.00  0.00    -0.245 C  
HETATM   13  C   UNL     1      -8.762  12.437  66.469  1.00  0.00    -0.059 C  
HETATM   14  C   UNL     1     -11.757  11.985  69.831  1.00  0.00    -0.374 C  
HETATM   15  O   UNL     1      -9.906  10.545  70.031  1.00  0.00    -0.413 OA 
HETATM   16  H   UNL     1     -10.200  10.359  70.916  1.00  0.00     0.000 HD 
HETATM   17  C   UNL     1     -10.885  13.245  69.902  1.00  0.00     0.510 C  
HETATM   18  C   UNL     1     -11.638  14.222  70.818  1.00  0.00    -0.182 C  
HETATM   19  C   UNL     1     -12.761  15.036  70.202  1.00  0.00    -0.224 C  
HETATM   20  O   UNL     1     -14.029  14.409  70.392  1.00  0.00    -0.100 OA 
HETATM   21  C   UNL     1     -12.528  15.400  68.741  1.00  0.00     0.264 C  
HETATM   22  C   UNL     1     -11.714  14.388  67.847  1.00  0.00    -0.388 C  
HETATM   23  H   UNL     1     -14.732  14.919  70.006  1.00  0.00     0.000 HD 
HETATM   24  C   UNL     1     -10.431  13.744  68.483  1.00  0.00    -0.248 C  
HETATM   25  C   UNL     1      -9.371  14.870  68.621  1.00  0.00    -0.194 C  
HETATM   26  C   UNL     1      -9.680  12.432  67.771  1.00  0.00    -0.201 C  
ENDROOT
BRANCH   4  27
HETATM   27  C   UNL     1     -10.315   4.212  65.054  1.00  0.00    -0.209 C  
HETATM   28  O   UNL     1     -11.240   2.285  64.034  1.00  0.00     0.100 OA 
HETATM   29  C   UNL     1     -10.680   3.498  63.804  1.00  0.00    -0.256 C  
HETATM   30  O   UNL     1     -10.503   3.907  62.657  1.00  0.00    -0.189 OA 
ENDBRANCH   4  27
TORSDOF 1
ENDMDL
MODEL       65
REMARK 921   NORMALIZED FREE ENERGY PREDICTED BY IDOCK:   -3.77 KCAL/MOL
REMARK 922        TOTAL FREE ENERGY PREDICTED BY IDOCK:   -3.79 KCAL/MOL
REMARK 923 INTER-LIGAND FREE ENERGY PREDICTED BY IDOCK:   -3.67 KCAL/MOL
REMARK 924 INTRA-LIGAND FREE ENERGY PREDICTED BY IDOCK:   -0.12 KCAL/MOL
REMARK 927      BINDING AFFINITY PREDICTED BY RF-SCORE:    0.00 PKD
ROOT
HETATM    1  C   UNL     1      -8.572  10.685  66.996  1.00  0.00    -0.128 C  
HETATM    2  C   UNL     1      -8.120   9.728  68.483  1.00  0.00    -0.104 C  
HETATM    3  C   UNL     1      -7.380  11.575  67.231  1.00  0.00    -0.131 C  
HETATM    4  C   UNL     1      -8.970   8.439  68.790  1.00  0.00    -0.140 C  
HETATM    5  C   UNL     1      -7.828  12.561  68.306  1.00  0.00    -0.144 C  
HETATM    6  C   UNL     1      -6.615   9.250  68.567  1.00  0.00    -0.054 C  
HETATM    7  C   UNL     1      -8.756  13.319  67.428  1.00  0.00    -0.206 C  
HETATM    8  C   UNL     1     -11.058  11.907  67.025  1.00  0.00    -0.354 C  
HETATM    9  C   UNL     1      -9.223  14.722  67.778  1.00  0.00    -0.194 C  
HETATM   10  C   UNL     1      -9.579  12.229  66.715  1.00  0.00    -0.220 C  
HETATM   11  C   UNL     1      -9.697  13.000  65.293  1.00  0.00     0.003 C  
HETATM   12  C   UNL     1      -8.039  15.361  68.531  1.00  0.00    -0.142 C  
HETATM   13  C   UNL     1     -10.271  14.564  65.441  1.00  0.00    -0.415 C  
HETATM   14  C   UNL     1      -8.221  16.816  68.788  1.00  0.00    -0.250 C  
HETATM   15  O   UNL     1      -6.834  15.223  67.750  1.00  0.00    -0.136 OA 
HETATM   16  H   UNL     1      -6.104  15.617  68.214  1.00  0.00     0.000 HD 
HETATM   17  C   UNL     1      -8.412  17.611  67.491  1.00  0.00    -0.220 C  
HETATM   18  C   UNL     1      -8.301  19.092  67.890  1.00  0.00    -0.320 C  
HETATM   19  C   UNL     1      -9.535  19.754  68.476  1.00  0.00    -0.312 C  
HETATM   20  O   UNL     1      -9.521  19.718  69.903  1.00  0.00     0.140 OA 
HETATM   21  C   UNL     1     -10.846  19.221  67.913  1.00  0.00    -0.319 C  
HETATM   22  C   UNL     1     -10.903  17.707  67.477  1.00  0.00    -0.205 C  
HETATM   23  H   UNL     1     -10.294  20.132  70.269  1.00  0.00     0.000 HD 
HETATM   24  C   UNL     1      -9.674  17.146  66.679  1.00  0.00    -0.285 C  
HETATM   25  C   UNL     1      -9.690  17.814  65.278  1.00  0.00     1.252 C  
HETATM   26  C   UNL     1      -9.470  15.502  66.449  1.00  0.00    -0.320 C  
ENDROOT
BRANCH   4  27
HETATM   27  C   UNL     1      -8.471   7.670  70.056  1.00  0.00    -0.136 C  
HETATM   28  O   UNL     1      -7.854   5.588  71.001  1.00  0.00    -0.099 OA 
HETATM   29  C   UNL     1      -8.383   6.194  69.911  1.00  0.00    -0.128 C  
HETATM   30  O   UNL     1      -8.724   5.541  68.925  1.00  0.00    -0.102 OA 
ENDBRANCH   4  27
TORSDOF 1
ENDMDL
MODEL       66
REMARK 921   NORMALIZED FREE ENERGY PREDICTED BY IDOCK:   -3.74 KCAL/MOL
REMARK 922        TOTAL FREE ENERGY PREDICTED BY IDOCK:   -3.76 KCAL/MOL
REMARK 923 INTER-LIGAND FREE ENERGY PREDICTED BY IDOCK:   -3.66 KCAL/MOL
REMARK 924 INTRA-LIGAND FREE ENERGY PREDICTED BY IDOCK:   -0.10 KCAL/MOL
REMARK 927      BINDING AFFINITY PREDICTED BY RF-SCORE:    0.00 PKD
ROOT
HETATM    1  C   UNL     1      -7.514  10.071  68.645  1.00  0.00    -0.083 C  
HETATM    2  C   UNL     1      -8.042  10.197  66.903  1.00  0.00    -0.121 C  
HETATM    3  C   UNL     1      -6.756   8.814  68.303  1.00  0.00    -0.065 C  
HETATM    4  C   UNL     1      -8.853  11.483  66.492  1.00  0.00    -0.190 C  
HETATM    5  C   UNL     1      -7.808   7.710  68.283  1.00  0.00    -0.121 C  
HETATM    6  C   UNL     1      -6.895  10.078  65.821  1.00  0.00    -0.111 C  
HETATM    7  C   UNL     1      -8.023   7.688  69.752  1.00  0.00    -0.116 C  
HETATM    8  C   UNL     1      -9.529   9.829  70.530  1.00  0.00    -0.140 C  
HETATM    9  C   UNL     1      -8.658   6.498  70.452  1.00  0.00    -0.146 C  
HETATM   10  C   UNL     1      -8.189   9.172  70.133  1.00  0.00    -0.161 C  
HETATM   11  C   UNL     1      -7.430   9.072  71.564  1.00  0.00    -0.033 C  
HETATM   12  C   UNL     1      -8.217   5.270  69.630  1.00  0.00    -0.095 C  
HETATM   13  C   UNL     1      -8.031   7.853  72.539  1.00  0.00    -0.157 C  
HETATM   14  C   UNL     1      -8.573   3.974  70.271  1.00  0.00    -0.106 C  
HETATM   15  O   UNL     1      -6.783   5.279  69.474  1.00  0.00    -0.048 OA 
HETATM   16  H   UNL     1      -6.512   4.521  68.968  1.00  0.00     0.000 HD 
HETATM   17  C   UNL     1      -7.951   3.831  71.666  1.00  0.00    -0.062 C  
HETATM   18  C   UNL     1      -8.165   2.363  72.068  1.00  0.00    -0.054 C  
HETATM   19  C   UNL     1      -9.520   1.983  72.635  1.00  0.00    -0.082 C  
HETATM   20  O   UNL     1     -10.390   1.479  71.621  1.00  0.00    -0.125 OA 
HETATM   21  C   UNL     1     -10.182   3.090  73.444  1.00  0.00    -0.205 C  
HETATM   22  C   UNL     1      -9.902   4.584  73.022  1.00  0.00    -0.176 C  
HETATM   23  H   UNL     1     -11.239   1.241  71.977  1.00  0.00     0.000 HD 
HETATM   24  C   UNL     1      -8.423   4.957  72.654  1.00  0.00    -0.119 C  
HETATM   25  C   UNL     1      -7.594   4.904  73.967  1.00  0.00    -0.094 C  
HETATM   26  C   UNL     1      -8.060   6.398  71.889  1.00  0.00    -0.109 C  
ENDROOT
BRANCH   4  27
HETATM   27  C   UNL     1      -9.214  11.513  64.971  1.00  0.00    -0.033 C  
HETATM   28  O   UNL     1     -10.384  12.609  63.229  1.00  0.00    -0.308 OA 
HETATM   29  C   UNL     1     -10.181  12.565  64.568  1.00  0.00    -0.307 C  
HETATM   30  O   UNL     1     -10.755  13.350  65.322  1.00  0.00    -0.293 OA 
ENDBRANCH   4  27
TORSDOF 1
ENDMDL
MODEL       67
REMARK 921   NORMALIZED FREE ENERGY PREDICTED BY IDOCK:   -3.73 KCAL/MOL
REMARK 922        TOTAL FREE ENERGY PREDICTED BY IDOCK:   -3.75 KCAL/MOL
REMARK 923 INTER-LIGAND FREE ENERGY PREDICTED BY IDOCK:   -3.65 KCAL/MOL
REMARK 924 INTRA-LIGAND FREE ENERGY PREDICTED BY IDOCK:   -0.11 KCAL/MOL
REMARK 927      BINDING AFFINITY PREDICTED BY RF-SCORE:    0.00 PKD
ROOT
HETATM    1  C   UNL     1     -10.756  12.801  67.583  1.00  0.00    -0.236 C  
HETATM    2  C   UNL     1     -10.021  14.198  68.498  1.00  0.00    -0.235 C  
HETATM    3  C   UNL     1     -10.898  12.051  68.882  1.00  0.00    -0.252 C  
HETATM    4  C   UNL     1      -9.713  15.507  67.679  1.00  0.00    -0.212 C  
HETATM    5  C   UNL     1      -9.514  11.468  69.154  1.00  0.00     0.185 C  
HETATM    6  C   UNL     1     -10.825  14.694  69.767  1.00  0.00    -0.180 C  
HETATM    7  C   UNL     1      -9.570  10.453  68.071  1.00  0.00    -0.156 C  
HETATM    8  C   UNL     1      -9.169  11.629  65.638  1.00  0.00    -0.150 C  
HETATM    9  C   UNL     1      -8.658   9.238  68.064  1.00  0.00    -0.121 C  
HETATM   10  C   UNL     1     -10.060  11.240  66.839  1.00  0.00    -0.246 C  
HETATM   11  C   UNL     1     -10.959  10.043  66.213  1.00  0.00     0.243 C  
HETATM   12  C   UNL     1      -8.437   8.895  69.551  1.00  0.00    -0.128 C  
HETATM   13  C   UNL     1     -10.114   8.608  66.048  1.00  0.00     0.038 C  
HETATM   14  C   UNL     1      -7.727   7.603  69.759  1.00  0.00    -0.098 C  
HETATM   15  O   UNL     1      -9.712   8.782  70.217  1.00  0.00    -0.165 OA 
HETATM   16  H   UNL     1      -9.576   8.571  71.134  1.00  0.00     0.000 HD 
HETATM   17  C   UNL     1      -8.479   6.424  69.130  1.00  0.00    -0.122 C  
HETATM   18  C   UNL     1      -7.788   5.159  69.663  1.00  0.00    -0.072 C  
HETATM   19  C   UNL     1      -6.514   4.712  68.971  1.00  0.00    -0.040 C  
HETATM   20  O   UNL     1      -5.354   5.215  69.633  1.00  0.00    -0.003 OA 
HETATM   21  C   UNL     1      -6.485   5.016  67.478  1.00  0.00    -0.045 C  
HETATM   22  C   UNL     1      -7.242   6.302  66.970  1.00  0.00    -0.075 C  
HETATM   23  H   UNL     1      -4.556   4.935  69.199  1.00  0.00     0.000 HD 
HETATM   24  C   UNL     1      -8.661   6.583  67.578  1.00  0.00    -0.119 C  
HETATM   25  C   UNL     1      -9.620   5.492  67.032  1.00  0.00    -0.144 C  
HETATM   26  C   UNL     1      -9.412   8.062  67.370  1.00  0.00    -0.187 C  
ENDROOT
BRANCH   4  27
HETATM   27  C   UNL     1      -9.131  16.655  68.566  1.00  0.00    -0.234 C  
HETATM   28  O   UNL     1      -8.848  18.987  68.864  1.00  0.00    -0.331 OA 
HETATM   29  C   UNL     1      -9.281  18.025  68.013  1.00  0.00    -0.272 C  
HETATM   30  O   UNL     1      -9.753  18.316  66.914  1.00  0.00    -0.291 OA 
ENDBRANCH   4  27
TORSDOF 1
ENDMDL
MODEL       68
REMARK 921   NORMALIZED FREE ENERGY PREDICTED BY IDOCK:   -3.61 KCAL/MOL
REMARK 922        TOTAL FREE ENERGY PREDICTED BY IDOCK:   -3.62 KCAL/MOL
REMARK 923 INTER-LIGAND FREE ENERGY PREDICTED BY IDOCK:   -3.51 KCAL/MOL
REMARK 924 INTRA-LIGAND FREE ENERGY PREDICTED BY IDOCK:   -0.11 KCAL/MOL
REMARK 927      BINDING AFFINITY PREDICTED BY RF-SCORE:    0.00 PKD
ROOT
HETATM    1  C   UNL     1     -10.962  10.833  69.508  1.00  0.00    -0.317 C  
HETATM    2  C   UNL     1     -10.539  11.236  67.779  1.00  0.00    -0.239 C  
HETATM    3  C   UNL     1      -9.492  10.800  69.838  1.00  0.00     0.508 C  
HETATM    4  C   UNL     1     -11.734  11.557  66.806  1.00  0.00     0.008 C  
HETATM    5  C   UNL     1      -9.014   9.427  69.375  1.00  0.00    -0.157 C  
HETATM    6  C   UNL     1      -9.521  12.430  67.576  1.00  0.00    -0.187 C  
HETATM    7  C   UNL     1      -9.706   8.664  70.444  1.00  0.00    -0.200 C  
HETATM    8  C   UNL     1     -12.380   8.489  69.916  1.00  0.00     1.288 C  
HETATM    9  C   UNL     1      -9.294   7.249  70.813  1.00  0.00    -0.160 C  
HETATM   10  C   UNL     1     -11.137   9.235  70.452  1.00  0.00    -0.300 C  
HETATM   11  C   UNL     1     -11.356   9.138  72.056  1.00  0.00    -0.333 C  
HETATM   12  C   UNL     1      -7.773   7.198  70.570  1.00  0.00    -0.094 C  
HETATM   13  C   UNL     1     -11.024   7.618  72.671  1.00  0.00    -0.405 C  
HETATM   14  C   UNL     1      -7.138   5.946  71.064  1.00  0.00    -0.069 C  
HETATM   15  O   UNL     1      -7.134   8.292  71.261  1.00  0.00    -0.052 OA 
HETATM   16  H   UNL     1      -6.196   8.261  71.111  1.00  0.00     0.000 HD 
HETATM   17  C   UNL     1      -7.361   5.742  72.568  1.00  0.00    -0.095 C  
HETATM   18  C   UNL     1      -6.429   4.590  72.974  1.00  0.00    -0.042 C  
HETATM   19  C   UNL     1      -6.908   3.175  72.713  1.00  0.00    -0.027 C  
HETATM   20  O   UNL     1      -6.422   2.679  71.465  1.00  0.00    -0.018 OA 
HETATM   21  C   UNL     1      -8.417   3.003  72.836  1.00  0.00    -0.080 C  
HETATM   22  C   UNL     1      -9.335   4.224  72.448  1.00  0.00    -0.158 C  
HETATM   23  H   UNL     1      -6.723   1.792  71.301  1.00  0.00     0.000 HD 
HETATM   24  C   UNL     1      -8.883   5.643  72.943  1.00  0.00    -0.124 C  
HETATM   25  C   UNL     1      -9.062   5.671  74.485  1.00  0.00    -0.125 C  
HETATM   26  C   UNL     1      -9.581   7.034  72.331  1.00  0.00    -0.163 C  
ENDROOT
BRANCH   4  27
HETATM   27  C   UNL     1     -11.260  11.934  65.365  1.00  0.00    -0.351 C  
HETATM   28  O   UNL     1     -11.670  13.199  63.406  1.00  0.00    -0.475 OA 
HETATM   29  C   UNL     1     -12.174  12.826  64.607  1.00  0.00    -0.447 C  
HETATM   30  O   UNL     1     -13.275  13.227  64.985  1.00  0.00    -0.698 OA 
ENDBRANCH   4  27
TORSDOF 1
ENDMDL
MODEL       69
REMARK 921   NORMALIZED FREE ENERGY PREDICTED BY IDOCK:   -3.22 KCAL/MOL
REMARK 922        TOTAL FREE ENERGY PREDICTED BY IDOCK:   -3.21 KCAL/MOL
REMARK 923 INTER-LIGAND FREE ENERGY PREDICTED BY IDOCK:   -3.24 KCAL/MOL
REMARK 924 INTRA-LIGAND FREE ENERGY PREDICTED BY IDOCK:    0.03 KCAL/MOL
REMARK 927      BINDING AFFINITY PREDICTED BY RF-SCORE:    0.00 PKD
ROOT
HETATM    1  C   UNL     1      -6.921  12.385  68.431  1.00  0.00    -0.091 C  
HETATM    2  C   UNL     1      -8.071  13.757  68.079  1.00  0.00    -0.163 C  
HETATM    3  C   UNL     1      -6.941  12.020  66.969  1.00  0.00    -0.095 C  
HETATM    4  C   UNL     1      -8.415  14.726  69.271  1.00  0.00    -0.043 C  
HETATM    5  C   UNL     1      -8.227  11.222  66.778  1.00  0.00    -0.158 C  
HETATM    6  C   UNL     1      -7.665  14.711  66.885  1.00  0.00     0.178 C  
HETATM    7  C   UNL     1      -7.758  10.016  67.509  1.00  0.00    -0.091 C  
HETATM    8  C   UNL     1      -7.812  10.452  70.205  1.00  0.00     0.182 C  
HETATM    9  C   UNL     1      -8.421   8.661  67.326  1.00  0.00    -0.115 C  
HETATM   10  C   UNL     1      -7.154  10.574  68.812  1.00  0.00    -0.073 C  
HETATM   11  C   UNL     1      -5.945   9.498  68.920  1.00  0.00    -0.042 C  
HETATM   12  C   UNL     1      -8.900   8.644  65.861  1.00  0.00    -0.184 C  
HETATM   13  C   UNL     1      -6.469   7.913  68.814  1.00  0.00    -0.048 C  
HETATM   14  C   UNL     1      -9.402   7.314  65.420  1.00  0.00     0.557 C  
HETATM   15  O   UNL     1      -7.803   8.986  64.988  1.00  0.00    -0.105 OA 
HETATM   16  H   UNL     1      -8.098   8.976  64.084  1.00  0.00     0.000 HD 
HETATM   17  C   UNL     1      -8.336   6.220  65.560  1.00  0.00    -0.147 C  
HETATM   18  C   UNL     1      -8.896   4.997  64.816  1.00  0.00    -0.128 C  
HETATM   19  C   UNL     1      -9.889   4.121  65.557  1.00  0.00    -0.207 C  
HETATM   20  O   UNL     1     -11.236   4.492  65.264  1.00  0.00    -0.920 OA 
HETATM   21  C   UNL     1      -9.642   4.043  67.058  1.00  0.00    -0.231 C  
HETATM   22  C   UNL     1      -9.027   5.306  67.773  1.00  0.00    -0.110 C  
HETATM   23  H   UNL     1     -11.858   3.943  65.728  1.00  0.00     0.000 HD 
HETATM   24  C   UNL     1      -7.848   6.039  67.041  1.00  0.00    -0.102 C  
HETATM   25  C   UNL     1      -6.617   5.095  67.093  1.00  0.00    -0.053 C  
HETATM   26  C   UNL     1      -7.339   7.555  67.528  1.00  0.00    -0.102 C  
ENDROOT
BRANCH   4  27
HETATM   27  C   UNL     1      -9.370  15.891  68.851  1.00  0.00    -0.233 C  
HETATM   28  O   UNL     1      -9.586  18.188  68.319  1.00  0.00    -0.290 OA 
HETATM   29  C   UNL     1      -8.741  17.235  68.781  1.00  0.00    -0.232 C  
HETATM   30  O   UNL     1      -7.580  17.509  69.083  1.00  0.00    -0.196 OA 
ENDBRANCH   4  27
TORSDOF 1
ENDMDL
MODEL       70
REMARK 921   NORMALIZED FREE ENERGY PREDICTED BY IDOCK:   -3.05 KCAL/MOL
REMARK 922        TOTAL FREE ENERGY PREDICTED BY IDOCK:   -3.03 KCAL/MOL
REMARK 923 INTER-LIGAND FREE ENERGY PREDICTED BY IDOCK:   -2.88 KCAL/MOL
REMARK 924 INTRA-LIGAND FREE ENERGY PREDICTED BY IDOCK:   -0.15 KCAL/MOL
REMARK 927      BINDING AFFINITY PREDICTED BY RF-SCORE:    0.00 PKD
ROOT
HETATM    1  C   UNL     1      -7.724   8.333  65.708  1.00  0.00    -0.091 C  
HETATM    2  C   UNL     1      -8.813   9.771  65.986  1.00  0.00    -0.170 C  
HETATM    3  C   UNL     1      -8.941   7.445  65.669  1.00  0.00     0.002 C  
HETATM    4  C   UNL     1      -8.132  11.191  66.006  1.00  0.00    -0.064 C  
HETATM    5  C   UNL     1      -9.302   7.204  67.131  1.00  0.00    -0.166 C  
HETATM    6  C   UNL     1     -10.031   9.920  64.988  1.00  0.00    -0.236 C  
HETATM    7  C   UNL     1      -8.143   6.321  67.422  1.00  0.00    -0.109 C  
HETATM    8  C   UNL     1      -5.860   7.797  67.686  1.00  0.00    -0.037 C  
HETATM    9  C   UNL     1      -8.131   5.381  68.615  1.00  0.00    -0.091 C  
HETATM   10  C   UNL     1      -6.934   7.079  66.839  1.00  0.00    -0.070 C  
HETATM   11  C   UNL     1      -6.132   5.763  66.330  1.00  0.00    -0.029 C  
HETATM   12  C   UNL     1      -9.601   4.957  68.805  1.00  0.00    -0.156 C  
HETATM   13  C   UNL     1      -5.940   4.610  67.526  1.00  0.00    -0.023 C  
HETATM   14  C   UNL     1      -9.777   3.871  69.807  1.00  0.00    -0.227 C  
HETATM   15  O   UNL     1     -10.129   4.462  67.556  1.00  0.00    -0.119 OA 
HETATM   16  H   UNL     1     -11.036   4.201  67.673  1.00  0.00     0.000 HD 
HETATM   17  C   UNL     1      -8.989   2.610  69.435  1.00  0.00    -0.170 C  
HETATM   18  C   UNL     1      -9.487   1.511  70.388  1.00  0.00    -0.156 C  
HETATM   19  C   UNL     1      -8.891   1.470  71.782  1.00  0.00    -0.059 C  
HETATM   20  O   UNL     1      -9.700   2.179  72.720  1.00  0.00    -0.084 OA 
HETATM   21  C   UNL     1      -7.436   1.919  71.844  1.00  0.00    -0.040 C  
HETATM   22  C   UNL     1      -6.957   3.018  70.820  1.00  0.00    -0.033 C  
HETATM   23  H   UNL     1      -9.327   2.153  73.593  1.00  0.00     0.000 HD 
HETATM   24  C   UNL     1      -7.443   2.872  69.335  1.00  0.00    -0.044 C  
HETATM   25  C   UNL     1      -6.723   1.635  68.734  1.00  0.00    -0.029 C  
HETATM   26  C   UNL     1      -7.278   4.129  68.245  1.00  0.00    -0.059 C  
ENDROOT
BRANCH   4  27
HETATM   27  C   UNL     1      -9.158  12.353  66.203  1.00  0.00    -0.044 C  
HETATM   28  O   UNL     1      -9.898  14.138  67.572  1.00  0.00    -0.229 OA 
HETATM   29  C   UNL     1      -9.053  13.082  67.493  1.00  0.00    -0.191 C  
HETATM   30  O   UNL     1      -8.291  12.810  68.420  1.00  0.00    -0.159 OA 
ENDBRANCH   4  27
TORSDOF 1
ENDMDL
MODEL       71
REMARK 921   NORMALIZED FREE ENERGY PREDICTED BY IDOCK:   -2.95 KCAL/MOL
REMARK 922        TOTAL FREE ENERGY PREDICTED BY IDOCK:   -2.92 KCAL/MOL
REMARK 923 INTER-LIGAND FREE ENERGY PREDICTED BY IDOCK:   -2.82 KCAL/MOL
REMARK 924 INTRA-LIGAND FREE ENERGY PREDICTED BY IDOCK:   -0.11 KCAL/MOL
REMARK 927      BINDING AFFINITY PREDICTED BY RF-SCORE:    0.00 PKD
ROOT
HETATM    1  C   UNL     1      -8.985  13.169  69.146  1.00  0.00     0.670 C  
HETATM    2  C   UNL     1     -10.642  13.933  69.176  1.00  0.00    -0.124 C  
HETATM    3  C   UNL     1      -8.883  13.498  67.679  1.00  0.00    -0.202 C  
HETATM    4  C   UNL     1     -11.350  14.050  70.578  1.00  0.00     0.065 C  
HETATM    5  C   UNL     1      -9.673  12.402  66.971  1.00  0.00    -0.211 C  
HETATM    6  C   UNL     1     -10.749  15.380  68.547  1.00  0.00    -0.256 C  
HETATM    7  C   UNL     1      -8.688  11.322  67.233  1.00  0.00    -0.145 C  
HETATM    8  C   UNL     1      -8.850  10.488  69.828  1.00  0.00     0.146 C  
HETATM    9  C   UNL     1      -8.670  10.039  66.418  1.00  0.00    -0.140 C  
HETATM   10  C   UNL     1      -8.362  11.461  68.733  1.00  0.00    -0.096 C  
HETATM   11  C   UNL     1      -6.794  11.063  68.609  1.00  0.00    -0.064 C  
HETATM   12  C   UNL     1      -9.134  10.455  65.008  1.00  0.00    -0.203 C  
HETATM   13  C   UNL     1      -6.546   9.622  67.796  1.00  0.00    -0.065 C  
HETATM   14  C   UNL     1      -8.994   9.370  63.998  1.00  0.00    -0.174 C  
HETATM   15  O   UNL     1      -8.339  11.565  64.542  1.00  0.00    -0.022 OA 
HETATM   16  H   UNL     1      -8.625  11.821  63.673  1.00  0.00     0.000 HD 
HETATM   17  C   UNL     1      -7.545   8.885  63.871  1.00  0.00    -0.121 C  
HETATM   18  C   UNL     1      -7.513   7.992  62.620  1.00  0.00    -0.110 C  
HETATM   19  C   UNL     1      -7.979   6.556  62.773  1.00  0.00    -0.092 C  
HETATM   20  O   UNL     1      -9.356   6.412  62.426  1.00  0.00     0.080 OA 
HETATM   21  C   UNL     1      -7.676   5.952  64.138  1.00  0.00    -0.106 C  
HETATM   22  C   UNL     1      -7.679   6.912  65.389  1.00  0.00    -0.107 C  
HETATM   23  H   UNL     1      -9.647   5.513  62.522  1.00  0.00     0.000 HD 
HETATM   24  C   UNL     1      -6.982   8.308  65.220  1.00  0.00    -0.066 C  
HETATM   25  C   UNL     1      -5.456   8.050  65.101  1.00  0.00    -0.036 C  
HETATM   26  C   UNL     1      -7.199   9.524  66.346  1.00  0.00    -0.089 C  
ENDROOT
BRANCH   4  27
HETATM   27  C   UNL     1     -12.741  14.759  70.498  1.00  0.00    -0.397 C  
HETATM   28  O   UNL     1     -14.410  15.992  71.638  1.00  0.00    -0.174 OA 
HETATM   29  C   UNL     1     -13.252  15.305  71.782  1.00  0.00    -0.424 C  
HETATM   30  O   UNL     1     -12.716  15.188  72.883  1.00  0.00    -0.354 OA 
ENDBRANCH   4  27
TORSDOF 1
ENDMDL
MODEL       72
REMARK 921   NORMALIZED FREE ENERGY PREDICTED BY IDOCK:   -2.54 KCAL/MOL
REMARK 922        TOTAL FREE ENERGY PREDICTED BY IDOCK:   -2.49 KCAL/MOL
REMARK 923 INTER-LIGAND FREE ENERGY PREDICTED BY IDOCK:   -2.38 KCAL/MOL
REMARK 924 INTRA-LIGAND FREE ENERGY PREDICTED BY IDOCK:   -0.11 KCAL/MOL
REMARK 927      BINDING AFFINITY PREDICTED BY RF-SCORE:    0.00 PKD
ROOT
HETATM    1  C   UNL     1      -8.023  11.497  68.677  1.00  0.00    -0.135 C  
HETATM    2  C   UNL     1      -9.557  12.453  68.424  1.00  0.00    -0.180 C  
HETATM    3  C   UNL     1      -8.005  11.175  67.206  1.00  0.00    -0.137 C  
HETATM    4  C   UNL     1     -10.121  13.243  69.663  1.00  0.00     1.049 C  
HETATM    5  C   UNL     1      -8.990  10.022  67.040  1.00  0.00    -0.152 C  
HETATM    6  C   UNL     1      -9.526  13.511  67.249  1.00  0.00    -0.230 C  
HETATM    7  C   UNL     1      -8.136   9.006  67.707  1.00  0.00    -0.109 C  
HETATM    8  C   UNL     1      -8.183   9.347  70.416  1.00  0.00    -0.214 C  
HETATM    9  C   UNL     1      -8.357   7.517  67.504  1.00  0.00    -0.117 C  
HETATM   10  C   UNL     1      -7.667   9.696  69.003  1.00  0.00    -0.078 C  
HETATM   11  C   UNL     1      -6.182   9.044  69.020  1.00  0.00    -0.043 C  
HETATM   12  C   UNL     1      -8.882   7.383  66.061  1.00  0.00    -0.146 C  
HETATM   13  C   UNL     1      -6.196   7.377  68.880  1.00  0.00    -0.031 C  
HETATM   14  C   UNL     1      -8.972   5.972  65.594  1.00  0.00    -0.077 C  
HETATM   15  O   UNL     1      -7.991   8.066  65.155  1.00  0.00    -0.112 OA 
HETATM   16  H   UNL     1      -8.314   7.984  64.264  1.00  0.00     0.000 HD 
HETATM   17  C   UNL     1      -7.616   5.259  65.649  1.00  0.00    -0.082 C  
HETATM   18  C   UNL     1      -7.809   3.939  64.886  1.00  0.00    -0.085 C  
HETATM   19  C   UNL     1      -8.444   2.783  65.636  1.00  0.00    -0.101 C  
HETATM   20  O   UNL     1      -9.853   2.725  65.414  1.00  0.00    -0.364 OA 
HETATM   21  C   UNL     1      -8.108   2.754  67.122  1.00  0.00    -0.075 C  
HETATM   22  C   UNL     1      -7.877   4.130  67.855  1.00  0.00    -0.079 C  
HETATM   23  H   UNL     1     -10.251   2.001  65.884  1.00  0.00     0.000 HD 
HETATM   24  C   UNL     1      -7.020   5.207  67.101  1.00  0.00    -0.064 C  
HETATM   25  C   UNL     1      -5.557   4.689  67.066  1.00  0.00    -0.014 C  
HETATM   26  C   UNL     1      -6.978   6.796  67.620  1.00  0.00    -0.083 C  
ENDROOT
BRANCH   4  27
HETATM   27  C   UNL     1     -11.408  14.064  69.326  1.00  0.00    -0.318 C  
HETATM   28  O   UNL     1     -13.513  14.852  70.069  1.00  0.00     0.267 OA 
HETATM   29  C   UNL     1     -12.464  14.048  70.370  1.00  0.00    -0.350 C  
HETATM   30  O   UNL     1     -12.437  13.407  71.420  1.00  0.00    -0.320 OA 
ENDBRANCH   4  27
TORSDOF 1
ENDMDL
MODEL       73
REMARK 921   NORMALIZED FREE ENERGY PREDICTED BY IDOCK:   -1.68 KCAL/MOL
REMARK 922        TOTAL FREE ENERGY PREDICTED BY IDOCK:   -1.58 KCAL/MOL
REMARK 923 INTER-LIGAND FREE ENERGY PREDICTED BY IDOCK:   -1.41 KCAL/MOL
REMARK 924 INTRA-LIGAND FREE ENERGY PREDICTED BY IDOCK:   -0.18 KCAL/MOL
REMARK 927      BINDING AFFINITY PREDICTED BY RF-SCORE:    0.00 PKD
ROOT
HETATM    1  C   UNL     1      -9.191  11.076  67.669  1.00  0.00    -0.151 C  
HETATM    2  C   UNL     1     -10.719  11.034  68.666  1.00  0.00    -0.234 C  
HETATM    3  C   UNL     1      -9.941  10.436  66.530  1.00  0.00    -0.271 C  
HETATM    4  C   UNL     1     -10.670  11.728  70.079  1.00  0.00     0.696 C  
HETATM    5  C   UNL     1      -9.978   8.949  66.865  1.00  0.00    -0.315 C  
HETATM    6  C   UNL     1     -12.014  11.619  67.972  1.00  0.00    -0.187 C  
HETATM    7  C   UNL     1      -8.534   8.708  66.609  1.00  0.00    -0.115 C  
HETATM    8  C   UNL     1      -7.025   9.670  68.672  1.00  0.00    -0.064 C  
HETATM    9  C   UNL     1      -7.988   7.314  66.352  1.00  0.00    -0.112 C  
HETATM   10  C   UNL     1      -7.821   9.849  67.360  1.00  0.00    -0.098 C  
HETATM   11  C   UNL     1      -6.633  10.057  66.275  1.00  0.00    -0.085 C  
HETATM   12  C   UNL     1      -9.125   6.566  65.627  1.00  0.00     0.090 C  
HETATM   13  C   UNL     1      -5.836   8.635  65.897  1.00  0.00    -0.047 C  
HETATM   14  C   UNL     1      -8.715   5.234  65.105  1.00  0.00    -0.146 C  
HETATM   15  O   UNL     1      -9.569   7.340  64.493  1.00  0.00     1.368 OA 
HETATM   16  H   UNL     1     -10.269   6.880  64.045  1.00  0.00     0.000 HD 
HETATM   17  C   UNL     1      -7.542   5.336  64.122  1.00  0.00    -0.071 C  
HETATM   18  C   UNL     1      -7.426   3.950  63.468  1.00  0.00    -0.051 C  
HETATM   19  C   UNL     1      -6.685   2.872  64.237  1.00  0.00    -0.036 C  
HETATM   20  O   UNL     1      -7.580   2.063  65.000  1.00  0.00    -0.065 OA 
HETATM   21  C   UNL     1      -5.539   3.402  65.090  1.00  0.00    -0.010 C  
HETATM   22  C   UNL     1      -5.683   4.845  65.708  1.00  0.00    -0.018 C  
HETATM   23  H   UNL     1      -7.115   1.388  65.482  1.00  0.00     0.000 HD 
HETATM   24  C   UNL     1      -6.261   5.967  64.775  1.00  0.00    -0.030 C  
HETATM   25  C   UNL     1      -5.190   6.261  63.690  1.00  0.00    -0.018 C  
HETATM   26  C   UNL     1      -6.760   7.436  65.398  1.00  0.00    -0.048 C  
ENDROOT
BRANCH   4  27
HETATM   27  C   UNL     1     -12.041  11.676  70.828  1.00  0.00    -0.383 C  
HETATM   28  O   UNL     1     -13.443  10.494  72.326  1.00  0.00    -0.340 OA 
HETATM   29  C   UNL     1     -12.287  10.445  71.621  1.00  0.00    -0.304 C  
HETATM   30  O   UNL     1     -11.549   9.462  71.682  1.00  0.00    -0.362 OA 
ENDBRANCH   4  27
TORSDOF 1
ENDMDL
MODEL       74
REMARK 921   NORMALIZED FREE ENERGY PREDICTED BY IDOCK:   -1.25 KCAL/MOL
REMARK 922        TOTAL FREE ENERGY PREDICTED BY IDOCK:   -1.13 KCAL/MOL
REMARK 923 INTER-LIGAND FREE ENERGY PREDICTED BY IDOCK:   -1.00 KCAL/MOL
REMARK 924 INTRA-LIGAND FREE ENERGY PREDICTED BY IDOCK:   -0.13 KCAL/MOL
REMARK 927      BINDING AFFINITY PREDICTED BY RF-SCORE:    0.00 PKD
ROOT
HETATM    1  C   UNL     1      -6.891  10.654  66.048  1.00  0.00    -0.129 C  
HETATM    2  C   UNL     1      -8.369  11.570  65.496  1.00  0.00     0.339 C  
HETATM    3  C   UNL     1      -7.103   9.674  64.923  1.00  0.00    -0.114 C  
HETATM    4  C   UNL     1      -8.693  12.920  66.238  1.00  0.00     0.256 C  
HETATM    5  C   UNL     1      -8.185   8.723  65.426  1.00  0.00    -0.137 C  
HETATM    6  C   UNL     1      -8.425  11.931  63.957  1.00  0.00     1.483 C  
HETATM    7  C   UNL     1      -7.324   8.041  66.426  1.00  0.00    -0.083 C  
HETATM    8  C   UNL     1      -6.965   9.627  68.620  1.00  0.00    -0.064 C  
HETATM    9  C   UNL     1      -7.681   6.677  66.993  1.00  0.00    -0.103 C  
HETATM   10  C   UNL     1      -6.628   9.193  67.176  1.00  0.00    -0.061 C  
HETATM   11  C   UNL     1      -5.207   8.437  67.379  1.00  0.00    -0.034 C  
HETATM   12  C   UNL     1      -8.412   5.947  65.849  1.00  0.00    -0.141 C  
HETATM   13  C   UNL     1      -5.365   6.921  68.069  1.00  0.00    -0.015 C  
HETATM   14  C   UNL     1      -8.672   4.510  66.137  1.00  0.00    -0.114 C  
HETATM   15  O   UNL     1      -7.609   5.994  64.651  1.00  0.00    -0.078 OA 
HETATM   16  H   UNL     1      -8.059   5.544  63.945  1.00  0.00     0.000 HD 
HETATM   17  C   UNL     1      -7.377   3.735  66.413  1.00  0.00    -0.072 C  
HETATM   18  C   UNL     1      -7.773   2.250  66.410  1.00  0.00    -0.071 C  
HETATM   19  C   UNL     1      -8.381   1.684  67.679  1.00  0.00    -0.069 C  
HETATM   20  O   UNL     1      -9.808   1.715  67.637  1.00  0.00    -0.400 OA 
HETATM   21  C   UNL     1      -7.843   2.317  68.956  1.00  0.00    -0.052 C  
HETATM   22  C   UNL     1      -7.410   3.832  68.904  1.00  0.00    -0.054 C  
HETATM   23  H   UNL     1     -10.189   1.361  68.432  1.00  0.00     0.000 HD 
HETATM   24  C   UNL     1      -6.590   4.298  67.650  1.00  0.00    -0.046 C  
HETATM   25  C   UNL     1      -5.188   3.637  67.744  1.00  0.00    -0.008 C  
HETATM   26  C   UNL     1      -6.357   5.922  67.324  1.00  0.00    -0.042 C  
ENDROOT
BRANCH   4  27
HETATM   27  C   UNL     1      -9.950  13.646  65.657  1.00  0.00    -0.261 C  
HETATM   28  O   UNL     1     -12.088  14.568  66.089  1.00  0.00    -0.367 OA 
HETATM   29  C   UNL     1     -11.067  13.850  66.616  1.00  0.00    -0.306 C  
HETATM   30  O   UNL     1     -11.107  13.448  67.778  1.00  0.00    -0.254 OA 
ENDBRANCH   4  27
TORSDOF 1
ENDMDL
MODEL       75
REMARK 921   NORMALIZED FREE ENERGY PREDICTED BY IDOCK:    0.51 KCAL/MOL
REMARK 922        TOTAL FREE ENERGY PREDICTED BY IDOCK:    0.73 KCAL/MOL
REMARK 923 INTER-LIGAND FREE ENERGY PREDICTED BY IDOCK:    0.59 KCAL/MOL
REMARK 924 INTRA-LIGAND FREE ENERGY PREDICTED BY IDOCK:    0.15 KCAL/MOL
REMARK 927      BINDING AFFINITY PREDICTED BY RF-SCORE:    0.00 PKD
ROOT
HETATM    1  C   UNL     1     -13.380  12.594  71.437  1.00  0.00    -0.087 C  
HETATM    2  C   UNL     1     -12.961  10.823  71.314  1.00  0.00    -0.502 C  
HETATM    3  C   UNL     1     -13.292  12.699  69.937  1.00  0.00     1.895 C  
HETATM    4  C   UNL     1     -13.001   9.984  72.646  1.00  0.00     0.264 C  
HETATM    5  C   UNL     1     -11.801  12.817  69.635  1.00  0.00    -0.384 C  
HETATM    6  C   UNL     1     -13.812   9.981  70.280  1.00  0.00     0.982 C  
HETATM    7  C   UNL     1     -11.656  14.197  70.165  1.00  0.00    -0.292 C  
HETATM    8  C   UNL     1     -11.634  14.176  72.896  1.00  0.00     1.346 C  
HETATM    9  C   UNL     1     -10.484  15.084  69.779  1.00  0.00    -0.204 C  
HETATM   10  C   UNL     1     -12.363  14.154  71.533  1.00  0.00    -0.395 C  
HETATM   11  C   UNL     1     -12.977  15.654  71.461  1.00  0.00    -0.549 C  
HETATM   12  C   UNL     1     -10.134  14.678  68.334  1.00  0.00    -0.237 C  
HETATM   13  C   UNL     1     -11.825  16.817  71.114  1.00  0.00     0.714 C  
HETATM   14  C   UNL     1      -9.132  15.575  67.696  1.00  0.00    -0.183 C  
HETATM   15  O   UNL     1     -11.320  14.728  67.514  1.00  0.00    -0.319 OA 
HETATM   16  H   UNL     1     -11.105  14.478  66.623  1.00  0.00     0.000 HD 
HETATM   17  C   UNL     1      -9.608  17.033  67.653  1.00  0.00    -0.249 C  
HETATM   18  C   UNL     1      -8.619  17.766  66.733  1.00  0.00    -0.272 C  
HETATM   19  C   UNL     1      -7.302  18.216  67.337  1.00  0.00    -0.210 C  
HETATM   20  O   UNL     1      -6.269  17.255  67.118  1.00  0.00    -0.134 OA 
HETATM   21  C   UNL     1      -7.400  18.610  68.805  1.00  0.00    -0.326 C  
HETATM   22  C   UNL     1      -8.457  17.861  69.703  1.00  0.00     0.988 C  
HETATM   23  H   UNL     1      -5.444  17.537  67.496  1.00  0.00     0.000 HD 
HETATM   24  C   UNL     1      -9.879  17.621  69.084  1.00  0.00    -0.145 C  
HETATM   25  C   UNL     1     -10.574  19.005  68.975  1.00  0.00     0.387 C  
HETATM   26  C   UNL     1     -10.965  16.568  69.796  1.00  0.00    -0.292 C  
ENDROOT
BRANCH   4  27
HETATM   27  C   UNL     1     -12.673   8.472  72.421  1.00  0.00    -0.394 C  
HETATM   28  O   UNL     1     -11.056   6.863  71.787  1.00  0.00    -0.234 OA 
HETATM   29  C   UNL     1     -11.323   8.189  71.870  1.00  0.00    -0.296 C  
HETATM   30  O   UNL     1     -10.491   9.027  71.524  1.00  0.00    -0.287 OA 
ENDBRANCH   4  27
TORSDOF 1
ENDMDL
MODEL       76
REMARK 921   NORMALIZED FREE ENERGY PREDICTED BY IDOCK:    1.38 KCAL/MOL
REMARK 922        TOTAL FREE ENERGY PREDICTED BY IDOCK:    1.66 KCAL/MOL
REMARK 923 INTER-LIGAND FREE ENERGY PREDICTED BY IDOCK:   -1.02 KCAL/MOL
REMARK 924 INTRA-LIGAND FREE ENERGY PREDICTED BY IDOCK:    2.67 KCAL/MOL
REMARK 927      BINDING AFFINITY PREDICTED BY RF-SCORE:    0.00 PKD
ROOT
HETATM    1  C   UNL     1      -6.168   7.586  66.963  1.00  0.00    -0.052 C  
HETATM    2  C   UNL     1      -6.750   5.898  67.340  1.00  0.00    -0.058 C  
HETATM    3  C   UNL     1      -6.411   7.969  68.399  1.00  0.00    -0.058 C  
HETATM    4  C   UNL     1      -6.638   4.828  66.191  1.00  0.00    -0.045 C  
HETATM    5  C   UNL     1      -7.910   8.240  68.488  1.00  0.00    -0.121 C  
HETATM    6  C   UNL     1      -6.095   5.207  68.603  1.00  0.00    -0.029 C  
HETATM    7  C   UNL     1      -7.875   9.505  67.712  1.00  0.00    -0.095 C  
HETATM    8  C   UNL     1      -7.597   8.984  65.046  1.00  0.00    -0.103 C  
HETATM    9  C   UNL     1      -9.000  10.523  67.789  1.00  0.00    -0.132 C  
HETATM   10  C   UNL     1      -7.028   9.165  66.470  1.00  0.00    -0.080 C  
HETATM   11  C   UNL     1      -6.297  10.609  66.356  1.00  0.00    -0.109 C  
HETATM   12  C   UNL     1      -9.541  10.414  69.228  1.00  0.00    -0.209 C  
HETATM   13  C   UNL     1      -7.374  11.889  66.349  1.00  0.00     0.288 C  
HETATM   14  C   UNL     1     -10.525  11.477  69.570  1.00  0.00     0.109 C  
HETATM   15  O   UNL     1      -8.453  10.535  70.167  1.00  0.00    -0.300 OA 
HETATM   16  H   UNL     1      -8.786  10.467  71.055  1.00  0.00     0.000 HD 
HETATM   17  C   UNL     1      -9.932  12.883  69.417  1.00  0.00     0.779 C  
HETATM   18  C   UNL     1     -10.948  13.836  70.065  1.00  0.00     0.264 C  
HETATM   19  C   UNL     1     -12.146  14.254  69.233  1.00  0.00    -0.313 C  
HETATM   20  O   UNL     1     -13.277  13.420  69.487  1.00  0.00     0.743 OA 
HETATM   21  C   UNL     1     -11.853  14.364  67.743  1.00  0.00    -0.402 C  
HETATM   22  C   UNL     1     -10.773  13.394  67.127  1.00  0.00    -0.268 C  
HETATM   23  H   UNL     1     -14.027  13.681  68.965  1.00  0.00     0.000 HD 
HETATM   24  C   UNL     1      -9.454  13.179  67.950  1.00  0.00    -0.218 C  
HETATM   25  C   UNL     1      -8.657  14.510  67.901  1.00  0.00    -0.161 C  
HETATM   26  C   UNL     1      -8.392  11.944  67.573  1.00  0.00    -0.158 C  
ENDROOT
BRANCH   4  27
HETATM   27  C   UNL     1      -7.119   3.409  66.633  1.00  0.00    -0.055 C  
HETATM   28  O   UNL     1      -8.517   2.142  68.064  1.00  0.00    -0.062 OA 
HETATM   29  C   UNL     1      -8.057   3.385  67.785  1.00  0.00    -0.080 C  
HETATM   30  O   UNL     1      -8.423   4.359  68.443  1.00  0.00    -0.091 OA 
ENDBRANCH   4  27
TORSDOF 1
ENDMDL
MODEL       77
REMARK 921   NORMALIZED FREE ENERGY PREDICTED BY IDOCK:    2.11 KCAL/MOL
REMARK 922        TOTAL FREE ENERGY PREDICTED BY IDOCK:    2.43 KCAL/MOL
REMARK 923 INTER-LIGAND FREE ENERGY PREDICTED BY IDOCK:    2.59 KCAL/MOL
REMARK 924 INTRA-LIGAND FREE ENERGY PREDICTED BY IDOCK:   -0.16 KCAL/MOL
REMARK 927      BINDING AFFINITY PREDICTED BY RF-SCORE:    0.00 PKD
ROOT
HETATM    1  C   UNL     1     -10.015  10.201  68.629  1.00  0.00    -0.181 C  
HETATM    2  C   UNL     1     -10.711   9.719  70.246  1.00  0.00    -0.358 C  
HETATM    3  C   UNL     1      -8.726  10.570  69.317  1.00  0.00    -0.135 C  
HETATM    4  C   UNL     1     -12.142   9.063  70.242  1.00  0.00     0.262 C  
HETATM    5  C   UNL     1      -8.973  11.956  69.903  1.00  0.00     2.456 C  
HETATM    6  C   UNL     1      -9.821   8.747  71.120  1.00  0.00    -0.313 C  
HETATM    7  C   UNL     1      -8.975  12.667  68.599  1.00  0.00     0.047 C  
HETATM    8  C   UNL     1     -11.326  12.234  67.279  1.00  0.00    -0.392 C  
HETATM    9  C   UNL     1      -8.752  14.166  68.503  1.00  0.00    -0.166 C  
HETATM   10  C   UNL     1      -9.901  11.817  67.707  1.00  0.00    -0.186 C  
HETATM   11  C   UNL     1      -9.065  12.031  66.333  1.00  0.00    -0.193 C  
HETATM   12  C   UNL     1      -7.792  14.503  69.662  1.00  0.00     0.186 C  
HETATM   13  C   UNL     1      -8.767  13.642  65.991  1.00  0.00     0.745 C  
HETATM   14  C   UNL     1      -7.287  15.903  69.621  1.00  0.00    -0.082 C  
HETATM   15  O   UNL     1      -6.637  13.641  69.602  1.00  0.00    -0.205 OA 
HETATM   16  H   UNL     1      -6.046  13.848  70.317  1.00  0.00     0.000 HD 
HETATM   17  C   UNL     1      -6.543  16.209  68.316  1.00  0.00    -0.127 C  
HETATM   18  C   UNL     1      -5.852  17.564  68.539  1.00  0.00    -0.162 C  
HETATM   19  C   UNL     1      -6.688  18.816  68.354  1.00  0.00    -0.248 C  
HETATM   20  O   UNL     1      -7.232  19.271  69.594  1.00  0.00    -0.194 OA 
HETATM   21  C   UNL     1      -7.763  18.686  67.283  1.00  0.00    -0.238 C  
HETATM   22  C   UNL     1      -8.417  17.269  67.059  1.00  0.00    -0.240 C  
HETATM   23  H   UNL     1      -7.756  20.056  69.478  1.00  0.00     0.000 HD 
HETATM   24  C   UNL     1      -7.452  16.031  67.047  1.00  0.00    -0.264 C  
HETATM   25  C   UNL     1      -6.599  16.125  65.754  1.00  0.00     3.225 C  
HETATM   26  C   UNL     1      -8.047  14.472  67.145  1.00  0.00    -0.196 C  
ENDROOT
BRANCH   4  27
HETATM   27  C   UNL     1     -12.622   8.646  71.670  1.00  0.00    -0.381 C  
HETATM   28  O   UNL     1     -14.135   9.036  73.449  1.00  0.00    -0.160 OA 
HETATM   29  C   UNL     1     -13.689   9.498  72.256  1.00  0.00    -0.371 C  
HETATM   30  O   UNL     1     -14.164  10.515  71.752  1.00  0.00     0.461 OA 
ENDBRANCH   4  27
TORSDOF 1
ENDMDL
MODEL       78
REMARK 921   NORMALIZED FREE ENERGY PREDICTED BY IDOCK:    3.18 KCAL/MOL
REMARK 922        TOTAL FREE ENERGY PREDICTED BY IDOCK:    3.57 KCAL/MOL
REMARK 923 INTER-LIGAND FREE ENERGY PREDICTED BY IDOCK:    3.75 KCAL/MOL
REMARK 924 INTRA-LIGAND FREE ENERGY PREDICTED BY IDOCK:   -0.18 KCAL/MOL
REMARK 927      BINDING AFFINITY PREDICTED BY RF-SCORE:    0.00 PKD
ROOT
HETATM    1  C   UNL     1      -7.065  12.648  65.998  1.00  0.00     2.615 C  
HETATM    2  C   UNL     1      -8.168  13.696  67.005  1.00  0.00    -0.056 C  
HETATM    3  C   UNL     1      -8.268  11.875  65.523  1.00  0.00     0.862 C  
HETATM    4  C   UNL     1      -7.510  14.917  67.751  1.00  0.00    -0.179 C  
HETATM    5  C   UNL     1      -8.579  10.895  66.650  1.00  0.00    -0.148 C  
HETATM    6  C   UNL     1      -9.419  14.307  66.255  1.00  0.00    -0.277 C  
HETATM    7  C   UNL     1      -7.397  10.026  66.415  1.00  0.00    -0.104 C  
HETATM    8  C   UNL     1      -5.131  11.216  67.369  1.00  0.00    -0.043 C  
HETATM    9  C   UNL     1      -7.333   8.602  66.941  1.00  0.00    -0.079 C  
HETATM   10  C   UNL     1      -6.220  11.013  66.292  1.00  0.00    -0.126 C  
HETATM   11  C   UNL     1      -5.413  10.181  65.156  1.00  0.00    -0.086 C  
HETATM   12  C   UNL     1      -8.789   8.097  66.908  1.00  0.00    -0.131 C  
HETATM   13  C   UNL     1      -5.164   8.580  65.570  1.00  0.00    -0.034 C  
HETATM   14  C   UNL     1      -8.916   6.643  67.199  1.00  0.00    -0.118 C  
HETATM   15  O   UNL     1      -9.348   8.311  65.595  1.00  0.00    -0.408 OA 
HETATM   16  H   UNL     1     -10.246   8.000  65.574  1.00  0.00     0.000 HD 
HETATM   17  C   UNL     1      -8.119   5.786  66.208  1.00  0.00    -0.107 C  
HETATM   18  C   UNL     1      -8.569   4.337  66.455  1.00  0.00    -0.112 C  
HETATM   19  C   UNL     1      -7.928   3.593  67.612  1.00  0.00    -0.081 C  
HETATM   20  O   UNL     1      -8.720   3.683  68.796  1.00  0.00    -0.086 OA 
HETATM   21  C   UNL     1      -6.480   3.987  67.872  1.00  0.00    -0.038 C  
HETATM   22  C   UNL     1      -6.052   5.473  67.566  1.00  0.00    -0.029 C  
HETATM   23  H   UNL     1      -8.319   3.217  69.521  1.00  0.00     0.000 HD 
HETATM   24  C   UNL     1      -6.582   6.109  66.232  1.00  0.00    -0.048 C  
HETATM   25  C   UNL     1      -5.860   5.389  65.060  1.00  0.00    -0.021 C  
HETATM   26  C   UNL     1      -6.471   7.754  65.956  1.00  0.00    -0.042 C  
ENDROOT
BRANCH   4  27
HETATM   27  C   UNL     1      -8.548  15.774  68.546  1.00  0.00    -0.183 C  
HETATM   28  O   UNL     1      -9.602  16.194  70.624  1.00  0.00     1.100 OA 
HETATM   29  C   UNL     1      -8.769  15.361  69.956  1.00  0.00     0.363 C  
HETATM   30  O   UNL     1      -8.264  14.387  70.513  1.00  0.00     1.346 OA 
ENDBRANCH   4  27
TORSDOF 1
ENDMDL
MODEL       79
REMARK 921   NORMALIZED FREE ENERGY PREDICTED BY IDOCK:    3.77 KCAL/MOL
REMARK 922        TOTAL FREE ENERGY PREDICTED BY IDOCK:    4.19 KCAL/MOL
REMARK 923 INTER-LIGAND FREE ENERGY PREDICTED BY IDOCK:    4.31 KCAL/MOL
REMARK 924 INTRA-LIGAND FREE ENERGY PREDICTED BY IDOCK:   -0.12 KCAL/MOL
REMARK 927      BINDING AFFINITY PREDICTED BY RF-SCORE:    0.00 PKD
ROOT
HETATM    1  C   UNL     1      -7.456  12.282  68.779  1.00  0.00    -0.065 C  
HETATM    2  C   UNL     1      -8.617  10.897  68.525  1.00  0.00    -0.152 C  
HETATM    3  C   UNL     1      -8.562  13.060  69.444  1.00  0.00     1.176 C  
HETATM    4  C   UNL     1      -8.025   9.569  67.922  1.00  0.00    -0.098 C  
HETATM    5  C   UNL     1      -9.386  13.636  68.296  1.00  0.00    -0.204 C  
HETATM    6  C   UNL     1      -9.432  10.435  69.799  1.00  0.00    -0.043 C  
HETATM    7  C   UNL     1      -8.367  14.628  67.870  1.00  0.00    -0.153 C  
HETATM    8  C   UNL     1      -6.351  13.399  66.497  1.00  0.00     2.648 C  
HETATM    9  C   UNL     1      -8.730  15.834  67.020  1.00  0.00    -0.251 C  
HETATM   10  C   UNL     1      -7.056  13.821  67.806  1.00  0.00    -0.175 C  
HETATM   11  C   UNL     1      -6.090  15.013  68.333  1.00  0.00    -0.105 C  
HETATM   12  C   UNL     1     -10.164  16.206  67.444  1.00  0.00    -0.272 C  
HETATM   13  C   UNL     1      -6.277  16.436  67.474  1.00  0.00    -0.186 C  
HETATM   14  C   UNL     1     -10.635  17.494  66.866  1.00  0.00    -0.219 C  
HETATM   15  O   UNL     1     -10.226  16.344  68.879  1.00  0.00    -0.228 OA 
HETATM   16  H   UNL     1     -11.111  16.573  69.141  1.00  0.00     0.000 HD 
HETATM   17  C   UNL     1      -9.729  18.668  67.261  1.00  0.00    -0.326 C  
HETATM   18  C   UNL     1     -10.486  19.937  66.839  1.00  0.00    -0.577 C  
HETATM   19  C   UNL     1     -10.393  20.357  65.384  1.00  0.00     0.256 C  
HETATM   20  O   UNL     1     -11.492  19.857  64.622  1.00  0.00     0.323 OA 
HETATM   21  C   UNL     1      -9.059  20.023  64.730  1.00  0.00     2.570 C  
HETATM   22  C   UNL     1      -8.296  18.733  65.223  1.00  0.00     1.596 C  
HETATM   23  H   UNL     1     -11.434  20.120  63.711  1.00  0.00     0.000 HD 
HETATM   24  C   UNL     1      -8.249  18.478  66.770  1.00  0.00    -0.268 C  
HETATM   25  C   UNL     1      -7.332  19.567  67.389  1.00  0.00    -0.261 C  
HETATM   26  C   UNL     1      -7.764  17.003  67.388  1.00  0.00    -0.192 C  
ENDROOT
BRANCH   4  27
HETATM   27  C   UNL     1      -9.092   8.434  67.790  1.00  0.00    -0.142 C  
HETATM   28  O   UNL     1      -9.635   6.163  68.181  1.00  0.00    -0.116 OA 
HETATM   29  C   UNL     1      -8.644   7.086  68.224  1.00  0.00    -0.129 C  
HETATM   30  O   UNL     1      -7.514   6.785  68.606  1.00  0.00    -0.094 OA 
ENDBRANCH   4  27
TORSDOF 1
ENDMDL
MODEL       80
REMARK 921   NORMALIZED FREE ENERGY PREDICTED BY IDOCK:    6.75 KCAL/MOL
REMARK 922        TOTAL FREE ENERGY PREDICTED BY IDOCK:    7.34 KCAL/MOL
REMARK 923 INTER-LIGAND FREE ENERGY PREDICTED BY IDOCK:    7.45 KCAL/MOL
REMARK 924 INTRA-LIGAND FREE ENERGY PREDICTED BY IDOCK:   -0.11 KCAL/MOL
REMARK 927      BINDING AFFINITY PREDICTED BY RF-SCORE:    0.00 PKD
ROOT
HETATM    1  C   UNL     1      -8.408  12.061  65.757  1.00  0.00     0.598 C  
HETATM    2  C   UNL     1      -9.924  12.831  65.095  1.00  0.00    -0.185 C  
HETATM    3  C   UNL     1      -8.402  11.114  64.585  1.00  0.00     0.360 C  
HETATM    4  C   UNL     1     -10.468  14.103  65.848  1.00  0.00    -0.313 C  
HETATM    5  C   UNL     1      -9.410  10.028  64.948  1.00  0.00    -0.324 C  
HETATM    6  C   UNL     1      -9.879  13.251  63.571  1.00  0.00     2.088 C  
HETATM    7  C   UNL     1      -8.573   9.401  66.003  1.00  0.00    -0.154 C  
HETATM    8  C   UNL     1      -8.602  10.919  68.274  1.00  0.00    -0.139 C  
HETATM    9  C   UNL     1      -8.824   7.983  66.487  1.00  0.00    -0.175 C  
HETATM   10  C   UNL     1      -8.086  10.589  66.855  1.00  0.00    -0.120 C  
HETATM   11  C   UNL     1      -6.613   9.986  67.170  1.00  0.00    -0.070 C  
HETATM   12  C   UNL     1      -9.357   7.228  65.253  1.00  0.00     0.787 C  
HETATM   13  C   UNL     1      -6.660   8.433  67.790  1.00  0.00    -0.062 C  
HETATM   14  C   UNL     1      -9.476   5.759  65.467  1.00  0.00     0.145 C  
HETATM   15  O   UNL     1      -8.457   7.416  64.142  1.00  0.00    -0.365 OA 
HETATM   16  H   UNL     1      -8.785   6.950  63.381  1.00  0.00     0.000 HD 
HETATM   17  C   UNL     1      -8.133   5.121  65.841  1.00  0.00    -0.109 C  
HETATM   18  C   UNL     1      -8.355   3.602  65.749  1.00  0.00    -0.106 C  
HETATM   19  C   UNL     1      -9.009   2.917  66.934  1.00  0.00    -0.158 C  
HETATM   20  O   UNL     1     -10.420   2.792  66.754  1.00  0.00     1.341 OA 
HETATM   21  C   UNL     1      -8.667   3.548  68.277  1.00  0.00    -0.136 C  
HETATM   22  C   UNL     1      -8.407   5.103  68.318  1.00  0.00    -0.096 C  
HETATM   23  H   UNL     1     -10.829   2.363  67.496  1.00  0.00     0.000 HD 
HETATM   24  C   UNL     1      -7.533   5.712  67.166  1.00  0.00    -0.084 C  
HETATM   25  C   UNL     1      -6.080   5.206  67.374  1.00  0.00    -0.030 C  
HETATM   26  C   UNL     1      -7.458   7.364  66.920  1.00  0.00    -0.097 C  
ENDROOT
BRANCH   4  27
HETATM   27  C   UNL     1     -11.740  14.710  65.172  1.00  0.00    -0.364 C  
HETATM   28  O   UNL     1     -13.108  16.618  64.868  1.00  0.00     3.215 OA 
HETATM   29  C   UNL     1     -12.056  16.110  65.554  1.00  0.00     1.425 C  
HETATM   30  O   UNL     1     -11.453  16.789  66.385  1.00  0.00     0.577 OA 
ENDBRANCH   4  27
TORSDOF 1
ENDMDL
MODEL       81
REMARK 921   NORMALIZED FREE ENERGY PREDICTED BY IDOCK:   10.55 KCAL/MOL
REMARK 922        TOTAL FREE ENERGY PREDICTED BY IDOCK:   11.36 KCAL/MOL
REMARK 923 INTER-LIGAND FREE ENERGY PREDICTED BY IDOCK:   11.53 KCAL/MOL
REMARK 924 INTRA-LIGAND FREE ENERGY PREDICTED BY IDOCK:   -0.16 KCAL/MOL
REMARK 927      BINDING AFFINITY PREDICTED BY RF-SCORE:    0.00 PKD
ROOT
HETATM    1  C   UNL     1     -12.188  14.159  68.116  1.00  0.00    -0.179 C  
HETATM    2  C   UNL     1     -12.200  13.251  66.533  1.00  0.00    -0.389 C  
HETATM    3  C   UNL     1     -12.448  15.437  67.361  1.00  0.00     1.187 C  
HETATM    4  C   UNL     1     -12.092  11.682  66.607  1.00  0.00     0.630 C  
HETATM    5  C   UNL     1     -11.086  15.862  66.822  1.00  0.00    -0.064 C  
HETATM    6  C   UNL     1     -13.436  13.528  65.586  1.00  0.00     0.984 C  
HETATM    7  C   UNL     1     -10.525  16.255  68.140  1.00  0.00    -0.289 C  
HETATM    8  C   UNL     1      -9.844  14.041  69.587  1.00  0.00     0.681 C  
HETATM    9  C   UNL     1      -9.321  17.174  68.256  1.00  0.00    -0.265 C  
HETATM   10  C   UNL     1     -10.870  15.073  69.066  1.00  0.00    -0.242 C  
HETATM   11  C   UNL     1     -11.148  15.964  70.393  1.00  0.00    -0.382 C  
HETATM   12  C   UNL     1      -9.428  18.129  67.051  1.00  0.00    -0.274 C  
HETATM   13  C   UNL     1      -9.895  17.013  70.752  1.00  0.00     2.900 C  
HETATM   14  C   UNL     1      -8.444  19.245  67.092  1.00  0.00    -0.310 C  
HETATM   15  O   UNL     1     -10.740  18.730  67.022  1.00  0.00    -0.416 OA 
HETATM   16  H   UNL     1     -10.806  19.318  66.278  1.00  0.00     0.000 HD 
HETATM   17  C   UNL     1      -8.594  20.098  68.358  1.00  0.00    -0.007 C  
HETATM   18  C   UNL     1      -7.726  21.345  68.124  1.00  0.00     1.178 C  
HETATM   19  C   UNL     1      -6.237  21.221  68.387  1.00  0.00     0.009 C  
HETATM   20  O   UNL     1      -5.518  20.912  67.193  1.00  0.00    -0.176 OA 
HETATM   21  C   UNL     1      -5.888  20.261  69.516  1.00  0.00    -0.370 C  
HETATM   22  C   UNL     1      -6.830  19.017  69.747  1.00  0.00    -0.035 C  
HETATM   23  H   UNL     1      -4.585  20.834  67.357  1.00  0.00     0.000 HD 
HETATM   24  C   UNL     1      -8.377  19.268  69.674  1.00  0.00     0.416 C  
HETATM   25  C   UNL     1      -8.766  20.115  70.916  1.00  0.00     1.930 C  
HETATM   26  C   UNL     1      -9.456  17.995  69.577  1.00  0.00     0.456 C  
ENDROOT
BRANCH   4  27
HETATM   27  C   UNL     1     -12.159  11.002  65.201  1.00  0.00     1.808 C  
HETATM   28  O   UNL     1     -10.990   9.850  63.494  1.00  0.00     2.557 OA 
HETATM   29  C   UNL     1     -10.861  10.516  64.667  1.00  0.00     0.415 C  
HETATM   30  O   UNL     1      -9.759  10.659  65.197  1.00  0.00    -0.228 OA 
ENDBRANCH   4  27
TORSDOF 1
ENDMDL
MODEL       82
REMARK 921   NORMALIZED FREE ENERGY PREDICTED BY IDOCK:   10.91 KCAL/MOL
REMARK 922        TOTAL FREE ENERGY PREDICTED BY IDOCK:   11.74 KCAL/MOL
REMARK 923 INTER-LIGAND FREE ENERGY PREDICTED BY IDOCK:   11.90 KCAL/MOL
REMARK 924 INTRA-LIGAND FREE ENERGY PREDICTED BY IDOCK:   -0.16 KCAL/MOL
REMARK 927      BINDING AFFINITY PREDICTED BY RF-SCORE:    0.00 PKD
ROOT
HETATM    1  C   UNL     1     -10.664  13.687  70.660  1.00  0.00     1.938 C  
HETATM    2  C   UNL     1     -11.439  12.282  69.792  1.00  0.00    -0.237 C  
HETATM    3  C   UNL     1     -11.480  14.632  69.817  1.00  0.00    -0.325 C  
HETATM    4  C   UNL     1     -11.089  10.838  70.314  1.00  0.00    -0.248 C  
HETATM    5  C   UNL     1     -10.736  14.720  68.488  1.00  0.00    -0.247 C  
HETATM    6  C   UNL     1     -13.018  12.309  69.705  1.00  0.00     1.119 C  
HETATM    7  C   UNL     1      -9.591  15.506  69.015  1.00  0.00    -0.238 C  
HETATM    8  C   UNL     1      -7.910  13.899  70.448  1.00  0.00     2.118 C  
HETATM    9  C   UNL     1      -8.675  16.300  68.100  1.00  0.00    -0.182 C  
HETATM   10  C   UNL     1      -9.183  14.762  70.302  1.00  0.00     1.006 C  
HETATM   11  C   UNL     1      -8.786  16.087  71.151  1.00  0.00     4.444 C  
HETATM   12  C   UNL     1      -9.577  16.770  66.941  1.00  0.00    -0.245 C  
HETATM   13  C   UNL     1      -7.711  17.083  70.345  1.00  0.00     2.829 C  
HETATM   14  C   UNL     1      -8.909  17.740  66.031  1.00  0.00    -0.022 C  
HETATM   15  O   UNL     1     -10.744  17.431  67.472  1.00  0.00    -0.347 OA 
HETATM   16  H   UNL     1     -11.301  17.721  66.758  1.00  0.00     0.000 HD 
HETATM   17  C   UNL     1      -8.437  18.996  66.773  1.00  0.00    -0.307 C  
HETATM   18  C   UNL     1      -8.037  20.000  65.680  1.00  0.00     0.003 C  
HETATM   19  C   UNL     1      -6.661  19.850  65.061  1.00  0.00    -0.270 C  
HETATM   20  O   UNL     1      -6.706  19.078  63.861  1.00  0.00     0.656 OA 
HETATM   21  C   UNL     1      -5.605  19.327  66.025  1.00  0.00    -0.175 C  
HETATM   22  C   UNL     1      -6.066  18.331  67.158  1.00  0.00    -0.176 C  
HETATM   23  H   UNL     1      -5.844  18.984  63.473  1.00  0.00     0.000 HD 
HETATM   24  C   UNL     1      -7.401  18.671  67.909  1.00  0.00    -0.251 C  
HETATM   25  C   UNL     1      -7.135  19.933  68.773  1.00  0.00    -0.332 C  
HETATM   26  C   UNL     1      -8.154  17.543  68.886  1.00  0.00    -0.168 C  
ENDROOT
BRANCH   4  27
HETATM   27  C   UNL     1     -11.842   9.712  69.533  1.00  0.00     0.297 C  
HETATM   28  O   UNL     1     -11.676   7.858  68.070  1.00  0.00     1.304 OA 
HETATM   29  C   UNL     1     -10.993   8.877  68.645  1.00  0.00     0.114 C  
HETATM   30  O   UNL     1      -9.792   9.037  68.429  1.00  0.00    -0.157 OA 
ENDBRANCH   4  27
TORSDOF 1
ENDMDL
MODEL       83
REMARK 921   NORMALIZED FREE ENERGY PREDICTED BY IDOCK:   11.47 KCAL/MOL
REMARK 922        TOTAL FREE ENERGY PREDICTED BY IDOCK:   12.34 KCAL/MOL
REMARK 923 INTER-LIGAND FREE ENERGY PREDICTED BY IDOCK:   12.46 KCAL/MOL
REMARK 924 INTRA-LIGAND FREE ENERGY PREDICTED BY IDOCK:   -0.12 KCAL/MOL
REMARK 927      BINDING AFFINITY PREDICTED BY RF-SCORE:    0.00 PKD
ROOT
HETATM    1  C   UNL     1      -9.799  12.475  70.098  1.00  0.00     3.299 C  
HETATM    2  C   UNL     1      -8.677  13.900  69.896  1.00  0.00     1.727 C  
HETATM    3  C   UNL     1      -8.601  11.589  70.320  1.00  0.00     3.295 C  
HETATM    4  C   UNL     1      -9.343  15.318  69.737  1.00  0.00    -0.084 C  
HETATM    5  C   UNL     1      -8.067  11.287  68.923  1.00  0.00    -0.090 C  
HETATM    6  C   UNL     1      -7.587  14.089  71.027  1.00  0.00     3.122 C  
HETATM    7  C   UNL     1      -9.188  10.394  68.530  1.00  0.00    -0.145 C  
HETATM    8  C   UNL     1     -11.414  11.859  67.934  1.00  0.00    -0.385 C  
HETATM    9  C   UNL     1      -9.060   9.406  67.384  1.00  0.00    -0.141 C  
HETATM   10  C   UNL     1     -10.454  11.176  68.932  1.00  0.00    -0.233 C  
HETATM   11  C   UNL     1     -11.319   9.883  69.394  1.00  0.00    -0.143 C  
HETATM   12  C   UNL     1      -7.580   8.974  67.390  1.00  0.00    -0.088 C  
HETATM   13  C   UNL     1     -11.371   8.682  68.230  1.00  0.00     0.760 C  
HETATM   14  C   UNL     1      -7.291   7.848  66.461  1.00  0.00    -0.087 C  
HETATM   15  O   UNL     1      -7.210   8.531  68.712  1.00  0.00    -0.075 OA 
HETATM   16  H   UNL     1      -6.297   8.264  68.717  1.00  0.00     0.000 HD 
HETATM   17  C   UNL     1      -8.125   6.603  66.786  1.00  0.00    -0.113 C  
HETATM   18  C   UNL     1      -7.522   5.467  65.946  1.00  0.00    -0.082 C  
HETATM   19  C   UNL     1      -7.946   5.369  64.492  1.00  0.00    -0.116 C  
HETATM   20  O   UNL     1      -7.025   6.039  63.631  1.00  0.00    -0.040 OA 
HETATM   21  C   UNL     1      -9.380   5.816  64.237  1.00  0.00     0.887 C  
HETATM   22  C   UNL     1      -9.973   6.956  65.150  1.00  0.00     2.272 C  
HETATM   23  H   UNL     1      -7.291   5.978  62.721  1.00  0.00     0.000 HD 
HETATM   24  C   UNL     1      -9.670   6.871  66.688  1.00  0.00    -0.221 C  
HETATM   25  C   UNL     1     -10.464   5.660  67.247  1.00  0.00    -0.322 C  
HETATM   26  C   UNL     1      -9.959   8.171  67.699  1.00  0.00    -0.240 C  
ENDROOT
BRANCH   4  27
HETATM   27  C   UNL     1      -8.294  16.471  69.618  1.00  0.00     0.494 C  
HETATM   28  O   UNL     1      -7.628  18.441  68.486  1.00  0.00    -0.285 OA 
HETATM   29  C   UNL     1      -8.505  17.408  68.485  1.00  0.00    -0.274 C  
HETATM   30  O   UNL     1      -9.374  17.315  67.619  1.00  0.00    -0.234 OA 
ENDBRANCH   4  27
TORSDOF 1
ENDMDL
MODEL       84
REMARK 921   NORMALIZED FREE ENERGY PREDICTED BY IDOCK:   12.41 KCAL/MOL
REMARK 922        TOTAL FREE ENERGY PREDICTED BY IDOCK:   13.33 KCAL/MOL
REMARK 923 INTER-LIGAND FREE ENERGY PREDICTED BY IDOCK:   13.49 KCAL/MOL
REMARK 924 INTRA-LIGAND FREE ENERGY PREDICTED BY IDOCK:   -0.16 KCAL/MOL
REMARK 927      BINDING AFFINITY PREDICTED BY RF-SCORE:    0.00 PKD
ROOT
HETATM    1  C   UNL     1      -8.001   9.012  72.354  1.00  0.00     0.429 C  
HETATM    2  C   UNL     1      -8.951   7.463  72.187  1.00  0.00    -0.154 C  
HETATM    3  C   UNL     1      -9.292   9.786  72.294  1.00  0.00     3.264 C  
HETATM    4  C   UNL     1      -8.147   6.114  72.305  1.00  0.00    -0.109 C  
HETATM    5  C   UNL     1      -9.636   9.866  70.809  1.00  0.00     0.178 C  
HETATM    6  C   UNL     1     -10.176   7.292  73.173  1.00  0.00    -0.344 C  
HETATM    7  C   UNL     1      -8.553  10.821  70.461  1.00  0.00     2.233 C  
HETATM    8  C   UNL     1      -6.143   9.540  70.369  1.00  0.00    -0.059 C  
HETATM    9  C   UNL     1      -8.594  11.651  69.190  1.00  0.00     0.305 C  
HETATM   10  C   UNL     1      -7.297  10.229  71.130  1.00  0.00     1.349 C  
HETATM   11  C   UNL     1      -6.627  11.651  71.534  1.00  0.00     3.174 C  
HETATM   12  C   UNL     1     -10.091  11.923  68.938  1.00  0.00    -0.042 C  
HETATM   13  C   UNL     1      -6.507  12.708  70.243  1.00  0.00     0.297 C  
HETATM   14  C   UNL     1     -10.337  12.897  67.840  1.00  0.00    -0.233 C  
HETATM   15  O   UNL     1     -10.691  12.475  70.129  1.00  0.00     0.249 OA 
HETATM   16  H   UNL     1     -11.614  12.642  69.974  1.00  0.00     0.000 HD 
HETATM   17  C   UNL     1      -9.672  14.252  68.113  1.00  0.00    -0.226 C  
HETATM   18  C   UNL     1     -10.242  15.214  67.058  1.00  0.00    -0.262 C  
HETATM   19  C   UNL     1      -9.617  15.187  65.675  1.00  0.00    -0.260 C  
HETATM   20  O   UNL     1     -10.337  14.329  64.791  1.00  0.00    -0.433 OA 
HETATM   21  C   UNL     1      -8.127  14.868  65.679  1.00  0.00     3.225 C  
HETATM   22  C   UNL     1      -7.579  13.909  66.804  1.00  0.00     0.726 C  
HETATM   23  H   UNL     1      -9.945  14.312  63.925  1.00  0.00     0.000 HD 
HETATM   24  C   UNL     1      -8.113  14.139  68.262  1.00  0.00    -0.146 C  
HETATM   25  C   UNL     1      -7.520  15.484  68.762  1.00  0.00    -0.141 C  
HETATM   26  C   UNL     1      -7.864  13.003  69.462  1.00  0.00     0.934 C  
ENDROOT
BRANCH   4  27
HETATM   27  C   UNL     1      -9.061   4.851  72.194  1.00  0.00    -0.148 C  
HETATM   28  O   UNL     1      -9.671   2.945  70.928  1.00  0.00    -0.154 OA 
HETATM   29  C   UNL     1      -8.931   4.080  70.931  1.00  0.00    -0.100 C  
HETATM   30  O   UNL     1      -8.231   4.383  69.965  1.00  0.00    -0.062 OA 
ENDBRANCH   4  27
TORSDOF 1
ENDMDL
MODEL       85
REMARK 921   NORMALIZED FREE ENERGY PREDICTED BY IDOCK:   13.23 KCAL/MOL
REMARK 922        TOTAL FREE ENERGY PREDICTED BY IDOCK:   14.20 KCAL/MOL
REMARK 923 INTER-LIGAND FREE ENERGY PREDICTED BY IDOCK:   14.30 KCAL/MOL
REMARK 924 INTRA-LIGAND FREE ENERGY PREDICTED BY IDOCK:   -0.10 KCAL/MOL
REMARK 927      BINDING AFFINITY PREDICTED BY RF-SCORE:    0.00 PKD
ROOT
HETATM    1  C   UNL     1     -13.545  10.295  70.167  1.00  0.00     0.803 C  
HETATM    2  C   UNL     1     -13.261  11.483  71.522  1.00  0.00    -0.320 C  
HETATM    3  C   UNL     1     -13.146   9.175  71.092  1.00  0.00    -0.216 C  
HETATM    4  C   UNL     1     -13.640  12.987  71.247  1.00  0.00     0.229 C  
HETATM    5  C   UNL     1     -11.621   9.188  71.094  1.00  0.00    -0.386 C  
HETATM    6  C   UNL     1     -13.952  11.137  72.902  1.00  0.00     1.960 C  
HETATM    7  C   UNL     1     -11.470   8.668  69.711  1.00  0.00     0.227 C  
HETATM    8  C   UNL     1     -12.005  10.630  67.889  1.00  0.00     0.588 C  
HETATM    9  C   UNL     1     -10.174   8.039  69.228  1.00  0.00    -0.214 C  
HETATM   10  C   UNL     1     -12.441   9.525  68.876  1.00  0.00     2.688 C  
HETATM   11  C   UNL     1     -12.899   8.340  67.868  1.00  0.00    11.057 C  
HETATM   12  C   UNL     1      -9.574   7.355  70.472  1.00  0.00    -0.172 C  
HETATM   13  C   UNL     1     -11.607   7.549  67.157  1.00  0.00     1.506 C  
HETATM   14  C   UNL     1      -8.391   6.504  70.164  1.00  0.00    -0.134 C  
HETATM   15  O   UNL     1     -10.561   6.494  71.077  1.00  0.00    -0.220 OA 
HETATM   16  H   UNL     1     -10.191   6.072  71.844  1.00  0.00     0.000 HD 
HETATM   17  C   UNL     1      -8.724   5.397  69.157  1.00  0.00    -0.104 C  
HETATM   18  C   UNL     1      -7.511   4.453  69.160  1.00  0.00    -0.055 C  
HETATM   19  C   UNL     1      -6.311   4.852  68.322  1.00  0.00    -0.036 C  
HETATM   20  O   UNL     1      -5.340   5.554  69.098  1.00  0.00    -0.003 OA 
HETATM   21  C   UNL     1      -6.671   5.612  67.052  1.00  0.00    -0.062 C  
HETATM   22  C   UNL     1      -7.948   6.537  67.081  1.00  0.00    -0.112 C  
HETATM   23  H   UNL     1      -4.588   5.804  68.573  1.00  0.00     0.000 HD 
HETATM   24  C   UNL     1      -9.230   5.965  67.782  1.00  0.00    -0.108 C  
HETATM   25  C   UNL     1      -9.769   4.815  66.889  1.00  0.00    -0.204 C  
HETATM   26  C   UNL     1     -10.522   6.955  68.161  1.00  0.00    -0.243 C  
ENDROOT
BRANCH   4  27
HETATM   27  C   UNL     1     -13.401  13.909  72.486  1.00  0.00    -0.656 C  
HETATM   28  O   UNL     1     -13.313  16.120  73.328  1.00  0.00    -0.563 OA 
HETATM   29  C   UNL     1     -13.427  15.368  72.207  1.00  0.00    -0.472 C  
HETATM   30  O   UNL     1     -13.551  15.893  71.101  1.00  0.00    -0.478 OA 
ENDBRANCH   4  27
TORSDOF 1
ENDMDL
MODEL       86
REMARK 921   NORMALIZED FREE ENERGY PREDICTED BY IDOCK:   18.65 KCAL/MOL
REMARK 922        TOTAL FREE ENERGY PREDICTED BY IDOCK:   19.94 KCAL/MOL
REMARK 923 INTER-LIGAND FREE ENERGY PREDICTED BY IDOCK:   20.04 KCAL/MOL
REMARK 924 INTRA-LIGAND FREE ENERGY PREDICTED BY IDOCK:   -0.10 KCAL/MOL
REMARK 927      BINDING AFFINITY PREDICTED BY RF-SCORE:    0.00 PKD
ROOT
HETATM    1  C   UNL     1     -12.293   8.455  69.648  1.00  0.00     1.863 C  
HETATM    2  C   UNL     1     -11.529   9.771  70.656  1.00  0.00    -0.397 C  
HETATM    3  C   UNL     1     -11.350   7.458  70.272  1.00  0.00    -0.244 C  
HETATM    4  C   UNL     1     -12.181  11.202  70.578  1.00  0.00    -0.475 C  
HETATM    5  C   UNL     1     -10.039   7.623  69.510  1.00  0.00    -0.192 C  
HETATM    6  C   UNL     1     -11.397   9.469  72.203  1.00  0.00     0.255 C  
HETATM    7  C   UNL     1     -10.527   7.012  68.247  1.00  0.00    -0.237 C  
HETATM    8  C   UNL     1     -12.136   8.759  66.899  1.00  0.00     6.565 C  
HETATM    9  C   UNL     1      -9.572   6.479  67.193  1.00  0.00    -0.162 C  
HETATM   10  C   UNL     1     -11.884   7.698  67.994  1.00  0.00     2.159 C  
HETATM   11  C   UNL     1     -12.626   6.396  67.373  1.00  0.00     7.121 C  
HETATM   12  C   UNL     1      -8.354   5.960  67.983  1.00  0.00    -0.111 C  
HETATM   13  C   UNL     1     -11.766   5.684  66.127  1.00  0.00     1.695 C  
HETATM   14  C   UNL     1      -7.381   5.211  67.142  1.00  0.00    -0.082 C  
HETATM   15  O   UNL     1      -8.795   5.056  69.017  1.00  0.00    -0.091 OA 
HETATM   16  H   UNL     1      -8.044   4.736  69.504  1.00  0.00     0.000 HD 
HETATM   17  C   UNL     1      -8.025   3.998  66.458  1.00  0.00    -0.097 C  
HETATM   18  C   UNL     1      -6.861   3.184  65.872  1.00  0.00    -0.048 C  
HETATM   19  C   UNL     1      -6.293   3.632  64.538  1.00  0.00    -0.024 C  
HETATM   20  O   UNL     1      -5.164   4.488  64.710  1.00  0.00    -0.012 OA 
HETATM   21  C   UNL     1      -7.327   4.248  63.605  1.00  0.00    -0.054 C  
HETATM   22  C   UNL     1      -8.528   5.040  64.250  1.00  0.00    -0.138 C  
HETATM   23  H   UNL     1      -4.808   4.769  63.875  1.00  0.00     0.000 HD 
HETATM   24  C   UNL     1      -9.211   4.401  65.510  1.00  0.00    -0.150 C  
HETATM   25  C   UNL     1      -9.971   3.135  65.029  1.00  0.00     0.095 C  
HETATM   26  C   UNL     1     -10.261   5.284  66.465  1.00  0.00    -0.293 C  
ENDROOT
BRANCH   4  27
HETATM   27  C   UNL     1     -11.481  12.240  71.513  1.00  0.00     2.866 C  
HETATM   28  O   UNL     1     -11.410  14.471  72.303  1.00  0.00     0.284 OA 
HETATM   29  C   UNL     1     -11.982  13.634  71.405  1.00  0.00     0.260 C  
HETATM   30  O   UNL     1     -12.834  14.039  70.614  1.00  0.00    -0.316 OA 
ENDBRANCH   4  27
TORSDOF 1
ENDMDL
MODEL       87
REMARK 921   NORMALIZED FREE ENERGY PREDICTED BY IDOCK:   19.87 KCAL/MOL
REMARK 922        TOTAL FREE ENERGY PREDICTED BY IDOCK:   21.23 KCAL/MOL
REMARK 923 INTER-LIGAND FREE ENERGY PREDICTED BY IDOCK:   21.35 KCAL/MOL
REMARK 924 INTRA-LIGAND FREE ENERGY PREDICTED BY IDOCK:   -0.12 KCAL/MOL
REMARK 927      BINDING AFFINITY PREDICTED BY RF-SCORE:    0.00 PKD
ROOT
HETATM    1  C   UNL     1     -12.267  11.122  70.397  1.00  0.00    -0.457 C  
HETATM    2  C   UNL     1     -11.610   9.706  69.451  1.00  0.00     0.150 C  
HETATM    3  C   UNL     1     -12.628  11.795  69.098  1.00  0.00     0.505 C  
HETATM    4  C   UNL     1     -11.128   8.455  70.278  1.00  0.00    -0.216 C  
HETATM    5  C   UNL     1     -11.327  12.415  68.598  1.00  0.00    -0.332 C  
HETATM    6  C   UNL     1     -12.566   9.113  68.340  1.00  0.00     5.848 C  
HETATM    7  C   UNL     1     -11.271  13.483  69.628  1.00  0.00    -0.128 C  
HETATM    8  C   UNL     1     -10.470  12.456  72.029  1.00  0.00    11.695 C  
HETATM    9  C   UNL     1     -10.423  14.730  69.443  1.00  0.00    -0.210 C  
HETATM   10  C   UNL     1     -11.542  12.746  70.954  1.00  0.00     0.887 C  
HETATM   11  C   UNL     1     -12.394  13.940  71.648  1.00  0.00    -0.270 C  
HETATM   12  C   UNL     1     -10.435  15.001  67.926  1.00  0.00    -0.247 C  
HETATM   13  C   UNL     1     -11.600  15.412  71.619  1.00  0.00    -0.492 C  
HETATM   14  C   UNL     1      -9.821  16.305  67.554  1.00  0.00    -0.238 C  
HETATM   15  O   UNL     1     -11.797  15.029  67.448  1.00  0.00    -0.339 OA 
HETATM   16  H   UNL     1     -11.805  15.196  66.513  1.00  0.00     0.000 HD 
HETATM   17  C   UNL     1     -10.528  17.487  68.229  1.00  0.00    -0.383 C  
HETATM   18  C   UNL     1      -9.979  18.747  67.541  1.00  0.00    -0.382 C  
HETATM   19  C   UNL     1      -8.639  19.278  68.017  1.00  0.00    -0.321 C  
HETATM   20  O   UNL     1      -7.565  18.784  67.216  1.00  0.00    -0.221 OA 
HETATM   21  C   UNL     1      -8.381  19.057  69.501  1.00  0.00     0.334 C  
HETATM   22  C   UNL     1      -8.997  17.772  70.176  1.00  0.00     2.500 C  
HETATM   23  H   UNL     1      -6.726  19.117  67.514  1.00  0.00     0.000 HD 
HETATM   24  C   UNL     1     -10.476  17.405  69.797  1.00  0.00     0.261 C  
HETATM   25  C   UNL     1     -11.394  18.488  70.425  1.00  0.00     4.484 C  
HETATM   26  C   UNL     1     -11.121  15.912  70.184  1.00  0.00    -0.369 C  
ENDROOT
BRANCH   4  27
HETATM   27  C   UNL     1     -10.629   7.284  69.371  1.00  0.00    -0.238 C  
HETATM   28  O   UNL     1     -10.568   4.947  68.999  1.00  0.00    -0.035 OA 
HETATM   29  C   UNL     1     -10.935   5.919  69.868  1.00  0.00    -0.374 C  
HETATM   30  O   UNL     1     -11.477   5.642  70.938  1.00  0.00    -0.059 OA 
ENDBRANCH   4  27
TORSDOF 1
ENDMDL
MODEL       88
REMARK 921   NORMALIZED FREE ENERGY PREDICTED BY IDOCK:   26.36 KCAL/MOL
REMARK 922        TOTAL FREE ENERGY PREDICTED BY IDOCK:   28.10 KCAL/MOL
REMARK 923 INTER-LIGAND FREE ENERGY PREDICTED BY IDOCK:   25.58 KCAL/MOL
REMARK 924 INTRA-LIGAND FREE ENERGY PREDICTED BY IDOCK:    2.52 KCAL/MOL
REMARK 927      BINDING AFFINITY PREDICTED BY RF-SCORE:    0.00 PKD
ROOT
HETATM    1  C   UNL     1     -10.731  12.567  67.604  1.00  0.00    -0.242 C  
HETATM    2  C   UNL     1      -9.811  13.289  69.005  1.00  0.00     0.229 C  
HETATM    3  C   UNL     1     -10.936  11.312  68.413  1.00  0.00    -0.268 C  
HETATM    4  C   UNL     1      -9.361  14.792  68.867  1.00  0.00    -0.184 C  
HETATM    5  C   UNL     1      -9.630  10.536  68.277  1.00  0.00    -0.164 C  
HETATM    6  C   UNL     1     -10.522  13.207  70.415  1.00  0.00     2.563 C  
HETATM    7  C   UNL     1      -9.831  10.160  66.854  1.00  0.00    -0.244 C  
HETATM    8  C   UNL     1      -9.340  12.296  65.224  1.00  0.00     0.169 C  
HETATM    9  C   UNL     1      -9.076   9.008  66.215  1.00  0.00    -0.224 C  
HETATM   10  C   UNL     1     -10.246  11.478  66.170  1.00  0.00    -0.272 C  
HETATM   11  C   UNL     1     -11.298  10.811  65.130  1.00  0.00     0.577 C  
HETATM   12  C   UNL     1      -8.868   7.986  67.351  1.00  0.00    -0.131 C  
HETATM   13  C   UNL     1     -10.640   9.547  64.254  1.00  0.00     3.222 C  
HETATM   14  C   UNL     1      -8.318   6.686  66.881  1.00  0.00    -0.114 C  
HETATM   15  O   UNL     1     -10.133   7.700  67.984  1.00  0.00    -0.172 OA 
HETATM   16  H   UNL     1     -10.006   7.070  68.684  1.00  0.00     0.000 HD 
HETATM   17  C   UNL     1      -9.222   6.021  65.836  1.00  0.00    -0.084 C  
HETATM   18  C   UNL     1      -8.681   4.593  65.666  1.00  0.00    -0.127 C  
HETATM   19  C   UNL     1      -7.486   4.400  64.751  1.00  0.00    -0.072 C  
HETATM   20  O   UNL     1      -6.259   4.416  65.481  1.00  0.00    -0.026 OA 
HETATM   21  C   UNL     1      -7.450   5.365  63.573  1.00  0.00    -0.056 C  
HETATM   22  C   UNL     1      -8.054   6.807  63.779  1.00  0.00     0.003 C  
HETATM   23  H   UNL     1      -5.510   4.295  64.908  1.00  0.00     0.000 HD 
HETATM   24  C   UNL     1      -9.415   6.908  64.554  1.00  0.00     2.092 C  
HETATM   25  C   UNL     1     -10.512   6.302  63.638  1.00  0.00     6.368 C  
HETATM   26  C   UNL     1      -9.983   8.377  65.114  1.00  0.00     1.625 C  
ENDROOT
BRANCH   4  27
HETATM   27  C   UNL     1      -8.624  15.324  70.138  1.00  0.00     0.581 C  
HETATM   28  O   UNL     1      -8.761  15.832  72.447  1.00  0.00     7.680 OA 
HETATM   29  C   UNL     1      -9.469  15.461  71.353  1.00  0.00     3.001 C  
HETATM   30  O   UNL     1     -10.681  15.258  71.420  1.00  0.00    -0.148 OA 
ENDBRANCH   4  27
TORSDOF 1
ENDMDL
MODEL       89
REMARK 921   NORMALIZED FREE ENERGY PREDICTED BY IDOCK:   33.59 KCAL/MOL
REMARK 922        TOTAL FREE ENERGY PREDICTED BY IDOCK:   35.76 KCAL/MOL
REMARK 923 INTER-LIGAND FREE ENERGY PREDICTED BY IDOCK:   35.88 KCAL/MOL
REMARK 924 INTRA-LIGAND FREE ENERGY PREDICTED BY IDOCK:   -0.12 KCAL/MOL
REMARK 927      BINDING AFFINITY PREDICTED BY RF-SCORE:    0.00 PKD
ROOT
HETATM    1  C   UNL     1      -8.851  11.885  71.007  1.00  0.00     9.724 C  
HETATM    2  C   UNL     1      -7.474  12.828  70.271  1.00  0.00     2.406 C  
HETATM    3  C   UNL     1      -7.986  11.596  72.206  1.00  0.00    15.039 C  
HETATM    4  C   UNL     1      -7.765  13.584  68.921  1.00  0.00     0.030 C  
HETATM    5  C   UNL     1      -7.092  10.436  71.779  1.00  0.00     2.622 C  
HETATM    6  C   UNL     1      -6.801  13.913  71.206  1.00  0.00     1.692 C  
HETATM    7  C   UNL     1      -8.170   9.414  71.779  1.00  0.00     0.726 C  
HETATM    8  C   UNL     1      -9.752   9.694  69.570  1.00  0.00    -0.216 C  
HETATM    9  C   UNL     1      -7.865   7.928  71.847  1.00  0.00    -0.120 C  
HETATM   10  C   UNL     1      -9.323  10.081  71.003  1.00  0.00     1.037 C  
HETATM   11  C   UNL     1     -10.523   9.446  71.892  1.00  0.00     0.074 C  
HETATM   12  C   UNL     1      -6.582   7.821  72.694  1.00  0.00    -0.066 C  
HETATM   13  C   UNL     1     -10.420   7.782  72.037  1.00  0.00    -0.277 C  
HETATM   14  C   UNL     1      -6.225   6.420  73.049  1.00  0.00    -0.055 C  
HETATM   15  O   UNL     1      -6.759   8.534  73.936  1.00  0.00    -0.163 OA 
HETATM   16  H   UNL     1      -5.967   8.468  74.458  1.00  0.00     0.000 HD 
HETATM   17  C   UNL     1      -7.343   5.721  73.833  1.00  0.00    -0.089 C  
HETATM   18  C   UNL     1      -6.726   4.416  74.362  1.00  0.00    -0.064 C  
HETATM   19  C   UNL     1      -6.660   3.237  73.409  1.00  0.00    -0.030 C  
HETATM   20  O   UNL     1      -5.396   3.168  72.748  1.00  0.00     0.000 OA 
HETATM   21  C   UNL     1      -7.816   3.178  72.420  1.00  0.00    -0.059 C  
HETATM   22  C   UNL     1      -8.445   4.540  71.935  1.00  0.00    -0.116 C  
HETATM   23  H   UNL     1      -5.355   2.429  72.151  1.00  0.00     0.000 HD 
HETATM   24  C   UNL     1      -8.687   5.643  73.025  1.00  0.00    -0.121 C  
HETATM   25  C   UNL     1      -9.838   5.143  73.939  1.00  0.00    -0.175 C  
HETATM   26  C   UNL     1      -9.037   7.220  72.595  1.00  0.00    -0.169 C  
ENDROOT
BRANCH   4  27
HETATM   27  C   UNL     1      -6.535  14.398  68.403  1.00  0.00    -0.102 C  
HETATM   28  O   UNL     1      -5.142  14.939  66.567  1.00  0.00     1.406 OA 
HETATM   29  C   UNL     1      -6.149  14.140  66.992  1.00  0.00     1.208 C  
HETATM   30  O   UNL     1      -6.664  13.313  66.240  1.00  0.00     1.736 OA 
ENDBRANCH   4  27
TORSDOF 1
ENDMDL
MODEL       90
REMARK 921   NORMALIZED FREE ENERGY PREDICTED BY IDOCK:   35.43 KCAL/MOL
REMARK 922        TOTAL FREE ENERGY PREDICTED BY IDOCK:   37.70 KCAL/MOL
REMARK 923 INTER-LIGAND FREE ENERGY PREDICTED BY IDOCK:   31.65 KCAL/MOL
REMARK 924 INTRA-LIGAND FREE ENERGY PREDICTED BY IDOCK:    6.05 KCAL/MOL
REMARK 927      BINDING AFFINITY PREDICTED BY RF-SCORE:    0.00 PKD
ROOT
HETATM    1  C   UNL     1     -11.135   7.389  68.305  1.00  0.00     0.121 C  
HETATM    2  C   UNL     1     -10.082   6.843  66.919  1.00  0.00    -0.286 C  
HETATM    3  C   UNL     1     -11.574   8.571  67.480  1.00  0.00     2.073 C  
HETATM    4  C   UNL     1      -9.350   5.458  67.079  1.00  0.00    -0.121 C  
HETATM    5  C   UNL     1     -10.444   9.587  67.613  1.00  0.00    -0.321 C  
HETATM    6  C   UNL     1     -10.784   6.769  65.504  1.00  0.00     3.037 C  
HETATM    7  C   UNL     1     -10.726   9.933  69.030  1.00  0.00    -0.244 C  
HETATM    8  C   UNL     1      -9.842   7.952  70.690  1.00  0.00    -0.187 C  
HETATM    9  C   UNL     1     -10.213  11.217  69.658  1.00  0.00     0.262 C  
HETATM   10  C   UNL     1     -10.883   8.568  69.728  1.00  0.00    -0.177 C  
HETATM   11  C   UNL     1     -12.052   9.029  70.754  1.00  0.00    -0.169 C  
HETATM   12  C   UNL     1     -10.200  12.246  68.511  1.00  0.00    -0.206 C  
HETATM   13  C   UNL     1     -11.659  10.407  71.617  1.00  0.00     0.284 C  
HETATM   14  C   UNL     1      -9.916  13.634  68.967  1.00  0.00     0.088 C  
HETATM   15  O   UNL     1     -11.491  12.274  67.868  1.00  0.00    -0.284 OA 
HETATM   16  H   UNL     1     -11.483  12.909  67.160  1.00  0.00     0.000 HD 
HETATM   17  C   UNL     1     -10.940  14.123  69.999  1.00  0.00     0.073 C  
HETATM   18  C   UNL     1     -10.688  15.631  70.154  1.00  0.00    -0.355 C  
HETATM   19  C   UNL     1      -9.560  16.062  71.072  1.00  0.00     2.558 C  
HETATM   20  O   UNL     1      -8.348  16.277  70.349  1.00  0.00     1.531 OA 
HETATM   21  C   UNL     1      -9.347  15.136  72.263  1.00  0.00     5.837 C  
HETATM   22  C   UNL     1      -9.657  13.602  72.072  1.00  0.00    11.351 C  
HETATM   23  H   UNL     1      -7.641  16.547  70.924  1.00  0.00     0.000 HD 
HETATM   24  C   UNL     1     -10.967  13.230  71.291  1.00  0.00     3.611 C  
HETATM   25  C   UNL     1     -12.168  13.622  72.193  1.00  0.00     0.326 C  
HETATM   26  C   UNL     1     -11.235  11.672  70.747  1.00  0.00     1.180 C  
ENDROOT
BRANCH   4  27
HETATM   27  C   UNL     1      -8.514   5.065  65.818  1.00  0.00    -0.124 C  
HETATM   28  O   UNL     1      -7.932   5.578  63.581  1.00  0.00    -0.097 OA 
HETATM   29  C   UNL     1      -8.750   5.899  64.612  1.00  0.00     0.124 C  
HETATM   30  O   UNL     1      -9.575   6.806  64.508  1.00  0.00     1.762 OA 
ENDBRANCH   4  27
TORSDOF 1
ENDMDL
MODEL       91
REMARK 921   NORMALIZED FREE ENERGY PREDICTED BY IDOCK:   54.38 KCAL/MOL
REMARK 922        TOTAL FREE ENERGY PREDICTED BY IDOCK:   57.76 KCAL/MOL
REMARK 923 INTER-LIGAND FREE ENERGY PREDICTED BY IDOCK:   57.88 KCAL/MOL
REMARK 924 INTRA-LIGAND FREE ENERGY PREDICTED BY IDOCK:   -0.12 KCAL/MOL
REMARK 927      BINDING AFFINITY PREDICTED BY RF-SCORE:    0.00 PKD
ROOT
HETATM    1  C   UNL     1     -11.379  11.913  70.298  1.00  0.00     0.153 C  
HETATM    2  C   UNL     1     -10.080  10.631  70.278  1.00  0.00     0.481 C  
HETATM    3  C   UNL     1     -11.754  11.526  68.890  1.00  0.00    -0.403 C  
HETATM    4  C   UNL     1      -9.295  10.387  71.621  1.00  0.00     4.885 C  
HETATM    5  C   UNL     1     -10.729  12.226  68.002  1.00  0.00    -0.245 C  
HETATM    6  C   UNL     1     -10.536   9.192  69.808  1.00  0.00    -0.240 C  
HETATM    7  C   UNL     1     -11.260  13.596  68.220  1.00  0.00    -0.302 C  
HETATM    8  C   UNL     1     -10.531  14.522  70.684  1.00  0.00     0.770 C  
HETATM    9  C   UNL     1     -10.942  14.739  67.271  1.00  0.00    -0.318 C  
HETATM   10  C   UNL     1     -11.439  13.694  69.748  1.00  0.00    -0.256 C  
HETATM   11  C   UNL     1     -12.787  14.595  69.709  1.00  0.00     0.095 C  
HETATM   12  C   UNL     1     -10.809  14.081  65.883  1.00  0.00    -0.288 C  
HETATM   13  C   UNL     1     -12.631  15.966  68.763  1.00  0.00     0.884 C  
HETATM   14  C   UNL     1     -10.694  15.065  64.773  1.00  0.00    -0.354 C  
HETATM   15  O   UNL     1     -11.977  13.279  65.611  1.00  0.00    -0.367 OA 
HETATM   16  H   UNL     1     -11.895  12.874  64.756  1.00  0.00     0.000 HD 
HETATM   17  C   UNL     1     -11.903  16.008  64.712  1.00  0.00     0.139 C  
HETATM   18  C   UNL     1     -11.778  16.757  63.375  1.00  0.00     4.625 C  
HETATM   19  C   UNL     1     -10.845  17.953  63.327  1.00  0.00    11.979 C  
HETATM   20  O   UNL     1      -9.549  17.587  62.855  1.00  0.00    13.525 OA 
HETATM   21  C   UNL     1     -10.769  18.728  64.636  1.00  0.00     3.002 C  
HETATM   22  C   UNL     1     -10.943  17.926  65.982  1.00  0.00     0.251 C  
HETATM   23  H   UNL     1      -8.964  18.337  62.825  1.00  0.00     0.000 HD 
HETATM   24  C   UNL     1     -12.081  16.846  66.028  1.00  0.00     3.072 C  
HETATM   25  C   UNL     1     -13.436  17.603  66.006  1.00  0.00    13.825 C  
HETATM   26  C   UNL     1     -12.154  15.721  67.262  1.00  0.00     0.864 C  
ENDROOT
BRANCH   4  27
HETATM   27  C   UNL     1      -8.241   9.239  71.507  1.00  0.00     0.235 C  
HETATM   28  O   UNL     1      -6.015   8.539  71.908  1.00  0.00    -0.044 OA 
HETATM   29  C   UNL     1      -6.864   9.595  71.934  1.00  0.00     0.715 C  
HETATM   30  O   UNL     1      -6.482  10.707  72.297  1.00  0.00     1.196 OA 
ENDBRANCH   4  27
TORSDOF 1
ENDMDL
