MODEL        1
REMARK 921   NORMALIZED FREE ENERGY PREDICTED BY IDOCK:   -7.16 KCAL/MOL
REMARK 922        TOTAL FREE ENERGY PREDICTED BY IDOCK:  -10.63 KCAL/MOL
REMARK 923 INTER-LIGAND FREE ENERGY PREDICTED BY IDOCK:  -10.09 KCAL/MOL
REMARK 924 INTRA-LIGAND FREE ENERGY PREDICTED BY IDOCK:   -0.54 KCAL/MOL
REMARK 927      BINDING AFFINITY PREDICTED BY RF-SCORE:    0.00 PKD
ROOT
HETATM    1  C   UNL     1     -11.485  12.787  63.457  1.00  0.00    -0.521 C  
HETATM    2  C   UNL     1     -10.913  13.162  64.829  1.00  0.00    -0.355 C  
HETATM    3  C   UNL     1     -11.606  14.397  65.456  1.00  0.00    -0.347 C  
HETATM    4  C   UNL     1     -10.972  11.945  65.762  1.00  0.00    -0.359 C  
HETATM    5  H1  UNL     1     -13.499  14.960  66.110  1.00  0.00     0.000 HD 
HETATM    6  N   UNL     1     -13.044  14.147  65.697  1.00  0.00    -0.621 NA 
HETATM    7  H2  UNL     1     -13.187  13.310  66.264  1.00  0.00     0.000 HD 
ENDROOT
BRANCH   3   8
HETATM    8  C   UNL     1     -11.439  15.673  64.598  1.00  0.00    -0.303 C  
HETATM    9  O   UNL     1     -12.242  16.068  63.761  1.00  0.00    -0.895 OA 
BRANCH   8  10
HETATM   10  O   UNL     1     -10.304  16.349  64.942  1.00  0.00    -0.590 OA 
BRANCH  10  11
HETATM   11  C   UNL     1      -9.739  15.972  66.214  1.00  0.00    -0.306 C  
BRANCH  11  12
HETATM   12  C   UNL     1      -9.763  17.156  67.183  1.00  0.00    -0.261 C  
BRANCH  12  13
HETATM   13  O   UNL     1     -10.868  16.975  68.073  1.00  0.00    -0.371 OA 
BRANCH  13  14
HETATM   14  C   UNL     1     -10.443  16.604  69.385  1.00  0.00    -0.320 C  
BRANCH  14  15
HETATM   15  N   UNL     1     -11.366  15.628  69.935  1.00  0.00    -0.306 NA 
HETATM   16  C   UNL     1     -11.799  14.496  69.280  1.00  0.00    -0.323 A  
HETATM   17  N   UNL     1     -12.607  13.766  70.028  1.00  0.00    -0.224 NA 
HETATM   18  C   UNL     1     -12.701  14.451  71.223  1.00  0.00    -0.344 A  
HETATM   19  C   UNL     1     -11.955  15.595  71.156  1.00  0.00    -0.409 A  
HETATM   20  N   UNL     1     -11.862  16.455  72.177  1.00  0.00    -0.505 NA 
HETATM   21  C   UNL     1     -12.508  16.110  73.333  1.00  0.00    -0.555 C  
HETATM   22  N   UNL     1     -12.306  16.993  74.345  1.00  0.00    -0.508 NA 
HETATM   23  N   UNL     1     -13.243  15.053  73.513  1.00  0.00    -0.435 N  
HETATM   24  H2  UNL     1     -11.731  17.831  74.252  1.00  0.00     0.000 HD 
HETATM   25  H1  UNL     1     -12.787  16.737  75.206  1.00  0.00     0.000 HD 
HETATM   26  C   UNL     1     -13.424  14.136  72.466  1.00  0.00    -0.534 C  
HETATM   27  H   UNL     1     -13.690  14.891  74.416  1.00  0.00     0.000 HD 
HETATM   28  O   UNL     1     -14.132  13.142  72.580  1.00  0.00    -0.701 OA 
ENDBRANCH  14  15
ENDBRANCH  13  14
ENDBRANCH  12  13
ENDBRANCH  11  12
ENDBRANCH  10  11
ENDBRANCH   8  10
ENDBRANCH   3   8
TORSDOF 7
ENDMDL
MODEL        2
REMARK 921   NORMALIZED FREE ENERGY PREDICTED BY IDOCK:   -7.10 KCAL/MOL
REMARK 922        TOTAL FREE ENERGY PREDICTED BY IDOCK:  -10.55 KCAL/MOL
REMARK 923 INTER-LIGAND FREE ENERGY PREDICTED BY IDOCK:   -9.63 KCAL/MOL
REMARK 924 INTRA-LIGAND FREE ENERGY PREDICTED BY IDOCK:   -0.92 KCAL/MOL
REMARK 927      BINDING AFFINITY PREDICTED BY RF-SCORE:    0.00 PKD
ROOT
HETATM    1  C   UNL     1     -11.594  15.431  72.334  1.00  0.00    -0.545 C  
HETATM    2  C   UNL     1     -12.988  15.411  71.699  1.00  0.00    -0.513 C  
HETATM    3  C   UNL     1     -13.361  14.032  71.100  1.00  0.00    -0.223 C  
HETATM    4  C   UNL     1     -14.029  15.883  72.723  1.00  0.00    -0.461 C  
HETATM    5  H1  UNL     1     -13.647  12.075  71.748  1.00  0.00     0.000 HD 
HETATM    6  N   UNL     1     -13.401  12.983  72.142  1.00  0.00    -0.522 NA 
HETATM    7  H2  UNL     1     -14.027  13.240  72.906  1.00  0.00     0.000 HD 
ENDROOT
BRANCH   3   8
HETATM    8  C   UNL     1     -12.405  13.598  69.964  1.00  0.00    -0.278 C  
HETATM    9  O   UNL     1     -12.014  14.323  69.057  1.00  0.00    -0.319 OA 
BRANCH   8  10
HETATM   10  O   UNL     1     -11.993  12.308  70.137  1.00  0.00    -0.334 OA 
BRANCH  10  11
HETATM   11  C   UNL     1     -11.823  11.561  68.916  1.00  0.00    -0.341 C  
BRANCH  11  12
HETATM   12  C   UNL     1     -10.384  11.057  68.791  1.00  0.00    -0.199 C  
BRANCH  12  13
HETATM   13  O   UNL     1      -9.540  12.186  68.549  1.00  0.00    -0.198 OA 
BRANCH  13  14
HETATM   14  C   UNL     1      -9.074  12.226  67.200  1.00  0.00    -0.193 C  
BRANCH  14  15
HETATM   15  N   UNL     1      -9.550  13.438  66.558  1.00  0.00    -0.272 NA 
HETATM   16  C   UNL     1      -9.033  14.697  66.769  1.00  0.00    -0.257 A  
HETATM   17  N   UNL     1      -9.632  15.612  66.028  1.00  0.00    -0.326 NA 
HETATM   18  C   UNL     1     -10.577  14.918  65.300  1.00  0.00    -0.401 A  
HETATM   19  C   UNL     1     -10.535  13.594  65.638  1.00  0.00    -0.299 A  
HETATM   20  N   UNL     1     -11.343  12.683  65.085  1.00  0.00    -0.299 NA 
HETATM   21  C   UNL     1     -12.192  13.126  64.107  1.00  0.00    -0.398 C  
HETATM   22  N   UNL     1     -12.926  12.133  63.543  1.00  0.00    -0.784 NA 
HETATM   23  N   UNL     1     -12.320  14.355  63.704  1.00  0.00    -1.106 N  
HETATM   24  H2  UNL     1     -12.853  11.154  63.821  1.00  0.00     0.000 HD 
HETATM   25  H1  UNL     1     -13.558  12.463  62.814  1.00  0.00     0.000 HD 
HETATM   26  C   UNL     1     -11.536  15.368  64.279  1.00  0.00    -0.191 C  
HETATM   27  H   UNL     1     -12.990  14.584  62.969  1.00  0.00     0.000 HD 
HETATM   28  O   UNL     1     -11.644  16.545  63.952  1.00  0.00    -1.175 OA 
ENDBRANCH  14  15
ENDBRANCH  13  14
ENDBRANCH  12  13
ENDBRANCH  11  12
ENDBRANCH  10  11
ENDBRANCH   8  10
ENDBRANCH   3   8
TORSDOF 7
ENDMDL
MODEL        3
REMARK 921   NORMALIZED FREE ENERGY PREDICTED BY IDOCK:   -6.84 KCAL/MOL
REMARK 922        TOTAL FREE ENERGY PREDICTED BY IDOCK:  -10.18 KCAL/MOL
REMARK 923 INTER-LIGAND FREE ENERGY PREDICTED BY IDOCK:   -9.12 KCAL/MOL
REMARK 924 INTRA-LIGAND FREE ENERGY PREDICTED BY IDOCK:   -1.06 KCAL/MOL
REMARK 927      BINDING AFFINITY PREDICTED BY RF-SCORE:    0.00 PKD
ROOT
HETATM    1  C   UNL     1      -9.812  14.558  65.808  1.00  0.00    -0.343 C  
HETATM    2  C   UNL     1     -10.969  14.825  64.840  1.00  0.00    -0.425 C  
HETATM    3  C   UNL     1     -12.237  13.998  65.168  1.00  0.00    -0.436 C  
HETATM    4  C   UNL     1     -11.270  16.330  64.798  1.00  0.00    -0.267 C  
HETATM    5  H1  UNL     1     -13.607  13.793  66.720  1.00  0.00     0.000 HD 
HETATM    6  N   UNL     1     -12.773  14.337  66.505  1.00  0.00    -0.433 NA 
HETATM    7  H2  UNL     1     -12.946  15.339  66.595  1.00  0.00     0.000 HD 
ENDROOT
BRANCH   3   8
HETATM    8  C   UNL     1     -11.994  12.474  65.078  1.00  0.00    -0.427 C  
HETATM    9  O   UNL     1     -11.673  11.871  64.060  1.00  0.00    -0.384 OA 
BRANCH   8  10
HETATM   10  O   UNL     1     -12.118  11.885  66.302  1.00  0.00    -0.535 OA 
BRANCH  10  11
HETATM   11  C   UNL     1     -10.909  11.281  66.806  1.00  0.00    -0.282 C  
BRANCH  11  12
HETATM   12  C   UNL     1     -11.226  10.328  67.960  1.00  0.00    -0.235 C  
BRANCH  12  13
HETATM   13  O   UNL     1     -12.158  10.979  68.827  1.00  0.00    -0.518 OA 
BRANCH  13  14
HETATM   14  C   UNL     1     -11.712  10.988  70.184  1.00  0.00    -0.356 C  
BRANCH  14  15
HETATM   15  N   UNL     1     -12.456  11.985  70.932  1.00  0.00    -0.347 NA 
HETATM   16  C   UNL     1     -13.245  11.719  72.030  1.00  0.00    -0.355 A  
HETATM   17  N   UNL     1     -13.777  12.816  72.537  1.00  0.00    -0.494 NA 
HETATM   18  C   UNL     1     -13.312  13.841  71.738  1.00  0.00    -0.383 A  
HETATM   19  C   UNL     1     -12.519  13.328  70.750  1.00  0.00    -0.324 A  
HETATM   20  N   UNL     1     -11.929  14.096  69.827  1.00  0.00    -0.319 NA 
HETATM   21  C   UNL     1     -12.107  15.448  69.947  1.00  0.00    -0.355 C  
HETATM   22  N   UNL     1     -11.420  16.164  69.020  1.00  0.00    -0.345 NA 
HETATM   23  N   UNL     1     -12.836  16.048  70.841  1.00  0.00    -0.544 N  
HETATM   24  H2  UNL     1     -10.830  15.737  68.306  1.00  0.00     0.000 HD 
HETATM   25  H1  UNL     1     -11.552  17.171  69.109  1.00  0.00     0.000 HD 
HETATM   26  C   UNL     1     -13.522  15.295  71.808  1.00  0.00    -0.463 C  
HETATM   27  H   UNL     1     -12.909  17.065  70.840  1.00  0.00     0.000 HD 
HETATM   28  O   UNL     1     -14.244  15.815  72.651  1.00  0.00    -0.554 OA 
ENDBRANCH  14  15
ENDBRANCH  13  14
ENDBRANCH  12  13
ENDBRANCH  11  12
ENDBRANCH  10  11
ENDBRANCH   8  10
ENDBRANCH   3   8
TORSDOF 7
ENDMDL
MODEL        4
REMARK 921   NORMALIZED FREE ENERGY PREDICTED BY IDOCK:   -6.84 KCAL/MOL
REMARK 922        TOTAL FREE ENERGY PREDICTED BY IDOCK:  -10.18 KCAL/MOL
REMARK 923 INTER-LIGAND FREE ENERGY PREDICTED BY IDOCK:   -8.93 KCAL/MOL
REMARK 924 INTRA-LIGAND FREE ENERGY PREDICTED BY IDOCK:   -1.25 KCAL/MOL
REMARK 927      BINDING AFFINITY PREDICTED BY RF-SCORE:    0.00 PKD
ROOT
HETATM    1  C   UNL     1     -12.994  13.688  65.493  1.00  0.00    -0.325 C  
HETATM    2  C   UNL     1     -12.044  13.592  64.295  1.00  0.00    -0.480 C  
HETATM    3  C   UNL     1     -10.642  14.184  64.586  1.00  0.00    -0.368 C  
HETATM    4  C   UNL     1     -11.956  12.135  63.822  1.00  0.00    -0.607 C  
HETATM    5  H1  UNL     1      -9.037  13.839  65.865  1.00  0.00     0.000 HD 
HETATM    6  N   UNL     1      -9.959  13.450  65.674  1.00  0.00    -0.417 NA 
HETATM    7  H2  UNL     1      -9.909  12.450  65.476  1.00  0.00     0.000 HD 
ENDROOT
BRANCH   3   8
HETATM    8  C   UNL     1     -10.691  15.691  64.929  1.00  0.00    -0.382 C  
HETATM    9  O   UNL     1     -11.402  16.518  64.370  1.00  0.00    -0.921 OA 
BRANCH   8  10
HETATM   10  O   UNL     1      -9.882  15.979  65.990  1.00  0.00    -0.292 OA 
BRANCH  10  11
HETATM   11  C   UNL     1     -10.473  16.841  66.983  1.00  0.00    -0.285 C  
BRANCH  11  12
HETATM   12  C   UNL     1      -9.605  16.883  68.242  1.00  0.00    -0.258 C  
BRANCH  12  13
HETATM   13  O   UNL     1     -10.445  16.613  69.367  1.00  0.00    -0.308 OA 
BRANCH  13  14
HETATM   14  C   UNL     1     -11.696  16.046  68.978  1.00  0.00    -0.318 C  
BRANCH  14  15
HETATM   15  N   UNL     1     -12.024  14.942  69.862  1.00  0.00    -0.311 NA 
HETATM   16  C   UNL     1     -12.489  15.076  71.152  1.00  0.00    -0.334 A  
HETATM   17  N   UNL     1     -12.740  13.908  71.715  1.00  0.00    -0.324 NA 
HETATM   18  C   UNL     1     -12.429  12.973  70.749  1.00  0.00    -0.302 A  
HETATM   19  C   UNL     1     -11.977  13.607  69.625  1.00  0.00    -0.343 A  
HETATM   20  N   UNL     1     -11.604  12.945  68.524  1.00  0.00    -0.301 NA 
HETATM   21  C   UNL     1     -11.749  11.584  68.546  1.00  0.00    -0.313 C  
HETATM   22  N   UNL     1     -11.419  10.990  67.371  1.00  0.00    -0.502 NA 
HETATM   23  N   UNL     1     -12.166  10.875  69.553  1.00  0.00    -0.454 N  
HETATM   24  H2  UNL     1     -11.096  11.506  66.552  1.00  0.00     0.000 HD 
HETATM   25  H1  UNL     1     -11.527   9.976  67.387  1.00  0.00     0.000 HD 
HETATM   26  C   UNL     1     -12.525  11.505  70.755  1.00  0.00    -0.349 C  
HETATM   27  H   UNL     1     -12.231   9.860  69.470  1.00  0.00     0.000 HD 
HETATM   28  O   UNL     1     -12.895  10.875  71.740  1.00  0.00    -0.431 OA 
ENDBRANCH  14  15
ENDBRANCH  13  14
ENDBRANCH  12  13
ENDBRANCH  11  12
ENDBRANCH  10  11
ENDBRANCH   8  10
ENDBRANCH   3   8
TORSDOF 7
ENDMDL
MODEL        5
REMARK 921   NORMALIZED FREE ENERGY PREDICTED BY IDOCK:   -6.80 KCAL/MOL
REMARK 922        TOTAL FREE ENERGY PREDICTED BY IDOCK:  -10.12 KCAL/MOL
REMARK 923 INTER-LIGAND FREE ENERGY PREDICTED BY IDOCK:   -9.70 KCAL/MOL
REMARK 924 INTRA-LIGAND FREE ENERGY PREDICTED BY IDOCK:   -0.42 KCAL/MOL
REMARK 927      BINDING AFFINITY PREDICTED BY RF-SCORE:    0.00 PKD
ROOT
HETATM    1  C   UNL     1     -10.754   5.698  70.651  1.00  0.00    -0.333 C  
HETATM    2  C   UNL     1     -10.645   6.002  72.149  1.00  0.00    -0.256 C  
HETATM    3  C   UNL     1     -11.252   7.375  72.534  1.00  0.00    -0.317 C  
HETATM    4  C   UNL     1     -11.276   4.859  72.954  1.00  0.00    -0.318 C  
HETATM    5  H1  UNL     1     -13.101   8.330  72.491  1.00  0.00     0.000 HD 
HETATM    6  N   UNL     1     -12.701   7.427  72.238  1.00  0.00    -0.509 NA 
HETATM    7  H2  UNL     1     -13.202   6.658  72.684  1.00  0.00     0.000 HD 
ENDROOT
BRANCH   3   8
HETATM    8  C   UNL     1     -10.538   8.558  71.840  1.00  0.00    -0.322 C  
HETATM    9  O   UNL     1      -9.421   8.973  72.129  1.00  0.00    -0.340 OA 
BRANCH   8  10
HETATM   10  O   UNL     1     -11.288   9.047  70.810  1.00  0.00    -0.261 OA 
BRANCH  10  11
HETATM   11  C   UNL     1     -10.978  10.403  70.429  1.00  0.00    -0.248 C  
BRANCH  11  12
HETATM   12  C   UNL     1     -12.222  11.286  70.533  1.00  0.00    -0.383 C  
BRANCH  12  13
HETATM   13  O   UNL     1     -12.041  12.409  69.667  1.00  0.00    -0.276 OA 
BRANCH  13  14
HETATM   14  C   UNL     1     -11.697  12.011  68.339  1.00  0.00    -0.332 C  
BRANCH  14  15
HETATM   15  N   UNL     1     -11.680  13.177  67.474  1.00  0.00    -0.351 NA 
HETATM   16  C   UNL     1     -11.363  14.455  67.878  1.00  0.00    -0.301 A  
HETATM   17  N   UNL     1     -11.392  15.315  66.876  1.00  0.00    -0.267 NA 
HETATM   18  C   UNL     1     -11.738  14.565  65.771  1.00  0.00    -0.344 A  
HETATM   19  C   UNL     1     -11.929  13.263  66.143  1.00  0.00    -0.418 A  
HETATM   20  N   UNL     1     -12.272  12.307  65.271  1.00  0.00    -0.532 NA 
HETATM   21  C   UNL     1     -12.371  12.679  63.958  1.00  0.00    -0.443 C  
HETATM   22  N   UNL     1     -12.649  11.643  63.126  1.00  0.00    -0.909 NA 
HETATM   23  N   UNL     1     -12.212  13.882  63.489  1.00  0.00    -1.050 N  
HETATM   24  H2  UNL     1     -12.773  10.683  63.447  1.00  0.00     0.000 HD 
HETATM   25  H1  UNL     1     -12.723  11.920  62.147  1.00  0.00     0.000 HD 
HETATM   26  C   UNL     1     -11.901  14.939  64.358  1.00  0.00    -0.360 C  
HETATM   27  H   UNL     1     -12.315  14.057  62.488  1.00  0.00     0.000 HD 
HETATM   28  O   UNL     1     -11.772  16.094  63.965  1.00  0.00    -0.829 OA 
ENDBRANCH  14  15
ENDBRANCH  13  14
ENDBRANCH  12  13
ENDBRANCH  11  12
ENDBRANCH  10  11
ENDBRANCH   8  10
ENDBRANCH   3   8
TORSDOF 7
ENDMDL
MODEL        6
REMARK 921   NORMALIZED FREE ENERGY PREDICTED BY IDOCK:   -6.78 KCAL/MOL
REMARK 922        TOTAL FREE ENERGY PREDICTED BY IDOCK:  -10.10 KCAL/MOL
REMARK 923 INTER-LIGAND FREE ENERGY PREDICTED BY IDOCK:   -9.93 KCAL/MOL
REMARK 924 INTRA-LIGAND FREE ENERGY PREDICTED BY IDOCK:   -0.17 KCAL/MOL
REMARK 927      BINDING AFFINITY PREDICTED BY RF-SCORE:    0.00 PKD
ROOT
HETATM    1  C   UNL     1     -13.153   9.768  71.934  1.00  0.00    -0.544 C  
HETATM    2  C   UNL     1     -12.865   8.393  71.321  1.00  0.00    -0.189 C  
HETATM    3  C   UNL     1     -11.484   7.824  71.732  1.00  0.00    -0.266 C  
HETATM    4  C   UNL     1     -14.003   7.424  71.669  1.00  0.00    -0.523 C  
HETATM    5  H1  UNL     1     -10.490   7.240  73.465  1.00  0.00     0.000 HD 
HETATM    6  N   UNL     1     -11.399   7.615  73.194  1.00  0.00    -0.596 NA 
HETATM    7  H2  UNL     1     -12.161   7.027  73.533  1.00  0.00     0.000 HD 
ENDROOT
BRANCH   3   8
HETATM    8  C   UNL     1     -10.309   8.716  71.267  1.00  0.00    -0.239 C  
HETATM    9  O   UNL     1      -9.440   9.174  72.000  1.00  0.00    -0.323 OA 
BRANCH   8  10
HETATM   10  O   UNL     1     -10.323   8.876  69.912  1.00  0.00    -0.194 OA 
BRANCH  10  11
HETATM   11  C   UNL     1     -10.438  10.244  69.468  1.00  0.00    -0.244 C  
BRANCH  11  12
HETATM   12  C   UNL     1     -10.672  10.299  67.957  1.00  0.00    -0.255 C  
BRANCH  12  13
HETATM   13  O   UNL     1     -11.896  11.001  67.726  1.00  0.00    -0.605 OA 
BRANCH  13  14
HETATM   14  C   UNL     1     -11.979  12.201  68.495  1.00  0.00    -0.217 C  
BRANCH  14  15
HETATM   15  N   UNL     1     -11.835  13.349  67.619  1.00  0.00    -0.355 NA 
HETATM   16  C   UNL     1     -11.426  14.602  68.021  1.00  0.00    -0.324 A  
HETATM   17  N   UNL     1     -11.349  15.448  67.011  1.00  0.00    -0.240 NA 
HETATM   18  C   UNL     1     -11.720  14.715  65.901  1.00  0.00    -0.301 A  
HETATM   19  C   UNL     1     -12.032  13.439  66.279  1.00  0.00    -0.411 A  
HETATM   20  N   UNL     1     -12.425  12.504  65.406  1.00  0.00    -0.647 NA 
HETATM   21  C   UNL     1     -12.448  12.866  64.086  1.00  0.00    -0.335 C  
HETATM   22  N   UNL     1     -12.785  11.846  63.256  1.00  0.00    -0.893 NA 
HETATM   23  N   UNL     1     -12.174  14.045  63.611  1.00  0.00    -1.021 N  
HETATM   24  H2  UNL     1     -12.999  10.904  63.583  1.00  0.00     0.000 HD 
HETATM   25  H1  UNL     1     -12.802  12.116  62.273  1.00  0.00     0.000 HD 
HETATM   26  C   UNL     1     -11.803  15.084  64.480  1.00  0.00    -0.371 C  
HETATM   27  H   UNL     1     -12.228  14.215  62.606  1.00  0.00     0.000 HD 
HETATM   28  O   UNL     1     -11.565  16.218  64.080  1.00  0.00    -0.838 OA 
ENDBRANCH  14  15
ENDBRANCH  13  14
ENDBRANCH  12  13
ENDBRANCH  11  12
ENDBRANCH  10  11
ENDBRANCH   8  10
ENDBRANCH   3   8
TORSDOF 7
ENDMDL
MODEL        7
REMARK 921   NORMALIZED FREE ENERGY PREDICTED BY IDOCK:   -6.74 KCAL/MOL
REMARK 922        TOTAL FREE ENERGY PREDICTED BY IDOCK:  -10.03 KCAL/MOL
REMARK 923 INTER-LIGAND FREE ENERGY PREDICTED BY IDOCK:   -8.55 KCAL/MOL
REMARK 924 INTRA-LIGAND FREE ENERGY PREDICTED BY IDOCK:   -1.49 KCAL/MOL
REMARK 927      BINDING AFFINITY PREDICTED BY RF-SCORE:    0.00 PKD
ROOT
HETATM    1  C   UNL     1     -13.460   9.662  71.752  1.00  0.00    -0.477 C  
HETATM    2  C   UNL     1     -12.467  10.820  71.604  1.00  0.00    -0.381 C  
HETATM    3  C   UNL     1     -11.563  10.686  70.353  1.00  0.00    -0.351 C  
HETATM    4  C   UNL     1     -13.225  12.154  71.613  1.00  0.00    -0.358 C  
HETATM    5  H1  UNL     1     -11.764  10.615  68.283  1.00  0.00     0.000 HD 
HETATM    6  N   UNL     1     -12.359  10.703  69.106  1.00  0.00    -0.755 NA 
HETATM    7  H2  UNL     1     -12.951  11.533  69.052  1.00  0.00     0.000 HD 
ENDROOT
BRANCH   3   8
HETATM    8  C   UNL     1     -10.682   9.415  70.387  1.00  0.00    -0.263 C  
HETATM    9  O   UNL     1      -9.831   9.171  71.235  1.00  0.00    -0.283 OA 
BRANCH   8  10
HETATM   10  O   UNL     1     -11.021   8.556  69.382  1.00  0.00    -0.147 OA 
BRANCH  10  11
HETATM   11  C   UNL     1      -9.909   8.065  68.607  1.00  0.00    -0.174 C  
BRANCH  11  12
HETATM   12  C   UNL     1     -10.295   7.942  67.133  1.00  0.00    -0.328 C  
BRANCH  12  13
HETATM   13  O   UNL     1     -10.778   9.215  66.694  1.00  0.00    -0.145 OA 
BRANCH  13  14
HETATM   14  C   UNL     1      -9.760   9.982  66.051  1.00  0.00    -0.240 C  
BRANCH  14  15
HETATM   15  N   UNL     1     -10.369  11.071  65.310  1.00  0.00    -0.275 NA 
HETATM   16  C   UNL     1     -10.428  11.153  63.936  1.00  0.00    -0.381 A  
HETATM   17  N   UNL     1     -11.072  12.233  63.529  1.00  0.00    -0.455 NA 
HETATM   18  C   UNL     1     -11.452  12.879  64.688  1.00  0.00    -0.327 A  
HETATM   19  C   UNL     1     -11.007  12.175  65.773  1.00  0.00    -0.297 A  
HETATM   20  N   UNL     1     -11.234  12.570  67.031  1.00  0.00    -0.284 NA 
HETATM   21  C   UNL     1     -11.992  13.698  67.194  1.00  0.00    -0.393 C  
HETATM   22  N   UNL     1     -12.240  13.994  68.496  1.00  0.00    -0.537 NA 
HETATM   23  N   UNL     1     -12.466  14.446  66.242  1.00  0.00    -0.433 N  
HETATM   24  H2  UNL     1     -11.896  13.432  69.274  1.00  0.00     0.000 HD 
HETATM   25  H1  UNL     1     -12.805  14.834  68.618  1.00  0.00     0.000 HD 
HETATM   26  C   UNL     1     -12.222  14.115  64.900  1.00  0.00    -0.438 C  
HETATM   27  H   UNL     1     -13.017  15.274  66.471  1.00  0.00     0.000 HD 
HETATM   28  O   UNL     1     -12.623  14.806  63.971  1.00  0.00    -0.822 OA 
ENDBRANCH  14  15
ENDBRANCH  13  14
ENDBRANCH  12  13
ENDBRANCH  11  12
ENDBRANCH  10  11
ENDBRANCH   8  10
ENDBRANCH   3   8
TORSDOF 7
ENDMDL
MODEL        8
REMARK 921   NORMALIZED FREE ENERGY PREDICTED BY IDOCK:   -6.67 KCAL/MOL
REMARK 922        TOTAL FREE ENERGY PREDICTED BY IDOCK:   -9.94 KCAL/MOL
REMARK 923 INTER-LIGAND FREE ENERGY PREDICTED BY IDOCK:   -9.01 KCAL/MOL
REMARK 924 INTRA-LIGAND FREE ENERGY PREDICTED BY IDOCK:   -0.93 KCAL/MOL
REMARK 927      BINDING AFFINITY PREDICTED BY RF-SCORE:    0.00 PKD
ROOT
HETATM    1  C   UNL     1     -12.438  11.857  63.493  1.00  0.00    -0.609 C  
HETATM    2  C   UNL     1     -11.109  12.175  64.186  1.00  0.00    -0.424 C  
HETATM    3  C   UNL     1     -11.293  12.820  65.583  1.00  0.00    -0.319 C  
HETATM    4  C   UNL     1     -10.248  10.907  64.258  1.00  0.00    -0.430 C  
HETATM    5  H1  UNL     1     -12.120  12.332  67.430  1.00  0.00     0.000 HD 
HETATM    6  N   UNL     1     -11.999  11.908  66.511  1.00  0.00    -0.545 NA 
HETATM    7  H2  UNL     1     -11.530  11.004  66.575  1.00  0.00     0.000 HD 
ENDROOT
BRANCH   3   8
HETATM    8  C   UNL     1     -12.038  14.174  65.521  1.00  0.00    -0.414 C  
HETATM    9  O   UNL     1     -13.227  14.311  65.257  1.00  0.00    -0.704 OA 
BRANCH   8  10
HETATM   10  O   UNL     1     -11.212  15.203  65.866  1.00  0.00    -0.338 OA 
BRANCH  10  11
HETATM   11  C   UNL     1     -10.633  15.097  67.183  1.00  0.00    -0.295 C  
BRANCH  11  12
HETATM   12  C   UNL     1     -11.534  15.768  68.221  1.00  0.00    -0.337 C  
BRANCH  12  13
HETATM   13  O   UNL     1     -12.166  14.741  68.989  1.00  0.00    -0.244 OA 
BRANCH  13  14
HETATM   14  C   UNL     1     -11.755  14.764  70.356  1.00  0.00    -0.295 C  
BRANCH  14  15
HETATM   15  N   UNL     1     -12.340  13.636  71.057  1.00  0.00    -0.368 NA 
HETATM   16  C   UNL     1     -13.160  13.732  72.160  1.00  0.00    -0.406 A  
HETATM   17  N   UNL     1     -13.579  12.550  72.573  1.00  0.00    -0.318 NA 
HETATM   18  C   UNL     1     -13.010  11.645  71.701  1.00  0.00    -0.378 A  
HETATM   19  C   UNL     1     -12.242  12.310  70.786  1.00  0.00    -0.260 A  
HETATM   20  N   UNL     1     -11.571  11.681  69.815  1.00  0.00    -0.313 NA 
HETATM   21  C   UNL     1     -11.731  10.324  69.734  1.00  0.00    -0.191 C  
HETATM   22  N   UNL     1     -11.080   9.768  68.681  1.00  0.00    -0.454 NA 
HETATM   23  N   UNL     1     -12.433   9.588  70.544  1.00  0.00    -0.487 N  
HETATM   24  H2  UNL     1     -10.525  10.307  68.016  1.00  0.00     0.000 HD 
HETATM   25  H1  UNL     1     -11.200   8.757  68.621  1.00  0.00     0.000 HD 
HETATM   26  C   UNL     1     -13.122  10.180  71.615  1.00  0.00    -0.447 C  
HETATM   27  H   UNL     1     -12.484   8.579  70.401  1.00  0.00     0.000 HD 
HETATM   28  O   UNL     1     -13.771   9.522  72.420  1.00  0.00    -0.438 OA 
ENDBRANCH  14  15
ENDBRANCH  13  14
ENDBRANCH  12  13
ENDBRANCH  11  12
ENDBRANCH  10  11
ENDBRANCH   8  10
ENDBRANCH   3   8
TORSDOF 7
ENDMDL
MODEL        9
REMARK 921   NORMALIZED FREE ENERGY PREDICTED BY IDOCK:   -6.63 KCAL/MOL
REMARK 922        TOTAL FREE ENERGY PREDICTED BY IDOCK:   -9.88 KCAL/MOL
REMARK 923 INTER-LIGAND FREE ENERGY PREDICTED BY IDOCK:   -9.10 KCAL/MOL
REMARK 924 INTRA-LIGAND FREE ENERGY PREDICTED BY IDOCK:   -0.78 KCAL/MOL
REMARK 927      BINDING AFFINITY PREDICTED BY RF-SCORE:    0.00 PKD
ROOT
HETATM    1  C   UNL     1     -10.139  11.419  66.158  1.00  0.00    -0.271 C  
HETATM    2  C   UNL     1     -10.410  10.703  64.830  1.00  0.00    -0.347 C  
HETATM    3  C   UNL     1     -10.786  11.675  63.684  1.00  0.00    -0.435 C  
HETATM    4  C   UNL     1      -9.203   9.830  64.459  1.00  0.00    -0.310 C  
HETATM    5  H1  UNL     1      -9.931  13.257  62.637  1.00  0.00     0.000 HD 
HETATM    6  N   UNL     1      -9.684  12.618  63.391  1.00  0.00    -0.576 NA 
HETATM    7  H2  UNL     1      -8.813  12.125  63.193  1.00  0.00     0.000 HD 
ENDROOT
BRANCH   3   8
HETATM    8  C   UNL     1     -12.082  12.467  63.975  1.00  0.00    -0.475 C  
HETATM    9  O   UNL     1     -13.153  11.968  64.301  1.00  0.00    -0.671 OA 
BRANCH   8  10
HETATM   10  O   UNL     1     -11.865  13.811  63.888  1.00  0.00    -0.398 OA 
BRANCH  10  11
HETATM   11  C   UNL     1     -12.155  14.548  65.093  1.00  0.00    -0.363 C  
BRANCH  11  12
HETATM   12  C   UNL     1     -10.870  15.118  65.696  1.00  0.00    -0.360 C  
BRANCH  12  13
HETATM   13  O   UNL     1     -11.133  15.456  67.060  1.00  0.00    -0.322 OA 
BRANCH  13  14
HETATM   14  C   UNL     1     -10.588  14.496  67.965  1.00  0.00    -0.237 C  
BRANCH  14  15
HETATM   15  N   UNL     1     -11.355  14.503  69.198  1.00  0.00    -0.262 NA 
HETATM   16  C   UNL     1     -11.764  15.636  69.865  1.00  0.00    -0.362 A  
HETATM   17  N   UNL     1     -12.477  15.350  70.940  1.00  0.00    -0.384 NA 
HETATM   18  C   UNL     1     -12.537  13.972  70.972  1.00  0.00    -0.366 A  
HETATM   19  C   UNL     1     -11.837  13.458  69.916  1.00  0.00    -0.315 A  
HETATM   20  N   UNL     1     -11.728  12.142  69.696  1.00  0.00    -0.321 NA 
HETATM   21  C   UNL     1     -12.404  11.317  70.553  1.00  0.00    -0.356 C  
HETATM   22  N   UNL     1     -12.305  10.004  70.223  1.00  0.00    -0.493 NA 
HETATM   23  N   UNL     1     -13.098  11.690  71.587  1.00  0.00    -0.424 N  
HETATM   24  H2  UNL     1     -11.779   9.666  69.416  1.00  0.00     0.000 HD 
HETATM   25  H1  UNL     1     -12.809   9.388  70.861  1.00  0.00     0.000 HD 
HETATM   26  C   UNL     1     -13.211  13.053  71.903  1.00  0.00    -0.430 C  
HETATM   27  H   UNL     1     -13.560  10.991  72.170  1.00  0.00     0.000 HD 
HETATM   28  O   UNL     1     -13.830  13.449  72.884  1.00  0.00    -0.624 OA 
ENDBRANCH  14  15
ENDBRANCH  13  14
ENDBRANCH  12  13
ENDBRANCH  11  12
ENDBRANCH  10  11
ENDBRANCH   8  10
ENDBRANCH   3   8
TORSDOF 7
ENDMDL
MODEL       10
REMARK 921   NORMALIZED FREE ENERGY PREDICTED BY IDOCK:   -6.57 KCAL/MOL
REMARK 922        TOTAL FREE ENERGY PREDICTED BY IDOCK:   -9.80 KCAL/MOL
REMARK 923 INTER-LIGAND FREE ENERGY PREDICTED BY IDOCK:   -8.52 KCAL/MOL
REMARK 924 INTRA-LIGAND FREE ENERGY PREDICTED BY IDOCK:   -1.29 KCAL/MOL
REMARK 927      BINDING AFFINITY PREDICTED BY RF-SCORE:    0.00 PKD
ROOT
HETATM    1  C   UNL     1      -7.714  10.081  64.083  1.00  0.00    -0.144 C  
HETATM    2  C   UNL     1      -9.230  10.301  64.055  1.00  0.00    -0.311 C  
HETATM    3  C   UNL     1      -9.810  10.695  65.437  1.00  0.00    -0.267 C  
HETATM    4  C   UNL     1      -9.581  11.336  62.978  1.00  0.00    -0.397 C  
HETATM    5  H1  UNL     1      -9.628  12.237  66.823  1.00  0.00     0.000 HD 
HETATM    6  N   UNL     1      -9.246  11.978  65.914  1.00  0.00    -0.392 NA 
HETATM    7  H2  UNL     1      -9.377  12.721  65.228  1.00  0.00     0.000 HD 
ENDROOT
BRANCH   3   8
HETATM    8  C   UNL     1      -9.591   9.602  66.509  1.00  0.00    -0.196 C  
HETATM    9  O   UNL     1     -10.037   8.462  66.453  1.00  0.00    -0.265 OA 
BRANCH   8  10
HETATM   10  O   UNL     1      -8.773  10.050  67.505  1.00  0.00    -0.125 OA 
BRANCH  10  11
HETATM   11  C   UNL     1      -9.210   9.719  68.839  1.00  0.00    -0.155 C  
BRANCH  11  12
HETATM   12  C   UNL     1     -10.465  10.514  69.204  1.00  0.00    -0.228 C  
BRANCH  12  13
HETATM   13  O   UNL     1     -10.332  11.828  68.655  1.00  0.00    -0.215 OA 
BRANCH  13  14
HETATM   14  C   UNL     1     -11.591  12.492  68.543  1.00  0.00    -0.321 C  
BRANCH  14  15
HETATM   15  N   UNL     1     -11.468  13.611  67.627  1.00  0.00    -0.307 NA 
HETATM   16  C   UNL     1     -10.914  14.832  67.944  1.00  0.00    -0.278 A  
HETATM   17  N   UNL     1     -10.898  15.654  66.911  1.00  0.00    -0.308 NA 
HETATM   18  C   UNL     1     -11.463  14.938  65.875  1.00  0.00    -0.276 A  
HETATM   19  C   UNL     1     -11.824  13.696  66.321  1.00  0.00    -0.392 A  
HETATM   20  N   UNL     1     -12.397  12.784  65.527  1.00  0.00    -0.582 NA 
HETATM   21  C   UNL     1     -12.558  13.127  64.212  1.00  0.00    -0.209 C  
HETATM   22  N   UNL     1     -13.077  12.126  63.456  1.00  0.00    -0.732 NA 
HETATM   23  N   UNL     1     -12.254  14.273  63.677  1.00  0.00    -1.064 N  
HETATM   24  H2  UNL     1     -13.323  11.209  63.830  1.00  0.00     0.000 HD 
HETATM   25  H1  UNL     1     -13.197  12.381  62.476  1.00  0.00     0.000 HD 
HETATM   26  C   UNL     1     -11.696  15.291  64.466  1.00  0.00    -0.305 C  
HETATM   27  H   UNL     1     -12.421  14.431  62.683  1.00  0.00     0.000 HD 
HETATM   28  O   UNL     1     -11.421  16.396  64.012  1.00  0.00    -1.048 OA 
ENDBRANCH  14  15
ENDBRANCH  13  14
ENDBRANCH  12  13
ENDBRANCH  11  12
ENDBRANCH  10  11
ENDBRANCH   8  10
ENDBRANCH   3   8
TORSDOF 7
ENDMDL
MODEL       11
REMARK 921   NORMALIZED FREE ENERGY PREDICTED BY IDOCK:   -6.57 KCAL/MOL
REMARK 922        TOTAL FREE ENERGY PREDICTED BY IDOCK:   -9.80 KCAL/MOL
REMARK 923 INTER-LIGAND FREE ENERGY PREDICTED BY IDOCK:   -9.18 KCAL/MOL
REMARK 924 INTRA-LIGAND FREE ENERGY PREDICTED BY IDOCK:   -0.62 KCAL/MOL
REMARK 927      BINDING AFFINITY PREDICTED BY RF-SCORE:    0.00 PKD
ROOT
HETATM    1  C   UNL     1     -10.803   7.288  67.820  1.00  0.00    -0.214 C  
HETATM    2  C   UNL     1     -10.223   6.773  69.142  1.00  0.00    -0.195 C  
HETATM    3  C   UNL     1     -10.922   7.377  70.386  1.00  0.00    -0.251 C  
HETATM    4  C   UNL     1     -10.263   5.239  69.160  1.00  0.00    -0.281 C  
HETATM    5  H1  UNL     1     -12.816   7.411  71.249  1.00  0.00     0.000 HD 
HETATM    6  N   UNL     1     -12.356   7.014  70.430  1.00  0.00    -0.618 NA 
HETATM    7  H2  UNL     1     -12.487   6.003  70.382  1.00  0.00     0.000 HD 
ENDROOT
BRANCH   3   8
HETATM    8  C   UNL     1     -10.774   8.915  70.465  1.00  0.00    -0.230 C  
HETATM    9  O   UNL     1      -9.761   9.540  70.173  1.00  0.00    -0.214 OA 
BRANCH   8  10
HETATM   10  O   UNL     1     -11.947   9.501  70.840  1.00  0.00    -0.286 OA 
BRANCH  10  11
HETATM   11  C   UNL     1     -12.374  10.592  69.998  1.00  0.00    -0.219 C  
BRANCH  11  12
HETATM   12  C   UNL     1     -12.235  11.924  70.736  1.00  0.00    -0.303 C  
BRANCH  12  13
HETATM   13  O   UNL     1     -11.752  12.897  69.805  1.00  0.00    -0.307 OA 
BRANCH  13  14
HETATM   14  C   UNL     1     -11.752  12.402  68.466  1.00  0.00    -0.326 C  
BRANCH  14  15
HETATM   15  N   UNL     1     -11.655  13.514  67.538  1.00  0.00    -0.329 NA 
HETATM   16  C   UNL     1     -11.239  14.784  67.871  1.00  0.00    -0.306 A  
HETATM   17  N   UNL     1     -11.212  15.589  66.824  1.00  0.00    -0.210 NA 
HETATM   18  C   UNL     1     -11.624  14.809  65.763  1.00  0.00    -0.290 A  
HETATM   19  C   UNL     1     -11.909  13.547  66.206  1.00  0.00    -0.392 A  
HETATM   20  N   UNL     1     -12.331  12.575  65.389  1.00  0.00    -0.635 NA 
HETATM   21  C   UNL     1     -12.414  12.882  64.058  1.00  0.00    -0.326 C  
HETATM   22  N   UNL     1     -12.777  11.827  63.285  1.00  0.00    -0.882 NA 
HETATM   23  N   UNL     1     -12.170  14.042  63.523  1.00  0.00    -1.079 N  
HETATM   24  H2  UNL     1     -12.970  10.898  63.659  1.00  0.00     0.000 HD 
HETATM   25  H1  UNL     1     -12.839  12.056  62.293  1.00  0.00     0.000 HD 
HETATM   26  C   UNL     1     -11.772  15.119  64.332  1.00  0.00    -0.295 C  
HETATM   27  H   UNL     1     -12.268  14.171  62.516  1.00  0.00     0.000 HD 
HETATM   28  O   UNL     1     -11.560  16.237  63.877  1.00  0.00    -0.987 OA 
ENDBRANCH  14  15
ENDBRANCH  13  14
ENDBRANCH  12  13
ENDBRANCH  11  12
ENDBRANCH  10  11
ENDBRANCH   8  10
ENDBRANCH   3   8
TORSDOF 7
ENDMDL
MODEL       12
REMARK 921   NORMALIZED FREE ENERGY PREDICTED BY IDOCK:   -6.55 KCAL/MOL
REMARK 922        TOTAL FREE ENERGY PREDICTED BY IDOCK:   -9.77 KCAL/MOL
REMARK 923 INTER-LIGAND FREE ENERGY PREDICTED BY IDOCK:   -9.05 KCAL/MOL
REMARK 924 INTRA-LIGAND FREE ENERGY PREDICTED BY IDOCK:   -0.72 KCAL/MOL
REMARK 927      BINDING AFFINITY PREDICTED BY RF-SCORE:    0.00 PKD
ROOT
HETATM    1  C   UNL     1      -7.623  17.532  66.398  1.00  0.00    -0.329 C  
HETATM    2  C   UNL     1      -7.925  19.031  66.295  1.00  0.00    -0.302 C  
HETATM    3  C   UNL     1      -8.520  19.620  67.598  1.00  0.00    -0.319 C  
HETATM    4  C   UNL     1      -6.660  19.783  65.860  1.00  0.00    -0.257 C  
HETATM    5  H1  UNL     1      -7.964  19.886  69.586  1.00  0.00     0.000 HD 
HETATM    6  N   UNL     1      -7.572  19.498  68.729  1.00  0.00    -0.355 NA 
HETATM    7  H2  UNL     1      -6.670  19.919  68.506  1.00  0.00     0.000 HD 
ENDROOT
BRANCH   3   8
HETATM    8  C   UNL     1      -9.871  18.973  67.982  1.00  0.00    -0.352 C  
HETATM    9  O   UNL     1     -10.886  19.003  67.296  1.00  0.00    -0.472 OA 
BRANCH   8  10
HETATM   10  O   UNL     1      -9.773  18.300  69.165  1.00  0.00    -0.236 OA 
BRANCH  10  11
HETATM   11  C   UNL     1     -10.509  17.060  69.216  1.00  0.00    -0.293 C  
BRANCH  11  12
HETATM   12  C   UNL     1      -9.698  15.929  68.582  1.00  0.00    -0.207 C  
BRANCH  12  13
HETATM   13  O   UNL     1     -10.203  14.689  69.083  1.00  0.00    -0.231 OA 
BRANCH  13  14
HETATM   14  C   UNL     1     -11.571  14.484  68.726  1.00  0.00    -0.312 C  
BRANCH  14  15
HETATM   15  N   UNL     1     -11.645  13.581  67.592  1.00  0.00    -0.318 NA 
HETATM   16  C   UNL     1     -11.638  12.206  67.677  1.00  0.00    -0.343 A  
HETATM   17  N   UNL     1     -11.754  11.633  66.493  1.00  0.00    -0.471 NA 
HETATM   18  C   UNL     1     -11.844  12.680  65.598  1.00  0.00    -0.437 A  
HETATM   19  C   UNL     1     -11.761  13.867  66.271  1.00  0.00    -0.383 A  
HETATM   20  N   UNL     1     -11.822  15.052  65.653  1.00  0.00    -0.137 NA 
HETATM   21  C   UNL     1     -12.032  15.031  64.300  1.00  0.00    -0.295 C  
HETATM   22  N   UNL     1     -12.155  16.269  63.757  1.00  0.00    -1.141 NA 
HETATM   23  N   UNL     1     -12.125  13.968  63.557  1.00  0.00    -0.991 N  
HETATM   24  H2  UNL     1     -12.097  17.129  64.301  1.00  0.00     0.000 HD 
HETATM   25  H1  UNL     1     -12.311  16.253  62.749  1.00  0.00     0.000 HD 
HETATM   26  C   UNL     1     -12.020  12.694  64.137  1.00  0.00    -0.426 C  
HETATM   27  H   UNL     1     -12.276  14.060  62.552  1.00  0.00     0.000 HD 
HETATM   28  O   UNL     1     -12.072  11.665  63.472  1.00  0.00    -0.441 OA 
ENDBRANCH  14  15
ENDBRANCH  13  14
ENDBRANCH  12  13
ENDBRANCH  11  12
ENDBRANCH  10  11
ENDBRANCH   8  10
ENDBRANCH   3   8
TORSDOF 7
ENDMDL
MODEL       13
REMARK 921   NORMALIZED FREE ENERGY PREDICTED BY IDOCK:   -6.52 KCAL/MOL
REMARK 922        TOTAL FREE ENERGY PREDICTED BY IDOCK:   -9.73 KCAL/MOL
REMARK 923 INTER-LIGAND FREE ENERGY PREDICTED BY IDOCK:   -9.02 KCAL/MOL
REMARK 924 INTRA-LIGAND FREE ENERGY PREDICTED BY IDOCK:   -0.71 KCAL/MOL
REMARK 927      BINDING AFFINITY PREDICTED BY RF-SCORE:    0.00 PKD
ROOT
HETATM    1  C   UNL     1      -7.443  18.889  67.864  1.00  0.00    -0.269 C  
HETATM    2  C   UNL     1      -7.752  19.203  66.397  1.00  0.00    -0.288 C  
HETATM    3  C   UNL     1      -9.233  19.588  66.159  1.00  0.00    -0.318 C  
HETATM    4  C   UNL     1      -6.796  20.292  65.890  1.00  0.00    -0.281 C  
HETATM    5  H1  UNL     1     -10.573  21.071  66.740  1.00  0.00     0.000 HD 
HETATM    6  N   UNL     1      -9.598  20.818  66.897  1.00  0.00    -0.678 NA 
HETATM    7  H2  UNL     1      -8.970  21.590  66.670  1.00  0.00     0.000 HD 
ENDROOT
BRANCH   3   8
HETATM    8  C   UNL     1     -10.212  18.450  66.532  1.00  0.00    -0.401 C  
HETATM    9  O   UNL     1     -10.850  18.385  67.576  1.00  0.00    -0.408 OA 
BRANCH   8  10
HETATM   10  O   UNL     1     -10.329  17.551  65.512  1.00  0.00    -0.620 OA 
BRANCH  10  11
HETATM   11  C   UNL     1     -10.033  16.187  65.874  1.00  0.00    -0.356 C  
BRANCH  11  12
HETATM   12  C   UNL     1     -11.146  15.252  65.398  1.00  0.00    -0.347 C  
BRANCH  12  13
HETATM   13  O   UNL     1     -11.751  14.663  66.552  1.00  0.00    -0.369 OA 
BRANCH  13  14
HETATM   14  C   UNL     1     -10.825  14.522  67.630  1.00  0.00    -0.273 C  
BRANCH  14  15
HETATM   15  N   UNL     1     -11.546  14.518  68.890  1.00  0.00    -0.291 NA 
HETATM   16  C   UNL     1     -12.024  15.640  69.529  1.00  0.00    -0.345 A  
HETATM   17  N   UNL     1     -12.672  15.343  70.640  1.00  0.00    -0.433 NA 
HETATM   18  C   UNL     1     -12.618  13.966  70.727  1.00  0.00    -0.354 A  
HETATM   19  C   UNL     1     -11.915  13.467  69.665  1.00  0.00    -0.337 A  
HETATM   20  N   UNL     1     -11.706  12.157  69.492  1.00  0.00    -0.321 NA 
HETATM   21  C   UNL     1     -12.281  11.316  70.405  1.00  0.00    -0.365 C  
HETATM   22  N   UNL     1     -12.086  10.002  70.121  1.00  0.00    -0.467 NA 
HETATM   23  N   UNL     1     -12.967  11.673  71.450  1.00  0.00    -0.387 N  
HETATM   24  H2  UNL     1     -11.562   9.675  69.309  1.00  0.00     0.000 HD 
HETATM   25  H1  UNL     1     -12.515   9.375  70.801  1.00  0.00     0.000 HD 
HETATM   26  C   UNL     1     -13.181  13.035  71.717  1.00  0.00    -0.392 C  
HETATM   27  H   UNL     1     -13.350  10.964  72.076  1.00  0.00     0.000 HD 
HETATM   28  O   UNL     1     -13.795  13.420  72.706  1.00  0.00    -0.720 OA 
ENDBRANCH  14  15
ENDBRANCH  13  14
ENDBRANCH  12  13
ENDBRANCH  11  12
ENDBRANCH  10  11
ENDBRANCH   8  10
ENDBRANCH   3   8
TORSDOF 7
ENDMDL
MODEL       14
REMARK 921   NORMALIZED FREE ENERGY PREDICTED BY IDOCK:   -6.50 KCAL/MOL
REMARK 922        TOTAL FREE ENERGY PREDICTED BY IDOCK:   -9.70 KCAL/MOL
REMARK 923 INTER-LIGAND FREE ENERGY PREDICTED BY IDOCK:   -9.13 KCAL/MOL
REMARK 924 INTRA-LIGAND FREE ENERGY PREDICTED BY IDOCK:   -0.57 KCAL/MOL
REMARK 927      BINDING AFFINITY PREDICTED BY RF-SCORE:    0.00 PKD
ROOT
HETATM    1  C   UNL     1     -10.269   8.349  70.258  1.00  0.00    -0.204 C  
HETATM    2  C   UNL     1     -10.310   8.893  71.690  1.00  0.00    -0.416 C  
HETATM    3  C   UNL     1     -11.745   8.965  72.270  1.00  0.00    -0.280 C  
HETATM    4  C   UNL     1      -9.380   8.063  72.584  1.00  0.00    -0.314 C  
HETATM    5  H1  UNL     1     -13.306   7.670  72.735  1.00  0.00     0.000 HD 
HETATM    6  N   UNL     1     -12.362   7.623  72.354  1.00  0.00    -0.527 NA 
HETATM    7  H2  UNL     1     -11.777   6.975  72.883  1.00  0.00     0.000 HD 
ENDROOT
BRANCH   3   8
HETATM    8  C   UNL     1     -12.667   9.910  71.464  1.00  0.00    -0.415 C  
HETATM    9  O   UNL     1     -13.837   9.679  71.181  1.00  0.00    -0.251 OA 
BRANCH   8  10
HETATM   10  O   UNL     1     -12.028  11.076  71.159  1.00  0.00    -0.279 OA 
BRANCH  10  11
HETATM   11  C   UNL     1     -12.896  12.216  71.000  1.00  0.00    -0.166 C  
BRANCH  11  12
HETATM   12  C   UNL     1     -12.076  13.490  70.792  1.00  0.00    -0.271 C  
BRANCH  12  13
HETATM   13  O   UNL     1     -12.385  14.008  69.495  1.00  0.00    -0.332 OA 
BRANCH  13  14
HETATM   14  C   UNL     1     -11.237  14.053  68.648  1.00  0.00    -0.268 C  
BRANCH  14  15
HETATM   15  N   UNL     1     -11.493  13.285  67.443  1.00  0.00    -0.313 NA 
HETATM   16  C   UNL     1     -11.612  11.913  67.392  1.00  0.00    -0.297 A  
HETATM   17  N   UNL     1     -11.881  11.482  66.174  1.00  0.00    -0.221 NA 
HETATM   18  C   UNL     1     -11.943  12.621  65.397  1.00  0.00    -0.446 A  
HETATM   19  C   UNL     1     -11.690  13.719  66.173  1.00  0.00    -0.370 A  
HETATM   20  N   UNL     1     -11.686  14.963  65.681  1.00  0.00    -0.257 NA 
HETATM   21  C   UNL     1     -12.008  15.104  64.359  1.00  0.00    -0.310 C  
HETATM   22  N   UNL     1     -12.055  16.398  63.952  1.00  0.00    -1.093 NA 
HETATM   23  N   UNL     1     -12.266  14.138  63.527  1.00  0.00    -1.090 N  
HETATM   24  H2  UNL     1     -11.868  17.188  64.570  1.00  0.00     0.000 HD 
HETATM   25  H1  UNL     1     -12.295  16.503  62.967  1.00  0.00     0.000 HD 
HETATM   26  C   UNL     1     -12.237  12.805  63.967  1.00  0.00    -0.441 C  
HETATM   27  H   UNL     1     -12.490  14.349  62.554  1.00  0.00     0.000 HD 
HETATM   28  O   UNL     1     -12.444  11.861  63.213  1.00  0.00    -0.571 OA 
ENDBRANCH  14  15
ENDBRANCH  13  14
ENDBRANCH  12  13
ENDBRANCH  11  12
ENDBRANCH  10  11
ENDBRANCH   8  10
ENDBRANCH   3   8
TORSDOF 7
ENDMDL
MODEL       15
REMARK 921   NORMALIZED FREE ENERGY PREDICTED BY IDOCK:   -6.49 KCAL/MOL
REMARK 922        TOTAL FREE ENERGY PREDICTED BY IDOCK:   -9.69 KCAL/MOL
REMARK 923 INTER-LIGAND FREE ENERGY PREDICTED BY IDOCK:   -9.03 KCAL/MOL
REMARK 924 INTRA-LIGAND FREE ENERGY PREDICTED BY IDOCK:   -0.65 KCAL/MOL
REMARK 927      BINDING AFFINITY PREDICTED BY RF-SCORE:    0.00 PKD
ROOT
HETATM    1  C   UNL     1     -10.438  12.621  63.735  1.00  0.00    -0.411 C  
HETATM    2  C   UNL     1     -11.708  12.641  64.592  1.00  0.00    -0.411 C  
HETATM    3  C   UNL     1     -12.231  14.073  64.866  1.00  0.00    -0.437 C  
HETATM    4  C   UNL     1     -12.784  11.762  63.939  1.00  0.00    -0.318 C  
HETATM    5  H1  UNL     1     -12.949  15.705  63.792  1.00  0.00     0.000 HD 
HETATM    6  N   UNL     1     -12.605  14.762  63.611  1.00  0.00    -0.960 NA 
HETATM    7  H2  UNL     1     -13.278  14.216  63.072  1.00  0.00     0.000 HD 
ENDROOT
BRANCH   3   8
HETATM    8  C   UNL     1     -11.215  14.938  65.649  1.00  0.00    -0.347 C  
HETATM    9  O   UNL     1     -10.593  15.887  65.185  1.00  0.00    -0.426 OA 
BRANCH   8  10
HETATM   10  O   UNL     1     -11.147  14.550  66.956  1.00  0.00    -0.304 OA 
BRANCH  10  11
HETATM   11  C   UNL     1     -10.944  15.626  67.894  1.00  0.00    -0.319 C  
BRANCH  11  12
HETATM   12  C   UNL     1     -11.543  15.270  69.256  1.00  0.00    -0.332 C  
BRANCH  12  13
HETATM   13  O   UNL     1     -12.234  14.025  69.122  1.00  0.00    -0.346 OA 
BRANCH  13  14
HETATM   14  C   UNL     1     -12.198  13.261  70.328  1.00  0.00    -0.321 C  
BRANCH  14  15
HETATM   15  N   UNL     1     -11.746  11.913  70.033  1.00  0.00    -0.312 NA 
HETATM   16  C   UNL     1     -10.833  11.584  69.056  1.00  0.00    -0.212 A  
HETATM   17  N   UNL     1     -10.577  10.288  69.030  1.00  0.00    -0.210 NA 
HETATM   18  C   UNL     1     -11.353   9.751  70.037  1.00  0.00    -0.220 A  
HETATM   19  C   UNL     1     -12.078  10.744  70.636  1.00  0.00    -0.370 A  
HETATM   20  N   UNL     1     -12.919  10.511  71.650  1.00  0.00    -0.447 NA 
HETATM   21  C   UNL     1     -12.985   9.224  72.111  1.00  0.00    -0.424 C  
HETATM   22  N   UNL     1     -13.802   9.080  73.186  1.00  0.00    -1.177 NA 
HETATM   23  N   UNL     1     -12.346   8.202  71.623  1.00  0.00    -0.303 N  
HETATM   24  H2  UNL     1     -14.316   9.854  73.608  1.00  0.00     0.000 HD 
HETATM   25  H1  UNL     1     -13.852   8.121  73.530  1.00  0.00     0.000 HD 
HETATM   26  C   UNL     1     -11.486   8.370  70.526  1.00  0.00    -0.179 C  
HETATM   27  H   UNL     1     -12.471   7.277  72.037  1.00  0.00     0.000 HD 
HETATM   28  O   UNL     1     -10.887   7.431  70.014  1.00  0.00    -0.246 OA 
ENDBRANCH  14  15
ENDBRANCH  13  14
ENDBRANCH  12  13
ENDBRANCH  11  12
ENDBRANCH  10  11
ENDBRANCH   8  10
ENDBRANCH   3   8
TORSDOF 7
ENDMDL
MODEL       16
REMARK 921   NORMALIZED FREE ENERGY PREDICTED BY IDOCK:   -6.46 KCAL/MOL
REMARK 922        TOTAL FREE ENERGY PREDICTED BY IDOCK:   -9.65 KCAL/MOL
REMARK 923 INTER-LIGAND FREE ENERGY PREDICTED BY IDOCK:   -8.96 KCAL/MOL
REMARK 924 INTRA-LIGAND FREE ENERGY PREDICTED BY IDOCK:   -0.69 KCAL/MOL
REMARK 927      BINDING AFFINITY PREDICTED BY RF-SCORE:    0.00 PKD
ROOT
HETATM    1  C   UNL     1     -13.377  10.036  72.120  1.00  0.00    -0.469 C  
HETATM    2  C   UNL     1     -13.214   8.785  71.250  1.00  0.00    -0.203 C  
HETATM    3  C   UNL     1     -11.845   8.086  71.445  1.00  0.00    -0.295 C  
HETATM    4  C   UNL     1     -14.382   7.823  71.507  1.00  0.00    -0.574 C  
HETATM    5  H1  UNL     1     -10.774   7.150  72.963  1.00  0.00     0.000 HD 
HETATM    6  N   UNL     1     -11.674   7.610  72.835  1.00  0.00    -0.610 NA 
HETATM    7  H2  UNL     1     -12.446   7.007  73.121  1.00  0.00     0.000 HD 
ENDROOT
BRANCH   3   8
HETATM    8  C   UNL     1     -10.653   8.992  71.057  1.00  0.00    -0.271 C  
HETATM    9  O   UNL     1      -9.748   9.325  71.813  1.00  0.00    -0.269 OA 
BRANCH   8  10
HETATM   10  O   UNL     1     -10.701   9.325  69.735  1.00  0.00    -0.222 OA 
BRANCH  10  11
HETATM   11  C   UNL     1     -10.415  10.709  69.450  1.00  0.00    -0.225 C  
BRANCH  11  12
HETATM   12  C   UNL     1     -11.708  11.478  69.175  1.00  0.00    -0.329 C  
BRANCH  12  13
HETATM   13  O   UNL     1     -12.112  11.198  67.832  1.00  0.00    -0.627 OA 
BRANCH  13  14
HETATM   14  C   UNL     1     -11.040  11.369  66.904  1.00  0.00    -0.295 C  
BRANCH  14  15
HETATM   15  N   UNL     1     -11.346  12.469  66.007  1.00  0.00    -0.325 NA 
HETATM   16  C   UNL     1     -12.223  12.402  64.947  1.00  0.00    -0.418 A  
HETATM   17  N   UNL     1     -12.338  13.560  64.323  1.00  0.00    -0.611 NA 
HETATM   18  C   UNL     1     -11.504  14.420  65.008  1.00  0.00    -0.372 A  
HETATM   19  C   UNL     1     -10.888  13.746  66.026  1.00  0.00    -0.282 A  
HETATM   20  N   UNL     1     -10.021  14.334  66.859  1.00  0.00    -0.257 NA 
HETATM   21  C   UNL     1      -9.815  15.676  66.685  1.00  0.00    -0.244 C  
HETATM   22  N   UNL     1      -8.983  16.215  67.612  1.00  0.00    -0.191 NA 
HETATM   23  N   UNL     1     -10.343  16.418  65.756  1.00  0.00    -0.371 N  
HETATM   24  H2  UNL     1      -8.553  15.675  68.363  1.00  0.00     0.000 HD 
HETATM   25  H1  UNL     1      -8.829  17.215  67.483  1.00  0.00     0.000 HD 
HETATM   26  C   UNL     1     -11.221  15.851  64.819  1.00  0.00    -0.355 C  
HETATM   27  H   UNL     1     -10.118  17.412  65.709  1.00  0.00     0.000 HD 
HETATM   28  O   UNL     1     -11.718  16.504  63.909  1.00  0.00    -1.148 OA 
ENDBRANCH  14  15
ENDBRANCH  13  14
ENDBRANCH  12  13
ENDBRANCH  11  12
ENDBRANCH  10  11
ENDBRANCH   8  10
ENDBRANCH   3   8
TORSDOF 7
ENDMDL
MODEL       17
REMARK 921   NORMALIZED FREE ENERGY PREDICTED BY IDOCK:   -6.43 KCAL/MOL
REMARK 922        TOTAL FREE ENERGY PREDICTED BY IDOCK:   -9.60 KCAL/MOL
REMARK 923 INTER-LIGAND FREE ENERGY PREDICTED BY IDOCK:   -8.83 KCAL/MOL
REMARK 924 INTRA-LIGAND FREE ENERGY PREDICTED BY IDOCK:   -0.77 KCAL/MOL
REMARK 927      BINDING AFFINITY PREDICTED BY RF-SCORE:    0.00 PKD
ROOT
HETATM    1  C   UNL     1     -10.682  19.480  67.079  1.00  0.00    -0.592 C  
HETATM    2  C   UNL     1      -9.768  18.595  67.933  1.00  0.00    -0.350 C  
HETATM    3  C   UNL     1      -9.329  17.299  67.207  1.00  0.00    -0.237 C  
HETATM    4  C   UNL     1      -8.561  19.412  68.412  1.00  0.00    -0.397 C  
HETATM    5  H1  UNL     1      -8.252  16.748  65.514  1.00  0.00     0.000 HD 
HETATM    6  N   UNL     1      -8.541  17.601  65.991  1.00  0.00    -0.529 NA 
HETATM    7  H2  UNL     1      -7.743  18.199  66.203  1.00  0.00     0.000 HD 
ENDROOT
BRANCH   3   8
HETATM    8  C   UNL     1     -10.524  16.389  66.838  1.00  0.00    -0.289 C  
HETATM    9  O   UNL     1     -10.747  15.940  65.719  1.00  0.00    -0.331 OA 
BRANCH   8  10
HETATM   10  O   UNL     1     -11.271  16.091  67.939  1.00  0.00    -0.338 OA 
BRANCH  10  11
HETATM   11  C   UNL     1     -11.978  14.836  67.867  1.00  0.00    -0.227 C  
BRANCH  11  12
HETATM   12  C   UNL     1     -11.698  13.990  69.111  1.00  0.00    -0.333 C  
BRANCH  12  13
HETATM   13  O   UNL     1     -10.931  12.853  68.708  1.00  0.00    -0.244 OA 
BRANCH  13  14
HETATM   14  C   UNL     1     -11.747  11.835  68.127  1.00  0.00    -0.307 C  
BRANCH  14  15
HETATM   15  N   UNL     1     -11.087  11.298  66.951  1.00  0.00    -0.293 NA 
HETATM   16  C   UNL     1     -10.276  10.184  66.941  1.00  0.00    -0.236 A  
HETATM   17  N   UNL     1      -9.837   9.898  65.729  1.00  0.00    -0.272 NA 
HETATM   18  C   UNL     1     -10.388  10.865  64.913  1.00  0.00    -0.304 A  
HETATM   19  C   UNL     1     -11.138  11.727  65.665  1.00  0.00    -0.285 A  
HETATM   20  N   UNL     1     -11.792  12.765  65.133  1.00  0.00    -0.367 NA 
HETATM   21  C   UNL     1     -11.729  12.902  63.772  1.00  0.00    -0.492 C  
HETATM   22  N   UNL     1     -12.476  13.932  63.301  1.00  0.00    -1.112 NA 
HETATM   23  N   UNL     1     -11.051  12.147  62.959  1.00  0.00    -0.645 N  
HETATM   24  H2  UNL     1     -13.030  14.544  63.900  1.00  0.00     0.000 HD 
HETATM   25  H1  UNL     1     -12.429  14.034  62.287  1.00  0.00     0.000 HD 
HETATM   26  C   UNL     1     -10.302  11.070  63.459  1.00  0.00    -0.340 C  
HETATM   27  H   UNL     1     -11.064  12.338  61.956  1.00  0.00     0.000 HD 
HETATM   28  O   UNL     1      -9.624  10.351  62.733  1.00  0.00    -0.315 OA 
ENDBRANCH  14  15
ENDBRANCH  13  14
ENDBRANCH  12  13
ENDBRANCH  11  12
ENDBRANCH  10  11
ENDBRANCH   8  10
ENDBRANCH   3   8
TORSDOF 7
ENDMDL
MODEL       18
REMARK 921   NORMALIZED FREE ENERGY PREDICTED BY IDOCK:   -6.38 KCAL/MOL
REMARK 922        TOTAL FREE ENERGY PREDICTED BY IDOCK:   -9.54 KCAL/MOL
REMARK 923 INTER-LIGAND FREE ENERGY PREDICTED BY IDOCK:   -8.34 KCAL/MOL
REMARK 924 INTRA-LIGAND FREE ENERGY PREDICTED BY IDOCK:   -1.20 KCAL/MOL
REMARK 927      BINDING AFFINITY PREDICTED BY RF-SCORE:    0.00 PKD
ROOT
HETATM    1  C   UNL     1      -9.833  14.399  66.119  1.00  0.00    -0.340 C  
HETATM    2  C   UNL     1     -11.162  14.881  66.710  1.00  0.00    -0.338 C  
HETATM    3  C   UNL     1     -12.348  13.940  66.383  1.00  0.00    -0.426 C  
HETATM    4  C   UNL     1     -11.007  15.091  68.222  1.00  0.00    -0.274 C  
HETATM    5  H1  UNL     1     -12.923  11.973  66.740  1.00  0.00     0.000 HD 
HETATM    6  N   UNL     1     -12.143  12.592  66.956  1.00  0.00    -0.514 NA 
HETATM    7  H2  UNL     1     -11.966  12.635  67.960  1.00  0.00     0.000 HD 
ENDROOT
BRANCH   3   8
HETATM    8  C   UNL     1     -12.614  13.823  64.864  1.00  0.00    -0.341 C  
HETATM    9  O   UNL     1     -12.565  14.754  64.067  1.00  0.00    -0.822 OA 
BRANCH   8  10
HETATM   10  O   UNL     1     -12.846  12.527  64.506  1.00  0.00    -0.701 OA 
BRANCH  10  11
HETATM   11  C   UNL     1     -12.121  12.084  63.341  1.00  0.00    -0.493 C  
BRANCH  11  12
HETATM   12  C   UNL     1     -10.694  11.683  63.720  1.00  0.00    -0.419 C  
BRANCH  12  13
HETATM   13  O   UNL     1     -10.756  10.906  64.918  1.00  0.00    -0.276 OA 
BRANCH  13  14
HETATM   14  C   UNL     1      -9.481  10.794  65.551  1.00  0.00    -0.210 C  
BRANCH  14  15
HETATM   15  N   UNL     1      -9.652  10.290  66.901  1.00  0.00    -0.168 NA 
HETATM   16  C   UNL     1      -9.461  11.028  68.048  1.00  0.00    -0.166 A  
HETATM   17  N   UNL     1      -9.723  10.330  69.139  1.00  0.00    -0.207 NA 
HETATM   18  C   UNL     1     -10.105   9.085  68.682  1.00  0.00    -0.189 A  
HETATM   19  C   UNL     1     -10.045   9.059  67.316  1.00  0.00    -0.234 A  
HETATM   20  N   UNL     1     -10.363   7.974  66.601  1.00  0.00    -0.272 NA 
HETATM   21  C   UNL     1     -10.815   6.887  67.300  1.00  0.00    -0.356 C  
HETATM   22  N   UNL     1     -11.187   5.854  66.502  1.00  0.00    -0.741 NA 
HETATM   23  N   UNL     1     -10.914   6.796  68.593  1.00  0.00    -0.436 N  
HETATM   24  H2  UNL     1     -11.136   5.884  65.484  1.00  0.00     0.000 HD 
HETATM   25  H1  UNL     1     -11.524   5.044  67.023  1.00  0.00     0.000 HD 
HETATM   26  C   UNL     1     -10.548   7.882  69.404  1.00  0.00    -0.205 C  
HETATM   27  H   UNL     1     -11.257   5.934  69.018  1.00  0.00     0.000 HD 
HETATM   28  O   UNL     1     -10.595   7.830  70.628  1.00  0.00    -0.215 OA 
ENDBRANCH  14  15
ENDBRANCH  13  14
ENDBRANCH  12  13
ENDBRANCH  11  12
ENDBRANCH  10  11
ENDBRANCH   8  10
ENDBRANCH   3   8
TORSDOF 7
ENDMDL
MODEL       19
REMARK 921   NORMALIZED FREE ENERGY PREDICTED BY IDOCK:   -6.37 KCAL/MOL
REMARK 922        TOTAL FREE ENERGY PREDICTED BY IDOCK:   -9.52 KCAL/MOL
REMARK 923 INTER-LIGAND FREE ENERGY PREDICTED BY IDOCK:   -9.09 KCAL/MOL
REMARK 924 INTRA-LIGAND FREE ENERGY PREDICTED BY IDOCK:   -0.44 KCAL/MOL
REMARK 927      BINDING AFFINITY PREDICTED BY RF-SCORE:    0.00 PKD
ROOT
HETATM    1  C   UNL     1     -10.407  10.812  65.495  1.00  0.00    -0.308 C  
HETATM    2  C   UNL     1     -10.387  10.948  63.968  1.00  0.00    -0.417 C  
HETATM    3  C   UNL     1     -10.884  12.331  63.477  1.00  0.00    -0.454 C  
HETATM    4  C   UNL     1      -8.980  10.633  63.442  1.00  0.00    -0.226 C  
HETATM    5  H1  UNL     1     -10.344  14.334  63.646  1.00  0.00     0.000 HD 
HETATM    6  N   UNL     1     -10.017  13.424  63.970  1.00  0.00    -0.703 NA 
HETATM    7  H2  UNL     1      -9.040  13.268  63.720  1.00  0.00     0.000 HD 
ENDROOT
BRANCH   3   8
HETATM    8  C   UNL     1     -12.351  12.613  63.877  1.00  0.00    -0.459 C  
HETATM    9  O   UNL     1     -13.289  11.845  63.698  1.00  0.00    -0.620 OA 
BRANCH   8  10
HETATM   10  O   UNL     1     -12.462  13.810  64.522  1.00  0.00    -0.571 OA 
BRANCH  10  11
HETATM   11  C   UNL     1     -12.818  13.713  65.916  1.00  0.00    -0.269 C  
BRANCH  11  12
HETATM   12  C   UNL     1     -11.839  14.514  66.777  1.00  0.00    -0.371 C  
BRANCH  12  13
HETATM   13  O   UNL     1     -11.906  14.006  68.112  1.00  0.00    -0.338 OA 
BRANCH  13  14
HETATM   14  C   UNL     1     -10.770  13.206  68.439  1.00  0.00    -0.253 C  
BRANCH  14  15
HETATM   15  N   UNL     1     -11.201  12.026  69.166  1.00  0.00    -0.245 NA 
HETATM   16  C   UNL     1     -10.789  10.739  68.897  1.00  0.00    -0.227 A  
HETATM   17  N   UNL     1     -11.310   9.864  69.737  1.00  0.00    -0.223 NA 
HETATM   18  C   UNL     1     -12.092  10.613  70.593  1.00  0.00    -0.365 A  
HETATM   19  C   UNL     1     -12.036  11.930  70.231  1.00  0.00    -0.330 A  
HETATM   20  N   UNL     1     -12.699  12.887  70.890  1.00  0.00    -0.259 NA 
HETATM   21  C   UNL     1     -13.405  12.498  71.996  1.00  0.00    -0.426 C  
HETATM   22  N   UNL     1     -13.989  13.533  72.652  1.00  0.00    -0.754 NA 
HETATM   23  N   UNL     1     -13.531  11.280  72.434  1.00  0.00    -0.442 N  
HETATM   24  H2  UNL     1     -13.911  14.504  72.350  1.00  0.00     0.000 HD 
HETATM   25  H1  UNL     1     -14.515  13.243  73.476  1.00  0.00     0.000 HD 
HETATM   26  C   UNL     1     -12.901  10.222  71.759  1.00  0.00    -0.460 C  
HETATM   27  H   UNL     1     -14.088  11.093  73.268  1.00  0.00     0.000 HD 
HETATM   28  O   UNL     1     -13.016   9.056  72.117  1.00  0.00    -0.367 OA 
ENDBRANCH  14  15
ENDBRANCH  13  14
ENDBRANCH  12  13
ENDBRANCH  11  12
ENDBRANCH  10  11
ENDBRANCH   8  10
ENDBRANCH   3   8
TORSDOF 7
ENDMDL
MODEL       20
REMARK 921   NORMALIZED FREE ENERGY PREDICTED BY IDOCK:   -6.35 KCAL/MOL
REMARK 922        TOTAL FREE ENERGY PREDICTED BY IDOCK:   -9.48 KCAL/MOL
REMARK 923 INTER-LIGAND FREE ENERGY PREDICTED BY IDOCK:   -8.85 KCAL/MOL
REMARK 924 INTRA-LIGAND FREE ENERGY PREDICTED BY IDOCK:   -0.63 KCAL/MOL
REMARK 927      BINDING AFFINITY PREDICTED BY RF-SCORE:    0.00 PKD
ROOT
HETATM    1  C   UNL     1     -11.912   6.616  70.373  1.00  0.00    -0.342 C  
HETATM    2  C   UNL     1     -11.063   6.800  71.635  1.00  0.00    -0.282 C  
HETATM    3  C   UNL     1     -11.332   8.144  72.356  1.00  0.00    -0.391 C  
HETATM    4  C   UNL     1     -11.269   5.603  72.574  1.00  0.00    -0.346 C  
HETATM    5  H1  UNL     1     -12.910   9.122  73.296  1.00  0.00     0.000 HD 
HETATM    6  N   UNL     1     -12.733   8.237  72.822  1.00  0.00    -0.609 NA 
HETATM    7  H2  UNL     1     -12.985   7.442  73.409  1.00  0.00     0.000 HD 
ENDROOT
BRANCH   3   8
HETATM    8  C   UNL     1     -10.996   9.370  71.474  1.00  0.00    -0.359 C  
HETATM    9  O   UNL     1     -11.793  10.243  71.150  1.00  0.00    -0.353 OA 
BRANCH   8  10
HETATM   10  O   UNL     1      -9.671   9.395  71.154  1.00  0.00    -0.270 OA 
BRANCH  10  11
HETATM   11  C   UNL     1      -9.388   9.278  69.744  1.00  0.00    -0.188 C  
BRANCH  11  12
HETATM   12  C   UNL     1      -8.614  10.500  69.249  1.00  0.00    -0.126 C  
BRANCH  12  13
HETATM   13  O   UNL     1      -9.103  10.837  67.949  1.00  0.00    -0.145 OA 
BRANCH  13  14
HETATM   14  C   UNL     1     -10.509  10.612  67.830  1.00  0.00    -0.208 C  
BRANCH  14  15
HETATM   15  N   UNL     1     -11.110  11.690  67.067  1.00  0.00    -0.287 NA 
HETATM   16  C   UNL     1     -11.735  12.789  67.612  1.00  0.00    -0.367 A  
HETATM   17  N   UNL     1     -12.159  13.631  66.687  1.00  0.00    -0.415 NA 
HETATM   18  C   UNL     1     -11.789  13.058  65.487  1.00  0.00    -0.395 A  
HETATM   19  C   UNL     1     -11.163  11.865  65.722  1.00  0.00    -0.312 A  
HETATM   20  N   UNL     1     -10.695  11.090  64.737  1.00  0.00    -0.280 NA 
HETATM   21  C   UNL     1     -10.819  11.573  63.463  1.00  0.00    -0.398 C  
HETATM   22  N   UNL     1     -10.256  10.767  62.526  1.00  0.00    -0.755 NA 
HETATM   23  N   UNL     1     -11.393  12.689  63.119  1.00  0.00    -0.769 N  
HETATM   24  H2  UNL     1      -9.788   9.889  62.750  1.00  0.00     0.000 HD 
HETATM   25  H1  UNL     1     -10.348  11.127  61.577  1.00  0.00     0.000 HD 
HETATM   26  C   UNL     1     -11.949  13.524  64.101  1.00  0.00    -0.448 C  
HETATM   27  H   UNL     1     -11.439  12.956  62.135  1.00  0.00     0.000 HD 
HETATM   28  O   UNL     1     -12.526  14.569  63.821  1.00  0.00    -0.809 OA 
ENDBRANCH  14  15
ENDBRANCH  13  14
ENDBRANCH  12  13
ENDBRANCH  11  12
ENDBRANCH  10  11
ENDBRANCH   8  10
ENDBRANCH   3   8
TORSDOF 7
ENDMDL
MODEL       21
REMARK 921   NORMALIZED FREE ENERGY PREDICTED BY IDOCK:   -6.34 KCAL/MOL
REMARK 922        TOTAL FREE ENERGY PREDICTED BY IDOCK:   -9.47 KCAL/MOL
REMARK 923 INTER-LIGAND FREE ENERGY PREDICTED BY IDOCK:   -8.59 KCAL/MOL
REMARK 924 INTRA-LIGAND FREE ENERGY PREDICTED BY IDOCK:   -0.88 KCAL/MOL
REMARK 927      BINDING AFFINITY PREDICTED BY RF-SCORE:    0.00 PKD
ROOT
HETATM    1  C   UNL     1      -8.484  19.229  66.237  1.00  0.00    -0.328 C  
HETATM    2  C   UNL     1      -9.958  19.305  66.648  1.00  0.00    -0.461 C  
HETATM    3  C   UNL     1     -10.606  17.911  66.837  1.00  0.00    -0.265 C  
HETATM    4  C   UNL     1     -10.097  20.169  67.909  1.00  0.00    -0.533 C  
HETATM    5  H1  UNL     1     -10.373  16.232  68.045  1.00  0.00     0.000 HD 
HETATM    6  N   UNL     1      -9.946  17.150  67.921  1.00  0.00    -0.281 NA 
HETATM    7  H2  UNL     1      -9.933  17.677  68.794  1.00  0.00     0.000 HD 
ENDROOT
BRANCH   3   8
HETATM    8  C   UNL     1     -10.604  17.072  65.538  1.00  0.00    -0.173 C  
HETATM    9  O   UNL     1     -11.262  17.325  64.535  1.00  0.00    -1.083 OA 
BRANCH   8  10
HETATM   10  O   UNL     1      -9.717  16.039  65.624  1.00  0.00    -0.374 OA 
BRANCH  10  11
HETATM   11  C   UNL     1     -10.290  14.732  65.413  1.00  0.00    -0.386 C  
BRANCH  11  12
HETATM   12  C   UNL     1      -9.800  13.753  66.481  1.00  0.00    -0.290 C  
BRANCH  12  13
HETATM   13  O   UNL     1     -10.938  13.059  66.999  1.00  0.00    -0.258 OA 
BRANCH  13  14
HETATM   14  C   UNL     1     -10.569  12.064  67.955  1.00  0.00    -0.202 C  
BRANCH  14  15
HETATM   15  N   UNL     1     -11.445  12.151  69.108  1.00  0.00    -0.276 NA 
HETATM   16  C   UNL     1     -12.067  11.079  69.710  1.00  0.00    -0.353 A  
HETATM   17  N   UNL     1     -12.778  11.442  70.762  1.00  0.00    -0.290 NA 
HETATM   18  C   UNL     1     -12.609  12.809  70.853  1.00  0.00    -0.255 A  
HETATM   19  C   UNL     1     -11.808  13.240  69.832  1.00  0.00    -0.310 A  
HETATM   20  N   UNL     1     -11.473  14.526  69.673  1.00  0.00    -0.275 NA 
HETATM   21  C   UNL     1     -11.925  15.402  70.623  1.00  0.00    -0.356 C  
HETATM   22  N   UNL     1     -11.484  16.672  70.435  1.00  0.00    -0.409 NA 
HETATM   23  N   UNL     1     -12.690  15.108  71.633  1.00  0.00    -0.329 N  
HETATM   24  H2  UNL     1     -10.877  16.947  69.662  1.00  0.00     0.000 HD 
HETATM   25  H1  UNL     1     -11.821  17.324  71.142  1.00  0.00     0.000 HD 
HETATM   26  C   UNL     1     -13.118  13.785  71.828  1.00  0.00    -0.379 C  
HETATM   27  H   UNL     1     -12.978  15.839  72.283  1.00  0.00     0.000 HD 
HETATM   28  O   UNL     1     -13.863  13.467  72.748  1.00  0.00    -0.730 OA 
ENDBRANCH  14  15
ENDBRANCH  13  14
ENDBRANCH  12  13
ENDBRANCH  11  12
ENDBRANCH  10  11
ENDBRANCH   8  10
ENDBRANCH   3   8
TORSDOF 7
ENDMDL
MODEL       22
REMARK 921   NORMALIZED FREE ENERGY PREDICTED BY IDOCK:   -6.33 KCAL/MOL
REMARK 922        TOTAL FREE ENERGY PREDICTED BY IDOCK:   -9.46 KCAL/MOL
REMARK 923 INTER-LIGAND FREE ENERGY PREDICTED BY IDOCK:   -8.96 KCAL/MOL
REMARK 924 INTRA-LIGAND FREE ENERGY PREDICTED BY IDOCK:   -0.50 KCAL/MOL
REMARK 927      BINDING AFFINITY PREDICTED BY RF-SCORE:    0.00 PKD
ROOT
HETATM    1  C   UNL     1     -11.509   6.637  69.640  1.00  0.00    -0.358 C  
HETATM    2  C   UNL     1     -10.791   7.061  70.926  1.00  0.00    -0.268 C  
HETATM    3  C   UNL     1     -11.764   7.551  72.028  1.00  0.00    -0.294 C  
HETATM    4  C   UNL     1      -9.904   5.913  71.423  1.00  0.00    -0.205 C  
HETATM    5  H1  UNL     1     -13.332   6.800  73.171  1.00  0.00     0.000 HD 
HETATM    6  N   UNL     1     -12.693   6.478  72.445  1.00  0.00    -0.524 NA 
HETATM    7  H2  UNL     1     -12.189   5.640  72.737  1.00  0.00     0.000 HD 
ENDROOT
BRANCH   3   8
HETATM    8  C   UNL     1     -12.572   8.798  71.599  1.00  0.00    -0.345 C  
HETATM    9  O   UNL     1     -13.795   8.874  71.587  1.00  0.00    -0.386 OA 
BRANCH   8  10
HETATM   10  O   UNL     1     -11.742   9.838  71.297  1.00  0.00    -0.339 OA 
BRANCH  10  11
HETATM   11  C   UNL     1     -12.257  10.752  70.307  1.00  0.00    -0.348 C  
BRANCH  11  12
HETATM   12  C   UNL     1     -11.276  10.889  69.141  1.00  0.00    -0.256 C  
BRANCH  12  13
HETATM   13  O   UNL     1     -11.947  11.569  68.077  1.00  0.00    -0.595 OA 
BRANCH  13  14
HETATM   14  C   UNL     1     -11.280  11.395  66.826  1.00  0.00    -0.252 C  
BRANCH  14  15
HETATM   15  N   UNL     1     -11.540  12.542  65.975  1.00  0.00    -0.384 NA 
HETATM   16  C   UNL     1     -12.540  12.611  65.030  1.00  0.00    -0.430 A  
HETATM   17  N   UNL     1     -12.573  13.785  64.425  1.00  0.00    -0.666 NA 
HETATM   18  C   UNL     1     -11.553  14.513  65.004  1.00  0.00    -0.382 A  
HETATM   19  C   UNL     1     -10.915  13.746  65.939  1.00  0.00    -0.283 A  
HETATM   20  N   UNL     1      -9.883  14.198  66.660  1.00  0.00    -0.273 NA 
HETATM   21  C   UNL     1      -9.520  15.503  66.464  1.00  0.00    -0.273 C  
HETATM   22  N   UNL     1      -8.516  15.910  67.283  1.00  0.00    -0.173 NA 
HETATM   23  N   UNL     1     -10.051  16.325  65.607  1.00  0.00    -0.337 N  
HETATM   24  H2  UNL     1      -8.076  15.303  67.975  1.00  0.00     0.000 HD 
HETATM   25  H1  UNL     1      -8.246  16.882  67.137  1.00  0.00     0.000 HD 
HETATM   26  C   UNL     1     -11.105  15.897  64.784  1.00  0.00    -0.384 C  
HETATM   27  H   UNL     1      -9.701  17.280  65.533  1.00  0.00     0.000 HD 
HETATM   28  O   UNL     1     -11.615  16.627  63.942  1.00  0.00    -1.204 OA 
ENDBRANCH  14  15
ENDBRANCH  13  14
ENDBRANCH  12  13
ENDBRANCH  11  12
ENDBRANCH  10  11
ENDBRANCH   8  10
ENDBRANCH   3   8
TORSDOF 7
ENDMDL
MODEL       23
REMARK 921   NORMALIZED FREE ENERGY PREDICTED BY IDOCK:   -6.29 KCAL/MOL
REMARK 922        TOTAL FREE ENERGY PREDICTED BY IDOCK:   -9.40 KCAL/MOL
REMARK 923 INTER-LIGAND FREE ENERGY PREDICTED BY IDOCK:   -8.85 KCAL/MOL
REMARK 924 INTRA-LIGAND FREE ENERGY PREDICTED BY IDOCK:   -0.56 KCAL/MOL
REMARK 927      BINDING AFFINITY PREDICTED BY RF-SCORE:    0.00 PKD
ROOT
HETATM    1  C   UNL     1     -12.261   6.975  70.290  1.00  0.00    -0.052 C  
HETATM    2  C   UNL     1     -12.765   7.787  71.488  1.00  0.00    -0.355 C  
HETATM    3  C   UNL     1     -12.327   9.272  71.440  1.00  0.00    -0.343 C  
HETATM    4  C   UNL     1     -14.290   7.651  71.598  1.00  0.00    -0.613 C  
HETATM    5  H1  UNL     1     -12.589  10.938  70.221  1.00  0.00     0.000 HD 
HETATM    6  N   UNL     1     -12.878   9.961  70.252  1.00  0.00    -0.526 NA 
HETATM    7  H2  UNL     1     -13.893   9.869  70.205  1.00  0.00     0.000 HD 
ENDROOT
BRANCH   3   8
HETATM    8  C   UNL     1     -10.790   9.441  71.470  1.00  0.00    -0.328 C  
HETATM    9  O   UNL     1     -10.043   8.944  72.306  1.00  0.00    -0.294 OA 
BRANCH   8  10
HETATM   10  O   UNL     1     -10.355  10.166  70.399  1.00  0.00    -0.258 OA 
BRANCH  10  11
HETATM   11  C   UNL     1      -9.234   9.592  69.697  1.00  0.00    -0.200 C  
BRANCH  11  12
HETATM   12  C   UNL     1      -8.516  10.660  68.869  1.00  0.00    -0.154 C  
BRANCH  12  13
HETATM   13  O   UNL     1      -9.504  11.385  68.131  1.00  0.00    -0.168 OA 
BRANCH  13  14
HETATM   14  C   UNL     1      -9.079  11.661  66.796  1.00  0.00    -0.186 C  
BRANCH  14  15
HETATM   15  N   UNL     1      -9.687  12.897  66.340  1.00  0.00    -0.260 NA 
HETATM   16  C   UNL     1      -9.327  14.157  66.766  1.00  0.00    -0.282 A  
HETATM   17  N   UNL     1     -10.020  15.104  66.160  1.00  0.00    -0.275 NA 
HETATM   18  C   UNL     1     -10.866  14.433  65.300  1.00  0.00    -0.361 A  
HETATM   19  C   UNL     1     -10.671  13.085  65.425  1.00  0.00    -0.291 A  
HETATM   20  N   UNL     1     -11.357  12.188  64.707  1.00  0.00    -0.319 NA 
HETATM   21  C   UNL     1     -12.238  12.682  63.784  1.00  0.00    -0.514 C  
HETATM   22  N   UNL     1     -12.841  11.716  63.046  1.00  0.00    -0.889 NA 
HETATM   23  N   UNL     1     -12.506  13.938  63.578  1.00  0.00    -1.067 N  
HETATM   24  H2  UNL     1     -12.656  10.720  63.167  1.00  0.00     0.000 HD 
HETATM   25  H1  UNL     1     -13.498  12.084  62.358  1.00  0.00     0.000 HD 
HETATM   26  C   UNL     1     -11.857  14.928  64.333  1.00  0.00    -0.360 C  
HETATM   27  H   UNL     1     -13.188  14.204  62.867  1.00  0.00     0.000 HD 
HETATM   28  O   UNL     1     -12.100  16.122  64.193  1.00  0.00    -0.753 OA 
ENDBRANCH  14  15
ENDBRANCH  13  14
ENDBRANCH  12  13
ENDBRANCH  11  12
ENDBRANCH  10  11
ENDBRANCH   8  10
ENDBRANCH   3   8
TORSDOF 7
ENDMDL
MODEL       24
REMARK 921   NORMALIZED FREE ENERGY PREDICTED BY IDOCK:   -6.27 KCAL/MOL
REMARK 922        TOTAL FREE ENERGY PREDICTED BY IDOCK:   -9.38 KCAL/MOL
REMARK 923 INTER-LIGAND FREE ENERGY PREDICTED BY IDOCK:   -8.68 KCAL/MOL
REMARK 924 INTRA-LIGAND FREE ENERGY PREDICTED BY IDOCK:   -0.70 KCAL/MOL
REMARK 927      BINDING AFFINITY PREDICTED BY RF-SCORE:    0.00 PKD
ROOT
HETATM    1  C   UNL     1     -12.575  12.161  63.880  1.00  0.00    -0.545 C  
HETATM    2  C   UNL     1     -12.234  12.782  65.239  1.00  0.00    -0.535 C  
HETATM    3  C   UNL     1     -10.751  12.586  65.640  1.00  0.00    -0.266 C  
HETATM    4  C   UNL     1     -12.630  14.265  65.242  1.00  0.00    -0.405 C  
HETATM    5  H1  UNL     1      -8.863  13.118  64.944  1.00  0.00     0.000 HD 
HETATM    6  N   UNL     1      -9.839  13.246  64.680  1.00  0.00    -0.604 NA 
HETATM    7  H2  UNL     1     -10.068  14.234  64.566  1.00  0.00     0.000 HD 
ENDROOT
BRANCH   3   8
HETATM    8  C   UNL     1     -10.364  11.096  65.782  1.00  0.00    -0.260 C  
HETATM    9  O   UNL     1      -9.671  10.470  64.987  1.00  0.00    -0.242 OA 
BRANCH   8  10
HETATM   10  O   UNL     1     -10.840  10.575  66.949  1.00  0.00    -0.250 OA 
BRANCH  10  11
HETATM   11  C   UNL     1     -10.469  11.308  68.133  1.00  0.00    -0.189 C  
BRANCH  11  12
HETATM   12  C   UNL     1     -10.314  10.361  69.324  1.00  0.00    -0.230 C  
BRANCH  12  13
HETATM   13  O   UNL     1     -11.101  10.874  70.402  1.00  0.00    -0.225 OA 
BRANCH  13  14
HETATM   14  C   UNL     1     -12.248  11.586  69.937  1.00  0.00    -0.258 C  
BRANCH  14  15
HETATM   15  N   UNL     1     -12.657  12.554  70.938  1.00  0.00    -0.304 NA 
HETATM   16  C   UNL     1     -13.403  12.263  72.058  1.00  0.00    -0.386 A  
HETATM   17  N   UNL     1     -13.599  13.326  72.816  1.00  0.00    -0.598 NA 
HETATM   18  C   UNL     1     -12.949  14.354  72.164  1.00  0.00    -0.355 A  
HETATM   19  C   UNL     1     -12.389  13.882  71.009  1.00  0.00    -0.376 A  
HETATM   20  N   UNL     1     -11.693  14.663  70.174  1.00  0.00    -0.282 NA 
HETATM   21  C   UNL     1     -11.512  15.964  70.556  1.00  0.00    -0.392 C  
HETATM   22  N   UNL     1     -10.736  16.673  69.696  1.00  0.00    -0.325 NA 
HETATM   23  N   UNL     1     -11.995  16.523  71.626  1.00  0.00    -0.608 N  
HETATM   24  H2  UNL     1     -10.329  16.275  68.849  1.00  0.00     0.000 HD 
HETATM   25  H1  UNL     1     -10.600  17.643  69.980  1.00  0.00     0.000 HD 
HETATM   26  C   UNL     1     -12.776  15.771  72.519  1.00  0.00    -0.451 C  
HETATM   27  H   UNL     1     -11.806  17.507  71.817  1.00  0.00     0.000 HD 
HETATM   28  O   UNL     1     -13.277  16.263  73.524  1.00  0.00    -0.598 OA 
ENDBRANCH  14  15
ENDBRANCH  13  14
ENDBRANCH  12  13
ENDBRANCH  11  12
ENDBRANCH  10  11
ENDBRANCH   8  10
ENDBRANCH   3   8
TORSDOF 7
ENDMDL
MODEL       25
REMARK 921   NORMALIZED FREE ENERGY PREDICTED BY IDOCK:   -6.27 KCAL/MOL
REMARK 922        TOTAL FREE ENERGY PREDICTED BY IDOCK:   -9.38 KCAL/MOL
REMARK 923 INTER-LIGAND FREE ENERGY PREDICTED BY IDOCK:   -9.00 KCAL/MOL
REMARK 924 INTRA-LIGAND FREE ENERGY PREDICTED BY IDOCK:   -0.39 KCAL/MOL
REMARK 927      BINDING AFFINITY PREDICTED BY RF-SCORE:    0.00 PKD
ROOT
HETATM    1  C   UNL     1     -11.410  15.992  67.092  1.00  0.00     0.103 C  
HETATM    2  C   UNL     1     -10.351  15.495  66.102  1.00  0.00    -0.327 C  
HETATM    3  C   UNL     1     -10.938  15.154  64.709  1.00  0.00    -0.377 C  
HETATM    4  C   UNL     1      -9.215  16.522  66.002  1.00  0.00    -0.295 C  
HETATM    5  H1  UNL     1     -11.917  16.124  63.149  1.00  0.00     0.000 HD 
HETATM    6  N   UNL     1     -11.532  16.348  64.066  1.00  0.00    -1.573 NA 
HETATM    7  H2  UNL     1     -10.861  17.115  64.012  1.00  0.00     0.000 HD 
ENDROOT
BRANCH   3   8
HETATM    8  C   UNL     1     -11.988  14.020  64.765  1.00  0.00    -0.417 C  
HETATM    9  O   UNL     1     -13.048  14.072  65.378  1.00  0.00    -0.763 OA 
BRANCH   8  10
HETATM   10  O   UNL     1     -11.613  12.966  63.984  1.00  0.00    -0.369 OA 
BRANCH  10  11
HETATM   11  C   UNL     1     -10.461  12.241  64.462  1.00  0.00    -0.309 C  
BRANCH  11  12
HETATM   12  C   UNL     1     -10.870  11.234  65.538  1.00  0.00    -0.179 C  
BRANCH  12  13
HETATM   13  O   UNL     1     -10.287  11.648  66.776  1.00  0.00    -0.212 OA 
BRANCH  13  14
HETATM   14  C   UNL     1     -10.717  10.836  67.869  1.00  0.00    -0.239 C  
BRANCH  14  15
HETATM   15  N   UNL     1     -11.325  11.676  68.885  1.00  0.00    -0.241 NA 
HETATM   16  C   UNL     1     -11.382  13.051  68.841  1.00  0.00    -0.287 A  
HETATM   17  N   UNL     1     -12.024  13.556  69.879  1.00  0.00    -0.335 NA 
HETATM   18  C   UNL     1     -12.405  12.462  70.630  1.00  0.00    -0.279 A  
HETATM   19  C   UNL     1     -11.963  11.317  70.028  1.00  0.00    -0.368 A  
HETATM   20  N   UNL     1     -12.191  10.101  70.537  1.00  0.00    -0.278 NA 
HETATM   21  C   UNL     1     -12.948  10.042  71.675  1.00  0.00    -0.449 C  
HETATM   22  N   UNL     1     -13.198   8.773  72.089  1.00  0.00    -0.387 NA 
HETATM   23  N   UNL     1     -13.421  11.059  72.333  1.00  0.00    -0.458 N  
HETATM   24  H2  UNL     1     -12.855   7.946  71.601  1.00  0.00     0.000 HD 
HETATM   25  H1  UNL     1     -13.762   8.730  72.937  1.00  0.00     0.000 HD 
HETATM   26  C   UNL     1     -13.175  12.365  71.880  1.00  0.00    -0.382 C  
HETATM   27  H   UNL     1     -13.971  10.908  73.179  1.00  0.00     0.000 HD 
HETATM   28  O   UNL     1     -13.575  13.354  72.483  1.00  0.00    -0.575 OA 
ENDBRANCH  14  15
ENDBRANCH  13  14
ENDBRANCH  12  13
ENDBRANCH  11  12
ENDBRANCH  10  11
ENDBRANCH   8  10
ENDBRANCH   3   8
TORSDOF 7
ENDMDL
MODEL       26
REMARK 921   NORMALIZED FREE ENERGY PREDICTED BY IDOCK:   -6.26 KCAL/MOL
REMARK 922        TOTAL FREE ENERGY PREDICTED BY IDOCK:   -9.36 KCAL/MOL
REMARK 923 INTER-LIGAND FREE ENERGY PREDICTED BY IDOCK:   -8.41 KCAL/MOL
REMARK 924 INTRA-LIGAND FREE ENERGY PREDICTED BY IDOCK:   -0.94 KCAL/MOL
REMARK 927      BINDING AFFINITY PREDICTED BY RF-SCORE:    0.00 PKD
ROOT
HETATM    1  C   UNL     1     -12.390  11.742  63.490  1.00  0.00    -0.495 C  
HETATM    2  C   UNL     1     -11.084  12.087  64.213  1.00  0.00    -0.411 C  
HETATM    3  C   UNL     1     -11.314  12.751  65.594  1.00  0.00    -0.319 C  
HETATM    4  C   UNL     1     -10.211  10.830  64.328  1.00  0.00    -0.422 C  
HETATM    5  H1  UNL     1     -12.185  12.282  67.425  1.00  0.00     0.000 HD 
HETATM    6  N   UNL     1     -12.034  11.845  66.517  1.00  0.00    -0.545 NA 
HETATM    7  H2  UNL     1     -11.555  10.948  66.608  1.00  0.00     0.000 HD 
ENDROOT
BRANCH   3   8
HETATM    8  C   UNL     1     -12.072  14.095  65.490  1.00  0.00    -0.414 C  
HETATM    9  O   UNL     1     -13.229  14.222  65.106  1.00  0.00    -0.686 OA 
BRANCH   8  10
HETATM   10  O   UNL     1     -11.306  15.126  65.948  1.00  0.00    -0.319 OA 
BRANCH  10  11
HETATM   11  C   UNL     1     -10.743  14.923  67.260  1.00  0.00    -0.294 C  
BRANCH  11  12
HETATM   12  C   UNL     1     -11.770  15.258  68.343  1.00  0.00    -0.321 C  
BRANCH  12  13
HETATM   13  O   UNL     1     -12.215  14.031  68.925  1.00  0.00    -0.345 OA 
BRANCH  13  14
HETATM   14  C   UNL     1     -12.177  14.070  70.352  1.00  0.00    -0.363 C  
BRANCH  14  15
HETATM   15  N   UNL     1     -12.448  12.745  70.881  1.00  0.00    -0.345 NA 
HETATM   16  C   UNL     1     -13.299  12.473  71.929  1.00  0.00    -0.368 A  
HETATM   17  N   UNL     1     -13.385  11.179  72.177  1.00  0.00    -0.354 NA 
HETATM   18  C   UNL     1     -12.559  10.581  71.248  1.00  0.00    -0.426 A  
HETATM   19  C   UNL     1     -11.976  11.542  70.468  1.00  0.00    -0.344 A  
HETATM   20  N   UNL     1     -11.124  11.248  69.479  1.00  0.00    -0.252 NA 
HETATM   21  C   UNL     1     -10.898   9.921  69.235  1.00  0.00    -0.227 C  
HETATM   22  N   UNL     1     -10.083   9.702  68.172  1.00  0.00    -0.167 NA 
HETATM   23  N   UNL     1     -11.394   8.924  69.907  1.00  0.00    -0.443 N  
HETATM   24  H2  UNL     1      -9.678  10.451  67.611  1.00  0.00     0.000 HD 
HETATM   25  H1  UNL     1      -9.915   8.712  67.990  1.00  0.00     0.000 HD 
HETATM   26  C   UNL     1     -12.255   9.165  70.989  1.00  0.00    -0.242 C  
HETATM   27  H   UNL     1     -11.156   7.966  69.648  1.00  0.00     0.000 HD 
HETATM   28  O   UNL     1     -12.721   8.259  71.670  1.00  0.00    -0.312 OA 
ENDBRANCH  14  15
ENDBRANCH  13  14
ENDBRANCH  12  13
ENDBRANCH  11  12
ENDBRANCH  10  11
ENDBRANCH   8  10
ENDBRANCH   3   8
TORSDOF 7
ENDMDL
MODEL       27
REMARK 921   NORMALIZED FREE ENERGY PREDICTED BY IDOCK:   -6.21 KCAL/MOL
REMARK 922        TOTAL FREE ENERGY PREDICTED BY IDOCK:   -9.30 KCAL/MOL
REMARK 923 INTER-LIGAND FREE ENERGY PREDICTED BY IDOCK:   -8.75 KCAL/MOL
REMARK 924 INTRA-LIGAND FREE ENERGY PREDICTED BY IDOCK:   -0.54 KCAL/MOL
REMARK 927      BINDING AFFINITY PREDICTED BY RF-SCORE:    0.00 PKD
ROOT
HETATM    1  C   UNL     1     -14.014  13.467  72.424  1.00  0.00    -0.638 C  
HETATM    2  C   UNL     1     -12.738  14.315  72.461  1.00  0.00    -0.380 C  
HETATM    3  C   UNL     1     -12.365  14.908  71.079  1.00  0.00    -0.324 C  
HETATM    4  C   UNL     1     -12.877  15.409  73.527  1.00  0.00    -0.683 C  
HETATM    5  H1  UNL     1     -13.171  16.213  69.672  1.00  0.00     0.000 HD 
HETATM    6  N   UNL     1     -13.416  15.822  70.581  1.00  0.00    -0.746 NA 
HETATM    7  H2  UNL     1     -13.625  16.556  71.259  1.00  0.00     0.000 HD 
ENDROOT
BRANCH   3   8
HETATM    8  C   UNL     1     -12.082  13.818  70.019  1.00  0.00    -0.349 C  
HETATM    9  O   UNL     1     -11.791  12.653  70.268  1.00  0.00    -0.310 OA 
BRANCH   8  10
HETATM   10  O   UNL     1     -12.264  14.302  68.757  1.00  0.00    -0.301 OA 
BRANCH  10  11
HETATM   11  C   UNL     1     -11.051  14.687  68.078  1.00  0.00    -0.281 C  
BRANCH  11  12
HETATM   12  C   UNL     1     -11.332  14.973  66.602  1.00  0.00    -0.289 C  
BRANCH  12  13
HETATM   13  O   UNL     1     -12.389  14.109  66.176  1.00  0.00    -0.450 OA 
BRANCH  13  14
HETATM   14  C   UNL     1     -12.266  13.750  64.800  1.00  0.00    -0.406 C  
BRANCH  14  15
HETATM   15  N   UNL     1     -11.384  12.604  64.675  1.00  0.00    -0.306 NA 
HETATM   16  C   UNL     1     -10.584  12.339  63.586  1.00  0.00    -0.462 A  
HETATM   17  N   UNL     1      -9.858  11.249  63.754  1.00  0.00    -0.290 NA 
HETATM   18  C   UNL     1     -10.196  10.786  65.010  1.00  0.00    -0.306 A  
HETATM   19  C   UNL     1     -11.141  11.606  65.562  1.00  0.00    -0.237 A  
HETATM   20  N   UNL     1     -11.654  11.397  66.780  1.00  0.00    -0.444 NA 
HETATM   21  C   UNL     1     -11.146  10.342  67.489  1.00  0.00    -0.267 C  
HETATM   22  N   UNL     1     -11.662  10.238  68.740  1.00  0.00    -0.581 NA 
HETATM   23  N   UNL     1     -10.251   9.498  67.069  1.00  0.00    -0.241 N  
HETATM   24  H2  UNL     1     -12.359  10.882  69.115  1.00  0.00     0.000 HD 
HETATM   25  H1  UNL     1     -11.283   9.453  69.269  1.00  0.00     0.000 HD 
HETATM   26  C   UNL     1      -9.709   9.631  65.781  1.00  0.00    -0.280 C  
HETATM   27  H   UNL     1      -9.943   8.737  67.675  1.00  0.00     0.000 HD 
HETATM   28  O   UNL     1      -8.885   8.842  65.331  1.00  0.00    -0.183 OA 
ENDBRANCH  14  15
ENDBRANCH  13  14
ENDBRANCH  12  13
ENDBRANCH  11  12
ENDBRANCH  10  11
ENDBRANCH   8  10
ENDBRANCH   3   8
TORSDOF 7
ENDMDL
MODEL       28
REMARK 921   NORMALIZED FREE ENERGY PREDICTED BY IDOCK:   -6.20 KCAL/MOL
REMARK 922        TOTAL FREE ENERGY PREDICTED BY IDOCK:   -9.28 KCAL/MOL
REMARK 923 INTER-LIGAND FREE ENERGY PREDICTED BY IDOCK:   -8.55 KCAL/MOL
REMARK 924 INTRA-LIGAND FREE ENERGY PREDICTED BY IDOCK:   -0.74 KCAL/MOL
REMARK 927      BINDING AFFINITY PREDICTED BY RF-SCORE:    0.00 PKD
ROOT
HETATM    1  C   UNL     1     -12.693  12.016  63.413  1.00  0.00    -0.527 C  
HETATM    2  C   UNL     1     -12.034  12.236  64.779  1.00  0.00    -0.429 C  
HETATM    3  C   UNL     1     -10.488  12.307  64.701  1.00  0.00    -0.303 C  
HETATM    4  C   UNL     1     -12.625  13.489  65.440  1.00  0.00    -0.531 C  
HETATM    5  H1  UNL     1      -9.023  13.493  63.821  1.00  0.00     0.000 HD 
HETATM    6  N   UNL     1     -10.040  13.447  63.872  1.00  0.00    -0.662 NA 
HETATM    7  H2  UNL     1     -10.438  14.327  64.201  1.00  0.00     0.000 HD 
ENDROOT
BRANCH   3   8
HETATM    8  C   UNL     1      -9.859  10.999  64.168  1.00  0.00    -0.308 C  
HETATM    9  O   UNL     1      -9.262  10.888  63.103  1.00  0.00    -0.245 OA 
BRANCH   8  10
HETATM   10  O   UNL     1      -9.993   9.986  65.072  1.00  0.00    -0.326 OA 
BRANCH  10  11
HETATM   11  C   UNL     1      -9.588  10.319  66.416  1.00  0.00    -0.185 C  
BRANCH  11  12
HETATM   12  C   UNL     1     -10.586   9.759  67.431  1.00  0.00    -0.267 C  
BRANCH  12  13
HETATM   13  O   UNL     1     -11.373  10.847  67.923  1.00  0.00    -0.307 OA 
BRANCH  13  14
HETATM   14  C   UNL     1     -10.565  11.949  68.337  1.00  0.00    -0.218 C  
BRANCH  14  15
HETATM   15  N   UNL     1     -11.335  12.813  69.212  1.00  0.00    -0.263 NA 
HETATM   16  C   UNL     1     -11.469  14.175  69.057  1.00  0.00    -0.285 A  
HETATM   17  N   UNL     1     -12.256  14.706  69.975  1.00  0.00    -0.323 NA 
HETATM   18  C   UNL     1     -12.655  13.644  70.760  1.00  0.00    -0.325 A  
HETATM   19  C   UNL     1     -12.078  12.492  70.301  1.00  0.00    -0.294 A  
HETATM   20  N   UNL     1     -12.291  11.302  70.873  1.00  0.00    -0.387 NA 
HETATM   21  C   UNL     1     -13.170  11.271  71.921  1.00  0.00    -0.386 C  
HETATM   22  N   UNL     1     -13.390  10.020  72.401  1.00  0.00    -0.595 NA 
HETATM   23  N   UNL     1     -13.776  12.297  72.443  1.00  0.00    -0.484 N  
HETATM   24  H2  UNL     1     -12.944   9.186  72.019  1.00  0.00     0.000 HD 
HETATM   25  H1  UNL     1     -14.046   9.997  73.182  1.00  0.00     0.000 HD 
HETATM   26  C   UNL     1     -13.557  13.581  71.921  1.00  0.00    -0.424 C  
HETATM   27  H   UNL     1     -14.411  12.168  73.231  1.00  0.00     0.000 HD 
HETATM   28  O   UNL     1     -14.083  14.581  72.398  1.00  0.00    -0.471 OA 
ENDBRANCH  14  15
ENDBRANCH  13  14
ENDBRANCH  12  13
ENDBRANCH  11  12
ENDBRANCH  10  11
ENDBRANCH   8  10
ENDBRANCH   3   8
TORSDOF 7
ENDMDL
MODEL       29
REMARK 921   NORMALIZED FREE ENERGY PREDICTED BY IDOCK:   -6.20 KCAL/MOL
REMARK 922        TOTAL FREE ENERGY PREDICTED BY IDOCK:   -9.28 KCAL/MOL
REMARK 923 INTER-LIGAND FREE ENERGY PREDICTED BY IDOCK:   -8.10 KCAL/MOL
REMARK 924 INTRA-LIGAND FREE ENERGY PREDICTED BY IDOCK:   -1.18 KCAL/MOL
REMARK 927      BINDING AFFINITY PREDICTED BY RF-SCORE:    0.00 PKD
ROOT
HETATM    1  C   UNL     1     -12.516  11.972  63.528  1.00  0.00    -0.654 C  
HETATM    2  C   UNL     1     -12.174  12.481  64.932  1.00  0.00    -0.534 C  
HETATM    3  C   UNL     1     -10.652  12.658  65.159  1.00  0.00    -0.298 C  
HETATM    4  C   UNL     1     -12.943  13.779  65.211  1.00  0.00    -0.328 C  
HETATM    5  H1  UNL     1      -9.081  13.783  64.387  1.00  0.00     0.000 HD 
HETATM    6  N   UNL     1     -10.082  13.667  64.238  1.00  0.00    -0.763 NA 
HETATM    7  H2  UNL     1     -10.577  14.557  64.307  1.00  0.00     0.000 HD 
ENDROOT
BRANCH   3   8
HETATM    8  C   UNL     1      -9.871  11.330  65.021  1.00  0.00    -0.261 C  
HETATM    9  O   UNL     1      -9.563  10.802  63.959  1.00  0.00    -0.240 OA 
BRANCH   8  10
HETATM   10  O   UNL     1      -9.503  10.849  66.244  1.00  0.00    -0.183 OA 
BRANCH  10  11
HETATM   11  C   UNL     1      -8.416  11.559  66.870  1.00  0.00    -0.165 C  
BRANCH  11  12
HETATM   12  C   UNL     1      -8.796  11.978  68.291  1.00  0.00    -0.182 C  
BRANCH  12  13
HETATM   13  O   UNL     1      -9.195  13.351  68.255  1.00  0.00    -0.204 OA 
BRANCH  13  14
HETATM   14  C   UNL     1      -8.238  14.169  67.580  1.00  0.00    -0.186 C  
BRANCH  14  15
HETATM   15  N   UNL     1      -8.597  15.566  67.739  1.00  0.00    -0.150 NA 
HETATM   16  C   UNL     1      -8.150  16.385  68.753  1.00  0.00    -0.234 A  
HETATM   17  N   UNL     1      -8.606  17.619  68.633  1.00  0.00    -0.287 NA 
HETATM   18  C   UNL     1      -9.380  17.605  67.491  1.00  0.00    -0.248 A  
HETATM   19  C   UNL     1      -9.385  16.346  66.957  1.00  0.00    -0.228 A  
HETATM   20  N   UNL     1     -10.056  16.039  65.840  1.00  0.00    -0.331 NA 
HETATM   21  C   UNL     1     -10.703  17.067  65.209  1.00  0.00    -0.096 C  
HETATM   22  N   UNL     1     -11.297  16.694  64.047  1.00  0.00    -1.530 NA 
HETATM   23  N   UNL     1     -10.767  18.299  65.621  1.00  0.00    -0.236 N  
HETATM   24  H2  UNL     1     -11.266  15.743  63.681  1.00  0.00     0.000 HD 
HETATM   25  H1  UNL     1     -11.779  17.460  63.577  1.00  0.00     0.000 HD 
HETATM   26  C   UNL     1     -10.127  18.675  66.813  1.00  0.00    -0.380 C  
HETATM   27  H   UNL     1     -11.284  18.992  65.079  1.00  0.00     0.000 HD 
HETATM   28  O   UNL     1     -10.186  19.817  67.255  1.00  0.00    -0.382 OA 
ENDBRANCH  14  15
ENDBRANCH  13  14
ENDBRANCH  12  13
ENDBRANCH  11  12
ENDBRANCH  10  11
ENDBRANCH   8  10
ENDBRANCH   3   8
TORSDOF 7
ENDMDL
MODEL       30
REMARK 921   NORMALIZED FREE ENERGY PREDICTED BY IDOCK:   -6.20 KCAL/MOL
REMARK 922        TOTAL FREE ENERGY PREDICTED BY IDOCK:   -9.28 KCAL/MOL
REMARK 923 INTER-LIGAND FREE ENERGY PREDICTED BY IDOCK:   -8.51 KCAL/MOL
REMARK 924 INTRA-LIGAND FREE ENERGY PREDICTED BY IDOCK:   -0.76 KCAL/MOL
REMARK 927      BINDING AFFINITY PREDICTED BY RF-SCORE:    0.00 PKD
ROOT
HETATM    1  C   UNL     1     -10.441  12.524  64.002  1.00  0.00    -0.449 C  
HETATM    2  C   UNL     1     -11.841  12.529  64.625  1.00  0.00    -0.439 C  
HETATM    3  C   UNL     1     -12.316  13.945  65.035  1.00  0.00    -0.430 C  
HETATM    4  C   UNL     1     -12.833  11.854  63.669  1.00  0.00    -0.429 C  
HETATM    5  H1  UNL     1     -12.730  15.774  64.133  1.00  0.00     0.000 HD 
HETATM    6  N   UNL     1     -12.417  14.842  63.863  1.00  0.00    -1.056 NA 
HETATM    7  H2  UNL     1     -13.014  14.443  63.137  1.00  0.00     0.000 HD 
ENDROOT
BRANCH   3   8
HETATM    8  C   UNL     1     -11.407  14.592  66.106  1.00  0.00    -0.348 C  
HETATM    9  O   UNL     1     -10.648  15.533  65.909  1.00  0.00    -0.309 OA 
BRANCH   8  10
HETATM   10  O   UNL     1     -11.608  14.020  67.329  1.00  0.00    -0.328 OA 
BRANCH  10  11
HETATM   11  C   UNL     1     -10.597  14.325  68.311  1.00  0.00    -0.245 C  
BRANCH  11  12
HETATM   12  C   UNL     1     -11.160  15.250  69.391  1.00  0.00    -0.280 C  
BRANCH  12  13
HETATM   13  O   UNL     1     -10.264  16.355  69.538  1.00  0.00    -0.270 OA 
BRANCH  13  14
HETATM   14  C   UNL     1      -8.971  16.071  69.001  1.00  0.00    -0.244 C  
BRANCH  14  15
HETATM   15  N   UNL     1      -8.270  17.316  68.745  1.00  0.00    -0.256 NA 
HETATM   16  C   UNL     1      -7.063  17.671  69.307  1.00  0.00    -0.120 A  
HETATM   17  N   UNL     1      -6.636  18.842  68.870  1.00  0.00    -0.266 NA 
HETATM   18  C   UNL     1      -7.604  19.266  67.982  1.00  0.00    -0.284 A  
HETATM   19  C   UNL     1      -8.607  18.339  67.921  1.00  0.00    -0.258 A  
HETATM   20  N   UNL     1      -9.680  18.489  67.135  1.00  0.00    -0.295 NA 
HETATM   21  C   UNL     1      -9.708  19.601  66.337  1.00  0.00    -0.409 C  
HETATM   22  N   UNL     1     -10.789  19.646  65.517  1.00  0.00    -0.368 NA 
HETATM   23  N   UNL     1      -8.815  20.546  66.310  1.00  0.00    -0.557 N  
HETATM   24  H2  UNL     1     -11.509  18.924  65.498  1.00  0.00     0.000 HD 
HETATM   25  H1  UNL     1     -10.810  20.474  64.922  1.00  0.00     0.000 HD 
HETATM   26  C   UNL     1      -7.690  20.474  67.147  1.00  0.00    -0.322 C  
HETATM   27  H   UNL     1      -8.933  21.341  65.681  1.00  0.00     0.000 HD 
HETATM   28  O   UNL     1      -6.839  21.356  67.177  1.00  0.00    -0.552 OA 
ENDBRANCH  14  15
ENDBRANCH  13  14
ENDBRANCH  12  13
ENDBRANCH  11  12
ENDBRANCH  10  11
ENDBRANCH   8  10
ENDBRANCH   3   8
TORSDOF 7
ENDMDL
MODEL       31
REMARK 921   NORMALIZED FREE ENERGY PREDICTED BY IDOCK:   -6.18 KCAL/MOL
REMARK 922        TOTAL FREE ENERGY PREDICTED BY IDOCK:   -9.25 KCAL/MOL
REMARK 923 INTER-LIGAND FREE ENERGY PREDICTED BY IDOCK:   -8.61 KCAL/MOL
REMARK 924 INTRA-LIGAND FREE ENERGY PREDICTED BY IDOCK:   -0.64 KCAL/MOL
REMARK 927      BINDING AFFINITY PREDICTED BY RF-SCORE:    0.00 PKD
ROOT
HETATM    1  C   UNL     1     -10.397   4.698  66.052  1.00  0.00    -0.318 C  
HETATM    2  C   UNL     1      -9.556   5.083  67.274  1.00  0.00    -0.164 C  
HETATM    3  C   UNL     1      -9.935   6.467  67.858  1.00  0.00    -0.131 C  
HETATM    4  C   UNL     1      -9.650   3.977  68.334  1.00  0.00    -0.186 C  
HETATM    5  H1  UNL     1     -11.585   7.398  68.721  1.00  0.00     0.000 HD 
HETATM    6  N   UNL     1     -11.336   6.487  68.336  1.00  0.00    -0.566 NA 
HETATM    7  H2  UNL     1     -11.512   5.738  69.006  1.00  0.00     0.000 HD 
ENDROOT
BRANCH   3   8
HETATM    8  C   UNL     1      -9.715   7.619  66.851  1.00  0.00    -0.213 C  
HETATM    9  O   UNL     1      -8.770   7.704  66.075  1.00  0.00    -0.148 OA 
BRANCH   8  10
HETATM   10  O   UNL     1     -10.751   8.507  66.887  1.00  0.00    -0.265 OA 
BRANCH  10  11
HETATM   11  C   UNL     1     -10.356   9.892  66.954  1.00  0.00    -0.235 C  
BRANCH  11  12
HETATM   12  C   UNL     1     -10.097  10.307  68.403  1.00  0.00    -0.159 C  
BRANCH  12  13
HETATM   13  O   UNL     1     -10.153  11.734  68.471  1.00  0.00    -0.206 OA 
BRANCH  13  14
HETATM   14  C   UNL     1     -11.493  12.222  68.389  1.00  0.00    -0.307 C  
BRANCH  14  15
HETATM   15  N   UNL     1     -11.543  13.347  67.473  1.00  0.00    -0.323 NA 
HETATM   16  C   UNL     1     -11.242  14.649  67.807  1.00  0.00    -0.308 A  
HETATM   17  N   UNL     1     -11.336  15.463  66.771  1.00  0.00    -0.200 NA 
HETATM   18  C   UNL     1     -11.710  14.656  65.716  1.00  0.00    -0.302 A  
HETATM   19  C   UNL     1     -11.851  13.368  66.152  1.00  0.00    -0.385 A  
HETATM   20  N   UNL     1     -12.206  12.366  65.339  1.00  0.00    -0.579 NA 
HETATM   21  C   UNL     1     -12.371  12.676  64.016  1.00  0.00    -0.443 C  
HETATM   22  N   UNL     1     -12.659  11.598  63.244  1.00  0.00    -0.864 NA 
HETATM   23  N   UNL     1     -12.264  13.860  63.489  1.00  0.00    -1.050 N  
HETATM   24  H2  UNL     1     -12.744  10.650  63.612  1.00  0.00     0.000 HD 
HETATM   25  H1  UNL     1     -12.781  11.829  62.258  1.00  0.00     0.000 HD 
HETATM   26  C   UNL     1     -11.943  14.963  64.296  1.00  0.00    -0.338 C  
HETATM   27  H   UNL     1     -12.414  13.987  62.487  1.00  0.00     0.000 HD 
HETATM   28  O   UNL     1     -11.861  16.101  63.848  1.00  0.00    -0.921 OA 
ENDBRANCH  14  15
ENDBRANCH  13  14
ENDBRANCH  12  13
ENDBRANCH  11  12
ENDBRANCH  10  11
ENDBRANCH   8  10
ENDBRANCH   3   8
TORSDOF 7
ENDMDL
MODEL       32
REMARK 921   NORMALIZED FREE ENERGY PREDICTED BY IDOCK:   -6.15 KCAL/MOL
REMARK 922        TOTAL FREE ENERGY PREDICTED BY IDOCK:   -9.21 KCAL/MOL
REMARK 923 INTER-LIGAND FREE ENERGY PREDICTED BY IDOCK:   -8.60 KCAL/MOL
REMARK 924 INTRA-LIGAND FREE ENERGY PREDICTED BY IDOCK:   -0.60 KCAL/MOL
REMARK 927      BINDING AFFINITY PREDICTED BY RF-SCORE:    0.00 PKD
ROOT
HETATM    1  C   UNL     1     -11.595   6.444  70.026  1.00  0.00    -0.446 C  
HETATM    2  C   UNL     1     -10.493   7.118  70.851  1.00  0.00    -0.225 C  
HETATM    3  C   UNL     1     -10.993   7.634  72.224  1.00  0.00    -0.279 C  
HETATM    4  C   UNL     1      -9.306   6.158  71.007  1.00  0.00    -0.176 C  
HETATM    5  H1  UNL     1     -11.812   6.864  73.976  1.00  0.00     0.000 HD 
HETATM    6  N   UNL     1     -11.483   6.525  73.073  1.00  0.00    -0.476 NA 
HETATM    7  H2  UNL     1     -10.775   5.798  73.182  1.00  0.00     0.000 HD 
ENDROOT
BRANCH   3   8
HETATM    8  C   UNL     1     -12.097   8.709  72.089  1.00  0.00    -0.381 C  
HETATM    9  O   UNL     1     -13.218   8.632  72.578  1.00  0.00    -0.361 OA 
BRANCH   8  10
HETATM   10  O   UNL     1     -11.638   9.798  71.407  1.00  0.00    -0.364 OA 
BRANCH  10  11
HETATM   11  C   UNL     1     -12.652  10.530  70.688  1.00  0.00    -0.369 C  
BRANCH  11  12
HETATM   12  C   UNL     1     -12.283  12.012  70.600  1.00  0.00    -0.316 C  
BRANCH  12  13
HETATM   13  O   UNL     1     -11.294  12.161  69.577  1.00  0.00    -0.257 OA 
BRANCH  13  14
HETATM   14  C   UNL     1     -11.864  12.583  68.338  1.00  0.00    -0.304 C  
BRANCH  14  15
HETATM   15  N   UNL     1     -11.211  11.889  67.243  1.00  0.00    -0.296 NA 
HETATM   16  C   UNL     1     -10.423  10.767  67.379  1.00  0.00    -0.225 A  
HETATM   17  N   UNL     1      -9.985  10.323  66.215  1.00  0.00    -0.224 NA 
HETATM   18  C   UNL     1     -10.514  11.190  65.280  1.00  0.00    -0.263 A  
HETATM   19  C   UNL     1     -11.248  12.154  65.913  1.00  0.00    -0.339 A  
HETATM   20  N   UNL     1     -11.880  13.130  65.251  1.00  0.00    -0.345 NA 
HETATM   21  C   UNL     1     -11.809  13.093  63.885  1.00  0.00    -0.472 C  
HETATM   22  N   UNL     1     -12.533  14.070  63.282  1.00  0.00    -1.112 NA 
HETATM   23  N   UNL     1     -11.143  12.229  63.176  1.00  0.00    -0.671 N  
HETATM   24  H2  UNL     1     -13.077  14.763  63.797  1.00  0.00     0.000 HD 
HETATM   25  H1  UNL     1     -12.480  14.042  62.264  1.00  0.00     0.000 HD 
HETATM   26  C   UNL     1     -10.418  11.209  63.812  1.00  0.00    -0.381 C  
HETATM   27  H   UNL     1     -11.148  12.292  62.158  1.00  0.00     0.000 HD 
HETATM   28  O   UNL     1      -9.752  10.391  63.187  1.00  0.00    -0.319 OA 
ENDBRANCH  14  15
ENDBRANCH  13  14
ENDBRANCH  12  13
ENDBRANCH  11  12
ENDBRANCH  10  11
ENDBRANCH   8  10
ENDBRANCH   3   8
TORSDOF 7
ENDMDL
MODEL       33
REMARK 921   NORMALIZED FREE ENERGY PREDICTED BY IDOCK:   -6.14 KCAL/MOL
REMARK 922        TOTAL FREE ENERGY PREDICTED BY IDOCK:   -9.20 KCAL/MOL
REMARK 923 INTER-LIGAND FREE ENERGY PREDICTED BY IDOCK:   -7.68 KCAL/MOL
REMARK 924 INTRA-LIGAND FREE ENERGY PREDICTED BY IDOCK:   -1.51 KCAL/MOL
REMARK 927      BINDING AFFINITY PREDICTED BY RF-SCORE:    0.00 PKD
ROOT
HETATM    1  C   UNL     1     -10.394   8.511  68.626  1.00  0.00    -0.224 C  
HETATM    2  C   UNL     1     -10.165   9.847  69.341  1.00  0.00    -0.231 C  
HETATM    3  C   UNL     1     -10.672  11.064  68.527  1.00  0.00    -0.202 C  
HETATM    4  C   UNL     1     -10.797   9.798  70.739  1.00  0.00    -0.403 C  
HETATM    5  H1  UNL     1     -12.467  11.796  67.770  1.00  0.00     0.000 HD 
HETATM    6  N   UNL     1     -12.134  10.995  68.305  1.00  0.00    -0.788 NA 
HETATM    7  H2  UNL     1     -12.641  10.896  69.185  1.00  0.00     0.000 HD 
ENDROOT
BRANCH   3   8
HETATM    8  C   UNL     1      -9.948  11.216  67.169  1.00  0.00    -0.186 C  
HETATM    9  O   UNL     1      -8.804  11.632  67.024  1.00  0.00    -0.165 OA 
BRANCH   8  10
HETATM   10  O   UNL     1     -10.727  10.761  66.145  1.00  0.00    -0.210 OA 
BRANCH  10  11
HETATM   11  C   UNL     1     -10.556  11.465  64.898  1.00  0.00    -0.307 C  
BRANCH  11  12
HETATM   12  C   UNL     1     -11.898  12.004  64.398  1.00  0.00    -0.313 C  
BRANCH  12  13
HETATM   13  O   UNL     1     -12.608  12.533  65.521  1.00  0.00    -0.642 OA 
BRANCH  13  14
HETATM   14  C   UNL     1     -12.658  13.960  65.499  1.00  0.00    -0.526 C  
BRANCH  14  15
HETATM   15  N   UNL     1     -11.501  14.496  66.194  1.00  0.00    -0.353 NA 
HETATM   16  C   UNL     1     -10.403  15.056  65.580  1.00  0.00    -0.353 A  
HETATM   17  N   UNL     1      -9.515  15.496  66.454  1.00  0.00    -0.266 NA 
HETATM   18  C   UNL     1     -10.060  15.213  67.690  1.00  0.00    -0.231 A  
HETATM   19  C   UNL     1     -11.266  14.588  67.527  1.00  0.00    -0.321 A  
HETATM   20  N   UNL     1     -12.021  14.199  68.560  1.00  0.00    -0.349 NA 
HETATM   21  C   UNL     1     -11.559  14.507  69.811  1.00  0.00    -0.295 C  
HETATM   22  N   UNL     1     -12.413  14.146  70.803  1.00  0.00    -0.343 NA 
HETATM   23  N   UNL     1     -10.433  15.095  70.088  1.00  0.00    -0.485 N  
HETATM   24  H2  UNL     1     -13.310  13.690  70.633  1.00  0.00     0.000 HD 
HETATM   25  H1  UNL     1     -12.069  14.375  71.735  1.00  0.00     0.000 HD 
HETATM   26  C   UNL     1      -9.571  15.484  69.051  1.00  0.00    -0.238 C  
HETATM   27  H   UNL     1     -10.177  15.274  71.059  1.00  0.00     0.000 HD 
HETATM   28  O   UNL     1      -8.486  16.015  69.265  1.00  0.00    -0.251 OA 
ENDBRANCH  14  15
ENDBRANCH  13  14
ENDBRANCH  12  13
ENDBRANCH  11  12
ENDBRANCH  10  11
ENDBRANCH   8  10
ENDBRANCH   3   8
TORSDOF 7
ENDMDL
MODEL       34
REMARK 921   NORMALIZED FREE ENERGY PREDICTED BY IDOCK:   -6.13 KCAL/MOL
REMARK 922        TOTAL FREE ENERGY PREDICTED BY IDOCK:   -9.18 KCAL/MOL
REMARK 923 INTER-LIGAND FREE ENERGY PREDICTED BY IDOCK:   -7.80 KCAL/MOL
REMARK 924 INTRA-LIGAND FREE ENERGY PREDICTED BY IDOCK:   -1.38 KCAL/MOL
REMARK 927      BINDING AFFINITY PREDICTED BY RF-SCORE:    0.00 PKD
ROOT
HETATM    1  C   UNL     1      -9.829  14.564  66.040  1.00  0.00    -0.342 C  
HETATM    2  C   UNL     1     -11.149  15.021  66.670  1.00  0.00    -0.326 C  
HETATM    3  C   UNL     1     -12.323  14.050  66.388  1.00  0.00    -0.431 C  
HETATM    4  C   UNL     1     -10.951  15.248  68.174  1.00  0.00    -0.292 C  
HETATM    5  H1  UNL     1     -12.841  12.073  66.781  1.00  0.00     0.000 HD 
HETATM    6  N   UNL     1     -12.068  12.712  66.966  1.00  0.00    -0.486 NA 
HETATM    7  H2  UNL     1     -11.861  12.769  67.963  1.00  0.00     0.000 HD 
ENDROOT
BRANCH   3   8
HETATM    8  C   UNL     1     -12.634  13.913  64.880  1.00  0.00    -0.347 C  
HETATM    9  O   UNL     1     -12.623  14.836  64.072  1.00  0.00    -0.822 OA 
BRANCH   8  10
HETATM   10  O   UNL     1     -12.861  12.611  64.543  1.00  0.00    -0.706 OA 
BRANCH  10  11
HETATM   11  C   UNL     1     -12.117  12.146  63.398  1.00  0.00    -0.507 C  
BRANCH  11  12
HETATM   12  C   UNL     1     -10.735  11.648  63.823  1.00  0.00    -0.419 C  
BRANCH  12  13
HETATM   13  O   UNL     1     -10.906  10.763  64.933  1.00  0.00    -0.191 OA 
BRANCH  13  14
HETATM   14  C   UNL     1      -9.667  10.468  65.579  1.00  0.00    -0.242 C  
BRANCH  14  15
HETATM   15  N   UNL     1      -9.858   9.378  66.518  1.00  0.00    -0.237 NA 
HETATM   16  C   UNL     1      -9.410   8.088  66.332  1.00  0.00    -0.200 A  
HETATM   17  N   UNL     1      -9.690   7.310  67.362  1.00  0.00    -0.143 NA 
HETATM   18  C   UNL     1     -10.346   8.128  68.259  1.00  0.00    -0.197 A  
HETATM   19  C   UNL     1     -10.461   9.386  67.734  1.00  0.00    -0.254 A  
HETATM   20  N   UNL     1     -11.054  10.389  68.390  1.00  0.00    -0.266 NA 
HETATM   21  C   UNL     1     -11.500  10.119  69.656  1.00  0.00    -0.198 C  
HETATM   22  N   UNL     1     -12.023  11.203  70.284  1.00  0.00    -0.344 NA 
HETATM   23  N   UNL     1     -11.446   8.966  70.256  1.00  0.00    -0.438 N  
HETATM   24  H2  UNL     1     -12.079  12.127  69.855  1.00  0.00     0.000 HD 
HETATM   25  H1  UNL     1     -12.356  11.001  71.226  1.00  0.00     0.000 HD 
HETATM   26  C   UNL     1     -10.881   7.860  69.603  1.00  0.00    -0.176 C  
HETATM   27  H   UNL     1     -11.815   8.867  71.202  1.00  0.00     0.000 HD 
HETATM   28  O   UNL     1     -10.835   6.748  70.118  1.00  0.00    -0.235 OA 
ENDBRANCH  14  15
ENDBRANCH  13  14
ENDBRANCH  12  13
ENDBRANCH  11  12
ENDBRANCH  10  11
ENDBRANCH   8  10
ENDBRANCH   3   8
TORSDOF 7
ENDMDL
MODEL       35
REMARK 921   NORMALIZED FREE ENERGY PREDICTED BY IDOCK:   -6.08 KCAL/MOL
REMARK 922        TOTAL FREE ENERGY PREDICTED BY IDOCK:   -9.10 KCAL/MOL
REMARK 923 INTER-LIGAND FREE ENERGY PREDICTED BY IDOCK:   -8.44 KCAL/MOL
REMARK 924 INTRA-LIGAND FREE ENERGY PREDICTED BY IDOCK:   -0.66 KCAL/MOL
REMARK 927      BINDING AFFINITY PREDICTED BY RF-SCORE:    0.00 PKD
ROOT
HETATM    1  C   UNL     1     -11.177  15.777  67.200  1.00  0.00    -0.110 C  
HETATM    2  C   UNL     1     -10.047  15.544  66.192  1.00  0.00    -0.329 C  
HETATM    3  C   UNL     1     -10.544  15.491  64.725  1.00  0.00    -0.217 C  
HETATM    4  C   UNL     1      -8.958  16.609  66.382  1.00  0.00    -0.326 C  
HETATM    5  H1  UNL     1     -11.489  16.738  63.353  1.00  0.00     0.000 HD 
HETATM    6  N   UNL     1     -11.162  16.772  64.317  1.00  0.00    -1.365 NA 
HETATM    7  H2  UNL     1     -10.528  17.557  64.469  1.00  0.00     0.000 HD 
ENDROOT
BRANCH   3   8
HETATM    8  C   UNL     1     -11.539  14.333  64.475  1.00  0.00    -0.387 C  
HETATM    9  O   UNL     1     -12.711  14.472  64.143  1.00  0.00    -0.711 OA 
BRANCH   8  10
HETATM   10  O   UNL     1     -10.925  13.123  64.607  1.00  0.00    -0.320 OA 
BRANCH  10  11
HETATM   11  C   UNL     1     -11.640  12.168  65.417  1.00  0.00    -0.330 C  
BRANCH  11  12
HETATM   12  C   UNL     1     -10.960  12.004  66.778  1.00  0.00    -0.285 C  
BRANCH  12  13
HETATM   13  O   UNL     1     -11.957  11.612  67.725  1.00  0.00    -0.608 OA 
BRANCH  13  14
HETATM   14  C   UNL     1     -11.798  12.280  68.977  1.00  0.00    -0.305 C  
BRANCH  14  15
HETATM   15  N   UNL     1     -11.903  11.316  70.057  1.00  0.00    -0.337 NA 
HETATM   16  C   UNL     1     -12.863  11.338  71.044  1.00  0.00    -0.300 A  
HETATM   17  N   UNL     1     -12.745  10.321  71.878  1.00  0.00    -0.414 NA 
HETATM   18  C   UNL     1     -11.663   9.602  71.411  1.00  0.00    -0.404 A  
HETATM   19  C   UNL     1     -11.142  10.221  70.309  1.00  0.00    -0.319 A  
HETATM   20  N   UNL     1     -10.083   9.742  69.646  1.00  0.00    -0.214 NA 
HETATM   21  C   UNL     1      -9.566   8.554  70.088  1.00  0.00    -0.169 C  
HETATM   22  N   UNL     1      -8.543   8.096  69.322  1.00  0.00    -0.134 NA 
HETATM   23  N   UNL     1      -9.976   7.878  71.120  1.00  0.00    -0.173 N  
HETATM   24  H2  UNL     1      -8.194   8.588  68.500  1.00  0.00     0.000 HD 
HETATM   25  H1  UNL     1      -8.158   7.211  69.651  1.00  0.00     0.000 HD 
HETATM   26  C   UNL     1     -11.051   8.352  71.889  1.00  0.00    -0.308 C  
HETATM   27  H   UNL     1      -9.516   7.002  71.371  1.00  0.00     0.000 HD 
HETATM   28  O   UNL     1     -11.452   7.764  72.887  1.00  0.00    -0.378 OA 
ENDBRANCH  14  15
ENDBRANCH  13  14
ENDBRANCH  12  13
ENDBRANCH  11  12
ENDBRANCH  10  11
ENDBRANCH   8  10
ENDBRANCH   3   8
TORSDOF 7
ENDMDL
MODEL       36
REMARK 921   NORMALIZED FREE ENERGY PREDICTED BY IDOCK:   -6.06 KCAL/MOL
REMARK 922        TOTAL FREE ENERGY PREDICTED BY IDOCK:   -9.08 KCAL/MOL
REMARK 923 INTER-LIGAND FREE ENERGY PREDICTED BY IDOCK:   -8.14 KCAL/MOL
REMARK 924 INTRA-LIGAND FREE ENERGY PREDICTED BY IDOCK:   -0.94 KCAL/MOL
REMARK 927      BINDING AFFINITY PREDICTED BY RF-SCORE:    0.00 PKD
ROOT
HETATM    1  C   UNL     1     -10.526  12.452  63.965  1.00  0.00    -0.443 C  
HETATM    2  C   UNL     1     -11.988  12.478  64.425  1.00  0.00    -0.476 C  
HETATM    3  C   UNL     1     -12.468  13.892  64.838  1.00  0.00    -0.391 C  
HETATM    4  C   UNL     1     -12.882  11.874  63.333  1.00  0.00    -0.393 C  
HETATM    5  H1  UNL     1     -12.724  15.767  63.974  1.00  0.00     0.000 HD 
HETATM    6  N   UNL     1     -12.408  14.837  63.702  1.00  0.00    -1.067 NA 
HETATM    7  H2  UNL     1     -12.928  14.487  62.897  1.00  0.00     0.000 HD 
ENDROOT
BRANCH   3   8
HETATM    8  C   UNL     1     -11.670  14.466  66.033  1.00  0.00    -0.375 C  
HETATM    9  O   UNL     1     -10.850  15.373  65.960  1.00  0.00    -0.318 OA 
BRANCH   8  10
HETATM   10  O   UNL     1     -12.047  13.874  67.203  1.00  0.00    -0.407 OA 
BRANCH  10  11
HETATM   11  C   UNL     1     -11.022  13.834  68.216  1.00  0.00    -0.250 C  
BRANCH  11  12
HETATM   12  C   UNL     1     -11.396  14.737  69.393  1.00  0.00    -0.285 C  
BRANCH  12  13
HETATM   13  O   UNL     1     -10.940  16.060  69.098  1.00  0.00    -0.255 OA 
BRANCH  13  14
HETATM   14  C   UNL     1      -9.610  16.285  69.564  1.00  0.00    -0.102 C  
BRANCH  14  15
HETATM   15  N   UNL     1      -8.752  16.616  68.440  1.00  0.00    -0.217 NA 
HETATM   16  C   UNL     1      -7.898  15.735  67.813  1.00  0.00    -0.141 A  
HETATM   17  N   UNL     1      -7.265  16.293  66.797  1.00  0.00    -0.211 NA 
HETATM   18  C   UNL     1      -7.730  17.593  66.758  1.00  0.00    -0.226 A  
HETATM   19  C   UNL     1      -8.625  17.790  67.773  1.00  0.00    -0.237 A  
HETATM   20  N   UNL     1      -9.238  18.962  67.975  1.00  0.00    -0.298 NA 
HETATM   21  C   UNL     1      -8.973  19.959  67.075  1.00  0.00    -0.340 C  
HETATM   22  N   UNL     1      -9.686  21.091  67.303  1.00  0.00    -0.590 NA 
HETATM   23  N   UNL     1      -8.143  19.887  66.076  1.00  0.00    -0.425 N  
HETATM   24  H2  UNL     1     -10.353  21.190  68.068  1.00  0.00     0.000 HD 
HETATM   25  H1  UNL     1      -9.488  21.834  66.632  1.00  0.00     0.000 HD 
HETATM   26  C   UNL     1      -7.430  18.701  65.839  1.00  0.00    -0.180 C  
HETATM   27  H   UNL     1      -8.011  20.693  65.465  1.00  0.00     0.000 HD 
HETATM   28  O   UNL     1      -6.616  18.598  64.928  1.00  0.00    -0.514 OA 
ENDBRANCH  14  15
ENDBRANCH  13  14
ENDBRANCH  12  13
ENDBRANCH  11  12
ENDBRANCH  10  11
ENDBRANCH   8  10
ENDBRANCH   3   8
TORSDOF 7
ENDMDL
MODEL       37
REMARK 921   NORMALIZED FREE ENERGY PREDICTED BY IDOCK:   -6.06 KCAL/MOL
REMARK 922        TOTAL FREE ENERGY PREDICTED BY IDOCK:   -9.08 KCAL/MOL
REMARK 923 INTER-LIGAND FREE ENERGY PREDICTED BY IDOCK:   -8.48 KCAL/MOL
REMARK 924 INTRA-LIGAND FREE ENERGY PREDICTED BY IDOCK:   -0.60 KCAL/MOL
REMARK 927      BINDING AFFINITY PREDICTED BY RF-SCORE:    0.00 PKD
ROOT
HETATM    1  C   UNL     1      -7.799  19.357  68.631  1.00  0.00    -0.399 C  
HETATM    2  C   UNL     1      -7.564  19.288  67.118  1.00  0.00    -0.250 C  
HETATM    3  C   UNL     1      -8.880  19.299  66.300  1.00  0.00    -0.326 C  
HETATM    4  C   UNL     1      -6.622  20.421  66.690  1.00  0.00    -0.277 C  
HETATM    5  H1  UNL     1     -10.503  20.560  65.973  1.00  0.00     0.000 HD 
HETATM    6  N   UNL     1      -9.638  20.553  66.512  1.00  0.00    -0.657 NA 
HETATM    7  H2  UNL     1      -9.066  21.373  66.311  1.00  0.00     0.000 HD 
ENDROOT
BRANCH   3   8
HETATM    8  C   UNL     1      -9.787  18.086  66.613  1.00  0.00    -0.352 C  
HETATM    9  O   UNL     1     -10.721  18.092  67.407  1.00  0.00    -0.403 OA 
BRANCH   8  10
HETATM   10  O   UNL     1      -9.456  17.014  65.837  1.00  0.00    -0.492 OA 
BRANCH  10  11
HETATM   11  C   UNL     1      -9.649  15.731  66.467  1.00  0.00    -0.265 C  
BRANCH  11  12
HETATM   12  C   UNL     1     -10.852  15.010  65.857  1.00  0.00    -0.337 C  
BRANCH  12  13
HETATM   13  O   UNL     1     -11.670  14.531  66.927  1.00  0.00    -0.372 OA 
BRANCH  13  14
HETATM   14  C   UNL     1     -10.971  14.520  68.172  1.00  0.00    -0.251 C  
BRANCH  14  15
HETATM   15  N   UNL     1     -11.405  13.383  68.962  1.00  0.00    -0.272 NA 
HETATM   16  C   UNL     1     -11.087  12.070  68.695  1.00  0.00    -0.250 A  
HETATM   17  N   UNL     1     -11.585  11.243  69.597  1.00  0.00    -0.299 NA 
HETATM   18  C   UNL     1     -12.253  12.053  70.493  1.00  0.00    -0.325 A  
HETATM   19  C   UNL     1     -12.155  13.357  70.093  1.00  0.00    -0.344 A  
HETATM   20  N   UNL     1     -12.709  14.364  70.777  1.00  0.00    -0.346 NA 
HETATM   21  C   UNL     1     -13.343  14.039  71.946  1.00  0.00    -0.406 C  
HETATM   22  N   UNL     1     -13.815  15.119  72.619  1.00  0.00    -0.481 NA 
HETATM   23  N   UNL     1     -13.499  12.840  72.424  1.00  0.00    -0.554 N  
HETATM   24  H2  UNL     1     -13.709  16.078  72.287  1.00  0.00     0.000 HD 
HETATM   25  H1  UNL     1     -14.287  14.877  73.490  1.00  0.00     0.000 HD 
HETATM   26  C   UNL     1     -12.984  11.734  71.729  1.00  0.00    -0.361 C  
HETATM   27  H   UNL     1     -13.996  12.703  73.305  1.00  0.00     0.000 HD 
HETATM   28  O   UNL     1     -13.133  10.584  72.126  1.00  0.00    -0.459 OA 
ENDBRANCH  14  15
ENDBRANCH  13  14
ENDBRANCH  12  13
ENDBRANCH  11  12
ENDBRANCH  10  11
ENDBRANCH   8  10
ENDBRANCH   3   8
TORSDOF 7
ENDMDL
MODEL       38
REMARK 921   NORMALIZED FREE ENERGY PREDICTED BY IDOCK:   -6.05 KCAL/MOL
REMARK 922        TOTAL FREE ENERGY PREDICTED BY IDOCK:   -9.07 KCAL/MOL
REMARK 923 INTER-LIGAND FREE ENERGY PREDICTED BY IDOCK:   -7.99 KCAL/MOL
REMARK 924 INTRA-LIGAND FREE ENERGY PREDICTED BY IDOCK:   -1.08 KCAL/MOL
REMARK 927      BINDING AFFINITY PREDICTED BY RF-SCORE:    0.00 PKD
ROOT
HETATM    1  C   UNL     1      -9.487   8.961  70.186  1.00  0.00    -0.198 C  
HETATM    2  C   UNL     1     -10.310   9.308  71.431  1.00  0.00    -0.392 C  
HETATM    3  C   UNL     1     -11.814   9.520  71.123  1.00  0.00    -0.358 C  
HETATM    4  C   UNL     1     -10.099   8.233  72.506  1.00  0.00    -0.376 C  
HETATM    5  H1  UNL     1     -13.424   8.427  70.384  1.00  0.00     0.000 HD 
HETATM    6  N   UNL     1     -12.435   8.288  70.586  1.00  0.00    -0.448 NA 
HETATM    7  H2  UNL     1     -12.289   7.494  71.210  1.00  0.00     0.000 HD 
ENDROOT
BRANCH   3   8
HETATM    8  C   UNL     1     -12.063  10.693  70.148  1.00  0.00    -0.333 C  
HETATM    9  O   UNL     1     -12.231  10.580  68.939  1.00  0.00    -0.282 OA 
BRANCH   8  10
HETATM   10  O   UNL     1     -12.140  11.879  70.818  1.00  0.00    -0.357 OA 
BRANCH  10  11
HETATM   11  C   UNL     1     -13.043  11.880  71.942  1.00  0.00    -0.369 C  
BRANCH  11  12
HETATM   12  C   UNL     1     -13.559  13.294  72.215  1.00  0.00    -0.605 C  
BRANCH  12  13
HETATM   13  O   UNL     1     -12.540  14.219  71.825  1.00  0.00    -0.332 OA 
BRANCH  13  14
HETATM   14  C   UNL     1     -12.997  15.127  70.822  1.00  0.00    -0.414 C  
BRANCH  14  15
HETATM   15  N   UNL     1     -11.898  15.460  69.933  1.00  0.00    -0.327 NA 
HETATM   16  C   UNL     1     -10.953  16.432  70.177  1.00  0.00    -0.285 A  
HETATM   17  N   UNL     1     -10.048  16.497  69.218  1.00  0.00    -0.276 NA 
HETATM   18  C   UNL     1     -10.415  15.523  68.312  1.00  0.00    -0.242 A  
HETATM   19  C   UNL     1     -11.555  14.903  68.745  1.00  0.00    -0.323 A  
HETATM   20  N   UNL     1     -12.139  13.912  68.061  1.00  0.00    -0.343 NA 
HETATM   21  C   UNL     1     -11.509  13.496  66.920  1.00  0.00    -0.344 C  
HETATM   22  N   UNL     1     -12.121  12.441  66.323  1.00  0.00    -0.630 NA 
HETATM   23  N   UNL     1     -10.427  14.009  66.413  1.00  0.00    -0.280 N  
HETATM   24  H2  UNL     1     -12.966  12.002  66.688  1.00  0.00     0.000 HD 
HETATM   25  H1  UNL     1     -11.651  12.132  65.472  1.00  0.00     0.000 HD 
HETATM   26  C   UNL     1      -9.792  15.084  67.055  1.00  0.00    -0.238 C  
HETATM   27  H   UNL     1     -10.039  13.629  65.549  1.00  0.00     0.000 HD 
HETATM   28  O   UNL     1      -8.787  15.618  66.598  1.00  0.00    -0.240 OA 
ENDBRANCH  14  15
ENDBRANCH  13  14
ENDBRANCH  12  13
ENDBRANCH  11  12
ENDBRANCH  10  11
ENDBRANCH   8  10
ENDBRANCH   3   8
TORSDOF 7
ENDMDL
MODEL       39
REMARK 921   NORMALIZED FREE ENERGY PREDICTED BY IDOCK:   -6.05 KCAL/MOL
REMARK 922        TOTAL FREE ENERGY PREDICTED BY IDOCK:   -9.06 KCAL/MOL
REMARK 923 INTER-LIGAND FREE ENERGY PREDICTED BY IDOCK:   -8.21 KCAL/MOL
REMARK 924 INTRA-LIGAND FREE ENERGY PREDICTED BY IDOCK:   -0.85 KCAL/MOL
REMARK 927      BINDING AFFINITY PREDICTED BY RF-SCORE:    0.00 PKD
ROOT
HETATM    1  C   UNL     1     -11.787  15.570  72.505  1.00  0.00    -0.572 C  
HETATM    2  C   UNL     1     -12.948  15.642  71.507  1.00  0.00    -0.549 C  
HETATM    3  C   UNL     1     -12.835  14.594  70.371  1.00  0.00    -0.270 C  
HETATM    4  C   UNL     1     -14.281  15.522  72.257  1.00  0.00    -0.617 C  
HETATM    5  H1  UNL     1     -12.800  12.524  70.155  1.00  0.00     0.000 HD 
HETATM    6  N   UNL     1     -12.873  13.214  70.903  1.00  0.00    -0.214 NA 
HETATM    7  H2  UNL     1     -13.704  13.057  71.475  1.00  0.00     0.000 HD 
ENDROOT
BRANCH   3   8
HETATM    8  C   UNL     1     -11.564  14.783  69.510  1.00  0.00    -0.304 C  
HETATM    9  O   UNL     1     -10.670  13.953  69.384  1.00  0.00    -0.153 OA 
BRANCH   8  10
HETATM   10  O   UNL     1     -11.593  15.975  68.848  1.00  0.00    -0.372 OA 
BRANCH  10  11
HETATM   11  C   UNL     1     -10.488  16.854  69.138  1.00  0.00    -0.335 C  
BRANCH  11  12
HETATM   12  C   UNL     1     -10.121  17.680  67.904  1.00  0.00    -0.345 C  
BRANCH  12  13
HETATM   13  O   UNL     1     -10.354  16.873  66.747  1.00  0.00    -0.304 OA 
BRANCH  13  14
HETATM   14  C   UNL     1      -9.148  16.297  66.244  1.00  0.00    -0.331 C  
BRANCH  14  15
HETATM   15  N   UNL     1      -9.260  14.849  66.257  1.00  0.00    -0.286 NA 
HETATM   16  C   UNL     1      -8.545  14.011  67.084  1.00  0.00    -0.205 A  
HETATM   17  N   UNL     1      -8.872  12.743  66.909  1.00  0.00    -0.212 NA 
HETATM   18  C   UNL     1      -9.844  12.756  65.930  1.00  0.00    -0.238 A  
HETATM   19  C   UNL     1     -10.066  14.043  65.523  1.00  0.00    -0.320 A  
HETATM   20  N   UNL     1     -10.962  14.356  64.579  1.00  0.00    -0.330 NA 
HETATM   21  C   UNL     1     -11.703  13.325  64.068  1.00  0.00    -0.430 C  
HETATM   22  N   UNL     1     -12.639  13.729  63.172  1.00  0.00    -0.971 NA 
HETATM   23  N   UNL     1     -11.580  12.067  64.376  1.00  0.00    -0.346 N  
HETATM   24  H2  UNL     1     -12.777  14.704  62.906  1.00  0.00     0.000 HD 
HETATM   25  H1  UNL     1     -13.191  12.961  62.791  1.00  0.00     0.000 HD 
HETATM   26  C   UNL     1     -10.623  11.667  65.323  1.00  0.00    -0.281 C  
HETATM   27  H   UNL     1     -12.179  11.372  63.930  1.00  0.00     0.000 HD 
HETATM   28  O   UNL     1     -10.452  10.490  65.622  1.00  0.00    -0.227 OA 
ENDBRANCH  14  15
ENDBRANCH  13  14
ENDBRANCH  12  13
ENDBRANCH  11  12
ENDBRANCH  10  11
ENDBRANCH   8  10
ENDBRANCH   3   8
TORSDOF 7
ENDMDL
MODEL       40
REMARK 921   NORMALIZED FREE ENERGY PREDICTED BY IDOCK:   -6.04 KCAL/MOL
REMARK 922        TOTAL FREE ENERGY PREDICTED BY IDOCK:   -9.05 KCAL/MOL
REMARK 923 INTER-LIGAND FREE ENERGY PREDICTED BY IDOCK:   -8.41 KCAL/MOL
REMARK 924 INTRA-LIGAND FREE ENERGY PREDICTED BY IDOCK:   -0.65 KCAL/MOL
REMARK 927      BINDING AFFINITY PREDICTED BY RF-SCORE:    0.00 PKD
ROOT
HETATM    1  C   UNL     1     -14.396  15.186  71.957  1.00  0.00    -0.682 C  
HETATM    2  C   UNL     1     -13.016  14.917  72.567  1.00  0.00    -0.472 C  
HETATM    3  C   UNL     1     -11.893  14.823  71.505  1.00  0.00    -0.331 C  
HETATM    4  C   UNL     1     -12.705  15.982  73.627  1.00  0.00    -0.715 C  
HETATM    5  H1  UNL     1     -11.002  16.033  70.064  1.00  0.00     0.000 HD 
HETATM    6  N   UNL     1     -11.741  16.095  70.763  1.00  0.00    -0.516 NA 
HETATM    7  H2  UNL     1     -11.592  16.881  71.397  1.00  0.00     0.000 HD 
ENDROOT
BRANCH   3   8
HETATM    8  C   UNL     1     -12.113  13.664  70.505  1.00  0.00    -0.339 C  
HETATM    9  O   UNL     1     -12.245  12.485  70.813  1.00  0.00    -0.369 OA 
BRANCH   8  10
HETATM   10  O   UNL     1     -12.210  14.131  69.227  1.00  0.00    -0.332 OA 
BRANCH  10  11
HETATM   11  C   UNL     1     -11.442  13.392  68.255  1.00  0.00    -0.315 C  
BRANCH  11  12
HETATM   12  C   UNL     1     -11.876  13.763  66.836  1.00  0.00    -0.413 C  
BRANCH  12  13
HETATM   13  O   UNL     1     -10.709  13.783  66.009  1.00  0.00    -0.280 OA 
BRANCH  13  14
HETATM   14  C   UNL     1     -10.447  15.086  65.484  1.00  0.00    -0.365 C  
BRANCH  14  15
HETATM   15  N   UNL     1      -9.495  15.770  66.340  1.00  0.00    -0.271 NA 
HETATM   16  C   UNL     1      -8.530  15.148  67.101  1.00  0.00    -0.212 A  
HETATM   17  N   UNL     1      -7.777  16.014  67.755  1.00  0.00    -0.133 NA 
HETATM   18  C   UNL     1      -8.270  17.253  67.402  1.00  0.00    -0.191 A  
HETATM   19  C   UNL     1      -9.329  17.100  66.551  1.00  0.00    -0.265 A  
HETATM   20  N   UNL     1     -10.004  18.139  66.045  1.00  0.00    -0.549 NA 
HETATM   21  C   UNL     1      -9.548  19.387  66.373  1.00  0.00    -0.377 C  
HETATM   22  N   UNL     1     -10.236  20.386  65.764  1.00  0.00    -0.491 NA 
HETATM   23  N   UNL     1      -8.556  19.655  67.169  1.00  0.00    -0.297 N  
HETATM   24  H2  UNL     1     -11.015  20.224  65.125  1.00  0.00     0.000 HD 
HETATM   25  H1  UNL     1      -9.897  21.316  66.008  1.00  0.00     0.000 HD 
HETATM   26  C   UNL     1      -7.838  18.610  67.773  1.00  0.00    -0.245 C  
HETATM   27  H   UNL     1      -8.299  20.624  67.355  1.00  0.00     0.000 HD 
HETATM   28  O   UNL     1      -6.915  18.815  68.553  1.00  0.00    -0.247 OA 
ENDBRANCH  14  15
ENDBRANCH  13  14
ENDBRANCH  12  13
ENDBRANCH  11  12
ENDBRANCH  10  11
ENDBRANCH   8  10
ENDBRANCH   3   8
TORSDOF 7
ENDMDL
MODEL       41
REMARK 921   NORMALIZED FREE ENERGY PREDICTED BY IDOCK:   -6.04 KCAL/MOL
REMARK 922        TOTAL FREE ENERGY PREDICTED BY IDOCK:   -9.05 KCAL/MOL
REMARK 923 INTER-LIGAND FREE ENERGY PREDICTED BY IDOCK:   -8.87 KCAL/MOL
REMARK 924 INTRA-LIGAND FREE ENERGY PREDICTED BY IDOCK:   -0.18 KCAL/MOL
REMARK 927      BINDING AFFINITY PREDICTED BY RF-SCORE:    0.00 PKD
ROOT
HETATM    1  C   UNL     1     -10.671  19.381  65.857  1.00  0.00    -0.501 C  
HETATM    2  C   UNL     1     -10.613  18.262  66.903  1.00  0.00    -0.356 C  
HETATM    3  C   UNL     1      -9.927  16.976  66.377  1.00  0.00    -0.307 C  
HETATM    4  C   UNL     1      -9.937  18.783  68.178  1.00  0.00    -0.412 C  
HETATM    5  H1  UNL     1      -8.064  16.382  65.664  1.00  0.00     0.000 HD 
HETATM    6  N   UNL     1      -8.516  17.228  66.009  1.00  0.00    -0.529 NA 
HETATM    7  H2  UNL     1      -7.995  17.640  66.785  1.00  0.00     0.000 HD 
ENDROOT
BRANCH   3   8
HETATM    8  C   UNL     1     -10.672  16.352  65.175  1.00  0.00    -0.291 C  
HETATM    9  O   UNL     1     -11.210  16.986  64.274  1.00  0.00    -1.186 OA 
BRANCH   8  10
HETATM   10  O   UNL     1     -10.598  14.990  65.206  1.00  0.00    -0.336 OA 
BRANCH  10  11
HETATM   11  C   UNL     1     -10.972  14.394  66.465  1.00  0.00    -0.316 C  
BRANCH  11  12
HETATM   12  C   UNL     1     -12.346  13.732  66.357  1.00  0.00    -0.412 C  
BRANCH  12  13
HETATM   13  O   UNL     1     -12.244  12.411  66.895  1.00  0.00    -0.527 OA 
BRANCH  13  14
HETATM   14  C   UNL     1     -11.006  12.205  67.577  1.00  0.00    -0.257 C  
BRANCH  14  15
HETATM   15  N   UNL     1     -11.167  11.156  68.567  1.00  0.00    -0.234 NA 
HETATM   16  C   UNL     1     -10.632   9.890  68.469  1.00  0.00    -0.217 A  
HETATM   17  N   UNL     1     -10.905   9.151  69.529  1.00  0.00    -0.215 NA 
HETATM   18  C   UNL     1     -11.647   9.971  70.355  1.00  0.00    -0.302 A  
HETATM   19  C   UNL     1     -11.818  11.189  69.757  1.00  0.00    -0.349 A  
HETATM   20  N   UNL     1     -12.500  12.185  70.334  1.00  0.00    -0.199 NA 
HETATM   21  C   UNL     1     -12.979  11.953  71.595  1.00  0.00    -0.342 C  
HETATM   22  N   UNL     1     -13.594  13.033  72.143  1.00  0.00    -0.544 NA 
HETATM   23  N   UNL     1     -12.878  10.840  72.260  1.00  0.00    -0.267 N  
HETATM   24  H2  UNL     1     -13.689  13.928  71.662  1.00  0.00     0.000 HD 
HETATM   25  H1  UNL     1     -13.951  12.860  73.082  1.00  0.00     0.000 HD 
HETATM   26  C   UNL     1     -12.219   9.739  71.690  1.00  0.00    -0.404 C  
HETATM   27  H   UNL     1     -13.278  10.767  73.196  1.00  0.00     0.000 HD 
HETATM   28  O   UNL     1     -12.125   8.662  72.267  1.00  0.00    -0.364 OA 
ENDBRANCH  14  15
ENDBRANCH  13  14
ENDBRANCH  12  13
ENDBRANCH  11  12
ENDBRANCH  10  11
ENDBRANCH   8  10
ENDBRANCH   3   8
TORSDOF 7
ENDMDL
MODEL       42
REMARK 921   NORMALIZED FREE ENERGY PREDICTED BY IDOCK:   -6.03 KCAL/MOL
REMARK 922        TOTAL FREE ENERGY PREDICTED BY IDOCK:   -9.03 KCAL/MOL
REMARK 923 INTER-LIGAND FREE ENERGY PREDICTED BY IDOCK:   -8.41 KCAL/MOL
REMARK 924 INTRA-LIGAND FREE ENERGY PREDICTED BY IDOCK:   -0.63 KCAL/MOL
REMARK 927      BINDING AFFINITY PREDICTED BY RF-SCORE:    0.00 PKD
ROOT
HETATM    1  C   UNL     1     -11.332   9.034  71.937  1.00  0.00    -0.438 C  
HETATM    2  C   UNL     1     -12.573   8.259  71.483  1.00  0.00    -0.333 C  
HETATM    3  C   UNL     1     -12.342   6.728  71.422  1.00  0.00    -0.353 C  
HETATM    4  C   UNL     1     -13.762   8.616  72.385  1.00  0.00    -0.410 C  
HETATM    5  H1  UNL     1     -11.863   5.170  72.716  1.00  0.00     0.000 HD 
HETATM    6  N   UNL     1     -12.014   6.177  72.756  1.00  0.00    -0.513 NA 
HETATM    7  H2  UNL     1     -12.726   6.421  73.446  1.00  0.00     0.000 HD 
ENDROOT
BRANCH   3   8
HETATM    8  C   UNL     1     -11.240   6.331  70.412  1.00  0.00    -0.373 C  
HETATM    9  O   UNL     1     -10.217   5.717  70.693  1.00  0.00    -0.194 OA 
BRANCH   8  10
HETATM   10  O   UNL     1     -11.585   6.695  69.143  1.00  0.00    -0.203 OA 
BRANCH  10  11
HETATM   11  C   UNL     1     -10.622   6.338  68.131  1.00  0.00    -0.257 C  
BRANCH  11  12
HETATM   12  C   UNL     1      -9.848   7.574  67.669  1.00  0.00    -0.161 C  
BRANCH  12  13
HETATM   13  O   UNL     1     -10.734   8.695  67.720  1.00  0.00    -0.207 OA 
BRANCH  13  14
HETATM   14  C   UNL     1     -10.027   9.935  67.761  1.00  0.00    -0.165 C  
BRANCH  14  15
HETATM   15  N   UNL     1     -10.795  10.953  67.067  1.00  0.00    -0.272 NA 
HETATM   16  C   UNL     1     -11.591  11.895  67.682  1.00  0.00    -0.312 A  
HETATM   17  N   UNL     1     -12.145  12.721  66.813  1.00  0.00    -0.485 NA 
HETATM   18  C   UNL     1     -11.688  12.302  65.580  1.00  0.00    -0.377 A  
HETATM   19  C   UNL     1     -10.876  11.213  65.738  1.00  0.00    -0.151 A  
HETATM   20  N   UNL     1     -10.288  10.596  64.707  1.00  0.00    -0.327 NA 
HETATM   21  C   UNL     1     -10.488  11.143  63.468  1.00  0.00    -0.358 C  
HETATM   22  N   UNL     1      -9.802  10.507  62.484  1.00  0.00    -0.723 NA 
HETATM   23  N   UNL     1     -11.236  12.172  63.197  1.00  0.00    -0.703 N  
HETATM   24  H2  UNL     1      -9.198   9.702  62.651  1.00  0.00     0.000 HD 
HETATM   25  H1  UNL     1      -9.951  10.914  61.561  1.00  0.00     0.000 HD 
HETATM   26  C   UNL     1     -11.920  12.834  64.228  1.00  0.00    -0.405 C  
HETATM   27  H   UNL     1     -11.324  12.498  62.234  1.00  0.00     0.000 HD 
HETATM   28  O   UNL     1     -12.659  13.789  64.016  1.00  0.00    -0.685 OA 
ENDBRANCH  14  15
ENDBRANCH  13  14
ENDBRANCH  12  13
ENDBRANCH  11  12
ENDBRANCH  10  11
ENDBRANCH   8  10
ENDBRANCH   3   8
TORSDOF 7
ENDMDL
MODEL       43
REMARK 921   NORMALIZED FREE ENERGY PREDICTED BY IDOCK:   -6.02 KCAL/MOL
REMARK 922        TOTAL FREE ENERGY PREDICTED BY IDOCK:   -9.03 KCAL/MOL
REMARK 923 INTER-LIGAND FREE ENERGY PREDICTED BY IDOCK:   -8.56 KCAL/MOL
REMARK 924 INTRA-LIGAND FREE ENERGY PREDICTED BY IDOCK:   -0.46 KCAL/MOL
REMARK 927      BINDING AFFINITY PREDICTED BY RF-SCORE:    0.00 PKD
ROOT
HETATM    1  C   UNL     1      -9.453   5.644  70.928  1.00  0.00    -0.202 C  
HETATM    2  C   UNL     1     -10.441   6.572  71.641  1.00  0.00    -0.241 C  
HETATM    3  C   UNL     1     -11.270   7.442  70.663  1.00  0.00    -0.270 C  
HETATM    4  C   UNL     1     -11.344   5.748  72.570  1.00  0.00    -0.358 C  
HETATM    5  H1  UNL     1     -12.652   7.179  69.129  1.00  0.00     0.000 HD 
HETATM    6  N   UNL     1     -12.106   6.607  69.772  1.00  0.00    -0.545 NA 
HETATM    7  H2  UNL     1     -12.702   5.973  70.306  1.00  0.00     0.000 HD 
ENDROOT
BRANCH   3   8
HETATM    8  C   UNL     1     -10.389   8.386  69.812  1.00  0.00    -0.216 C  
HETATM    9  O   UNL     1      -9.839   8.078  68.761  1.00  0.00    -0.164 OA 
BRANCH   8  10
HETATM   10  O   UNL     1     -10.355   9.640  70.349  1.00  0.00    -0.254 OA 
BRANCH  10  11
HETATM   11  C   UNL     1     -11.565  10.041  71.022  1.00  0.00    -0.393 C  
BRANCH  11  12
HETATM   12  C   UNL     1     -12.398  10.960  70.126  1.00  0.00    -0.322 C  
BRANCH  12  13
HETATM   13  O   UNL     1     -11.519  11.931  69.551  1.00  0.00    -0.279 OA 
BRANCH  13  14
HETATM   14  C   UNL     1     -11.718  12.065  68.143  1.00  0.00    -0.333 C  
BRANCH  14  15
HETATM   15  N   UNL     1     -11.319  13.395  67.722  1.00  0.00    -0.278 NA 
HETATM   16  C   UNL     1     -10.692  14.322  68.526  1.00  0.00    -0.255 A  
HETATM   17  N   UNL     1     -10.411  15.436  67.876  1.00  0.00    -0.251 NA 
HETATM   18  C   UNL     1     -10.870  15.225  66.591  1.00  0.00    -0.310 A  
HETATM   19  C   UNL     1     -11.438  13.984  66.506  1.00  0.00    -0.357 A  
HETATM   20  N   UNL     1     -11.967  13.510  65.372  1.00  0.00    -0.358 NA 
HETATM   21  C   UNL     1     -11.865  14.308  64.265  1.00  0.00    -0.379 C  
HETATM   22  N   UNL     1     -12.358  13.730  63.139  1.00  0.00    -1.106 NA 
HETATM   23  N   UNL     1     -11.349  15.501  64.226  1.00  0.00    -0.743 N  
HETATM   24  H2  UNL     1     -12.763  12.794  63.120  1.00  0.00     0.000 HD 
HETATM   25  H1  UNL     1     -12.282  14.325  62.314  1.00  0.00     0.000 HD 
HETATM   26  C   UNL     1     -10.822  16.077  65.392  1.00  0.00    -0.328 C  
HETATM   27  H   UNL     1     -11.328  16.019  63.347  1.00  0.00     0.000 HD 
HETATM   28  O   UNL     1     -10.353  17.210  65.410  1.00  0.00    -0.619 OA 
ENDBRANCH  14  15
ENDBRANCH  13  14
ENDBRANCH  12  13
ENDBRANCH  11  12
ENDBRANCH  10  11
ENDBRANCH   8  10
ENDBRANCH   3   8
TORSDOF 7
ENDMDL
MODEL       44
REMARK 921   NORMALIZED FREE ENERGY PREDICTED BY IDOCK:   -6.02 KCAL/MOL
REMARK 922        TOTAL FREE ENERGY PREDICTED BY IDOCK:   -9.02 KCAL/MOL
REMARK 923 INTER-LIGAND FREE ENERGY PREDICTED BY IDOCK:   -7.80 KCAL/MOL
REMARK 924 INTRA-LIGAND FREE ENERGY PREDICTED BY IDOCK:   -1.22 KCAL/MOL
REMARK 927      BINDING AFFINITY PREDICTED BY RF-SCORE:    0.00 PKD
ROOT
HETATM    1  C   UNL     1      -9.072  11.343  68.389  1.00  0.00    -0.179 C  
HETATM    2  C   UNL     1      -9.727  10.178  67.639  1.00  0.00    -0.187 C  
HETATM    3  C   UNL     1     -11.020   9.668  68.323  1.00  0.00    -0.121 C  
HETATM    4  C   UNL     1      -9.980  10.581  66.180  1.00  0.00    -0.286 C  
HETATM    5  H1  UNL     1     -12.909  10.386  68.822  1.00  0.00     0.000 HD 
HETATM    6  N   UNL     1     -12.058  10.722  68.372  1.00  0.00    -0.827 NA 
HETATM    7  H2  UNL     1     -12.250  11.100  67.444  1.00  0.00     0.000 HD 
ENDROOT
BRANCH   3   8
HETATM    8  C   UNL     1     -10.766   9.125  69.749  1.00  0.00    -0.228 C  
HETATM    9  O   UNL     1     -10.230   8.053  70.008  1.00  0.00    -0.197 OA 
BRANCH   8  10
HETATM   10  O   UNL     1     -11.156  10.028  70.694  1.00  0.00    -0.298 OA 
BRANCH  10  11
HETATM   11  C   UNL     1     -12.139   9.537  71.628  1.00  0.00    -0.398 C  
BRANCH  11  12
HETATM   12  C   UNL     1     -13.258  10.562  71.818  1.00  0.00    -0.417 C  
BRANCH  12  13
HETATM   13  O   UNL     1     -12.812  11.808  71.277  1.00  0.00    -0.386 OA 
BRANCH  13  14
HETATM   14  C   UNL     1     -13.328  12.924  72.004  1.00  0.00    -0.482 C  
BRANCH  14  15
HETATM   15  N   UNL     1     -12.650  14.135  71.579  1.00  0.00    -0.344 NA 
HETATM   16  C   UNL     1     -12.280  15.166  72.414  1.00  0.00    -0.374 A  
HETATM   17  N   UNL     1     -11.646  16.127  71.767  1.00  0.00    -0.460 NA 
HETATM   18  C   UNL     1     -11.599  15.703  70.454  1.00  0.00    -0.349 A  
HETATM   19  C   UNL     1     -12.227  14.494  70.340  1.00  0.00    -0.329 A  
HETATM   20  N   UNL     1     -12.331  13.843  69.176  1.00  0.00    -0.244 NA 
HETATM   21  C   UNL     1     -11.724  14.417  68.093  1.00  0.00    -0.342 C  
HETATM   22  N   UNL     1     -11.809  13.664  66.967  1.00  0.00    -0.388 NA 
HETATM   23  N   UNL     1     -11.101  15.558  68.081  1.00  0.00    -0.311 N  
HETATM   24  H2  UNL     1     -12.280  12.759  66.932  1.00  0.00     0.000 HD 
HETATM   25  H1  UNL     1     -11.356  14.091  66.160  1.00  0.00     0.000 HD 
HETATM   26  C   UNL     1     -10.999  16.316  69.259  1.00  0.00    -0.317 C  
HETATM   27  H   UNL     1     -10.685  15.904  67.215  1.00  0.00     0.000 HD 
HETATM   28  O   UNL     1     -10.448  17.410  69.288  1.00  0.00    -0.341 OA 
ENDBRANCH  14  15
ENDBRANCH  13  14
ENDBRANCH  12  13
ENDBRANCH  11  12
ENDBRANCH  10  11
ENDBRANCH   8  10
ENDBRANCH   3   8
TORSDOF 7
ENDMDL
MODEL       45
REMARK 921   NORMALIZED FREE ENERGY PREDICTED BY IDOCK:   -6.00 KCAL/MOL
REMARK 922        TOTAL FREE ENERGY PREDICTED BY IDOCK:   -8.99 KCAL/MOL
REMARK 923 INTER-LIGAND FREE ENERGY PREDICTED BY IDOCK:   -8.55 KCAL/MOL
REMARK 924 INTRA-LIGAND FREE ENERGY PREDICTED BY IDOCK:   -0.45 KCAL/MOL
REMARK 927      BINDING AFFINITY PREDICTED BY RF-SCORE:    0.00 PKD
ROOT
HETATM    1  C   UNL     1     -10.541  19.255  67.172  1.00  0.00    -0.575 C  
HETATM    2  C   UNL     1      -9.423  18.436  67.827  1.00  0.00    -0.291 C  
HETATM    3  C   UNL     1      -9.421  16.951  67.384  1.00  0.00    -0.238 C  
HETATM    4  C   UNL     1      -8.069  19.107  67.562  1.00  0.00    -0.301 C  
HETATM    5  H1  UNL     1      -9.185  15.845  65.638  1.00  0.00     0.000 HD 
HETATM    6  N   UNL     1      -9.187  16.821  65.929  1.00  0.00    -0.522 NA 
HETATM    7  H2  UNL     1      -8.330  17.298  65.645  1.00  0.00     0.000 HD 
ENDROOT
BRANCH   3   8
HETATM    8  C   UNL     1     -10.725  16.214  67.767  1.00  0.00    -0.325 C  
HETATM    9  O   UNL     1     -11.252  15.327  67.105  1.00  0.00    -0.334 OA 
BRANCH   8  10
HETATM   10  O   UNL     1     -11.187  16.632  68.981  1.00  0.00    -0.271 OA 
BRANCH  10  11
HETATM   11  C   UNL     1     -10.780  15.813  70.096  1.00  0.00    -0.344 C  
BRANCH  11  12
HETATM   12  C   UNL     1     -11.846  15.831  71.192  1.00  0.00    -0.425 C  
BRANCH  12  13
HETATM   13  O   UNL     1     -12.014  14.493  71.667  1.00  0.00    -0.341 OA 
BRANCH  13  14
HETATM   14  C   UNL     1     -12.898  13.737  70.839  1.00  0.00    -0.271 C  
BRANCH  14  15
HETATM   15  N   UNL     1     -12.238  12.517  70.412  1.00  0.00    -0.333 NA 
HETATM   16  C   UNL     1     -11.289  12.441  69.416  1.00  0.00    -0.220 A  
HETATM   17  N   UNL     1     -10.829  11.213  69.259  1.00  0.00    -0.233 NA 
HETATM   18  C   UNL     1     -11.504  10.457  70.196  1.00  0.00    -0.319 A  
HETATM   19  C   UNL     1     -12.375  11.254  70.887  1.00  0.00    -0.388 A  
HETATM   20  N   UNL     1     -13.162  10.785  71.862  1.00  0.00    -0.466 NA 
HETATM   21  C   UNL     1     -13.019   9.463  72.187  1.00  0.00    -0.421 C  
HETATM   22  N   UNL     1     -13.797   9.080  73.231  1.00  0.00    -1.163 NA 
HETATM   23  N   UNL     1     -12.228   8.613  71.602  1.00  0.00    -0.315 N  
HETATM   24  H2  UNL     1     -14.426   9.714  73.725  1.00  0.00     0.000 HD 
HETATM   25  H1  UNL     1     -13.690   8.095  73.474  1.00  0.00     0.000 HD 
HETATM   26  C   UNL     1     -11.412   9.029  70.539  1.00  0.00    -0.212 C  
HETATM   27  H   UNL     1     -12.200   7.643  71.917  1.00  0.00     0.000 HD 
HETATM   28  O   UNL     1     -10.672   8.256  69.939  1.00  0.00    -0.238 OA 
ENDBRANCH  14  15
ENDBRANCH  13  14
ENDBRANCH  12  13
ENDBRANCH  11  12
ENDBRANCH  10  11
ENDBRANCH   8  10
ENDBRANCH   3   8
TORSDOF 7
ENDMDL
MODEL       46
REMARK 921   NORMALIZED FREE ENERGY PREDICTED BY IDOCK:   -5.95 KCAL/MOL
REMARK 922        TOTAL FREE ENERGY PREDICTED BY IDOCK:   -8.93 KCAL/MOL
REMARK 923 INTER-LIGAND FREE ENERGY PREDICTED BY IDOCK:   -8.44 KCAL/MOL
REMARK 924 INTRA-LIGAND FREE ENERGY PREDICTED BY IDOCK:   -0.49 KCAL/MOL
REMARK 927      BINDING AFFINITY PREDICTED BY RF-SCORE:    0.00 PKD
ROOT
HETATM    1  C   UNL     1     -11.497  16.246  67.057  1.00  0.00     0.434 C  
HETATM    2  C   UNL     1     -10.377  15.875  66.079  1.00  0.00    -0.363 C  
HETATM    3  C   UNL     1     -10.906  15.453  64.685  1.00  0.00    -0.258 C  
HETATM    4  C   UNL     1      -9.376  17.034  65.977  1.00  0.00    -0.187 C  
HETATM    5  H1  UNL     1     -11.986  16.281  63.110  1.00  0.00     0.000 HD 
HETATM    6  N   UNL     1     -11.638  16.559  64.027  1.00  0.00    -1.544 NA 
HETATM    7  H2  UNL     1     -11.067  17.403  63.971  1.00  0.00     0.000 HD 
ENDROOT
BRANCH   3   8
HETATM    8  C   UNL     1     -11.808  14.198  64.744  1.00  0.00    -0.417 C  
HETATM    9  O   UNL     1     -12.989  14.164  64.419  1.00  0.00    -0.503 OA 
BRANCH   8  10
HETATM   10  O   UNL     1     -11.098  13.104  65.146  1.00  0.00    -0.280 OA 
BRANCH  10  11
HETATM   11  C   UNL     1     -11.780  12.258  66.095  1.00  0.00    -0.376 C  
BRANCH  11  12
HETATM   12  C   UNL     1     -11.604  12.797  67.516  1.00  0.00    -0.356 C  
BRANCH  12  13
HETATM   13  O   UNL     1     -12.153  11.838  68.423  1.00  0.00    -0.490 OA 
BRANCH  13  14
HETATM   14  C   UNL     1     -11.463  11.827  69.673  1.00  0.00    -0.270 C  
BRANCH  14  15
HETATM   15  N   UNL     1     -11.037  10.473  69.979  1.00  0.00    -0.297 NA 
HETATM   16  C   UNL     1      -9.848   9.909  69.572  1.00  0.00    -0.223 A  
HETATM   17  N   UNL     1      -9.701   8.677  70.023  1.00  0.00    -0.169 NA 
HETATM   18  C   UNL     1     -10.842   8.428  70.759  1.00  0.00    -0.224 A  
HETATM   19  C   UNL     1     -11.662   9.521  70.717  1.00  0.00    -0.298 A  
HETATM   20  N   UNL     1     -12.842   9.561  71.346  1.00  0.00    -0.341 NA 
HETATM   21  C   UNL     1     -13.178   8.467  72.096  1.00  0.00    -0.318 C  
HETATM   22  N   UNL     1     -14.352   8.611  72.762  1.00  0.00    -0.994 NA 
HETATM   23  N   UNL     1     -12.481   7.375  72.210  1.00  0.00    -0.505 N  
HETATM   24  H2  UNL     1     -14.927   9.452  72.709  1.00  0.00     0.000 HD 
HETATM   25  H1  UNL     1     -14.602   7.796  73.321  1.00  0.00     0.000 HD 
HETATM   26  C   UNL     1     -11.257   7.248  71.535  1.00  0.00    -0.245 C  
HETATM   27  H   UNL     1     -12.824   6.609  72.791  1.00  0.00     0.000 HD 
HETATM   28  O   UNL     1     -10.581   6.227  71.589  1.00  0.00    -0.216 OA 
ENDBRANCH  14  15
ENDBRANCH  13  14
ENDBRANCH  12  13
ENDBRANCH  11  12
ENDBRANCH  10  11
ENDBRANCH   8  10
ENDBRANCH   3   8
TORSDOF 7
ENDMDL
MODEL       47
REMARK 921   NORMALIZED FREE ENERGY PREDICTED BY IDOCK:   -5.92 KCAL/MOL
REMARK 922        TOTAL FREE ENERGY PREDICTED BY IDOCK:   -8.89 KCAL/MOL
REMARK 923 INTER-LIGAND FREE ENERGY PREDICTED BY IDOCK:   -7.37 KCAL/MOL
REMARK 924 INTRA-LIGAND FREE ENERGY PREDICTED BY IDOCK:   -1.52 KCAL/MOL
REMARK 927      BINDING AFFINITY PREDICTED BY RF-SCORE:    0.00 PKD
ROOT
HETATM    1  C   UNL     1     -13.697   9.658  72.042  1.00  0.00    -0.396 C  
HETATM    2  C   UNL     1     -12.673  10.776  71.820  1.00  0.00    -0.464 C  
HETATM    3  C   UNL     1     -11.750  10.521  70.602  1.00  0.00    -0.357 C  
HETATM    4  C   UNL     1     -13.398  12.124  71.708  1.00  0.00    -0.342 C  
HETATM    5  H1  UNL     1     -11.917  10.289  68.541  1.00  0.00     0.000 HD 
HETATM    6  N   UNL     1     -12.524  10.456  69.342  1.00  0.00    -0.656 NA 
HETATM    7  H2  UNL     1     -13.094  11.293  69.211  1.00  0.00     0.000 HD 
ENDROOT
BRANCH   3   8
HETATM    8  C   UNL     1     -10.903   9.236  70.755  1.00  0.00    -0.284 C  
HETATM    9  O   UNL     1     -10.157   8.994  71.697  1.00  0.00    -0.316 OA 
BRANCH   8  10
HETATM   10  O   UNL     1     -11.142   8.366  69.732  1.00  0.00    -0.185 OA 
BRANCH  10  11
HETATM   11  C   UNL     1      -9.983   7.640  69.274  1.00  0.00    -0.180 C  
BRANCH  11  12
HETATM   12  C   UNL     1      -9.947   7.597  67.746  1.00  0.00    -0.174 C  
BRANCH  12  13
HETATM   13  O   UNL     1     -10.781   8.650  67.254  1.00  0.00    -0.271 OA 
BRANCH  13  14
HETATM   14  C   UNL     1     -10.054   9.577  66.447  1.00  0.00    -0.258 C  
BRANCH  14  15
HETATM   15  N   UNL     1      -9.985  10.859  67.125  1.00  0.00    -0.184 NA 
HETATM   16  C   UNL     1      -9.099  11.172  68.132  1.00  0.00    -0.159 A  
HETATM   17  N   UNL     1      -9.232  12.419  68.543  1.00  0.00    -0.131 NA 
HETATM   18  C   UNL     1     -10.246  12.944  67.768  1.00  0.00    -0.224 A  
HETATM   19  C   UNL     1     -10.714  11.983  66.914  1.00  0.00    -0.244 A  
HETATM   20  N   UNL     1     -11.702  12.214  66.041  1.00  0.00    -0.504 NA 
HETATM   21  C   UNL     1     -12.197  13.489  65.995  1.00  0.00    -0.445 C  
HETATM   22  N   UNL     1     -13.142  13.663  65.036  1.00  0.00    -0.727 NA 
HETATM   23  N   UNL     1     -11.832  14.480  66.754  1.00  0.00    -0.392 N  
HETATM   24  H2  UNL     1     -13.453  12.917  64.413  1.00  0.00     0.000 HD 
HETATM   25  H1  UNL     1     -13.511  14.613  65.001  1.00  0.00     0.000 HD 
HETATM   26  C   UNL     1     -10.836  14.291  67.725  1.00  0.00    -0.253 C  
HETATM   27  H   UNL     1     -12.270  15.394  66.643  1.00  0.00     0.000 HD 
HETATM   28  O   UNL     1     -10.482  15.188  68.482  1.00  0.00    -0.225 OA 
ENDBRANCH  14  15
ENDBRANCH  13  14
ENDBRANCH  12  13
ENDBRANCH  11  12
ENDBRANCH  10  11
ENDBRANCH   8  10
ENDBRANCH   3   8
TORSDOF 7
ENDMDL
MODEL       48
REMARK 921   NORMALIZED FREE ENERGY PREDICTED BY IDOCK:   -5.88 KCAL/MOL
REMARK 922        TOTAL FREE ENERGY PREDICTED BY IDOCK:   -8.82 KCAL/MOL
REMARK 923 INTER-LIGAND FREE ENERGY PREDICTED BY IDOCK:   -8.52 KCAL/MOL
REMARK 924 INTRA-LIGAND FREE ENERGY PREDICTED BY IDOCK:   -0.30 KCAL/MOL
REMARK 927      BINDING AFFINITY PREDICTED BY RF-SCORE:    0.00 PKD
ROOT
HETATM    1  C   UNL     1      -8.423  19.563  66.092  1.00  0.00    -0.329 C  
HETATM    2  C   UNL     1      -9.816  19.417  66.714  1.00  0.00    -0.453 C  
HETATM    3  C   UNL     1     -10.233  17.940  66.925  1.00  0.00    -0.358 C  
HETATM    4  C   UNL     1      -9.883  20.216  68.022  1.00  0.00    -0.498 C  
HETATM    5  H1  UNL     1      -9.597  16.278  68.003  1.00  0.00     0.000 HD 
HETATM    6  N   UNL     1      -9.322  17.249  67.864  1.00  0.00    -0.253 NA 
HETATM    7  H2  UNL     1      -9.252  17.748  68.751  1.00  0.00     0.000 HD 
ENDROOT
BRANCH   3   8
HETATM    8  C   UNL     1     -10.310  17.147  65.599  1.00  0.00    -0.183 C  
HETATM    9  O   UNL     1     -11.030  17.432  64.650  1.00  0.00    -0.959 OA 
BRANCH   8  10
HETATM   10  O   UNL     1      -9.415  16.117  65.592  1.00  0.00    -0.427 OA 
BRANCH  10  11
HETATM   11  C   UNL     1      -9.977  14.828  65.912  1.00  0.00    -0.326 C  
BRANCH  11  12
HETATM   12  C   UNL     1      -9.011  14.023  66.783  1.00  0.00    -0.197 C  
BRANCH  12  13
HETATM   13  O   UNL     1      -9.693  13.673  67.991  1.00  0.00    -0.212 OA 
BRANCH  13  14
HETATM   14  C   UNL     1     -11.109  13.631  67.814  1.00  0.00    -0.272 C  
BRANCH  14  15
HETATM   15  N   UNL     1     -11.754  14.346  68.901  1.00  0.00    -0.303 NA 
HETATM   16  C   UNL     1     -11.975  15.705  68.929  1.00  0.00    -0.279 A  
HETATM   17  N   UNL     1     -12.613  16.083  70.022  1.00  0.00    -0.112 NA 
HETATM   18  C   UNL     1     -12.821  14.919  70.734  1.00  0.00    -0.372 A  
HETATM   19  C   UNL     1     -12.281  13.863  70.054  1.00  0.00    -0.344 A  
HETATM   20  N   UNL     1     -12.337  12.607  70.511  1.00  0.00    -0.314 NA 
HETATM   21  C   UNL     1     -13.018  12.407  71.681  1.00  0.00    -0.305 C  
HETATM   22  N   UNL     1     -13.094  11.101  72.042  1.00  0.00    -0.503 NA 
HETATM   23  N   UNL     1     -13.570  13.330  72.412  1.00  0.00    -0.598 N  
HETATM   24  H2  UNL     1     -12.684  10.343  71.496  1.00  0.00     0.000 HD 
HETATM   25  H1  UNL     1     -13.602  10.952  72.914  1.00  0.00     0.000 HD 
HETATM   26  C   UNL     1     -13.504  14.675  72.014  1.00  0.00    -0.380 C  
HETATM   27  H   UNL     1     -14.051  13.077  73.276  1.00  0.00     0.000 HD 
HETATM   28  O   UNL     1     -13.984  15.581  72.686  1.00  0.00    -0.545 OA 
ENDBRANCH  14  15
ENDBRANCH  13  14
ENDBRANCH  12  13
ENDBRANCH  11  12
ENDBRANCH  10  11
ENDBRANCH   8  10
ENDBRANCH   3   8
TORSDOF 7
ENDMDL
MODEL       49
REMARK 921   NORMALIZED FREE ENERGY PREDICTED BY IDOCK:   -5.86 KCAL/MOL
REMARK 922        TOTAL FREE ENERGY PREDICTED BY IDOCK:   -8.79 KCAL/MOL
REMARK 923 INTER-LIGAND FREE ENERGY PREDICTED BY IDOCK:   -8.20 KCAL/MOL
REMARK 924 INTRA-LIGAND FREE ENERGY PREDICTED BY IDOCK:   -0.60 KCAL/MOL
REMARK 927      BINDING AFFINITY PREDICTED BY RF-SCORE:    0.00 PKD
ROOT
HETATM    1  C   UNL     1     -13.315   9.081  71.393  1.00  0.00    -0.331 C  
HETATM    2  C   UNL     1     -12.408  10.316  71.413  1.00  0.00    -0.502 C  
HETATM    3  C   UNL     1     -11.616  10.507  70.095  1.00  0.00    -0.326 C  
HETATM    4  C   UNL     1     -13.238  11.559  71.759  1.00  0.00    -0.456 C  
HETATM    5  H1  UNL     1     -12.001  10.843  68.078  1.00  0.00     0.000 HD 
HETATM    6  N   UNL     1     -12.522  10.717  68.945  1.00  0.00    -0.730 NA 
HETATM    7  H2  UNL     1     -13.163  11.493  69.111  1.00  0.00     0.000 HD 
ENDROOT
BRANCH   3   8
HETATM    8  C   UNL     1     -10.664   9.325  69.796  1.00  0.00    -0.231 C  
HETATM    9  O   UNL     1     -10.001   8.726  70.635  1.00  0.00    -0.180 OA 
BRANCH   8  10
HETATM   10  O   UNL     1     -10.706   8.985  68.475  1.00  0.00    -0.186 OA 
BRANCH  10  11
HETATM   11  C   UNL     1      -9.544   9.374  67.715  1.00  0.00    -0.134 C  
BRANCH  11  12
HETATM   12  C   UNL     1      -9.715   8.996  66.243  1.00  0.00    -0.275 C  
BRANCH  12  13
HETATM   13  O   UNL     1     -10.199  10.147  65.545  1.00  0.00    -0.286 OA 
BRANCH  13  14
HETATM   14  C   UNL     1      -9.799  11.364  66.175  1.00  0.00    -0.222 C  
BRANCH  14  15
HETATM   15  N   UNL     1     -10.367  12.491  65.458  1.00  0.00    -0.275 NA 
HETATM   16  C   UNL     1     -11.273  12.392  64.425  1.00  0.00    -0.332 A  
HETATM   17  N   UNL     1     -11.651  13.576  63.979  1.00  0.00    -0.377 NA 
HETATM   18  C   UNL     1     -10.966  14.486  64.758  1.00  0.00    -0.391 A  
HETATM   19  C   UNL     1     -10.171  13.819  65.649  1.00  0.00    -0.313 A  
HETATM   20  N   UNL     1      -9.391  14.452  66.534  1.00  0.00    -0.283 NA 
HETATM   21  C   UNL     1      -9.465  15.819  66.552  1.00  0.00    -0.272 C  
HETATM   22  N   UNL     1      -8.704  16.384  67.523  1.00  0.00    -0.177 NA 
HETATM   23  N   UNL     1     -10.182  16.557  65.757  1.00  0.00    -0.346 N  
HETATM   24  H2  UNL     1      -8.133  15.845  68.175  1.00  0.00     0.000 HD 
HETATM   25  H1  UNL     1      -8.759  17.402  67.537  1.00  0.00     0.000 HD 
HETATM   26  C   UNL     1     -10.983  15.957  64.773  1.00  0.00    -0.375 C  
HETATM   27  H   UNL     1     -10.161  17.573  65.849  1.00  0.00     0.000 HD 
HETATM   28  O   UNL     1     -11.651  16.614  63.982  1.00  0.00    -1.197 OA 
ENDBRANCH  14  15
ENDBRANCH  13  14
ENDBRANCH  12  13
ENDBRANCH  11  12
ENDBRANCH  10  11
ENDBRANCH   8  10
ENDBRANCH   3   8
TORSDOF 7
ENDMDL
MODEL       50
REMARK 921   NORMALIZED FREE ENERGY PREDICTED BY IDOCK:   -5.85 KCAL/MOL
REMARK 922        TOTAL FREE ENERGY PREDICTED BY IDOCK:   -8.79 KCAL/MOL
REMARK 923 INTER-LIGAND FREE ENERGY PREDICTED BY IDOCK:   -8.18 KCAL/MOL
REMARK 924 INTRA-LIGAND FREE ENERGY PREDICTED BY IDOCK:   -0.60 KCAL/MOL
REMARK 927      BINDING AFFINITY PREDICTED BY RF-SCORE:    0.00 PKD
ROOT
HETATM    1  C   UNL     1     -12.711  12.047  63.543  1.00  0.00    -0.567 C  
HETATM    2  C   UNL     1     -12.178  12.503  64.906  1.00  0.00    -0.534 C  
HETATM    3  C   UNL     1     -10.645  12.326  65.047  1.00  0.00    -0.287 C  
HETATM    4  C   UNL     1     -12.606  13.954  65.167  1.00  0.00    -0.466 C  
HETATM    5  H1  UNL     1      -8.904  13.029  64.148  1.00  0.00     0.000 HD 
HETATM    6  N   UNL     1      -9.913  13.145  64.056  1.00  0.00    -0.763 NA 
HETATM    7  H2  UNL     1     -10.182  14.128  64.111  1.00  0.00     0.000 HD 
ENDROOT
BRANCH   3   8
HETATM    8  C   UNL     1     -10.203  10.849  64.927  1.00  0.00    -0.316 C  
HETATM    9  O   UNL     1      -9.781  10.322  63.904  1.00  0.00    -0.307 OA 
BRANCH   8  10
HETATM   10  O   UNL     1     -10.278  10.216  66.132  1.00  0.00    -0.242 OA 
BRANCH  10  11
HETATM   11  C   UNL     1      -9.150   9.374  66.444  1.00  0.00    -0.161 C  
BRANCH  11  12
HETATM   12  C   UNL     1      -9.583   7.910  66.539  1.00  0.00    -0.212 C  
BRANCH  12  13
HETATM   13  O   UNL     1     -10.553   7.803  67.584  1.00  0.00    -0.239 OA 
BRANCH  13  14
HETATM   14  C   UNL     1      -9.969   7.967  68.877  1.00  0.00    -0.195 C  
BRANCH  14  15
HETATM   15  N   UNL     1     -11.010   7.924  69.887  1.00  0.00    -0.220 NA 
HETATM   16  C   UNL     1     -11.490   6.775  70.476  1.00  0.00    -0.360 A  
HETATM   17  N   UNL     1     -12.410   7.030  71.389  1.00  0.00    -0.359 NA 
HETATM   18  C   UNL     1     -12.531   8.405  71.399  1.00  0.00    -0.288 A  
HETATM   19  C   UNL     1     -11.687   8.946  70.469  1.00  0.00    -0.111 A  
HETATM   20  N   UNL     1     -11.593  10.264  70.262  1.00  0.00    -0.294 NA 
HETATM   21  C   UNL     1     -12.348  11.070  71.070  1.00  0.00    -0.385 C  
HETATM   22  N   UNL     1     -12.145  12.394  70.850  1.00  0.00    -0.432 NA 
HETATM   23  N   UNL     1     -13.183  10.670  71.984  1.00  0.00    -0.532 N  
HETATM   24  H2  UNL     1     -11.495  12.753  70.151  1.00  0.00     0.000 HD 
HETATM   25  H1  UNL     1     -12.707  12.994  71.453  1.00  0.00     0.000 HD 
HETATM   26  C   UNL     1     -13.365   9.298  72.217  1.00  0.00    -0.477 C  
HETATM   27  H   UNL     1     -13.706  11.355  72.531  1.00  0.00     0.000 HD 
HETATM   28  O   UNL     1     -14.163   8.875  73.047  1.00  0.00    -0.437 OA 
ENDBRANCH  14  15
ENDBRANCH  13  14
ENDBRANCH  12  13
ENDBRANCH  11  12
ENDBRANCH  10  11
ENDBRANCH   8  10
ENDBRANCH   3   8
TORSDOF 7
ENDMDL
MODEL       51
REMARK 921   NORMALIZED FREE ENERGY PREDICTED BY IDOCK:   -5.82 KCAL/MOL
REMARK 922        TOTAL FREE ENERGY PREDICTED BY IDOCK:   -8.74 KCAL/MOL
REMARK 923 INTER-LIGAND FREE ENERGY PREDICTED BY IDOCK:   -8.14 KCAL/MOL
REMARK 924 INTRA-LIGAND FREE ENERGY PREDICTED BY IDOCK:   -0.60 KCAL/MOL
REMARK 927      BINDING AFFINITY PREDICTED BY RF-SCORE:    0.00 PKD
ROOT
HETATM    1  C   UNL     1     -12.206  14.205  66.588  1.00  0.00    -0.450 C  
HETATM    2  C   UNL     1     -11.028  14.208  65.607  1.00  0.00    -0.308 C  
HETATM    3  C   UNL     1     -11.426  13.748  64.182  1.00  0.00    -0.293 C  
HETATM    4  C   UNL     1     -10.374  15.597  65.592  1.00  0.00    -0.408 C  
HETATM    5  H1  UNL     1     -12.688  14.354  62.643  1.00  0.00     0.000 HD 
HETATM    6  N   UNL     1     -12.427  14.657  63.580  1.00  0.00    -1.064 NA 
HETATM    7  H2  UNL     1     -12.103  15.625  63.584  1.00  0.00     0.000 HD 
ENDROOT
BRANCH   3   8
HETATM    8  C   UNL     1     -11.959  12.297  64.152  1.00  0.00    -0.432 C  
HETATM    9  O   UNL     1     -12.907  11.909  63.478  1.00  0.00    -0.691 OA 
BRANCH   8  10
HETATM   10  O   UNL     1     -11.192  11.477  64.927  1.00  0.00    -0.263 OA 
BRANCH  10  11
HETATM   11  C   UNL     1     -10.231  10.685  64.200  1.00  0.00    -0.295 C  
BRANCH  11  12
HETATM   12  C   UNL     1      -9.406   9.827  65.161  1.00  0.00    -0.260 C  
BRANCH  12  13
HETATM   13  O   UNL     1     -10.247   9.457  66.256  1.00  0.00    -0.274 OA 
BRANCH  13  14
HETATM   14  C   UNL     1      -9.580   9.588  67.512  1.00  0.00    -0.144 C  
BRANCH  14  15
HETATM   15  N   UNL     1     -10.498  10.139  68.492  1.00  0.00    -0.185 NA 
HETATM   16  C   UNL     1     -11.233  11.292  68.323  1.00  0.00    -0.267 A  
HETATM   17  N   UNL     1     -12.013  11.541  69.359  1.00  0.00    -0.326 NA 
HETATM   18  C   UNL     1     -11.779  10.505  70.240  1.00  0.00    -0.332 A  
HETATM   19  C   UNL     1     -10.841   9.660  69.714  1.00  0.00    -0.250 A  
HETATM   20  N   UNL     1     -10.420   8.563  70.354  1.00  0.00    -0.202 NA 
HETATM   21  C   UNL     1     -11.017   8.282  71.553  1.00  0.00    -0.254 C  
HETATM   22  N   UNL     1     -10.591   7.117  72.105  1.00  0.00    -0.206 NA 
HETATM   23  N   UNL     1     -11.916   9.009  72.149  1.00  0.00    -0.350 N  
HETATM   24  H2  UNL     1      -9.895   6.511  71.670  1.00  0.00     0.000 HD 
HETATM   25  H1  UNL     1     -11.036   6.908  72.999  1.00  0.00     0.000 HD 
HETATM   26  C   UNL     1     -12.364  10.199  71.555  1.00  0.00    -0.408 C  
HETATM   27  H   UNL     1     -12.295   8.714  73.049  1.00  0.00     0.000 HD 
HETATM   28  O   UNL     1     -13.187  10.931  72.093  1.00  0.00    -0.474 OA 
ENDBRANCH  14  15
ENDBRANCH  13  14
ENDBRANCH  12  13
ENDBRANCH  11  12
ENDBRANCH  10  11
ENDBRANCH   8  10
ENDBRANCH   3   8
TORSDOF 7
ENDMDL
MODEL       52
REMARK 921   NORMALIZED FREE ENERGY PREDICTED BY IDOCK:   -5.82 KCAL/MOL
REMARK 922        TOTAL FREE ENERGY PREDICTED BY IDOCK:   -8.74 KCAL/MOL
REMARK 923 INTER-LIGAND FREE ENERGY PREDICTED BY IDOCK:   -8.10 KCAL/MOL
REMARK 924 INTRA-LIGAND FREE ENERGY PREDICTED BY IDOCK:   -0.64 KCAL/MOL
REMARK 927      BINDING AFFINITY PREDICTED BY RF-SCORE:    0.00 PKD
ROOT
HETATM    1  C   UNL     1      -8.514  19.583  68.868  1.00  0.00    -0.291 C  
HETATM    2  C   UNL     1      -7.678  18.414  68.337  1.00  0.00    -0.314 C  
HETATM    3  C   UNL     1      -8.138  17.927  66.939  1.00  0.00    -0.229 C  
HETATM    4  C   UNL     1      -6.193  18.799  68.341  1.00  0.00    -0.228 C  
HETATM    5  H1  UNL     1      -8.298  18.672  65.003  1.00  0.00     0.000 HD 
HETATM    6  N   UNL     1      -7.996  18.992  65.922  1.00  0.00    -0.469 NA 
HETATM    7  H2  UNL     1      -7.044  19.359  65.895  1.00  0.00     0.000 HD 
ENDROOT
BRANCH   3   8
HETATM    8  C   UNL     1      -9.592  17.402  66.941  1.00  0.00    -0.277 C  
HETATM    9  O   UNL     1     -10.594  18.102  66.841  1.00  0.00    -0.367 OA 
BRANCH   8  10
HETATM   10  O   UNL     1      -9.621  16.039  67.000  1.00  0.00    -0.215 OA 
BRANCH  10  11
HETATM   11  C   UNL     1     -10.468  15.498  68.034  1.00  0.00    -0.259 C  
BRANCH  11  12
HETATM   12  C   UNL     1      -9.803  15.644  69.404  1.00  0.00    -0.284 C  
BRANCH  12  13
HETATM   13  O   UNL     1     -10.827  15.898  70.368  1.00  0.00    -0.320 OA 
BRANCH  13  14
HETATM   14  C   UNL     1     -12.100  15.414  69.938  1.00  0.00    -0.355 C  
BRANCH  14  15
HETATM   15  N   UNL     1     -12.466  14.250  70.724  1.00  0.00    -0.335 NA 
HETATM   16  C   UNL     1     -13.034  14.293  71.979  1.00  0.00    -0.355 A  
HETATM   17  N   UNL     1     -13.298  13.087  72.447  1.00  0.00    -0.518 NA 
HETATM   18  C   UNL     1     -12.888  12.221  71.454  1.00  0.00    -0.271 A  
HETATM   19  C   UNL     1     -12.366  12.934  70.411  1.00  0.00    -0.258 A  
HETATM   20  N   UNL     1     -11.890  12.350  69.305  1.00  0.00    -0.313 NA 
HETATM   21  C   UNL     1     -12.000  10.988  69.232  1.00  0.00    -0.339 C  
HETATM   22  N   UNL     1     -11.564  10.476  68.053  1.00  0.00    -0.716 NA 
HETATM   23  N   UNL     1     -12.475  10.208  70.158  1.00  0.00    -0.523 N  
HETATM   24  H2  UNL     1     -11.191  11.050  67.296  1.00  0.00     0.000 HD 
HETATM   25  H1  UNL     1     -11.646   9.461  67.999  1.00  0.00     0.000 HD 
HETATM   26  C   UNL     1     -12.945  10.753  71.363  1.00  0.00    -0.432 C  
HETATM   27  H   UNL     1     -12.507   9.199  70.008  1.00  0.00     0.000 HD 
HETATM   28  O   UNL     1     -13.374  10.055  72.275  1.00  0.00    -0.429 OA 
ENDBRANCH  14  15
ENDBRANCH  13  14
ENDBRANCH  12  13
ENDBRANCH  11  12
ENDBRANCH  10  11
ENDBRANCH   8  10
ENDBRANCH   3   8
TORSDOF 7
ENDMDL
MODEL       53
REMARK 921   NORMALIZED FREE ENERGY PREDICTED BY IDOCK:   -5.81 KCAL/MOL
REMARK 922        TOTAL FREE ENERGY PREDICTED BY IDOCK:   -8.73 KCAL/MOL
REMARK 923 INTER-LIGAND FREE ENERGY PREDICTED BY IDOCK:   -8.25 KCAL/MOL
REMARK 924 INTRA-LIGAND FREE ENERGY PREDICTED BY IDOCK:   -0.49 KCAL/MOL
REMARK 927      BINDING AFFINITY PREDICTED BY RF-SCORE:    0.00 PKD
ROOT
HETATM    1  C   UNL     1     -11.625  10.437  70.686  1.00  0.00    -0.440 C  
HETATM    2  C   UNL     1     -11.511   8.918  70.853  1.00  0.00    -0.339 C  
HETATM    3  C   UNL     1     -10.051   8.407  70.766  1.00  0.00    -0.193 C  
HETATM    4  C   UNL     1     -12.182   8.492  72.165  1.00  0.00    -0.446 C  
HETATM    5  H1  UNL     1      -8.254   8.637  71.790  1.00  0.00     0.000 HD 
HETATM    6  N   UNL     1      -9.214   8.974  71.847  1.00  0.00    -0.365 NA 
HETATM    7  H2  UNL     1      -9.620   8.793  72.766  1.00  0.00     0.000 HD 
ENDROOT
BRANCH   3   8
HETATM    8  C   UNL     1      -9.397   8.702  69.396  1.00  0.00    -0.150 C  
HETATM    9  O   UNL     1      -9.915   8.482  68.307  1.00  0.00    -0.171 OA 
BRANCH   8  10
HETATM   10  O   UNL     1      -8.183   9.306  69.553  1.00  0.00    -0.106 OA 
BRANCH  10  11
HETATM   11  C   UNL     1      -7.696   9.993  68.382  1.00  0.00    -0.084 C  
BRANCH  11  12
HETATM   12  C   UNL     1      -7.754  11.508  68.587  1.00  0.00    -0.139 C  
BRANCH  12  13
HETATM   13  O   UNL     1      -7.695  12.130  67.301  1.00  0.00    -0.154 OA 
BRANCH  13  14
HETATM   14  C   UNL     1      -8.745  13.080  67.117  1.00  0.00    -0.204 C  
BRANCH  14  15
HETATM   15  N   UNL     1      -9.726  12.544  66.191  1.00  0.00    -0.257 NA 
HETATM   16  C   UNL     1     -10.049  11.211  66.069  1.00  0.00    -0.244 A  
HETATM   17  N   UNL     1     -11.000  11.010  65.174  1.00  0.00    -0.108 NA 
HETATM   18  C   UNL     1     -11.312  12.266  64.695  1.00  0.00    -0.322 A  
HETATM   19  C   UNL     1     -10.520  13.199  65.307  1.00  0.00    -0.307 A  
HETATM   20  N   UNL     1     -10.607  14.506  65.036  1.00  0.00    -0.413 NA 
HETATM   21  C   UNL     1     -11.576  14.888  64.148  1.00  0.00    -0.054 C  
HETATM   22  N   UNL     1     -11.650  16.233  63.980  1.00  0.00    -1.504 NA 
HETATM   23  N   UNL     1     -12.383  14.094  63.507  1.00  0.00    -1.127 N  
HETATM   24  H2  UNL     1     -11.045  16.894  64.468  1.00  0.00     0.000 HD 
HETATM   25  H1  UNL     1     -12.372  16.518  63.319  1.00  0.00     0.000 HD 
HETATM   26  C   UNL     1     -12.310  12.707  63.709  1.00  0.00    -0.478 C  
HETATM   27  H   UNL     1     -13.069  14.480  62.858  1.00  0.00     0.000 HD 
HETATM   28  O   UNL     1     -13.029  11.919  63.105  1.00  0.00    -0.640 OA 
ENDBRANCH  14  15
ENDBRANCH  13  14
ENDBRANCH  12  13
ENDBRANCH  11  12
ENDBRANCH  10  11
ENDBRANCH   8  10
ENDBRANCH   3   8
TORSDOF 7
ENDMDL
MODEL       54
REMARK 921   NORMALIZED FREE ENERGY PREDICTED BY IDOCK:   -5.79 KCAL/MOL
REMARK 922        TOTAL FREE ENERGY PREDICTED BY IDOCK:   -8.71 KCAL/MOL
REMARK 923 INTER-LIGAND FREE ENERGY PREDICTED BY IDOCK:   -7.97 KCAL/MOL
REMARK 924 INTRA-LIGAND FREE ENERGY PREDICTED BY IDOCK:   -0.74 KCAL/MOL
REMARK 927      BINDING AFFINITY PREDICTED BY RF-SCORE:    0.00 PKD
ROOT
HETATM    1  C   UNL     1     -10.438   8.693  71.957  1.00  0.00    -0.422 C  
HETATM    2  C   UNL     1     -11.831   8.502  71.349  1.00  0.00    -0.345 C  
HETATM    3  C   UNL     1     -12.202   7.012  71.142  1.00  0.00    -0.382 C  
HETATM    4  C   UNL     1     -12.873   9.230  72.209  1.00  0.00    -0.459 C  
HETATM    5  H1  UNL     1     -12.488   5.301  72.291  1.00  0.00     0.000 HD 
HETATM    6  N   UNL     1     -12.243   6.281  72.428  1.00  0.00    -0.540 NA 
HETATM    7  H2  UNL     1     -12.870   6.733  73.095  1.00  0.00     0.000 HD 
ENDROOT
BRANCH   3   8
HETATM    8  C   UNL     1     -11.245   6.290  70.165  1.00  0.00    -0.403 C  
HETATM    9  O   UNL     1     -10.721   5.200  70.370  1.00  0.00    -0.214 OA 
BRANCH   8  10
HETATM   10  O   UNL     1     -11.106   6.994  69.005  1.00  0.00    -0.170 OA 
BRANCH  10  11
HETATM   11  C   UNL     1     -10.717   6.204  67.863  1.00  0.00    -0.296 C  
BRANCH  11  12
HETATM   12  C   UNL     1     -10.164   7.101  66.754  1.00  0.00    -0.219 C  
BRANCH  12  13
HETATM   13  O   UNL     1      -9.896   8.388  67.319  1.00  0.00    -0.170 OA 
BRANCH  13  14
HETATM   14  C   UNL     1     -10.466   9.442  66.543  1.00  0.00    -0.129 C  
BRANCH  14  15
HETATM   15  N   UNL     1     -10.813  10.551  67.413  1.00  0.00    -0.286 NA 
HETATM   16  C   UNL     1     -10.563  10.599  68.766  1.00  0.00    -0.206 A  
HETATM   17  N   UNL     1     -10.951  11.742  69.304  1.00  0.00    -0.210 NA 
HETATM   18  C   UNL     1     -11.473  12.471  68.255  1.00  0.00    -0.308 A  
HETATM   19  C   UNL     1     -11.402  11.734  67.105  1.00  0.00    -0.322 A  
HETATM   20  N   UNL     1     -11.836  12.195  65.926  1.00  0.00    -0.546 NA 
HETATM   21  C   UNL     1     -12.311  13.478  65.904  1.00  0.00    -0.456 C  
HETATM   22  N   UNL     1     -12.663  13.898  64.662  1.00  0.00    -0.673 NA 
HETATM   23  N   UNL     1     -12.426  14.269  66.929  1.00  0.00    -0.543 N  
HETATM   24  H2  UNL     1     -12.582  13.316  63.828  1.00  0.00     0.000 HD 
HETATM   25  H1  UNL     1     -13.017  14.855  64.645  1.00  0.00     0.000 HD 
HETATM   26  C   UNL     1     -12.035  13.829  68.203  1.00  0.00    -0.358 C  
HETATM   27  H   UNL     1     -12.800  15.211  66.807  1.00  0.00     0.000 HD 
HETATM   28  O   UNL     1     -12.153  14.529  69.203  1.00  0.00    -0.308 OA 
ENDBRANCH  14  15
ENDBRANCH  13  14
ENDBRANCH  12  13
ENDBRANCH  11  12
ENDBRANCH  10  11
ENDBRANCH   8  10
ENDBRANCH   3   8
TORSDOF 7
ENDMDL
MODEL       55
REMARK 921   NORMALIZED FREE ENERGY PREDICTED BY IDOCK:   -5.78 KCAL/MOL
REMARK 922        TOTAL FREE ENERGY PREDICTED BY IDOCK:   -8.68 KCAL/MOL
REMARK 923 INTER-LIGAND FREE ENERGY PREDICTED BY IDOCK:   -8.07 KCAL/MOL
REMARK 924 INTRA-LIGAND FREE ENERGY PREDICTED BY IDOCK:   -0.61 KCAL/MOL
REMARK 927      BINDING AFFINITY PREDICTED BY RF-SCORE:    0.00 PKD
ROOT
HETATM    1  C   UNL     1     -11.252   9.124  71.801  1.00  0.00    -0.451 C  
HETATM    2  C   UNL     1     -12.466   8.422  71.182  1.00  0.00    -0.189 C  
HETATM    3  C   UNL     1     -12.320   6.880  71.147  1.00  0.00    -0.370 C  
HETATM    4  C   UNL     1     -13.741   8.853  71.918  1.00  0.00    -0.488 C  
HETATM    5  H1  UNL     1     -12.111   5.301  72.486  1.00  0.00     0.000 HD 
HETATM    6  N   UNL     1     -12.207   6.315  72.510  1.00  0.00    -0.539 NA 
HETATM    7  H2  UNL     1     -12.988   6.604  73.100  1.00  0.00     0.000 HD 
ENDROOT
BRANCH   3   8
HETATM    8  C   UNL     1     -11.119   6.414  70.291  1.00  0.00    -0.354 C  
HETATM    9  O   UNL     1     -10.122   5.849  70.727  1.00  0.00    -0.184 OA 
BRANCH   8  10
HETATM   10  O   UNL     1     -11.338   6.655  68.966  1.00  0.00    -0.245 OA 
BRANCH  10  11
HETATM   11  C   UNL     1     -10.209   7.206  68.258  1.00  0.00    -0.184 C  
BRANCH  11  12
HETATM   12  C   UNL     1     -10.611   7.606  66.837  1.00  0.00    -0.289 C  
BRANCH  12  13
HETATM   13  O   UNL     1      -9.675   8.581  66.371  1.00  0.00    -0.235 OA 
BRANCH  13  14
HETATM   14  C   UNL     1      -9.844   9.840  67.024  1.00  0.00    -0.193 C  
BRANCH  14  15
HETATM   15  N   UNL     1     -10.397  10.801  66.087  1.00  0.00    -0.248 NA 
HETATM   16  C   UNL     1     -10.397  10.657  64.717  1.00  0.00    -0.283 A  
HETATM   17  N   UNL     1     -10.998  11.664  64.111  1.00  0.00    -0.357 NA 
HETATM   18  C   UNL     1     -11.410  12.500  65.129  1.00  0.00    -0.313 A  
HETATM   19  C   UNL     1     -11.027  11.977  66.334  1.00  0.00    -0.296 A  
HETATM   20  N   UNL     1     -11.296  12.578  67.498  1.00  0.00    -0.291 NA 
HETATM   21  C   UNL     1     -12.033  13.730  67.441  1.00  0.00    -0.388 C  
HETATM   22  N   UNL     1     -12.328  14.240  68.664  1.00  0.00    -0.571 NA 
HETATM   23  N   UNL     1     -12.451  14.318  66.359  1.00  0.00    -0.506 N  
HETATM   24  H2  UNL     1     -12.029  13.809  69.539  1.00  0.00     0.000 HD 
HETATM   25  H1  UNL     1     -12.878  15.098  68.621  1.00  0.00     0.000 HD 
HETATM   26  C   UNL     1     -12.159  13.766  65.102  1.00  0.00    -0.399 C  
HETATM   27  H   UNL     1     -12.991  15.181  66.424  1.00  0.00     0.000 HD 
HETATM   28  O   UNL     1     -12.506  14.301  64.054  1.00  0.00    -0.700 OA 
ENDBRANCH  14  15
ENDBRANCH  13  14
ENDBRANCH  12  13
ENDBRANCH  11  12
ENDBRANCH  10  11
ENDBRANCH   8  10
ENDBRANCH   3   8
TORSDOF 7
ENDMDL
MODEL       56
REMARK 921   NORMALIZED FREE ENERGY PREDICTED BY IDOCK:   -5.75 KCAL/MOL
REMARK 922        TOTAL FREE ENERGY PREDICTED BY IDOCK:   -8.64 KCAL/MOL
REMARK 923 INTER-LIGAND FREE ENERGY PREDICTED BY IDOCK:   -8.60 KCAL/MOL
REMARK 924 INTRA-LIGAND FREE ENERGY PREDICTED BY IDOCK:   -0.04 KCAL/MOL
REMARK 927      BINDING AFFINITY PREDICTED BY RF-SCORE:    0.00 PKD
ROOT
HETATM    1  C   UNL     1      -9.236  19.355  66.273  1.00  0.00    -0.388 C  
HETATM    2  C   UNL     1     -10.343  18.823  67.190  1.00  0.00    -0.455 C  
HETATM    3  C   UNL     1     -10.210  17.308  67.484  1.00  0.00    -0.328 C  
HETATM    4  C   UNL     1     -10.383  19.649  68.483  1.00  0.00    -0.459 C  
HETATM    5  H1  UNL     1      -8.860  16.006  68.387  1.00  0.00     0.000 HD 
HETATM    6  N   UNL     1      -8.948  17.003  68.193  1.00  0.00    -0.221 NA 
HETATM    7  H2  UNL     1      -8.854  17.559  69.044  1.00  0.00     0.000 HD 
ENDROOT
BRANCH   3   8
HETATM    8  C   UNL     1     -10.308  16.442  66.206  1.00  0.00    -0.329 C  
HETATM    9  O   UNL     1     -10.533  16.872  65.080  1.00  0.00    -0.663 OA 
BRANCH   8  10
HETATM   10  O   UNL     1     -10.044  15.132  66.481  1.00  0.00    -0.253 OA 
BRANCH  10  11
HETATM   11  C   UNL     1     -11.127  14.418  67.111  1.00  0.00    -0.312 C  
BRANCH  11  12
HETATM   12  C   UNL     1     -10.706  12.983  67.434  1.00  0.00    -0.245 C  
BRANCH  12  13
HETATM   13  O   UNL     1     -11.111  12.695  68.775  1.00  0.00    -0.240 OA 
BRANCH  13  14
HETATM   14  C   UNL     1     -11.887  11.498  68.855  1.00  0.00    -0.341 C  
BRANCH  14  15
HETATM   15  N   UNL     1     -11.195  10.527  69.682  1.00  0.00    -0.262 NA 
HETATM   16  C   UNL     1      -9.859  10.207  69.574  1.00  0.00    -0.232 A  
HETATM   17  N   UNL     1      -9.486   9.318  70.476  1.00  0.00    -0.245 NA 
HETATM   18  C   UNL     1     -10.625   9.050  71.207  1.00  0.00    -0.308 A  
HETATM   19  C   UNL     1     -11.671   9.778  70.709  1.00  0.00    -0.328 A  
HETATM   20  N   UNL     1     -12.903   9.717  71.227  1.00  0.00    -0.357 NA 
HETATM   21  C   UNL     1     -13.068   8.926  72.332  1.00  0.00    -0.418 C  
HETATM   22  N   UNL     1     -14.324   8.973  72.843  1.00  0.00    -1.108 NA 
HETATM   23  N   UNL     1     -12.152   8.192  72.891  1.00  0.00    -0.566 N  
HETATM   24  H2  UNL     1     -15.072   9.541  72.443  1.00  0.00     0.000 HD 
HETATM   25  H1  UNL     1     -14.447   8.384  73.666  1.00  0.00     0.000 HD 
HETATM   26  C   UNL     1     -10.850   8.172  72.366  1.00  0.00    -0.339 C  
HETATM   27  H   UNL     1     -12.379   7.630  73.712  1.00  0.00     0.000 HD 
HETATM   28  O   UNL     1      -9.962   7.472  72.841  1.00  0.00    -0.203 OA 
ENDBRANCH  14  15
ENDBRANCH  13  14
ENDBRANCH  12  13
ENDBRANCH  11  12
ENDBRANCH  10  11
ENDBRANCH   8  10
ENDBRANCH   3   8
TORSDOF 7
ENDMDL
MODEL       57
REMARK 921   NORMALIZED FREE ENERGY PREDICTED BY IDOCK:   -5.74 KCAL/MOL
REMARK 922        TOTAL FREE ENERGY PREDICTED BY IDOCK:   -8.63 KCAL/MOL
REMARK 923 INTER-LIGAND FREE ENERGY PREDICTED BY IDOCK:   -7.99 KCAL/MOL
REMARK 924 INTRA-LIGAND FREE ENERGY PREDICTED BY IDOCK:   -0.65 KCAL/MOL
REMARK 927      BINDING AFFINITY PREDICTED BY RF-SCORE:    0.00 PKD
ROOT
HETATM    1  C   UNL     1     -12.376  13.978  66.476  1.00  0.00    -0.442 C  
HETATM    2  C   UNL     1     -11.131  13.920  65.585  1.00  0.00    -0.298 C  
HETATM    3  C   UNL     1     -11.454  13.546  64.116  1.00  0.00    -0.360 C  
HETATM    4  C   UNL     1     -10.369  15.249  65.676  1.00  0.00    -0.389 C  
HETATM    5  H1  UNL     1     -12.543  14.310  62.515  1.00  0.00     0.000 HD 
HETATM    6  N   UNL     1     -12.330  14.556  63.482  1.00  0.00    -1.090 NA 
HETATM    7  H2  UNL     1     -11.932  15.493  63.550  1.00  0.00     0.000 HD 
ENDROOT
BRANCH   3   8
HETATM    8  C   UNL     1     -12.096  12.146  63.985  1.00  0.00    -0.443 C  
HETATM    9  O   UNL     1     -13.034  11.868  63.246  1.00  0.00    -0.707 OA 
BRANCH   8  10
HETATM   10  O   UNL     1     -11.439  11.231  64.755  1.00  0.00    -0.081 OA 
BRANCH  10  11
HETATM   11  C   UNL     1     -10.072  10.987  64.366  1.00  0.00    -0.334 C  
BRANCH  11  12
HETATM   12  C   UNL     1      -9.201  10.733  65.597  1.00  0.00    -0.199 C  
BRANCH  12  13
HETATM   13  O   UNL     1     -10.066  10.580  66.726  1.00  0.00    -0.202 OA 
BRANCH  13  14
HETATM   14  C   UNL     1      -9.353  10.177  67.896  1.00  0.00    -0.141 C  
BRANCH  14  15
HETATM   15  N   UNL     1     -10.297   9.845  68.948  1.00  0.00    -0.196 NA 
HETATM   16  C   UNL     1     -10.458   8.591  69.495  1.00  0.00    -0.220 A  
HETATM   17  N   UNL     1     -11.360   8.581  70.460  1.00  0.00    -0.249 NA 
HETATM   18  C   UNL     1     -11.803   9.885  70.547  1.00  0.00    -0.270 A  
HETATM   19  C   UNL     1     -11.163  10.650  69.611  1.00  0.00    -0.289 A  
HETATM   20  N   UNL     1     -11.397  11.960  69.469  1.00  0.00    -0.257 NA 
HETATM   21  C   UNL     1     -12.276  12.528  70.351  1.00  0.00    -0.286 C  
HETATM   22  N   UNL     1     -12.405  13.870  70.192  1.00  0.00    -0.342 NA 
HETATM   23  N   UNL     1     -12.941  11.903  71.278  1.00  0.00    -0.312 N  
HETATM   24  H2  UNL     1     -11.897  14.402  69.485  1.00  0.00     0.000 HD 
HETATM   25  H1  UNL     1     -13.059  14.293  70.849  1.00  0.00     0.000 HD 
HETATM   26  C   UNL     1     -12.779  10.519  71.447  1.00  0.00    -0.442 C  
HETATM   27  H   UNL     1     -13.580  12.420  71.883  1.00  0.00     0.000 HD 
HETATM   28  O   UNL     1     -13.407   9.884  72.287  1.00  0.00    -0.435 OA 
ENDBRANCH  14  15
ENDBRANCH  13  14
ENDBRANCH  12  13
ENDBRANCH  11  12
ENDBRANCH  10  11
ENDBRANCH   8  10
ENDBRANCH   3   8
TORSDOF 7
ENDMDL
MODEL       58
REMARK 921   NORMALIZED FREE ENERGY PREDICTED BY IDOCK:   -5.74 KCAL/MOL
REMARK 922        TOTAL FREE ENERGY PREDICTED BY IDOCK:   -8.62 KCAL/MOL
REMARK 923 INTER-LIGAND FREE ENERGY PREDICTED BY IDOCK:   -7.72 KCAL/MOL
REMARK 924 INTRA-LIGAND FREE ENERGY PREDICTED BY IDOCK:   -0.90 KCAL/MOL
REMARK 927      BINDING AFFINITY PREDICTED BY RF-SCORE:    0.00 PKD
ROOT
HETATM    1  C   UNL     1     -10.358  12.559  64.147  1.00  0.00    -0.416 C  
HETATM    2  C   UNL     1     -11.851  12.538  64.494  1.00  0.00    -0.448 C  
HETATM    3  C   UNL     1     -12.411  13.938  64.849  1.00  0.00    -0.420 C  
HETATM    4  C   UNL     1     -12.637  11.889  63.346  1.00  0.00    -0.555 C  
HETATM    5  H1  UNL     1     -12.665  15.793  63.941  1.00  0.00     0.000 HD 
HETATM    6  N   UNL     1     -12.297  14.872  63.707  1.00  0.00    -1.071 NA 
HETATM    7  H2  UNL     1     -12.741  14.494  62.869  1.00  0.00     0.000 HD 
ENDROOT
BRANCH   3   8
HETATM    8  C   UNL     1     -11.728  14.555  66.092  1.00  0.00    -0.350 C  
HETATM    9  O   UNL     1     -10.897  15.456  66.065  1.00  0.00    -0.318 OA 
BRANCH   8  10
HETATM   10  O   UNL     1     -12.219  14.009  67.242  1.00  0.00    -0.405 OA 
BRANCH  10  11
HETATM   11  C   UNL     1     -11.737  14.622  68.455  1.00  0.00    -0.320 C  
BRANCH  11  12
HETATM   12  C   UNL     1     -11.702  13.601  69.594  1.00  0.00    -0.320 C  
BRANCH  12  13
HETATM   13  O   UNL     1     -11.928  12.305  69.033  1.00  0.00    -0.300 OA 
BRANCH  13  14
HETATM   14  C   UNL     1     -10.945  11.360  69.456  1.00  0.00    -0.166 C  
BRANCH  14  15
HETATM   15  N   UNL     1     -10.083  11.025  68.337  1.00  0.00    -0.177 NA 
HETATM   16  C   UNL     1      -9.113  11.850  67.814  1.00  0.00    -0.180 A  
HETATM   17  N   UNL     1      -8.453  11.278  66.823  1.00  0.00    -0.156 NA 
HETATM   18  C   UNL     1      -9.016  10.024  66.697  1.00  0.00    -0.139 A  
HETATM   19  C   UNL     1     -10.022   9.879  67.612  1.00  0.00    -0.171 A  
HETATM   20  N   UNL     1     -10.744   8.758  67.718  1.00  0.00    -0.181 NA 
HETATM   21  C   UNL     1     -10.393   7.720  66.898  1.00  0.00    -0.326 C  
HETATM   22  N   UNL     1     -11.120   6.594  67.115  1.00  0.00    -0.604 NA 
HETATM   23  N   UNL     1      -9.459   7.741  65.993  1.00  0.00    -0.411 N  
HETATM   24  H2  UNL     1     -11.856   6.529  67.819  1.00  0.00     0.000 HD 
HETATM   25  H1  UNL     1     -10.859   5.821  66.504  1.00  0.00     0.000 HD 
HETATM   26  C   UNL     1      -8.698   8.905  65.797  1.00  0.00    -0.176 C  
HETATM   27  H   UNL     1      -9.280   6.912  65.426  1.00  0.00     0.000 HD 
HETATM   28  O   UNL     1      -7.829   8.981  64.936  1.00  0.00    -0.109 OA 
ENDBRANCH  14  15
ENDBRANCH  13  14
ENDBRANCH  12  13
ENDBRANCH  11  12
ENDBRANCH  10  11
ENDBRANCH   8  10
ENDBRANCH   3   8
TORSDOF 7
ENDMDL
MODEL       59
REMARK 921   NORMALIZED FREE ENERGY PREDICTED BY IDOCK:   -5.73 KCAL/MOL
REMARK 922        TOTAL FREE ENERGY PREDICTED BY IDOCK:   -8.62 KCAL/MOL
REMARK 923 INTER-LIGAND FREE ENERGY PREDICTED BY IDOCK:   -7.58 KCAL/MOL
REMARK 924 INTRA-LIGAND FREE ENERGY PREDICTED BY IDOCK:   -1.03 KCAL/MOL
REMARK 927      BINDING AFFINITY PREDICTED BY RF-SCORE:    0.00 PKD
ROOT
HETATM    1  C   UNL     1      -8.463  17.606  66.389  1.00  0.00    -0.279 C  
HETATM    2  C   UNL     1      -9.884  17.676  66.957  1.00  0.00    -0.307 C  
HETATM    3  C   UNL     1     -10.727  16.416  66.638  1.00  0.00    -0.173 C  
HETATM    4  C   UNL     1      -9.824  17.949  68.466  1.00  0.00    -0.367 C  
HETATM    5  H1  UNL     1     -10.689  14.373  67.032  1.00  0.00     0.000 HD 
HETATM    6  N   UNL     1     -10.135  15.202  67.242  1.00  0.00    -0.234 NA 
HETATM    7  H2  UNL     1      -9.996  15.314  68.247  1.00  0.00     0.000 HD 
ENDROOT
BRANCH   3   8
HETATM    8  C   UNL     1     -10.921  16.198  65.120  1.00  0.00    -0.316 C  
HETATM    9  O   UNL     1     -11.036  17.092  64.289  1.00  0.00    -1.092 OA 
BRANCH   8  10
HETATM   10  O   UNL     1     -10.882  14.870  64.807  1.00  0.00    -0.394 OA 
BRANCH  10  11
HETATM   11  C   UNL     1     -12.167  14.276  64.533  1.00  0.00    -0.455 C  
BRANCH  11  12
HETATM   12  C   UNL     1     -12.010  13.051  63.630  1.00  0.00    -0.539 C  
BRANCH  12  13
HETATM   13  O   UNL     1     -11.872  11.900  64.468  1.00  0.00    -0.303 OA 
BRANCH  13  14
HETATM   14  C   UNL     1     -10.506  11.523  64.639  1.00  0.00    -0.301 C  
BRANCH  14  15
HETATM   15  N   UNL     1     -10.383  10.660  65.800  1.00  0.00    -0.244 NA 
HETATM   16  C   UNL     1     -10.003   9.337  65.763  1.00  0.00    -0.145 A  
HETATM   17  N   UNL     1      -9.939   8.803  66.969  1.00  0.00    -0.215 NA 
HETATM   18  C   UNL     1     -10.290   9.824  67.830  1.00  0.00    -0.225 A  
HETATM   19  C   UNL     1     -10.576  10.951  67.111  1.00  0.00    -0.255 A  
HETATM   20  N   UNL     1     -10.945  12.100  67.689  1.00  0.00    -0.231 NA 
HETATM   21  C   UNL     1     -10.970  12.120  69.057  1.00  0.00    -0.205 C  
HETATM   22  N   UNL     1     -11.281  13.338  69.571  1.00  0.00    -0.450 NA 
HETATM   23  N   UNL     1     -10.720  11.114  69.842  1.00  0.00    -0.454 N  
HETATM   24  H2  UNL     1     -11.477  14.157  68.994  1.00  0.00     0.000 HD 
HETATM   25  H1  UNL     1     -11.301  13.353  70.590  1.00  0.00     0.000 HD 
HETATM   26  C   UNL     1     -10.376   9.867  69.298  1.00  0.00    -0.219 C  
HETATM   27  H   UNL     1     -10.773  11.232  70.855  1.00  0.00     0.000 HD 
HETATM   28  O   UNL     1     -10.160   8.884  69.998  1.00  0.00    -0.181 OA 
ENDBRANCH  14  15
ENDBRANCH  13  14
ENDBRANCH  12  13
ENDBRANCH  11  12
ENDBRANCH  10  11
ENDBRANCH   8  10
ENDBRANCH   3   8
TORSDOF 7
ENDMDL
MODEL       60
REMARK 921   NORMALIZED FREE ENERGY PREDICTED BY IDOCK:   -5.73 KCAL/MOL
REMARK 922        TOTAL FREE ENERGY PREDICTED BY IDOCK:   -8.62 KCAL/MOL
REMARK 923 INTER-LIGAND FREE ENERGY PREDICTED BY IDOCK:   -7.65 KCAL/MOL
REMARK 924 INTRA-LIGAND FREE ENERGY PREDICTED BY IDOCK:   -0.96 KCAL/MOL
REMARK 927      BINDING AFFINITY PREDICTED BY RF-SCORE:    0.00 PKD
ROOT
HETATM    1  C   UNL     1      -7.539  16.764  67.821  1.00  0.00    -0.180 C  
HETATM    2  C   UNL     1      -7.658  17.629  66.562  1.00  0.00    -0.299 C  
HETATM    3  C   UNL     1      -8.955  18.476  66.530  1.00  0.00    -0.293 C  
HETATM    4  C   UNL     1      -6.407  18.505  66.417  1.00  0.00    -0.223 C  
HETATM    5  H1  UNL     1      -9.856  19.991  67.635  1.00  0.00     0.000 HD 
HETATM    6  N   UNL     1      -9.003  19.434  67.656  1.00  0.00    -0.298 NA 
HETATM    7  H2  UNL     1      -8.171  20.025  67.680  1.00  0.00     0.000 HD 
ENDROOT
BRANCH   3   8
HETATM    8  C   UNL     1     -10.235  17.607  66.533  1.00  0.00    -0.355 C  
HETATM    9  O   UNL     1     -10.873  17.299  67.532  1.00  0.00    -0.314 OA 
BRANCH   8  10
HETATM   10  O   UNL     1     -10.606  17.278  65.262  1.00  0.00    -0.667 OA 
BRANCH  10  11
HETATM   11  C   UNL     1     -10.601  15.864  64.979  1.00  0.00    -0.346 C  
BRANCH  11  12
HETATM   12  C   UNL     1     -11.947  15.430  64.395  1.00  0.00    -0.228 C  
BRANCH  12  13
HETATM   13  O   UNL     1     -12.075  14.018  64.583  1.00  0.00    -0.399 OA 
BRANCH  13  14
HETATM   14  C   UNL     1     -10.832  13.409  64.933  1.00  0.00    -0.352 C  
BRANCH  14  15
HETATM   15  N   UNL     1     -11.011  12.587  66.116  1.00  0.00    -0.275 NA 
HETATM   16  C   UNL     1     -10.771  11.232  66.179  1.00  0.00    -0.250 A  
HETATM   17  N   UNL     1     -10.982  10.744  67.388  1.00  0.00    -0.293 NA 
HETATM   18  C   UNL     1     -11.373  11.829  68.147  1.00  0.00    -0.284 A  
HETATM   19  C   UNL     1     -11.405  12.949  67.363  1.00  0.00    -0.309 A  
HETATM   20  N   UNL     1     -11.749  14.151  67.839  1.00  0.00    -0.347 NA 
HETATM   21  C   UNL     1     -12.018  14.229  69.178  1.00  0.00    -0.335 C  
HETATM   22  N   UNL     1     -12.286  15.492  69.599  1.00  0.00    -0.565 NA 
HETATM   23  N   UNL     1     -12.019  13.236  70.018  1.00  0.00    -0.386 N  
HETATM   24  H2  UNL     1     -12.288  16.302  68.979  1.00  0.00     0.000 HD 
HETATM   25  H1  UNL     1     -12.487  15.550  70.597  1.00  0.00     0.000 HD 
HETATM   26  C   UNL     1     -11.716  11.940  69.573  1.00  0.00    -0.345 C  
HETATM   27  H   UNL     1     -12.241  13.400  71.000  1.00  0.00     0.000 HD 
HETATM   28  O   UNL     1     -11.735  10.969  70.322  1.00  0.00    -0.309 OA 
ENDBRANCH  14  15
ENDBRANCH  13  14
ENDBRANCH  12  13
ENDBRANCH  11  12
ENDBRANCH  10  11
ENDBRANCH   8  10
ENDBRANCH   3   8
TORSDOF 7
ENDMDL
MODEL       61
REMARK 921   NORMALIZED FREE ENERGY PREDICTED BY IDOCK:   -5.70 KCAL/MOL
REMARK 922        TOTAL FREE ENERGY PREDICTED BY IDOCK:   -8.57 KCAL/MOL
REMARK 923 INTER-LIGAND FREE ENERGY PREDICTED BY IDOCK:   -7.98 KCAL/MOL
REMARK 924 INTRA-LIGAND FREE ENERGY PREDICTED BY IDOCK:   -0.59 KCAL/MOL
REMARK 927      BINDING AFFINITY PREDICTED BY RF-SCORE:    0.00 PKD
ROOT
HETATM    1  C   UNL     1      -9.419  14.700  68.176  1.00  0.00    -0.212 C  
HETATM    2  C   UNL     1     -10.345  15.777  67.600  1.00  0.00    -0.281 C  
HETATM    3  C   UNL     1     -11.650  15.196  67.001  1.00  0.00    -0.174 C  
HETATM    4  C   UNL     1     -10.637  16.833  68.674  1.00  0.00    -0.353 C  
HETATM    5  H1  UNL     1     -13.318  14.126  67.637  1.00  0.00     0.000 HD 
HETATM    6  N   UNL     1     -12.459  14.508  68.031  1.00  0.00    -0.512 NA 
HETATM    7  H2  UNL     1     -12.652  15.120  68.825  1.00  0.00     0.000 HD 
ENDROOT
BRANCH   3   8
HETATM    8  C   UNL     1     -11.387  14.232  65.820  1.00  0.00    -0.326 C  
HETATM    9  O   UNL     1     -10.669  14.478  64.858  1.00  0.00    -0.396 OA 
BRANCH   8  10
HETATM   10  O   UNL     1     -12.008  13.034  66.018  1.00  0.00    -0.400 OA 
BRANCH  10  11
HETATM   11  C   UNL     1     -11.250  11.883  65.591  1.00  0.00    -0.306 C  
BRANCH  11  12
HETATM   12  C   UNL     1     -10.545  11.233  66.783  1.00  0.00    -0.260 C  
BRANCH  12  13
HETATM   13  O   UNL     1     -11.534  10.570  67.573  1.00  0.00    -0.431 OA 
BRANCH  13  14
HETATM   14  C   UNL     1     -11.615  11.108  68.894  1.00  0.00    -0.317 C  
BRANCH  14  15
HETATM   15  N   UNL     1     -10.921  10.230  69.818  1.00  0.00    -0.269 NA 
HETATM   16  C   UNL     1      -9.571   9.959  69.785  1.00  0.00    -0.231 A  
HETATM   17  N   UNL     1      -9.200   9.156  70.766  1.00  0.00    -0.245 NA 
HETATM   18  C   UNL     1     -10.358   8.895  71.471  1.00  0.00    -0.324 A  
HETATM   19  C   UNL     1     -11.409   9.540  70.879  1.00  0.00    -0.341 A  
HETATM   20  N   UNL     1     -12.659   9.466  71.352  1.00  0.00    -0.332 NA 
HETATM   21  C   UNL     1     -12.838   8.753  72.506  1.00  0.00    -0.316 C  
HETATM   22  N   UNL     1     -14.116   8.785  72.964  1.00  0.00    -1.105 NA 
HETATM   23  N   UNL     1     -11.919   8.101  73.154  1.00  0.00    -0.283 N  
HETATM   24  H2  UNL     1     -14.868   9.290  72.494  1.00  0.00     0.000 HD 
HETATM   25  H1  UNL     1     -14.250   8.254  73.824  1.00  0.00     0.000 HD 
HETATM   26  C   UNL     1     -10.596   8.096  72.683  1.00  0.00    -0.344 C  
HETATM   27  H   UNL     1     -12.158   7.592  74.006  1.00  0.00     0.000 HD 
HETATM   28  O   UNL     1      -9.703   7.472  73.244  1.00  0.00    -0.220 OA 
ENDBRANCH  14  15
ENDBRANCH  13  14
ENDBRANCH  12  13
ENDBRANCH  11  12
ENDBRANCH  10  11
ENDBRANCH   8  10
ENDBRANCH   3   8
TORSDOF 7
ENDMDL
MODEL       62
REMARK 921   NORMALIZED FREE ENERGY PREDICTED BY IDOCK:   -5.70 KCAL/MOL
REMARK 922        TOTAL FREE ENERGY PREDICTED BY IDOCK:   -8.57 KCAL/MOL
REMARK 923 INTER-LIGAND FREE ENERGY PREDICTED BY IDOCK:   -7.39 KCAL/MOL
REMARK 924 INTRA-LIGAND FREE ENERGY PREDICTED BY IDOCK:   -1.18 KCAL/MOL
REMARK 927      BINDING AFFINITY PREDICTED BY RF-SCORE:    0.00 PKD
ROOT
HETATM    1  C   UNL     1     -10.699   7.653  70.264  1.00  0.00    -0.244 C  
HETATM    2  C   UNL     1      -9.977   8.945  70.660  1.00  0.00    -0.265 C  
HETATM    3  C   UNL     1     -10.898  10.190  70.618  1.00  0.00    -0.235 C  
HETATM    4  C   UNL     1      -9.325   8.770  72.038  1.00  0.00    -0.322 C  
HETATM    5  H1  UNL     1     -12.622  10.888  71.552  1.00  0.00     0.000 HD 
HETATM    6  N   UNL     1     -12.017  10.068  71.579  1.00  0.00    -0.378 NA 
HETATM    7  H2  UNL     1     -11.679   9.885  72.524  1.00  0.00     0.000 HD 
ENDROOT
BRANCH   3   8
HETATM    8  C   UNL     1     -11.458  10.470  69.204  1.00  0.00    -0.247 C  
HETATM    9  O   UNL     1     -12.648  10.519  68.915  1.00  0.00    -0.094 OA 
BRANCH   8  10
HETATM   10  O   UNL     1     -10.451  10.726  68.320  1.00  0.00    -0.165 OA 
BRANCH  10  11
HETATM   11  C   UNL     1     -10.888  11.050  66.985  1.00  0.00    -0.279 C  
BRANCH  11  12
HETATM   12  C   UNL     1     -10.480  12.478  66.618  1.00  0.00    -0.233 C  
BRANCH  12  13
HETATM   13  O   UNL     1     -10.491  13.261  67.814  1.00  0.00    -0.232 OA 
BRANCH  13  14
HETATM   14  C   UNL     1     -11.756  13.885  68.034  1.00  0.00    -0.352 C  
BRANCH  14  15
HETATM   15  N   UNL     1     -11.683  14.727  69.214  1.00  0.00    -0.299 NA 
HETATM   16  C   UNL     1     -11.127  15.987  69.251  1.00  0.00    -0.331 A  
HETATM   17  N   UNL     1     -11.229  16.540  70.446  1.00  0.00    -0.248 NA 
HETATM   18  C   UNL     1     -11.883  15.603  71.220  1.00  0.00    -0.419 A  
HETATM   19  C   UNL     1     -12.144  14.491  70.468  1.00  0.00    -0.325 A  
HETATM   20  N   UNL     1     -12.774  13.419  70.962  1.00  0.00    -0.333 NA 
HETATM   21  C   UNL     1     -13.206  13.502  72.258  1.00  0.00    -0.475 C  
HETATM   22  N   UNL     1     -13.899  12.407  72.665  1.00  0.00    -0.512 NA 
HETATM   23  N   UNL     1     -13.015  14.503  73.066  1.00  0.00    -0.503 N  
HETATM   24  H2  UNL     1     -14.080  11.603  72.064  1.00  0.00     0.000 HD 
HETATM   25  H1  UNL     1     -14.221  12.469  73.630  1.00  0.00     0.000 HD 
HETATM   26  C   UNL     1     -12.318  15.639  72.625  1.00  0.00    -0.427 C  
HETATM   27  H   UNL     1     -13.373  14.463  74.021  1.00  0.00     0.000 HD 
HETATM   28  O   UNL     1     -12.089  16.593  73.359  1.00  0.00    -0.473 OA 
ENDBRANCH  14  15
ENDBRANCH  13  14
ENDBRANCH  12  13
ENDBRANCH  11  12
ENDBRANCH  10  11
ENDBRANCH   8  10
ENDBRANCH   3   8
TORSDOF 7
ENDMDL
MODEL       63
REMARK 921   NORMALIZED FREE ENERGY PREDICTED BY IDOCK:   -5.70 KCAL/MOL
REMARK 922        TOTAL FREE ENERGY PREDICTED BY IDOCK:   -8.57 KCAL/MOL
REMARK 923 INTER-LIGAND FREE ENERGY PREDICTED BY IDOCK:   -7.91 KCAL/MOL
REMARK 924 INTRA-LIGAND FREE ENERGY PREDICTED BY IDOCK:   -0.65 KCAL/MOL
REMARK 927      BINDING AFFINITY PREDICTED BY RF-SCORE:    0.00 PKD
ROOT
HETATM    1  C   UNL     1     -11.634  15.338  72.492  1.00  0.00    -0.498 C  
HETATM    2  C   UNL     1     -12.976  15.331  71.752  1.00  0.00    -0.475 C  
HETATM    3  C   UNL     1     -13.281  13.977  71.064  1.00  0.00    -0.227 C  
HETATM    4  C   UNL     1     -14.098  15.742  72.714  1.00  0.00    -0.425 C  
HETATM    5  H1  UNL     1     -13.585  11.989  71.599  1.00  0.00     0.000 HD 
HETATM    6  N   UNL     1     -13.384  12.880  72.052  1.00  0.00    -0.500 NA 
HETATM    7  H2  UNL     1     -14.069  13.093  72.777  1.00  0.00     0.000 HD 
ENDROOT
BRANCH   3   8
HETATM    8  C   UNL     1     -12.236  13.607  69.986  1.00  0.00    -0.329 C  
HETATM    9  O   UNL     1     -11.682  14.406  69.239  1.00  0.00    -0.278 OA 
BRANCH   8  10
HETATM   10  O   UNL     1     -11.954  12.273  70.015  1.00  0.00    -0.327 OA 
BRANCH  10  11
HETATM   11  C   UNL     1     -11.715  11.678  68.722  1.00  0.00    -0.330 C  
BRANCH  11  12
HETATM   12  C   UNL     1     -10.273  11.180  68.619  1.00  0.00    -0.205 C  
BRANCH  12  13
HETATM   13  O   UNL     1      -9.556  12.074  67.763  1.00  0.00    -0.183 OA 
BRANCH  13  14
HETATM   14  C   UNL     1      -9.530  11.615  66.411  1.00  0.00    -0.217 C  
BRANCH  14  15
HETATM   15  N   UNL     1     -10.298  12.521  65.577  1.00  0.00    -0.275 NA 
HETATM   16  C   UNL     1     -11.249  12.133  64.659  1.00  0.00    -0.323 A  
HETATM   17  N   UNL     1     -11.818  13.166  64.065  1.00  0.00    -0.425 NA 
HETATM   18  C   UNL     1     -11.216  14.276  64.624  1.00  0.00    -0.366 A  
HETATM   19  C   UNL     1     -10.277  13.877  65.535  1.00  0.00    -0.331 A  
HETATM   20  N   UNL     1      -9.537  14.746  66.233  1.00  0.00    -0.297 NA 
HETATM   21  C   UNL     1      -9.800  16.074  66.039  1.00  0.00    -0.337 C  
HETATM   22  N   UNL     1      -9.062  16.890  66.834  1.00  0.00    -0.222 NA 
HETATM   23  N   UNL     1     -10.665  16.569  65.203  1.00  0.00    -0.326 N  
HETATM   24  H2  UNL     1      -8.378  16.547  67.510  1.00  0.00     0.000 HD 
HETATM   25  H1  UNL     1      -9.258  17.880  66.690  1.00  0.00     0.000 HD 
HETATM   26  C   UNL     1     -11.438  15.713  64.404  1.00  0.00    -0.262 C  
HETATM   27  H   UNL     1     -10.781  17.580  65.129  1.00  0.00     0.000 HD 
HETATM   28  O   UNL     1     -12.244  16.135  63.581  1.00  0.00    -0.756 OA 
ENDBRANCH  14  15
ENDBRANCH  13  14
ENDBRANCH  12  13
ENDBRANCH  11  12
ENDBRANCH  10  11
ENDBRANCH   8  10
ENDBRANCH   3   8
TORSDOF 7
ENDMDL
MODEL       64
REMARK 921   NORMALIZED FREE ENERGY PREDICTED BY IDOCK:   -5.68 KCAL/MOL
REMARK 922        TOTAL FREE ENERGY PREDICTED BY IDOCK:   -8.54 KCAL/MOL
REMARK 923 INTER-LIGAND FREE ENERGY PREDICTED BY IDOCK:   -7.75 KCAL/MOL
REMARK 924 INTRA-LIGAND FREE ENERGY PREDICTED BY IDOCK:   -0.79 KCAL/MOL
REMARK 927      BINDING AFFINITY PREDICTED BY RF-SCORE:    0.00 PKD
ROOT
HETATM    1  C   UNL     1      -8.408  11.129  66.993  1.00  0.00    -0.144 C  
HETATM    2  C   UNL     1      -9.891  10.952  66.650  1.00  0.00    -0.237 C  
HETATM    3  C   UNL     1     -10.126   9.996  65.453  1.00  0.00    -0.247 C  
HETATM    4  C   UNL     1     -10.658  10.495  67.898  1.00  0.00    -0.271 C  
HETATM    5  H1  UNL     1      -9.791   8.002  64.961  1.00  0.00     0.000 HD 
HETATM    6  N   UNL     1      -9.636   8.631  65.748  1.00  0.00    -0.457 NA 
HETATM    7  H2  UNL     1     -10.048   8.264  66.607  1.00  0.00     0.000 HD 
ENDROOT
BRANCH   3   8
HETATM    8  C   UNL     1      -9.478  10.507  64.146  1.00  0.00    -0.293 C  
HETATM    9  O   UNL     1      -8.282  10.449  63.883  1.00  0.00    -0.159 OA 
BRANCH   8  10
HETATM   10  O   UNL     1     -10.424  10.977  63.282  1.00  0.00    -0.337 OA 
BRANCH  10  11
HETATM   11  C   UNL     1     -10.878  12.318  63.555  1.00  0.00    -0.454 C  
BRANCH  11  12
HETATM   12  C   UNL     1     -12.386  12.332  63.812  1.00  0.00    -0.538 C  
BRANCH  12  13
HETATM   13  O   UNL     1     -12.595  12.581  65.204  1.00  0.00    -0.631 OA 
BRANCH  13  14
HETATM   14  C   UNL     1     -12.879  13.956  65.465  1.00  0.00    -0.431 C  
BRANCH  14  15
HETATM   15  N   UNL     1     -11.763  14.554  66.176  1.00  0.00    -0.367 NA 
HETATM   16  C   UNL     1     -10.842  15.413  65.617  1.00  0.00    -0.355 A  
HETATM   17  N   UNL     1      -9.955  15.834  66.501  1.00  0.00    -0.256 NA 
HETATM   18  C   UNL     1     -10.316  15.227  67.687  1.00  0.00    -0.250 A  
HETATM   19  C   UNL     1     -11.411  14.434  67.480  1.00  0.00    -0.328 A  
HETATM   20  N   UNL     1     -11.981  13.724  68.461  1.00  0.00    -0.370 NA 
HETATM   21  C   UNL     1     -11.451  13.869  69.714  1.00  0.00    -0.215 C  
HETATM   22  N   UNL     1     -12.127  13.176  70.666  1.00  0.00    -0.504 NA 
HETATM   23  N   UNL     1     -10.417  14.591  70.029  1.00  0.00    -0.427 N  
HETATM   24  H2  UNL     1     -12.948  12.604  70.467  1.00  0.00     0.000 HD 
HETATM   25  H1  UNL     1     -11.733  13.284  71.600  1.00  0.00     0.000 HD 
HETATM   26  C   UNL     1      -9.742  15.321  69.038  1.00  0.00    -0.234 C  
HETATM   27  H   UNL     1     -10.095  14.626  70.997  1.00  0.00     0.000 HD 
HETATM   28  O   UNL     1      -8.745  15.991  69.283  1.00  0.00    -0.248 OA 
ENDBRANCH  14  15
ENDBRANCH  13  14
ENDBRANCH  12  13
ENDBRANCH  11  12
ENDBRANCH  10  11
ENDBRANCH   8  10
ENDBRANCH   3   8
TORSDOF 7
ENDMDL
MODEL       65
REMARK 921   NORMALIZED FREE ENERGY PREDICTED BY IDOCK:   -5.68 KCAL/MOL
REMARK 922        TOTAL FREE ENERGY PREDICTED BY IDOCK:   -8.54 KCAL/MOL
REMARK 923 INTER-LIGAND FREE ENERGY PREDICTED BY IDOCK:   -7.95 KCAL/MOL
REMARK 924 INTRA-LIGAND FREE ENERGY PREDICTED BY IDOCK:   -0.58 KCAL/MOL
REMARK 927      BINDING AFFINITY PREDICTED BY RF-SCORE:    0.00 PKD
ROOT
HETATM    1  C   UNL     1      -9.039   5.565  70.161  1.00  0.00    -0.162 C  
HETATM    2  C   UNL     1     -10.369   5.340  69.433  1.00  0.00    -0.313 C  
HETATM    3  C   UNL     1     -11.379   6.496  69.645  1.00  0.00    -0.380 C  
HETATM    4  C   UNL     1     -10.103   5.088  67.942  1.00  0.00    -0.173 C  
HETATM    5  H1  UNL     1     -11.524   8.534  69.248  1.00  0.00     0.000 HD 
HETATM    6  N   UNL     1     -10.860   7.774  69.108  1.00  0.00    -0.410 NA 
HETATM    7  H2  UNL     1     -10.593   7.686  68.127  1.00  0.00     0.000 HD 
ENDROOT
BRANCH   3   8
HETATM    8  C   UNL     1     -11.770   6.679  71.130  1.00  0.00    -0.346 C  
HETATM    9  O   UNL     1     -12.272   5.813  71.837  1.00  0.00     0.017 OA 
BRANCH   8  10
HETATM   10  O   UNL     1     -11.423   7.919  71.579  1.00  0.00    -0.253 OA 
BRANCH  10  11
HETATM   11  C   UNL     1     -12.370   8.520  72.486  1.00  0.00    -0.306 C  
BRANCH  11  12
HETATM   12  C   UNL     1     -13.706   8.763  71.782  1.00  0.00    -0.419 C  
BRANCH  12  13
HETATM   13  O   UNL     1     -13.631  10.025  71.115  1.00  0.00    -0.313 OA 
BRANCH  13  14
HETATM   14  C   UNL     1     -13.046  11.033  71.940  1.00  0.00    -0.419 C  
BRANCH  14  15
HETATM   15  N   UNL     1     -12.557  12.117  71.108  1.00  0.00    -0.330 NA 
HETATM   16  C   UNL     1     -11.960  11.958  69.877  1.00  0.00    -0.325 A  
HETATM   17  N   UNL     1     -11.644  13.115  69.323  1.00  0.00    -0.298 NA 
HETATM   18  C   UNL     1     -12.057  14.069  70.231  1.00  0.00    -0.355 A  
HETATM   19  C   UNL     1     -12.599  13.456  71.326  1.00  0.00    -0.322 A  
HETATM   20  N   UNL     1     -13.086  14.139  72.369  1.00  0.00    -0.413 NA 
HETATM   21  C   UNL     1     -13.072  15.504  72.270  1.00  0.00    -0.430 C  
HETATM   22  N   UNL     1     -13.647  16.125  73.331  1.00  0.00    -0.809 NA 
HETATM   23  N   UNL     1     -12.584  16.195  71.282  1.00  0.00    -0.495 N  
HETATM   24  H2  UNL     1     -14.050  15.625  74.123  1.00  0.00     0.000 HD 
HETATM   25  H1  UNL     1     -13.637  17.142  73.257  1.00  0.00     0.000 HD 
HETATM   26  C   UNL     1     -12.014  15.539  70.180  1.00  0.00    -0.366 C  
HETATM   27  H   UNL     1     -12.617  17.215  71.308  1.00  0.00     0.000 HD 
HETATM   28  O   UNL     1     -11.515  16.149  69.240  1.00  0.00    -0.334 OA 
ENDBRANCH  14  15
ENDBRANCH  13  14
ENDBRANCH  12  13
ENDBRANCH  11  12
ENDBRANCH  10  11
ENDBRANCH   8  10
ENDBRANCH   3   8
TORSDOF 7
ENDMDL
MODEL       66
REMARK 921   NORMALIZED FREE ENERGY PREDICTED BY IDOCK:   -5.67 KCAL/MOL
REMARK 922        TOTAL FREE ENERGY PREDICTED BY IDOCK:   -8.53 KCAL/MOL
REMARK 923 INTER-LIGAND FREE ENERGY PREDICTED BY IDOCK:   -7.71 KCAL/MOL
REMARK 924 INTRA-LIGAND FREE ENERGY PREDICTED BY IDOCK:   -0.82 KCAL/MOL
REMARK 927      BINDING AFFINITY PREDICTED BY RF-SCORE:    0.00 PKD
ROOT
HETATM    1  C   UNL     1      -5.814   9.299  65.529  1.00  0.00    -0.054 C  
HETATM    2  C   UNL     1      -7.269   8.828  65.438  1.00  0.00    -0.084 C  
HETATM    3  C   UNL     1      -8.282   9.999  65.375  1.00  0.00    -0.149 C  
HETATM    4  C   UNL     1      -7.429   7.877  64.244  1.00  0.00    -0.103 C  
HETATM    5  H1  UNL     1      -8.740  11.600  64.128  1.00  0.00     0.000 HD 
HETATM    6  N   UNL     1      -8.074  10.830  64.169  1.00  0.00    -0.365 NA 
HETATM    7  H2  UNL     1      -8.100  10.267  63.318  1.00  0.00     0.000 HD 
ENDROOT
BRANCH   3   8
HETATM    8  C   UNL     1      -8.237  10.894  66.636  1.00  0.00    -0.145 C  
HETATM    9  O   UNL     1      -8.454  12.100  66.650  1.00  0.00    -0.169 OA 
BRANCH   8  10
HETATM   10  O   UNL     1      -7.988  10.153  67.754  1.00  0.00    -0.101 OA 
BRANCH  10  11
HETATM   11  C   UNL     1      -8.442  10.749  68.986  1.00  0.00    -0.133 C  
BRANCH  11  12
HETATM   12  C   UNL     1      -9.892  10.354  69.270  1.00  0.00    -0.225 C  
BRANCH  12  13
HETATM   13  O   UNL     1     -10.705  11.521  69.119  1.00  0.00    -0.214 OA 
BRANCH  13  14
HETATM   14  C   UNL     1     -11.709  11.349  68.118  1.00  0.00    -0.284 C  
BRANCH  14  15
HETATM   15  N   UNL     1     -11.870  12.585  67.374  1.00  0.00    -0.460 NA 
HETATM   16  C   UNL     1     -11.816  13.847  67.923  1.00  0.00    -0.378 A  
HETATM   17  N   UNL     1     -11.958  14.792  67.011  1.00  0.00    -0.294 NA 
HETATM   18  C   UNL     1     -12.107  14.117  65.817  1.00  0.00    -0.420 A  
HETATM   19  C   UNL     1     -12.068  12.769  66.045  1.00  0.00    -0.395 A  
HETATM   20  N   UNL     1     -12.186  11.868  65.063  1.00  0.00    -0.272 NA 
HETATM   21  C   UNL     1     -12.292  12.356  63.789  1.00  0.00    -0.528 C  
HETATM   22  N   UNL     1     -12.334  11.384  62.843  1.00  0.00    -0.834 NA 
HETATM   23  N   UNL     1     -12.340  13.612  63.452  1.00  0.00    -1.042 N  
HETATM   24  H2  UNL     1     -12.291  10.388  63.059  1.00  0.00     0.000 HD 
HETATM   25  H1  UNL     1     -12.412  11.748  61.893  1.00  0.00     0.000 HD 
HETATM   26  C   UNL     1     -12.271  14.607  64.439  1.00  0.00    -0.452 C  
HETATM   27  H   UNL     1     -12.427  13.873  62.469  1.00  0.00     0.000 HD 
HETATM   28  O   UNL     1     -12.342  15.801  64.172  1.00  0.00    -0.611 OA 
ENDBRANCH  14  15
ENDBRANCH  13  14
ENDBRANCH  12  13
ENDBRANCH  11  12
ENDBRANCH  10  11
ENDBRANCH   8  10
ENDBRANCH   3   8
TORSDOF 7
ENDMDL
MODEL       67
REMARK 921   NORMALIZED FREE ENERGY PREDICTED BY IDOCK:   -5.66 KCAL/MOL
REMARK 922        TOTAL FREE ENERGY PREDICTED BY IDOCK:   -8.52 KCAL/MOL
REMARK 923 INTER-LIGAND FREE ENERGY PREDICTED BY IDOCK:   -7.72 KCAL/MOL
REMARK 924 INTRA-LIGAND FREE ENERGY PREDICTED BY IDOCK:   -0.80 KCAL/MOL
REMARK 927      BINDING AFFINITY PREDICTED BY RF-SCORE:    0.00 PKD
ROOT
HETATM    1  C   UNL     1     -11.673  10.535  70.471  1.00  0.00    -0.443 C  
HETATM    2  C   UNL     1     -10.982  10.172  69.153  1.00  0.00    -0.270 C  
HETATM    3  C   UNL     1     -10.549  11.414  68.333  1.00  0.00    -0.202 C  
HETATM    4  C   UNL     1      -9.796   9.238  69.432  1.00  0.00    -0.177 C  
HETATM    5  H1  UNL     1      -9.276  13.048  68.532  1.00  0.00     0.000 HD 
HETATM    6  N   UNL     1      -9.561  12.231  69.071  1.00  0.00    -0.380 NA 
HETATM    7  H2  UNL     1      -8.755  11.674  69.358  1.00  0.00     0.000 HD 
ENDROOT
BRANCH   3   8
HETATM    8  C   UNL     1     -11.747  12.299  67.918  1.00  0.00    -0.347 C  
HETATM    9  O   UNL     1     -12.134  13.290  68.527  1.00  0.00    -0.341 OA 
BRANCH   8  10
HETATM   10  O   UNL     1     -12.285  11.874  66.738  1.00  0.00    -0.489 OA 
BRANCH  10  11
HETATM   11  C   UNL     1     -11.582  12.317  65.560  1.00  0.00    -0.371 C  
BRANCH  11  12
HETATM   12  C   UNL     1     -12.395  13.379  64.818  1.00  0.00    -0.396 C  
BRANCH  12  13
HETATM   13  O   UNL     1     -12.127  14.646  65.425  1.00  0.00    -0.333 OA 
BRANCH  13  14
HETATM   14  C   UNL     1     -10.993  15.289  64.844  1.00  0.00    -0.430 C  
BRANCH  14  15
HETATM   15  N   UNL     1     -10.061  15.666  65.892  1.00  0.00    -0.326 NA 
HETATM   16  C   UNL     1      -9.283  14.785  66.610  1.00  0.00    -0.275 A  
HETATM   17  N   UNL     1      -8.500  15.404  67.475  1.00  0.00    -0.164 NA 
HETATM   18  C   UNL     1      -8.776  16.746  67.310  1.00  0.00    -0.199 A  
HETATM   19  C   UNL     1      -9.741  16.901  66.354  1.00  0.00    -0.284 A  
HETATM   20  N   UNL     1     -10.205  18.101  65.986  1.00  0.00    -0.558 NA 
HETATM   21  C   UNL     1      -9.625  19.192  66.575  1.00  0.00    -0.355 C  
HETATM   22  N   UNL     1     -10.096  20.373  66.098  1.00  0.00    -0.557 NA 
HETATM   23  N   UNL     1      -8.704  19.168  67.492  1.00  0.00    -0.289 N  
HETATM   24  H2  UNL     1     -10.811  20.441  65.374  1.00  0.00     0.000 HD 
HETATM   25  H1  UNL     1      -9.663  21.186  66.536  1.00  0.00     0.000 HD 
HETATM   26  C   UNL     1      -8.209  17.939  67.958  1.00  0.00    -0.257 C  
HETATM   27  H   UNL     1      -8.340  20.042  67.873  1.00  0.00     0.000 HD 
HETATM   28  O   UNL     1      -7.363  17.867  68.842  1.00  0.00    -0.276 OA 
ENDBRANCH  14  15
ENDBRANCH  13  14
ENDBRANCH  12  13
ENDBRANCH  11  12
ENDBRANCH  10  11
ENDBRANCH   8  10
ENDBRANCH   3   8
TORSDOF 7
ENDMDL
MODEL       68
REMARK 921   NORMALIZED FREE ENERGY PREDICTED BY IDOCK:   -5.66 KCAL/MOL
REMARK 922        TOTAL FREE ENERGY PREDICTED BY IDOCK:   -8.52 KCAL/MOL
REMARK 923 INTER-LIGAND FREE ENERGY PREDICTED BY IDOCK:   -7.37 KCAL/MOL
REMARK 924 INTRA-LIGAND FREE ENERGY PREDICTED BY IDOCK:   -1.15 KCAL/MOL
REMARK 927      BINDING AFFINITY PREDICTED BY RF-SCORE:    0.00 PKD
ROOT
HETATM    1  C   UNL     1     -12.450   7.292  71.208  1.00  0.00    -0.402 C  
HETATM    2  C   UNL     1     -12.463   8.567  72.057  1.00  0.00    -0.417 C  
HETATM    3  C   UNL     1     -11.862   9.791  71.321  1.00  0.00    -0.399 C  
HETATM    4  C   UNL     1     -13.890   8.846  72.548  1.00  0.00    -0.472 C  
HETATM    5  H1  UNL     1     -12.248  10.936  69.627  1.00  0.00     0.000 HD 
HETATM    6  N   UNL     1     -12.643  10.131  70.111  1.00  0.00    -0.538 NA 
HETATM    7  H2  UNL     1     -13.630  10.274  70.331  1.00  0.00     0.000 HD 
ENDROOT
BRANCH   3   8
HETATM    8  C   UNL     1     -10.377   9.588  70.939  1.00  0.00    -0.302 C  
HETATM    9  O   UNL     1      -9.553   8.984  71.616  1.00  0.00    -0.288 OA 
BRANCH   8  10
HETATM   10  O   UNL     1     -10.112  10.113  69.709  1.00  0.00    -0.230 OA 
BRANCH  10  11
HETATM   11  C   UNL     1      -9.668   9.155  68.727  1.00  0.00    -0.162 C  
BRANCH  11  12
HETATM   12  C   UNL     1     -10.328   9.428  67.374  1.00  0.00    -0.263 C  
BRANCH  12  13
HETATM   13  O   UNL     1     -11.174  10.572  67.519  1.00  0.00    -0.320 OA 
BRANCH  13  14
HETATM   14  C   UNL     1     -11.228  11.352  66.324  1.00  0.00    -0.161 C  
BRANCH  14  15
HETATM   15  N   UNL     1     -11.066  12.756  66.655  1.00  0.00    -0.267 NA 
HETATM   16  C   UNL     1     -10.580  13.718  65.797  1.00  0.00    -0.293 A  
HETATM   17  N   UNL     1     -10.574  14.919  66.346  1.00  0.00    -0.299 NA 
HETATM   18  C   UNL     1     -11.082  14.733  67.616  1.00  0.00    -0.306 A  
HETATM   19  C   UNL     1     -11.366  13.409  67.806  1.00  0.00    -0.294 A  
HETATM   20  N   UNL     1     -11.874  12.938  68.951  1.00  0.00    -0.314 NA 
HETATM   21  C   UNL     1     -12.158  13.859  69.923  1.00  0.00    -0.344 C  
HETATM   22  N   UNL     1     -12.738  13.316  71.024  1.00  0.00    -0.325 NA 
HETATM   23  N   UNL     1     -11.931  15.137  69.855  1.00  0.00    -0.317 N  
HETATM   24  H2  UNL     1     -12.942  12.321  71.118  1.00  0.00     0.000 HD 
HETATM   25  H1  UNL     1     -12.949  14.002  71.748  1.00  0.00     0.000 HD 
HETATM   26  C   UNL     1     -11.353  15.688  68.701  1.00  0.00    -0.357 C  
HETATM   27  H   UNL     1     -12.174  15.740  70.642  1.00  0.00     0.000 HD 
HETATM   28  O   UNL     1     -11.094  16.883  68.604  1.00  0.00    -0.303 OA 
ENDBRANCH  14  15
ENDBRANCH  13  14
ENDBRANCH  12  13
ENDBRANCH  11  12
ENDBRANCH  10  11
ENDBRANCH   8  10
ENDBRANCH   3   8
TORSDOF 7
ENDMDL
MODEL       69
REMARK 921   NORMALIZED FREE ENERGY PREDICTED BY IDOCK:   -5.66 KCAL/MOL
REMARK 922        TOTAL FREE ENERGY PREDICTED BY IDOCK:   -8.51 KCAL/MOL
REMARK 923 INTER-LIGAND FREE ENERGY PREDICTED BY IDOCK:   -7.89 KCAL/MOL
REMARK 924 INTRA-LIGAND FREE ENERGY PREDICTED BY IDOCK:   -0.63 KCAL/MOL
REMARK 927      BINDING AFFINITY PREDICTED BY RF-SCORE:    0.00 PKD
ROOT
HETATM    1  C   UNL     1     -10.708  11.783  65.085  1.00  0.00    -0.343 C  
HETATM    2  C   UNL     1     -12.097  12.397  64.885  1.00  0.00    -0.470 C  
HETATM    3  C   UNL     1     -12.117  13.932  65.094  1.00  0.00    -0.403 C  
HETATM    4  C   UNL     1     -12.640  12.006  63.504  1.00  0.00    -0.625 C  
HETATM    5  H1  UNL     1     -11.264  15.632  64.250  1.00  0.00     0.000 HD 
HETATM    6  N   UNL     1     -11.251  14.622  64.113  1.00  0.00    -0.572 NA 
HETATM    7  H2  UNL     1     -11.498  14.372  63.155  1.00  0.00     0.000 HD 
ENDROOT
BRANCH   3   8
HETATM    8  C   UNL     1     -11.708  14.344  66.527  1.00  0.00    -0.391 C  
HETATM    9  O   UNL     1     -10.926  15.247  66.803  1.00  0.00    -0.317 OA 
BRANCH   8  10
HETATM   10  O   UNL     1     -12.384  13.613  67.459  1.00  0.00    -0.279 OA 
BRANCH  10  11
HETATM   11  C   UNL     1     -11.723  13.503  68.736  1.00  0.00    -0.337 C  
BRANCH  11  12
HETATM   12  C   UNL     1     -10.675  12.390  68.704  1.00  0.00    -0.232 C  
BRANCH  12  13
HETATM   13  O   UNL     1     -11.331  11.157  69.015  1.00  0.00    -0.225 OA 
BRANCH  13  14
HETATM   14  C   UNL     1     -10.510  10.026  68.724  1.00  0.00    -0.208 C  
BRANCH  14  15
HETATM   15  N   UNL     1     -10.041   9.436  69.965  1.00  0.00    -0.210 NA 
HETATM   16  C   UNL     1      -8.774   9.591  70.482  1.00  0.00    -0.197 A  
HETATM   17  N   UNL     1      -8.630   8.975  71.641  1.00  0.00    -0.351 NA 
HETATM   18  C   UNL     1      -9.858   8.397  71.893  1.00  0.00    -0.258 A  
HETATM   19  C   UNL     1     -10.712   8.667  70.859  1.00  0.00    -0.219 A  
HETATM   20  N   UNL     1     -11.976   8.230  70.836  1.00  0.00    -0.235 NA 
HETATM   21  C   UNL     1     -12.408   7.538  71.935  1.00  0.00    -0.310 C  
HETATM   22  N   UNL     1     -13.720   7.193  71.870  1.00  0.00    -0.549 NA 
HETATM   23  N   UNL     1     -11.690   7.223  72.972  1.00  0.00    -0.558 N  
HETATM   24  H2  UNL     1     -14.323   7.426  71.081  1.00  0.00     0.000 HD 
HETATM   25  H1  UNL     1     -14.042   6.677  72.688  1.00  0.00     0.000 HD 
HETATM   26  C   UNL     1     -10.342   7.607  73.036  1.00  0.00    -0.335 C  
HETATM   27  H   UNL     1     -12.107   6.695  73.739  1.00  0.00     0.000 HD 
HETATM   28  O   UNL     1      -9.619   7.307  73.979  1.00  0.00    -0.265 OA 
ENDBRANCH  14  15
ENDBRANCH  13  14
ENDBRANCH  12  13
ENDBRANCH  11  12
ENDBRANCH  10  11
ENDBRANCH   8  10
ENDBRANCH   3   8
TORSDOF 7
ENDMDL
MODEL       70
REMARK 921   NORMALIZED FREE ENERGY PREDICTED BY IDOCK:   -5.65 KCAL/MOL
REMARK 922        TOTAL FREE ENERGY PREDICTED BY IDOCK:   -8.50 KCAL/MOL
REMARK 923 INTER-LIGAND FREE ENERGY PREDICTED BY IDOCK:   -7.90 KCAL/MOL
REMARK 924 INTRA-LIGAND FREE ENERGY PREDICTED BY IDOCK:   -0.60 KCAL/MOL
REMARK 927      BINDING AFFINITY PREDICTED BY RF-SCORE:    0.00 PKD
ROOT
HETATM    1  C   UNL     1     -12.802  12.417  64.579  1.00  0.00    -0.305 C  
HETATM    2  C   UNL     1     -12.428  13.692  65.342  1.00  0.00    -0.537 C  
HETATM    3  C   UNL     1     -11.268  13.477  66.347  1.00  0.00    -0.307 C  
HETATM    4  C   UNL     1     -12.112  14.815  64.346  1.00  0.00    -0.457 C  
HETATM    5  H1  UNL     1      -9.262  12.924  66.320  1.00  0.00     0.000 HD 
HETATM    6  N   UNL     1     -10.025  13.065  65.659  1.00  0.00    -0.378 NA 
HETATM    7  H2  UNL     1      -9.767  13.727  64.926  1.00  0.00     0.000 HD 
ENDROOT
BRANCH   3   8
HETATM    8  C   UNL     1     -11.617  12.449  67.448  1.00  0.00    -0.365 C  
HETATM    9  O   UNL     1     -11.542  11.232  67.323  1.00  0.00    -0.527 OA 
BRANCH   8  10
HETATM   10  O   UNL     1     -11.960  13.073  68.611  1.00  0.00    -0.319 OA 
BRANCH  10  11
HETATM   11  C   UNL     1     -11.081  14.148  69.001  1.00  0.00    -0.263 C  
BRANCH  11  12
HETATM   12  C   UNL     1     -11.874  15.277  69.662  1.00  0.00    -0.339 C  
BRANCH  12  13
HETATM   13  O   UNL     1     -11.214  16.511  69.370  1.00  0.00    -0.286 OA 
BRANCH  13  14
HETATM   14  C   UNL     1     -10.990  16.680  67.970  1.00  0.00    -0.311 C  
BRANCH  14  15
HETATM   15  N   UNL     1     -10.251  17.909  67.743  1.00  0.00    -0.350 NA 
HETATM   16  C   UNL     1     -10.773  19.049  67.171  1.00  0.00    -0.456 A  
HETATM   17  N   UNL     1      -9.890  20.029  67.119  1.00  0.00    -0.398 NA 
HETATM   18  C   UNL     1      -8.744  19.508  67.684  1.00  0.00    -0.315 A  
HETATM   19  C   UNL     1      -8.964  18.208  68.049  1.00  0.00    -0.283 A  
HETATM   20  N   UNL     1      -8.022  17.453  68.626  1.00  0.00    -0.272 NA 
HETATM   21  C   UNL     1      -6.825  18.059  68.895  1.00  0.00    -0.254 C  
HETATM   22  N   UNL     1      -5.949  17.253  69.546  1.00  0.00    -0.229 NA 
HETATM   23  N   UNL     1      -6.503  19.283  68.595  1.00  0.00    -0.246 N  
HETATM   24  H2  UNL     1      -6.161  16.290  69.809  1.00  0.00     0.000 HD 
HETATM   25  H1  UNL     1      -5.057  17.705  69.746  1.00  0.00     0.000 HD 
HETATM   26  C   UNL     1      -7.429  20.113  67.943  1.00  0.00    -0.281 C  
HETATM   27  H   UNL     1      -5.578  19.640  68.834  1.00  0.00     0.000 HD 
HETATM   28  O   UNL     1      -7.159  21.263  67.614  1.00  0.00    -0.425 OA 
ENDBRANCH  14  15
ENDBRANCH  13  14
ENDBRANCH  12  13
ENDBRANCH  11  12
ENDBRANCH  10  11
ENDBRANCH   8  10
ENDBRANCH   3   8
TORSDOF 7
ENDMDL
MODEL       71
REMARK 921   NORMALIZED FREE ENERGY PREDICTED BY IDOCK:   -5.64 KCAL/MOL
REMARK 922        TOTAL FREE ENERGY PREDICTED BY IDOCK:   -8.49 KCAL/MOL
REMARK 923 INTER-LIGAND FREE ENERGY PREDICTED BY IDOCK:   -7.37 KCAL/MOL
REMARK 924 INTRA-LIGAND FREE ENERGY PREDICTED BY IDOCK:   -1.12 KCAL/MOL
REMARK 927      BINDING AFFINITY PREDICTED BY RF-SCORE:    0.00 PKD
ROOT
HETATM    1  C   UNL     1     -12.557  12.014  63.089  1.00  0.00    -0.352 C  
HETATM    2  C   UNL     1     -11.230  12.320  63.793  1.00  0.00    -0.510 C  
HETATM    3  C   UNL     1     -11.420  12.946  65.197  1.00  0.00    -0.313 C  
HETATM    4  C   UNL     1     -10.373  11.048  63.852  1.00  0.00    -0.436 C  
HETATM    5  H1  UNL     1     -12.257  12.436  67.033  1.00  0.00     0.000 HD 
HETATM    6  N   UNL     1     -12.132  12.024  66.109  1.00  0.00    -0.520 NA 
HETATM    7  H2  UNL     1     -11.666  11.118  66.163  1.00  0.00     0.000 HD 
ENDROOT
BRANCH   3   8
HETATM    8  C   UNL     1     -12.161  14.303  65.149  1.00  0.00    -0.410 C  
HETATM    9  O   UNL     1     -13.336  14.474  65.451  1.00  0.00    -0.458 OA 
BRANCH   8  10
HETATM   10  O   UNL     1     -11.315  15.310  64.788  1.00  0.00    -0.409 OA 
BRANCH  10  11
HETATM   11  C   UNL     1     -10.183  15.491  65.664  1.00  0.00    -0.376 C  
BRANCH  11  12
HETATM   12  C   UNL     1     -10.632  16.065  67.009  1.00  0.00    -0.302 C  
BRANCH  12  13
HETATM   13  O   UNL     1      -9.933  15.368  68.043  1.00  0.00    -0.219 OA 
BRANCH  13  14
HETATM   14  C   UNL     1     -10.818  14.621  68.878  1.00  0.00    -0.250 C  
BRANCH  14  15
HETATM   15  N   UNL     1     -10.499  13.208  68.780  1.00  0.00    -0.210 NA 
HETATM   16  C   UNL     1      -9.486  12.680  68.010  1.00  0.00    -0.209 A  
HETATM   17  N   UNL     1      -9.397  11.368  68.137  1.00  0.00    -0.175 NA 
HETATM   18  C   UNL     1     -10.392  11.028  69.030  1.00  0.00    -0.209 A  
HETATM   19  C   UNL     1     -11.073  12.152  69.408  1.00  0.00    -0.117 A  
HETATM   20  N   UNL     1     -12.094  12.119  70.273  1.00  0.00    -0.338 NA 
HETATM   21  C   UNL     1     -12.400  10.902  70.819  1.00  0.00    -0.390 C  
HETATM   22  N   UNL     1     -13.395  10.962  71.740  1.00  0.00    -0.362 NA 
HETATM   23  N   UNL     1     -11.825   9.770  70.537  1.00  0.00    -0.358 N  
HETATM   24  H2  UNL     1     -13.869  11.828  71.999  1.00  0.00     0.000 HD 
HETATM   25  H1  UNL     1     -13.623  10.055  72.147  1.00  0.00     0.000 HD 
HETATM   26  C   UNL     1     -10.780   9.728  69.600  1.00  0.00    -0.242 C  
HETATM   27  H   UNL     1     -12.133   8.913  70.996  1.00  0.00     0.000 HD 
HETATM   28  O   UNL     1     -10.229   8.680  69.280  1.00  0.00    -0.201 OA 
ENDBRANCH  14  15
ENDBRANCH  13  14
ENDBRANCH  12  13
ENDBRANCH  11  12
ENDBRANCH  10  11
ENDBRANCH   8  10
ENDBRANCH   3   8
TORSDOF 7
ENDMDL
MODEL       72
REMARK 921   NORMALIZED FREE ENERGY PREDICTED BY IDOCK:   -5.64 KCAL/MOL
REMARK 922        TOTAL FREE ENERGY PREDICTED BY IDOCK:   -8.49 KCAL/MOL
REMARK 923 INTER-LIGAND FREE ENERGY PREDICTED BY IDOCK:   -8.12 KCAL/MOL
REMARK 924 INTRA-LIGAND FREE ENERGY PREDICTED BY IDOCK:   -0.37 KCAL/MOL
REMARK 927      BINDING AFFINITY PREDICTED BY RF-SCORE:    0.00 PKD
ROOT
HETATM    1  C   UNL     1     -13.648  13.134  72.364  1.00  0.00    -0.667 C  
HETATM    2  C   UNL     1     -12.572  14.223  72.308  1.00  0.00    -0.333 C  
HETATM    3  C   UNL     1     -12.431  14.864  70.905  1.00  0.00    -0.330 C  
HETATM    4  C   UNL     1     -12.850  15.279  73.387  1.00  0.00    -0.667 C  
HETATM    5  H1  UNL     1     -13.588  15.962  69.568  1.00  0.00     0.000 HD 
HETATM    6  N   UNL     1     -13.680  15.540  70.491  1.00  0.00    -0.765 NA 
HETATM    7  H2  UNL     1     -13.983  16.224  71.186  1.00  0.00     0.000 HD 
ENDROOT
BRANCH   3   8
HETATM    8  C   UNL     1     -12.012  13.842  69.822  1.00  0.00    -0.344 C  
HETATM    9  O   UNL     1     -11.653  12.691  70.043  1.00  0.00    -0.239 OA 
BRANCH   8  10
HETATM   10  O   UNL     1     -12.157  14.366  68.571  1.00  0.00    -0.318 OA 
BRANCH  10  11
HETATM   11  C   UNL     1     -11.422  13.677  67.539  1.00  0.00    -0.329 C  
BRANCH  11  12
HETATM   12  C   UNL     1     -12.137  13.808  66.194  1.00  0.00    -0.441 C  
BRANCH  12  13
HETATM   13  O   UNL     1     -11.406  14.741  65.394  1.00  0.00    -0.340 OA 
BRANCH  13  14
HETATM   14  C   UNL     1     -10.153  15.086  65.984  1.00  0.00    -0.301 C  
BRANCH  14  15
HETATM   15  N   UNL     1     -10.041  16.530  66.074  1.00  0.00    -0.338 NA 
HETATM   16  C   UNL     1     -10.863  17.427  65.428  1.00  0.00     0.020 A  
HETATM   17  N   UNL     1     -10.558  18.679  65.717  1.00  0.00    -0.580 NA 
HETATM   18  C   UNL     1      -9.494  18.595  66.592  1.00  0.00    -0.319 A  
HETATM   19  C   UNL     1      -9.171  17.282  66.795  1.00  0.00    -0.255 A  
HETATM   20  N   UNL     1      -8.174  16.902  67.603  1.00  0.00    -0.184 NA 
HETATM   21  C   UNL     1      -7.514  17.895  68.275  1.00  0.00    -0.260 C  
HETATM   22  N   UNL     1      -6.568  17.427  69.129  1.00  0.00    -0.238 NA 
HETATM   23  N   UNL     1      -7.733  19.171  68.162  1.00  0.00    -0.282 N  
HETATM   24  H2  UNL     1      -6.367  16.435  69.256  1.00  0.00     0.000 HD 
HETATM   25  H1  UNL     1      -6.076  18.167  69.630  1.00  0.00     0.000 HD 
HETATM   26  C   UNL     1      -8.731  19.639  67.293  1.00  0.00    -0.312 C  
HETATM   27  H   UNL     1      -7.178  19.834  68.705  1.00  0.00     0.000 HD 
HETATM   28  O   UNL     1      -8.952  20.834  67.132  1.00  0.00    -0.295 OA 
ENDBRANCH  14  15
ENDBRANCH  13  14
ENDBRANCH  12  13
ENDBRANCH  11  12
ENDBRANCH  10  11
ENDBRANCH   8  10
ENDBRANCH   3   8
TORSDOF 7
ENDMDL
MODEL       73
REMARK 921   NORMALIZED FREE ENERGY PREDICTED BY IDOCK:   -5.63 KCAL/MOL
REMARK 922        TOTAL FREE ENERGY PREDICTED BY IDOCK:   -8.48 KCAL/MOL
REMARK 923 INTER-LIGAND FREE ENERGY PREDICTED BY IDOCK:   -7.19 KCAL/MOL
REMARK 924 INTRA-LIGAND FREE ENERGY PREDICTED BY IDOCK:   -1.29 KCAL/MOL
REMARK 927      BINDING AFFINITY PREDICTED BY RF-SCORE:    0.00 PKD
ROOT
HETATM    1  C   UNL     1     -12.394   7.178  71.446  1.00  0.00    -0.415 C  
HETATM    2  C   UNL     1     -10.879   7.392  71.351  1.00  0.00    -0.250 C  
HETATM    3  C   UNL     1     -10.360   7.404  69.891  1.00  0.00    -0.218 C  
HETATM    4  C   UNL     1     -10.492   8.674  72.099  1.00  0.00    -0.411 C  
HETATM    5  H1  UNL     1     -10.610   8.524  68.155  1.00  0.00     0.000 HD 
HETATM    6  N   UNL     1     -10.952   8.516  69.115  1.00  0.00    -0.430 NA 
HETATM    7  H2  UNL     1     -10.798   9.415  69.574  1.00  0.00     0.000 HD 
ENDROOT
BRANCH   3   8
HETATM    8  C   UNL     1     -10.615   6.067  69.157  1.00  0.00    -0.295 C  
HETATM    9  O   UNL     1     -10.312   4.959  69.587  1.00  0.00    -0.243 OA 
BRANCH   8  10
HETATM   10  O   UNL     1     -11.286   6.270  67.987  1.00  0.00    -0.323 OA 
BRANCH  10  11
HETATM   11  C   UNL     1     -10.584   5.835  66.805  1.00  0.00    -0.306 C  
BRANCH  11  12
HETATM   12  C   UNL     1      -9.529   6.865  66.399  1.00  0.00    -0.120 C  
BRANCH  12  13
HETATM   13  O   UNL     1     -10.141   8.157  66.418  1.00  0.00    -0.241 OA 
BRANCH  13  14
HETATM   14  C   UNL     1      -9.276   9.168  65.901  1.00  0.00    -0.227 C  
BRANCH  14  15
HETATM   15  N   UNL     1     -10.033  10.386  65.677  1.00  0.00    -0.257 NA 
HETATM   16  C   UNL     1     -10.343  10.905  64.440  1.00  0.00    -0.361 A  
HETATM   17  N   UNL     1     -11.073  12.003  64.529  1.00  0.00    -0.317 NA 
HETATM   18  C   UNL     1     -11.249  12.205  65.883  1.00  0.00    -0.339 A  
HETATM   19  C   UNL     1     -10.599  11.225  66.581  1.00  0.00    -0.262 A  
HETATM   20  N   UNL     1     -10.601  11.170  67.918  1.00  0.00    -0.187 NA 
HETATM   21  C   UNL     1     -11.340  12.118  68.571  1.00  0.00    -0.275 C  
HETATM   22  N   UNL     1     -11.354  11.953  69.919  1.00  0.00    -0.505 NA 
HETATM   23  N   UNL     1     -11.996  13.094  68.016  1.00  0.00    -0.342 N  
HETATM   24  H2  UNL     1     -10.862  11.199  70.397  1.00  0.00     0.000 HD 
HETATM   25  H1  UNL     1     -11.905  12.660  70.406  1.00  0.00     0.000 HD 
HETATM   26  C   UNL     1     -11.993  13.238  66.620  1.00  0.00    -0.388 C  
HETATM   27  H   UNL     1     -12.514  13.756  68.596  1.00  0.00     0.000 HD 
HETATM   28  O   UNL     1     -12.572  14.159  66.055  1.00  0.00    -0.478 OA 
ENDBRANCH  14  15
ENDBRANCH  13  14
ENDBRANCH  12  13
ENDBRANCH  11  12
ENDBRANCH  10  11
ENDBRANCH   8  10
ENDBRANCH   3   8
TORSDOF 7
ENDMDL
MODEL       74
REMARK 921   NORMALIZED FREE ENERGY PREDICTED BY IDOCK:   -5.63 KCAL/MOL
REMARK 922        TOTAL FREE ENERGY PREDICTED BY IDOCK:   -8.47 KCAL/MOL
REMARK 923 INTER-LIGAND FREE ENERGY PREDICTED BY IDOCK:   -7.47 KCAL/MOL
REMARK 924 INTRA-LIGAND FREE ENERGY PREDICTED BY IDOCK:   -1.01 KCAL/MOL
REMARK 927      BINDING AFFINITY PREDICTED BY RF-SCORE:    0.00 PKD
ROOT
HETATM    1  C   UNL     1     -11.616  15.645  72.082  1.00  0.00    -0.538 C  
HETATM    2  C   UNL     1     -13.008  15.507  71.457  1.00  0.00    -0.545 C  
HETATM    3  C   UNL     1     -13.205  14.165  70.708  1.00  0.00    -0.152 C  
HETATM    4  C   UNL     1     -14.080  15.715  72.535  1.00  0.00    -0.562 C  
HETATM    5  H1  UNL     1     -13.210  12.127  71.132  1.00  0.00     0.000 HD 
HETATM    6  N   UNL     1     -13.081  13.010  71.625  1.00  0.00    -0.385 NA 
HETATM    7  H2  UNL     1     -13.718  13.092  72.417  1.00  0.00     0.000 HD 
ENDROOT
BRANCH   3   8
HETATM    8  C   UNL     1     -12.224  13.994  69.524  1.00  0.00    -0.308 C  
HETATM    9  O   UNL     1     -12.034  14.824  68.642  1.00  0.00    -0.311 OA 
BRANCH   8  10
HETATM   10  O   UNL     1     -11.539  12.818  69.621  1.00  0.00    -0.287 OA 
BRANCH  10  11
HETATM   11  C   UNL     1     -11.555  12.011  68.426  1.00  0.00    -0.311 C  
BRANCH  11  12
HETATM   12  C   UNL     1     -10.129  11.672  67.989  1.00  0.00    -0.189 C  
BRANCH  12  13
HETATM   13  O   UNL     1      -9.364  12.880  68.002  1.00  0.00    -0.200 OA 
BRANCH  13  14
HETATM   14  C   UNL     1      -8.822  13.185  66.717  1.00  0.00    -0.132 C  
BRANCH  14  15
HETATM   15  N   UNL     1      -9.392  14.430  66.234  1.00  0.00    -0.267 NA 
HETATM   16  C   UNL     1     -10.363  14.528  65.262  1.00  0.00    -0.410 A  
HETATM   17  N   UNL     1     -10.723  15.779  65.043  1.00  0.00    -0.483 NA 
HETATM   18  C   UNL     1      -9.957  16.529  65.912  1.00  0.00    -0.317 A  
HETATM   19  C   UNL     1      -9.133  15.703  66.626  1.00  0.00    -0.282 A  
HETATM   20  N   UNL     1      -8.277  16.159  67.547  1.00  0.00    -0.146 NA 
HETATM   21  C   UNL     1      -8.298  17.505  67.794  1.00  0.00    -0.220 C  
HETATM   22  N   UNL     1      -7.457  17.881  68.790  1.00  0.00    -0.279 NA 
HETATM   23  N   UNL     1      -9.034  18.384  67.180  1.00  0.00    -0.263 N  
HETATM   24  H2  UNL     1      -6.867  17.226  69.304  1.00  0.00     0.000 HD 
HETATM   25  H1  UNL     1      -7.472  18.884  68.974  1.00  0.00     0.000 HD 
HETATM   26  C   UNL     1      -9.917  17.977  66.168  1.00  0.00    -0.285 C  
HETATM   27  H   UNL     1      -8.970  19.370  67.435  1.00  0.00     0.000 HD 
HETATM   28  O   UNL     1     -10.608  18.773  65.542  1.00  0.00    -0.596 OA 
ENDBRANCH  14  15
ENDBRANCH  13  14
ENDBRANCH  12  13
ENDBRANCH  11  12
ENDBRANCH  10  11
ENDBRANCH   8  10
ENDBRANCH   3   8
TORSDOF 7
ENDMDL
MODEL       75
REMARK 921   NORMALIZED FREE ENERGY PREDICTED BY IDOCK:   -5.63 KCAL/MOL
REMARK 922        TOTAL FREE ENERGY PREDICTED BY IDOCK:   -8.47 KCAL/MOL
REMARK 923 INTER-LIGAND FREE ENERGY PREDICTED BY IDOCK:   -7.67 KCAL/MOL
REMARK 924 INTRA-LIGAND FREE ENERGY PREDICTED BY IDOCK:   -0.80 KCAL/MOL
REMARK 927      BINDING AFFINITY PREDICTED BY RF-SCORE:    0.00 PKD
ROOT
HETATM    1  C   UNL     1     -12.381  12.289  63.656  1.00  0.00    -0.664 C  
HETATM    2  C   UNL     1     -12.193  13.305  64.788  1.00  0.00    -0.466 C  
HETATM    3  C   UNL     1     -10.941  13.020  65.655  1.00  0.00    -0.273 C  
HETATM    4  C   UNL     1     -12.167  14.725  64.207  1.00  0.00    -0.402 C  
HETATM    5  H1  UNL     1      -8.875  12.917  65.426  1.00  0.00     0.000 HD 
HETATM    6  N   UNL     1      -9.698  13.104  64.855  1.00  0.00    -0.541 NA 
HETATM    7  H2  UNL     1      -9.624  14.001  64.374  1.00  0.00     0.000 HD 
ENDROOT
BRANCH   3   8
HETATM    8  C   UNL     1     -11.008  11.648  66.365  1.00  0.00    -0.295 C  
HETATM    9  O   UNL     1     -10.482  10.619  65.958  1.00  0.00    -0.239 OA 
BRANCH   8  10
HETATM   10  O   UNL     1     -11.677  11.743  67.551  1.00  0.00    -0.512 OA 
BRANCH  10  11
HETATM   11  C   UNL     1     -10.936  12.378  68.613  1.00  0.00    -0.247 C  
BRANCH  11  12
HETATM   12  C   UNL     1     -11.886  13.079  69.585  1.00  0.00    -0.319 C  
BRANCH  12  13
HETATM   13  O   UNL     1     -11.363  14.383  69.851  1.00  0.00    -0.256 OA 
BRANCH  13  14
HETATM   14  C   UNL     1     -11.363  15.208  68.686  1.00  0.00    -0.310 C  
BRANCH  14  15
HETATM   15  N   UNL     1     -10.122  15.959  68.624  1.00  0.00    -0.211 NA 
HETATM   16  C   UNL     1      -8.949  15.596  69.249  1.00  0.00    -0.267 A  
HETATM   17  N   UNL     1      -7.967  16.442  68.994  1.00  0.00    -0.233 NA 
HETATM   18  C   UNL     1      -8.523  17.395  68.164  1.00  0.00    -0.241 A  
HETATM   19  C   UNL     1      -9.843  17.105  67.954  1.00  0.00    -0.283 A  
HETATM   20  N   UNL     1     -10.633  17.862  67.184  1.00  0.00    -0.343 NA 
HETATM   21  C   UNL     1     -10.045  18.926  66.556  1.00  0.00    -0.398 C  
HETATM   22  N   UNL     1     -10.890  19.601  65.737  1.00  0.00    -0.413 NA 
HETATM   23  N   UNL     1      -8.804  19.297  66.680  1.00  0.00    -0.319 N  
HETATM   24  H2  UNL     1     -11.868  19.341  65.602  1.00  0.00     0.000 HD 
HETATM   25  H1  UNL     1     -10.452  20.394  65.269  1.00  0.00     0.000 HD 
HETATM   26  C   UNL     1      -7.935  18.575  67.513  1.00  0.00    -0.236 C  
HETATM   27  H   UNL     1      -8.463  20.114  66.172  1.00  0.00     0.000 HD 
HETATM   28  O   UNL     1      -6.767  18.906  67.684  1.00  0.00    -0.206 OA 
ENDBRANCH  14  15
ENDBRANCH  13  14
ENDBRANCH  12  13
ENDBRANCH  11  12
ENDBRANCH  10  11
ENDBRANCH   8  10
ENDBRANCH   3   8
TORSDOF 7
ENDMDL
MODEL       76
REMARK 921   NORMALIZED FREE ENERGY PREDICTED BY IDOCK:   -5.62 KCAL/MOL
REMARK 922        TOTAL FREE ENERGY PREDICTED BY IDOCK:   -8.47 KCAL/MOL
REMARK 923 INTER-LIGAND FREE ENERGY PREDICTED BY IDOCK:   -7.88 KCAL/MOL
REMARK 924 INTRA-LIGAND FREE ENERGY PREDICTED BY IDOCK:   -0.59 KCAL/MOL
REMARK 927      BINDING AFFINITY PREDICTED BY RF-SCORE:    0.00 PKD
ROOT
HETATM    1  C   UNL     1     -13.098   9.812  71.961  1.00  0.00    -0.546 C  
HETATM    2  C   UNL     1     -12.964   8.394  71.394  1.00  0.00    -0.248 C  
HETATM    3  C   UNL     1     -11.661   7.685  71.839  1.00  0.00    -0.280 C  
HETATM    4  C   UNL     1     -14.208   7.573  71.758  1.00  0.00    -0.548 C  
HETATM    5  H1  UNL     1     -10.755   7.047  73.601  1.00  0.00     0.000 HD 
HETATM    6  N   UNL     1     -11.613   7.514  73.308  1.00  0.00    -0.617 NA 
HETATM    7  H2  UNL     1     -12.440   7.028  73.655  1.00  0.00     0.000 HD 
ENDROOT
BRANCH   3   8
HETATM    8  C   UNL     1     -10.387   8.421  71.361  1.00  0.00    -0.222 C  
HETATM    9  O   UNL     1      -9.608   9.024  72.090  1.00  0.00    -0.312 OA 
BRANCH   8  10
HETATM   10  O   UNL     1     -10.202   8.258  70.019  1.00  0.00    -0.194 OA 
BRANCH  10  11
HETATM   11  C   UNL     1     -10.278   9.474  69.248  1.00  0.00    -0.203 C  
BRANCH  11  12
HETATM   12  C   UNL     1      -9.043   9.623  68.358  1.00  0.00    -0.123 C  
BRANCH  12  13
HETATM   13  O   UNL     1      -8.840  11.017  68.113  1.00  0.00    -0.131 OA 
BRANCH  13  14
HETATM   14  C   UNL     1      -8.277  11.258  66.823  1.00  0.00    -0.158 C  
BRANCH  14  15
HETATM   15  N   UNL     1      -9.334  11.274  65.829  1.00  0.00    -0.219 NA 
HETATM   16  C   UNL     1      -9.427  10.406  64.763  1.00  0.00    -0.273 A  
HETATM   17  N   UNL     1     -10.509  10.623  64.037  1.00  0.00    -0.223 NA 
HETATM   18  C   UNL     1     -11.151  11.674  64.660  1.00  0.00    -0.278 A  
HETATM   19  C   UNL     1     -10.423  12.079  65.744  1.00  0.00    -0.254 A  
HETATM   20  N   UNL     1     -10.811  13.083  66.538  1.00  0.00    -0.276 NA 
HETATM   21  C   UNL     1     -12.016  13.664  66.252  1.00  0.00    -0.423 C  
HETATM   22  N   UNL     1     -12.375  14.624  67.142  1.00  0.00    -0.482 NA 
HETATM   23  N   UNL     1     -12.792  13.364  65.252  1.00  0.00    -0.686 N  
HETATM   24  H2  UNL     1     -11.803  14.886  67.946  1.00  0.00     0.000 HD 
HETATM   25  H1  UNL     1     -13.274  15.056  66.929  1.00  0.00     0.000 HD 
HETATM   26  C   UNL     1     -12.419  12.354  64.352  1.00  0.00    -0.433 C  
HETATM   27  H   UNL     1     -13.672  13.865  65.121  1.00  0.00     0.000 HD 
HETATM   28  O   UNL     1     -13.104  12.058  63.379  1.00  0.00    -0.747 OA 
ENDBRANCH  14  15
ENDBRANCH  13  14
ENDBRANCH  12  13
ENDBRANCH  11  12
ENDBRANCH  10  11
ENDBRANCH   8  10
ENDBRANCH   3   8
TORSDOF 7
ENDMDL
MODEL       77
REMARK 921   NORMALIZED FREE ENERGY PREDICTED BY IDOCK:   -5.62 KCAL/MOL
REMARK 922        TOTAL FREE ENERGY PREDICTED BY IDOCK:   -8.47 KCAL/MOL
REMARK 923 INTER-LIGAND FREE ENERGY PREDICTED BY IDOCK:   -7.54 KCAL/MOL
REMARK 924 INTRA-LIGAND FREE ENERGY PREDICTED BY IDOCK:   -0.93 KCAL/MOL
REMARK 927      BINDING AFFINITY PREDICTED BY RF-SCORE:    0.00 PKD
ROOT
HETATM    1  C   UNL     1      -7.667   9.651  67.985  1.00  0.00    -0.086 C  
HETATM    2  C   UNL     1      -8.881  10.572  67.826  1.00  0.00    -0.125 C  
HETATM    3  C   UNL     1      -8.599  11.794  66.916  1.00  0.00    -0.177 C  
HETATM    4  C   UNL     1     -10.083   9.760  67.327  1.00  0.00    -0.261 C  
HETATM    5  H1  UNL     1      -8.070  12.179  64.941  1.00  0.00     0.000 HD 
HETATM    6  N   UNL     1      -8.256  11.375  65.539  1.00  0.00    -0.354 NA 
HETATM    7  H2  UNL     1      -8.976  10.771  65.142  1.00  0.00     0.000 HD 
ENDROOT
BRANCH   3   8
HETATM    8  C   UNL     1      -7.482  12.707  67.474  1.00  0.00    -0.155 C  
HETATM    9  O   UNL     1      -6.328  12.739  67.062  1.00  0.00    -0.219 OA 
BRANCH   8  10
HETATM   10  O   UNL     1      -7.965  13.531  68.449  1.00  0.00    -0.137 OA 
BRANCH  10  11
HETATM   11  C   UNL     1      -7.966  14.932  68.108  1.00  0.00    -0.130 C  
BRANCH  11  12
HETATM   12  C   UNL     1      -8.629  15.752  69.217  1.00  0.00    -0.259 C  
BRANCH  12  13
HETATM   13  O   UNL     1      -9.799  16.368  68.672  1.00  0.00    -0.217 OA 
BRANCH  13  14
HETATM   14  C   UNL     1     -10.996  15.729  69.115  1.00  0.00    -0.265 C  
BRANCH  14  15
HETATM   15  N   UNL     1     -11.363  14.684  68.176  1.00  0.00    -0.288 NA 
HETATM   16  C   UNL     1     -11.708  13.397  68.524  1.00  0.00    -0.357 A  
HETATM   17  N   UNL     1     -12.032  12.666  67.473  1.00  0.00    -0.429 NA 
HETATM   18  C   UNL     1     -11.895  13.515  66.393  1.00  0.00    -0.394 A  
HETATM   19  C   UNL     1     -11.471  14.741  66.825  1.00  0.00    -0.338 A  
HETATM   20  N   UNL     1     -11.255  15.765  65.990  1.00  0.00    -0.078 NA 
HETATM   21  C   UNL     1     -11.535  15.550  64.668  1.00  0.00    -0.324 C  
HETATM   22  N   UNL     1     -11.361  16.653  63.896  1.00  0.00    -1.432 NA 
HETATM   23  N   UNL     1     -11.941  14.431  64.143  1.00  0.00    -0.664 N  
HETATM   24  H2  UNL     1     -11.053  17.553  64.265  1.00  0.00     0.000 HD 
HETATM   25  H1  UNL     1     -11.570  16.493  62.911  1.00  0.00     0.000 HD 
HETATM   26  C   UNL     1     -12.138  13.305  64.957  1.00  0.00    -0.408 C  
HETATM   27  H   UNL     1     -12.115  14.372  63.140  1.00  0.00     0.000 HD 
HETATM   28  O   UNL     1     -12.491  12.222  64.503  1.00  0.00    -0.439 OA 
ENDBRANCH  14  15
ENDBRANCH  13  14
ENDBRANCH  12  13
ENDBRANCH  11  12
ENDBRANCH  10  11
ENDBRANCH   8  10
ENDBRANCH   3   8
TORSDOF 7
ENDMDL
MODEL       78
REMARK 921   NORMALIZED FREE ENERGY PREDICTED BY IDOCK:   -5.60 KCAL/MOL
REMARK 922        TOTAL FREE ENERGY PREDICTED BY IDOCK:   -8.44 KCAL/MOL
REMARK 923 INTER-LIGAND FREE ENERGY PREDICTED BY IDOCK:   -7.92 KCAL/MOL
REMARK 924 INTRA-LIGAND FREE ENERGY PREDICTED BY IDOCK:   -0.52 KCAL/MOL
REMARK 927      BINDING AFFINITY PREDICTED BY RF-SCORE:    0.00 PKD
ROOT
HETATM    1  C   UNL     1     -10.486  12.583  63.936  1.00  0.00    -0.464 C  
HETATM    2  C   UNL     1     -11.929  12.484  64.442  1.00  0.00    -0.476 C  
HETATM    3  C   UNL     1     -12.482  13.834  64.963  1.00  0.00    -0.416 C  
HETATM    4  C   UNL     1     -12.821  11.894  63.341  1.00  0.00    -0.393 C  
HETATM    5  H1  UNL     1     -12.885  15.741  64.233  1.00  0.00     0.000 HD 
HETATM    6  N   UNL     1     -12.521  14.853  63.890  1.00  0.00    -1.056 NA 
HETATM    7  H2  UNL     1     -13.046  14.522  63.080  1.00  0.00     0.000 HD 
ENDROOT
BRANCH   3   8
HETATM    8  C   UNL     1     -11.681  14.381  66.167  1.00  0.00    -0.378 C  
HETATM    9  O   UNL     1     -10.768  15.196  66.094  1.00  0.00    -0.310 OA 
BRANCH   8  10
HETATM   10  O   UNL     1     -12.166  13.888  67.343  1.00  0.00    -0.378 OA 
BRANCH  10  11
HETATM   11  C   UNL     1     -11.391  14.234  68.508  1.00  0.00    -0.282 C  
BRANCH  11  12
HETATM   12  C   UNL     1     -11.644  13.234  69.638  1.00  0.00    -0.261 C  
BRANCH  12  13
HETATM   13  O   UNL     1     -11.864  11.950  69.049  1.00  0.00    -0.294 OA 
BRANCH  13  14
HETATM   14  C   UNL     1     -10.659  11.190  68.956  1.00  0.00    -0.218 C  
BRANCH  14  15
HETATM   15  N   UNL     1     -10.806   9.955  69.705  1.00  0.00    -0.252 NA 
HETATM   16  C   UNL     1     -11.068   9.878  71.055  1.00  0.00    -0.331 A  
HETATM   17  N   UNL     1     -11.188   8.629  71.469  1.00  0.00    -0.268 NA 
HETATM   18  C   UNL     1     -10.999   7.859  70.339  1.00  0.00    -0.249 A  
HETATM   19  C   UNL     1     -10.750   8.672  69.267  1.00  0.00    -0.136 A  
HETATM   20  N   UNL     1     -10.530   8.195  68.037  1.00  0.00    -0.208 NA 
HETATM   21  C   UNL     1     -10.622   6.838  67.877  1.00  0.00    -0.242 C  
HETATM   22  N   UNL     1     -10.460   6.437  66.590  1.00  0.00    -0.428 NA 
HETATM   23  N   UNL     1     -10.852   5.971  68.818  1.00  0.00    -0.313 N  
HETATM   24  H2  UNL     1     -10.286   7.082  65.819  1.00  0.00     0.000 HD 
HETATM   25  H1  UNL     1     -10.528   5.427  66.471  1.00  0.00     0.000 HD 
HETATM   26  C   UNL     1     -11.042   6.402  70.140  1.00  0.00    -0.365 C  
HETATM   27  H   UNL     1     -10.894   4.976  68.595  1.00  0.00     0.000 HD 
HETATM   28  O   UNL     1     -11.231   5.619  71.064  1.00  0.00    -0.200 OA 
ENDBRANCH  14  15
ENDBRANCH  13  14
ENDBRANCH  12  13
ENDBRANCH  11  12
ENDBRANCH  10  11
ENDBRANCH   8  10
ENDBRANCH   3   8
TORSDOF 7
ENDMDL
MODEL       79
REMARK 921   NORMALIZED FREE ENERGY PREDICTED BY IDOCK:   -5.60 KCAL/MOL
REMARK 922        TOTAL FREE ENERGY PREDICTED BY IDOCK:   -8.43 KCAL/MOL
REMARK 923 INTER-LIGAND FREE ENERGY PREDICTED BY IDOCK:   -8.04 KCAL/MOL
REMARK 924 INTRA-LIGAND FREE ENERGY PREDICTED BY IDOCK:   -0.40 KCAL/MOL
REMARK 927      BINDING AFFINITY PREDICTED BY RF-SCORE:    0.00 PKD
ROOT
HETATM    1  C   UNL     1      -8.787   9.989  67.361  1.00  0.00    -0.132 C  
HETATM    2  C   UNL     1      -8.505   8.709  68.155  1.00  0.00    -0.131 C  
HETATM    3  C   UNL     1      -9.754   8.169  68.896  1.00  0.00    -0.156 C  
HETATM    4  C   UNL     1      -7.896   7.650  67.226  1.00  0.00    -0.117 C  
HETATM    5  H1  UNL     1     -11.650   7.445  68.435  1.00  0.00     0.000 HD 
HETATM    6  N   UNL     1     -10.829   7.801  67.947  1.00  0.00    -0.476 NA 
HETATM    7  H2  UNL     1     -10.496   7.141  67.244  1.00  0.00     0.000 HD 
ENDROOT
BRANCH   3   8
HETATM    8  C   UNL     1     -10.304   9.166  69.941  1.00  0.00    -0.212 C  
HETATM    9  O   UNL     1      -9.890   9.283  71.089  1.00  0.00    -0.285 OA 
BRANCH   8  10
HETATM   10  O   UNL     1     -11.276   9.957  69.401  1.00  0.00    -0.221 OA 
BRANCH  10  11
HETATM   11  C   UNL     1     -12.005  10.755  70.355  1.00  0.00    -0.357 C  
BRANCH  11  12
HETATM   12  C   UNL     1     -11.787  12.244  70.086  1.00  0.00    -0.272 C  
BRANCH  12  13
HETATM   13  O   UNL     1     -11.409  12.396  68.716  1.00  0.00    -0.249 OA 
BRANCH  13  14
HETATM   14  C   UNL     1     -10.184  13.116  68.574  1.00  0.00    -0.215 C  
BRANCH  14  15
HETATM   15  N   UNL     1     -10.365  14.197  67.622  1.00  0.00    -0.240 NA 
HETATM   16  C   UNL     1      -9.869  15.473  67.774  1.00  0.00    -0.213 A  
HETATM   17  N   UNL     1     -10.152  16.243  66.740  1.00  0.00    -0.269 NA 
HETATM   18  C   UNL     1     -10.859  15.434  65.874  1.00  0.00    -0.325 A  
HETATM   19  C   UNL     1     -11.001  14.189  66.423  1.00  0.00    -0.311 A  
HETATM   20  N   UNL     1     -11.645  13.196  65.801  1.00  0.00    -0.333 NA 
HETATM   21  C   UNL     1     -12.117  13.461  64.544  1.00  0.00    -0.409 C  
HETATM   22  N   UNL     1     -12.693  12.385  63.949  1.00  0.00    -0.738 NA 
HETATM   23  N   UNL     1     -12.042  14.601  63.923  1.00  0.00    -0.920 N  
HETATM   24  H2  UNL     1     -12.767  11.470  64.394  1.00  0.00     0.000 HD 
HETATM   25  H1  UNL     1     -13.044  12.582  63.012  1.00  0.00     0.000 HD 
HETATM   26  C   UNL     1     -11.422  15.698  64.541  1.00  0.00    -0.300 C  
HETATM   27  H   UNL     1     -12.433  14.697  62.985  1.00  0.00     0.000 HD 
HETATM   28  O   UNL     1     -11.354  16.799  64.006  1.00  0.00    -1.153 OA 
ENDBRANCH  14  15
ENDBRANCH  13  14
ENDBRANCH  12  13
ENDBRANCH  11  12
ENDBRANCH  10  11
ENDBRANCH   8  10
ENDBRANCH   3   8
TORSDOF 7
ENDMDL
MODEL       80
REMARK 921   NORMALIZED FREE ENERGY PREDICTED BY IDOCK:   -5.60 KCAL/MOL
REMARK 922        TOTAL FREE ENERGY PREDICTED BY IDOCK:   -8.43 KCAL/MOL
REMARK 923 INTER-LIGAND FREE ENERGY PREDICTED BY IDOCK:   -6.90 KCAL/MOL
REMARK 924 INTRA-LIGAND FREE ENERGY PREDICTED BY IDOCK:   -1.53 KCAL/MOL
REMARK 927      BINDING AFFINITY PREDICTED BY RF-SCORE:    0.00 PKD
ROOT
HETATM    1  C   UNL     1      -7.059   7.874  67.836  1.00  0.00    -0.086 C  
HETATM    2  C   UNL     1      -7.080   9.323  67.337  1.00  0.00    -0.079 C  
HETATM    3  C   UNL     1      -8.501   9.940  67.331  1.00  0.00    -0.118 C  
HETATM    4  C   UNL     1      -6.101  10.167  68.164  1.00  0.00    -0.048 C  
HETATM    5  H1  UNL     1     -10.008  10.403  68.690  1.00  0.00     0.000 HD 
HETATM    6  N   UNL     1      -9.073   9.997  68.694  1.00  0.00    -0.134 NA 
HETATM    7  H2  UNL     1      -8.454  10.490  69.338  1.00  0.00     0.000 HD 
ENDROOT
BRANCH   3   8
HETATM    8  C   UNL     1      -9.473   9.188  66.392  1.00  0.00    -0.227 C  
HETATM    9  O   UNL     1     -10.511   8.640  66.746  1.00  0.00    -0.291 OA 
BRANCH   8  10
HETATM   10  O   UNL     1      -9.061   9.267  65.094  1.00  0.00    -0.214 OA 
BRANCH  10  11
HETATM   11  C   UNL     1      -9.079  10.597  64.535  1.00  0.00    -0.217 C  
BRANCH  11  12
HETATM   12  C   UNL     1     -10.267  10.762  63.586  1.00  0.00    -0.261 C  
BRANCH  12  13
HETATM   13  O   UNL     1     -10.414  12.156  63.301  1.00  0.00    -0.432 OA 
BRANCH  13  14
HETATM   14  C   UNL     1     -11.693  12.652  63.696  1.00  0.00    -0.522 C  
BRANCH  14  15
HETATM   15  N   UNL     1     -11.544  13.496  64.868  1.00  0.00    -0.324 NA 
HETATM   16  C   UNL     1     -11.332  14.857  64.837  1.00  0.00    -0.413 A  
HETATM   17  N   UNL     1     -11.270  15.379  66.049  1.00  0.00    -0.234 NA 
HETATM   18  C   UNL     1     -11.454  14.313  66.906  1.00  0.00    -0.363 A  
HETATM   19  C   UNL     1     -11.605  13.163  66.181  1.00  0.00    -0.355 A  
HETATM   20  N   UNL     1     -11.801  11.970  66.755  1.00  0.00    -0.614 NA 
HETATM   21  C   UNL     1     -11.904  11.953  68.119  1.00  0.00    -0.270 C  
HETATM   22  N   UNL     1     -12.176  10.721  68.622  1.00  0.00    -0.827 NA 
HETATM   23  N   UNL     1     -11.779  12.978  68.910  1.00  0.00    -0.309 N  
HETATM   24  H2  UNL     1     -12.292   9.891  68.040  1.00  0.00     0.000 HD 
HETATM   25  H1  UNL     1     -12.253  10.708  69.639  1.00  0.00     0.000 HD 
HETATM   26  C   UNL     1     -11.521  14.250  68.374  1.00  0.00    -0.301 C  
HETATM   27  H   UNL     1     -11.867  12.858  69.919  1.00  0.00     0.000 HD 
HETATM   28  O   UNL     1     -11.366  15.239  69.082  1.00  0.00    -0.260 OA 
ENDBRANCH  14  15
ENDBRANCH  13  14
ENDBRANCH  12  13
ENDBRANCH  11  12
ENDBRANCH  10  11
ENDBRANCH   8  10
ENDBRANCH   3   8
TORSDOF 7
ENDMDL
MODEL       81
REMARK 921   NORMALIZED FREE ENERGY PREDICTED BY IDOCK:   -5.55 KCAL/MOL
REMARK 922        TOTAL FREE ENERGY PREDICTED BY IDOCK:   -8.37 KCAL/MOL
REMARK 923 INTER-LIGAND FREE ENERGY PREDICTED BY IDOCK:   -7.65 KCAL/MOL
REMARK 924 INTRA-LIGAND FREE ENERGY PREDICTED BY IDOCK:   -0.72 KCAL/MOL
REMARK 927      BINDING AFFINITY PREDICTED BY RF-SCORE:    0.00 PKD
ROOT
HETATM    1  C   UNL     1     -12.335  14.277  64.359  1.00  0.00    -0.417 C  
HETATM    2  C   UNL     1     -11.282  13.167  64.278  1.00  0.00    -0.422 C  
HETATM    3  C   UNL     1     -10.819  12.669  65.671  1.00  0.00    -0.274 C  
HETATM    4  C   UNL     1     -11.812  12.015  63.413  1.00  0.00    -0.542 C  
HETATM    5  H1  UNL     1     -11.637  11.750  67.349  1.00  0.00     0.000 HD 
HETATM    6  N   UNL     1     -11.941  12.077  66.433  1.00  0.00    -0.593 NA 
HETATM    7  H2  UNL     1     -12.402  11.336  65.905  1.00  0.00     0.000 HD 
ENDROOT
BRANCH   3   8
HETATM    8  C   UNL     1     -10.152  13.783  66.510  1.00  0.00    -0.286 C  
HETATM    9  O   UNL     1      -9.170  14.431  66.166  1.00  0.00    -0.231 OA 
BRANCH   8  10
HETATM   10  O   UNL     1     -10.841  14.004  67.667  1.00  0.00    -0.257 OA 
BRANCH  10  11
HETATM   11  C   UNL     1     -11.506  15.281  67.739  1.00  0.00    -0.303 C  
BRANCH  11  12
HETATM   12  C   UNL     1     -11.405  15.860  69.151  1.00  0.00    -0.366 C  
BRANCH  12  13
HETATM   13  O   UNL     1     -10.622  17.054  69.084  1.00  0.00    -0.329 OA 
BRANCH  13  14
HETATM   14  C   UNL     1      -9.241  16.777  68.847  1.00  0.00    -0.234 C  
BRANCH  14  15
HETATM   15  N   UNL     1      -8.706  17.750  67.911  1.00  0.00    -0.246 NA 
HETATM   16  C   UNL     1      -9.042  17.829  66.578  1.00  0.00    -0.264 A  
HETATM   17  N   UNL     1      -8.433  18.831  65.970  1.00  0.00    -0.489 NA 
HETATM   18  C   UNL     1      -7.670  19.433  66.950  1.00  0.00    -0.251 A  
HETATM   19  C   UNL     1      -7.827  18.760  68.130  1.00  0.00    -0.288 A  
HETATM   20  N   UNL     1      -7.204  19.125  69.257  1.00  0.00    -0.292 NA 
HETATM   21  C   UNL     1      -6.433  20.254  69.195  1.00  0.00    -0.273 C  
HETATM   22  N   UNL     1      -5.894  20.602  70.391  1.00  0.00    -0.527 NA 
HETATM   23  N   UNL     1      -6.210  20.972  68.134  1.00  0.00    -0.343 N  
HETATM   24  H2  UNL     1      -6.047  20.074  71.251  1.00  0.00     0.000 HD 
HETATM   25  H1  UNL     1      -5.319  21.443  70.346  1.00  0.00     0.000 HD 
HETATM   26  C   UNL     1      -6.794  20.614  66.908  1.00  0.00    -0.293 C  
HETATM   27  H   UNL     1      -5.611  21.796  68.192  1.00  0.00     0.000 HD 
HETATM   28  O   UNL     1      -6.589  21.243  65.876  1.00  0.00    -0.124 OA 
ENDBRANCH  14  15
ENDBRANCH  13  14
ENDBRANCH  12  13
ENDBRANCH  11  12
ENDBRANCH  10  11
ENDBRANCH   8  10
ENDBRANCH   3   8
TORSDOF 7
ENDMDL
MODEL       82
REMARK 921   NORMALIZED FREE ENERGY PREDICTED BY IDOCK:   -5.55 KCAL/MOL
REMARK 922        TOTAL FREE ENERGY PREDICTED BY IDOCK:   -8.37 KCAL/MOL
REMARK 923 INTER-LIGAND FREE ENERGY PREDICTED BY IDOCK:   -7.08 KCAL/MOL
REMARK 924 INTRA-LIGAND FREE ENERGY PREDICTED BY IDOCK:   -1.28 KCAL/MOL
REMARK 927      BINDING AFFINITY PREDICTED BY RF-SCORE:    0.00 PKD
ROOT
HETATM    1  C   UNL     1     -12.310  14.278  66.324  1.00  0.00    -0.399 C  
HETATM    2  C   UNL     1     -11.020  14.810  65.692  1.00  0.00    -0.345 C  
HETATM    3  C   UNL     1      -9.901  15.076  66.730  1.00  0.00    -0.243 C  
HETATM    4  C   UNL     1     -10.552  13.851  64.589  1.00  0.00    -0.432 C  
HETATM    5  H1  UNL     1      -8.765  14.006  68.107  1.00  0.00     0.000 HD 
HETATM    6  N   UNL     1      -9.501  13.832  67.424  1.00  0.00    -0.216 NA 
HETATM    7  H2  UNL     1      -9.230  13.105  66.761  1.00  0.00     0.000 HD 
ENDROOT
BRANCH   3   8
HETATM    8  C   UNL     1     -10.298  16.146  67.774  1.00  0.00    -0.283 C  
HETATM    9  O   UNL     1     -10.549  17.319  67.519  1.00  0.00    -0.354 OA 
BRANCH   8  10
HETATM   10  O   UNL     1     -10.402  15.601  69.020  1.00  0.00    -0.205 OA 
BRANCH  10  11
HETATM   11  C   UNL     1     -11.652  15.860  69.690  1.00  0.00    -0.336 C  
BRANCH  11  12
HETATM   12  C   UNL     1     -11.456  15.864  71.207  1.00  0.00    -0.430 C  
BRANCH  12  13
HETATM   13  O   UNL     1     -11.808  14.569  71.701  1.00  0.00    -0.320 OA 
BRANCH  13  14
HETATM   14  C   UNL     1     -12.690  13.879  70.816  1.00  0.00    -0.313 C  
BRANCH  14  15
HETATM   15  N   UNL     1     -12.559  12.448  71.019  1.00  0.00    -0.325 NA 
HETATM   16  C   UNL     1     -13.143  11.740  72.047  1.00  0.00    -0.331 A  
HETATM   17  N   UNL     1     -12.887  10.447  71.969  1.00  0.00    -0.408 NA 
HETATM   18  C   UNL     1     -12.105  10.305  70.840  1.00  0.00    -0.368 A  
HETATM   19  C   UNL     1     -11.894  11.531  70.272  1.00  0.00    -0.342 A  
HETATM   20  N   UNL     1     -11.168  11.694  69.160  1.00  0.00    -0.246 NA 
HETATM   21  C   UNL     1     -10.684  10.559  68.569  1.00  0.00    -0.224 C  
HETATM   22  N   UNL     1     -10.022  10.799  67.408  1.00  0.00    -0.180 NA 
HETATM   23  N   UNL     1     -10.820   9.345  69.016  1.00  0.00    -0.369 N  
HETATM   24  H2  UNL     1      -9.898  11.732  67.015  1.00  0.00     0.000 HD 
HETATM   25  H1  UNL     1      -9.661   9.953  66.967  1.00  0.00     0.000 HD 
HETATM   26  C   UNL     1     -11.528   9.110  70.205  1.00  0.00    -0.146 C  
HETATM   27  H   UNL     1     -10.413   8.564  68.501  1.00  0.00     0.000 HD 
HETATM   28  O   UNL     1     -11.656   7.987  70.680  1.00  0.00    -0.272 OA 
ENDBRANCH  14  15
ENDBRANCH  13  14
ENDBRANCH  12  13
ENDBRANCH  11  12
ENDBRANCH  10  11
ENDBRANCH   8  10
ENDBRANCH   3   8
TORSDOF 7
ENDMDL
MODEL       83
REMARK 921   NORMALIZED FREE ENERGY PREDICTED BY IDOCK:   -5.54 KCAL/MOL
REMARK 922        TOTAL FREE ENERGY PREDICTED BY IDOCK:   -8.35 KCAL/MOL
REMARK 923 INTER-LIGAND FREE ENERGY PREDICTED BY IDOCK:   -7.70 KCAL/MOL
REMARK 924 INTRA-LIGAND FREE ENERGY PREDICTED BY IDOCK:   -0.64 KCAL/MOL
REMARK 927      BINDING AFFINITY PREDICTED BY RF-SCORE:    0.00 PKD
ROOT
HETATM    1  C   UNL     1      -8.530   5.219  67.315  1.00  0.00    -0.106 C  
HETATM    2  C   UNL     1     -10.021   4.999  67.038  1.00  0.00    -0.231 C  
HETATM    3  C   UNL     1     -10.893   6.226  67.404  1.00  0.00    -0.363 C  
HETATM    4  C   UNL     1     -10.218   4.582  65.574  1.00  0.00    -0.251 C  
HETATM    5  H1  UNL     1     -11.100   8.217  66.838  1.00  0.00     0.000 HD 
HETATM    6  N   UNL     1     -10.526   7.410  66.597  1.00  0.00    -0.509 NA 
HETATM    7  H2  UNL     1     -10.566   7.208  65.597  1.00  0.00     0.000 HD 
ENDROOT
BRANCH   3   8
HETATM    8  C   UNL     1     -10.821   6.580  68.908  1.00  0.00    -0.301 C  
HETATM    9  O   UNL     1     -11.161   5.839  69.823  1.00  0.00    -0.369 OA 
BRANCH   8  10
HETATM   10  O   UNL     1     -10.264   7.811  69.094  1.00  0.00    -0.198 OA 
BRANCH  10  11
HETATM   11  C   UNL     1     -10.608   8.447  70.342  1.00  0.00    -0.223 C  
BRANCH  11  12
HETATM   12  C   UNL     1     -10.592   9.969  70.191  1.00  0.00    -0.296 C  
BRANCH  12  13
HETATM   13  O   UNL     1     -11.020  10.286  68.864  1.00  0.00    -0.219 OA 
BRANCH  13  14
HETATM   14  C   UNL     1     -11.960  11.360  68.846  1.00  0.00    -0.304 C  
BRANCH  14  15
HETATM   15  N   UNL     1     -11.376  12.505  68.172  1.00  0.00    -0.272 NA 
HETATM   16  C   UNL     1     -10.550  13.433  68.766  1.00  0.00    -0.210 A  
HETATM   17  N   UNL     1     -10.134  14.349  67.911  1.00  0.00    -0.226 NA 
HETATM   18  C   UNL     1     -10.710  14.000  66.706  1.00  0.00    -0.285 A  
HETATM   19  C   UNL     1     -11.480  12.883  66.873  1.00  0.00    -0.341 A  
HETATM   20  N   UNL     1     -12.159  12.319  65.867  1.00  0.00    -0.620 NA 
HETATM   21  C   UNL     1     -12.003  12.880  64.629  1.00  0.00    -0.392 C  
HETATM   22  N   UNL     1     -12.662  12.209  63.649  1.00  0.00    -0.754 NA 
HETATM   23  N   UNL     1     -11.300  13.938  64.350  1.00  0.00    -0.504 N  
HETATM   24  H2  UNL     1     -13.218  11.371  63.819  1.00  0.00     0.000 HD 
HETATM   25  H1  UNL     1     -12.546  12.627  62.726  1.00  0.00     0.000 HD 
HETATM   26  C   UNL     1     -10.605  14.607  65.370  1.00  0.00    -0.374 C  
HETATM   27  H   UNL     1     -11.254  14.282  63.391  1.00  0.00     0.000 HD 
HETATM   28  O   UNL     1      -9.954  15.625  65.160  1.00  0.00    -0.357 OA 
ENDBRANCH  14  15
ENDBRANCH  13  14
ENDBRANCH  12  13
ENDBRANCH  11  12
ENDBRANCH  10  11
ENDBRANCH   8  10
ENDBRANCH   3   8
TORSDOF 7
ENDMDL
MODEL       84
REMARK 921   NORMALIZED FREE ENERGY PREDICTED BY IDOCK:   -5.53 KCAL/MOL
REMARK 922        TOTAL FREE ENERGY PREDICTED BY IDOCK:   -8.34 KCAL/MOL
REMARK 923 INTER-LIGAND FREE ENERGY PREDICTED BY IDOCK:   -7.56 KCAL/MOL
REMARK 924 INTRA-LIGAND FREE ENERGY PREDICTED BY IDOCK:   -0.78 KCAL/MOL
REMARK 927      BINDING AFFINITY PREDICTED BY RF-SCORE:    0.00 PKD
ROOT
HETATM    1  C   UNL     1      -7.048  10.438  65.932  1.00  0.00    -0.135 C  
HETATM    2  C   UNL     1      -8.335  10.999  66.548  1.00  0.00    -0.163 C  
HETATM    3  C   UNL     1      -9.608  10.598  65.760  1.00  0.00    -0.210 C  
HETATM    4  C   UNL     1      -8.426  10.580  68.021  1.00  0.00    -0.120 C  
HETATM    5  H1  UNL     1     -10.635   8.867  65.232  1.00  0.00     0.000 HD 
HETATM    6  N   UNL     1      -9.797   9.130  65.750  1.00  0.00    -0.444 NA 
HETATM    7  H2  UNL     1      -9.807   8.748  66.696  1.00  0.00     0.000 HD 
ENDROOT
BRANCH   3   8
HETATM    8  C   UNL     1      -9.602  11.130  64.308  1.00  0.00    -0.252 C  
HETATM    9  O   UNL     1      -9.308  10.471  63.318  1.00  0.00    -0.254 OA 
BRANCH   8  10
HETATM   10  O   UNL     1     -10.036  12.423  64.259  1.00  0.00    -0.315 OA 
BRANCH  10  11
HETATM   11  C   UNL     1     -11.451  12.593  64.481  1.00  0.00    -0.339 C  
BRANCH  11  12
HETATM   12  C   UNL     1     -11.719  13.875  65.272  1.00  0.00    -0.340 C  
BRANCH  12  13
HETATM   13  O   UNL     1     -12.251  13.504  66.547  1.00  0.00    -0.407 OA 
BRANCH  13  14
HETATM   14  C   UNL     1     -11.229  13.364  67.534  1.00  0.00    -0.284 C  
BRANCH  14  15
HETATM   15  N   UNL     1     -11.769  13.689  68.841  1.00  0.00    -0.315 NA 
HETATM   16  C   UNL     1     -12.022  14.965  69.295  1.00  0.00    -0.291 A  
HETATM   17  N   UNL     1     -12.547  14.967  70.507  1.00  0.00    -0.359 NA 
HETATM   18  C   UNL     1     -12.644  13.636  70.857  1.00  0.00    -0.346 A  
HETATM   19  C   UNL     1     -12.154  12.859  69.843  1.00  0.00    -0.265 A  
HETATM   20  N   UNL     1     -12.125  11.523  69.909  1.00  0.00    -0.319 NA 
HETATM   21  C   UNL     1     -12.668  10.949  71.026  1.00  0.00    -0.407 C  
HETATM   22  N   UNL     1     -12.669   9.592  70.987  1.00  0.00    -0.457 NA 
HETATM   23  N   UNL     1     -13.161  11.583  72.049  1.00  0.00    -0.520 N  
HETATM   24  H2  UNL     1     -12.301   9.054  70.203  1.00  0.00     0.000 HD 
HETATM   25  H1  UNL     1     -13.074   9.165  71.819  1.00  0.00     0.000 HD 
HETATM   26  C   UNL     1     -13.175  12.987  72.065  1.00  0.00    -0.444 C  
HETATM   27  H   UNL     1     -13.538  11.060  72.840  1.00  0.00     0.000 HD 
HETATM   28  O   UNL     1     -13.602  13.627  73.020  1.00  0.00    -0.578 OA 
ENDBRANCH  14  15
ENDBRANCH  13  14
ENDBRANCH  12  13
ENDBRANCH  11  12
ENDBRANCH  10  11
ENDBRANCH   8  10
ENDBRANCH   3   8
TORSDOF 7
ENDMDL
MODEL       85
REMARK 921   NORMALIZED FREE ENERGY PREDICTED BY IDOCK:   -5.53 KCAL/MOL
REMARK 922        TOTAL FREE ENERGY PREDICTED BY IDOCK:   -8.34 KCAL/MOL
REMARK 923 INTER-LIGAND FREE ENERGY PREDICTED BY IDOCK:   -7.71 KCAL/MOL
REMARK 924 INTRA-LIGAND FREE ENERGY PREDICTED BY IDOCK:   -0.63 KCAL/MOL
REMARK 927      BINDING AFFINITY PREDICTED BY RF-SCORE:    0.00 PKD
ROOT
HETATM    1  C   UNL     1      -9.443  20.533  67.079  1.00  0.00    -0.516 C  
HETATM    2  C   UNL     1      -8.771  19.378  67.828  1.00  0.00    -0.352 C  
HETATM    3  C   UNL     1      -8.748  18.060  67.015  1.00  0.00    -0.247 C  
HETATM    4  C   UNL     1      -7.360  19.798  68.264  1.00  0.00    -0.349 C  
HETATM    5  H1  UNL     1      -7.955  17.341  65.230  1.00  0.00     0.000 HD 
HETATM    6  N   UNL     1      -7.970  18.209  65.765  1.00  0.00    -0.515 NA 
HETATM    7  H2  UNL     1      -7.026  18.549  65.951  1.00  0.00     0.000 HD 
ENDROOT
BRANCH   3   8
HETATM    8  C   UNL     1     -10.167  17.540  66.683  1.00  0.00    -0.332 C  
HETATM    9  O   UNL     1     -10.615  17.389  65.552  1.00  0.00    -0.595 OA 
BRANCH   8  10
HETATM   10  O   UNL     1     -10.843  17.203  67.820  1.00  0.00    -0.348 OA 
BRANCH  10  11
HETATM   11  C   UNL     1     -11.348  15.853  67.843  1.00  0.00    -0.252 C  
BRANCH  11  12
HETATM   12  C   UNL     1     -10.233  14.870  68.207  1.00  0.00    -0.225 C  
BRANCH  12  13
HETATM   13  O   UNL     1     -10.750  13.544  68.066  1.00  0.00    -0.240 OA 
BRANCH  13  14
HETATM   14  C   UNL     1     -11.852  13.492  67.159  1.00  0.00    -0.387 C  
BRANCH  14  15
HETATM   15  N   UNL     1     -11.410  12.941  65.891  1.00  0.00    -0.301 NA 
HETATM   16  C   UNL     1     -11.457  13.604  64.684  1.00  0.00    -0.365 A  
HETATM   17  N   UNL     1     -10.956  12.880  63.699  1.00  0.00    -0.358 NA 
HETATM   18  C   UNL     1     -10.562  11.696  64.290  1.00  0.00    -0.340 A  
HETATM   19  C   UNL     1     -10.856  11.731  65.625  1.00  0.00    -0.292 A  
HETATM   20  N   UNL     1     -10.581  10.714  66.450  1.00  0.00    -0.210 NA 
HETATM   21  C   UNL     1      -9.931   9.639  65.907  1.00  0.00    -0.281 C  
HETATM   22  N   UNL     1      -9.623   8.682  66.819  1.00  0.00    -0.188 NA 
HETATM   23  N   UNL     1      -9.603   9.495  64.657  1.00  0.00    -0.424 N  
HETATM   24  H2  UNL     1      -9.852   8.756  67.810  1.00  0.00     0.000 HD 
HETATM   25  H1  UNL     1      -9.138   7.881  66.414  1.00  0.00     0.000 HD 
HETATM   26  C   UNL     1      -9.908  10.504  63.730  1.00  0.00    -0.300 C  
HETATM   27  H   UNL     1      -9.125   8.647  64.350  1.00  0.00     0.000 HD 
HETATM   28  O   UNL     1      -9.645  10.398  62.537  1.00  0.00    -0.292 OA 
ENDBRANCH  14  15
ENDBRANCH  13  14
ENDBRANCH  12  13
ENDBRANCH  11  12
ENDBRANCH  10  11
ENDBRANCH   8  10
ENDBRANCH   3   8
TORSDOF 7
ENDMDL
MODEL       86
REMARK 921   NORMALIZED FREE ENERGY PREDICTED BY IDOCK:   -5.50 KCAL/MOL
REMARK 922        TOTAL FREE ENERGY PREDICTED BY IDOCK:   -8.29 KCAL/MOL
REMARK 923 INTER-LIGAND FREE ENERGY PREDICTED BY IDOCK:   -7.89 KCAL/MOL
REMARK 924 INTRA-LIGAND FREE ENERGY PREDICTED BY IDOCK:   -0.39 KCAL/MOL
REMARK 927      BINDING AFFINITY PREDICTED BY RF-SCORE:    0.00 PKD
ROOT
HETATM    1  C   UNL     1     -10.815   9.020  71.085  1.00  0.00    -0.364 C  
HETATM    2  C   UNL     1      -9.540   8.187  71.255  1.00  0.00    -0.203 C  
HETATM    3  C   UNL     1      -8.402   8.618  70.295  1.00  0.00    -0.129 C  
HETATM    4  C   UNL     1      -9.088   8.230  72.721  1.00  0.00    -0.332 C  
HETATM    5  H1  UNL     1      -7.234  10.298  69.914  1.00  0.00     0.000 HD 
HETATM    6  N   UNL     1      -7.983  10.015  70.545  1.00  0.00    -0.424 NA 
HETATM    7  H2  UNL     1      -7.722  10.157  71.521  1.00  0.00     0.000 HD 
ENDROOT
BRANCH   3   8
HETATM    8  C   UNL     1      -8.785   8.451  68.806  1.00  0.00    -0.136 C  
HETATM    9  O   UNL     1      -9.104   7.392  68.276  1.00  0.00    -0.130 OA 
BRANCH   8  10
HETATM   10  O   UNL     1      -8.787   9.654  68.162  1.00  0.00    -0.120 OA 
BRANCH  10  11
HETATM   11  C   UNL     1      -9.722   9.751  67.069  1.00  0.00    -0.183 C  
BRANCH  11  12
HETATM   12  C   UNL     1     -11.127  10.054  67.590  1.00  0.00    -0.153 C  
BRANCH  12  13
HETATM   13  O   UNL     1     -11.488  11.367  67.151  1.00  0.00    -0.450 OA 
BRANCH  13  14
HETATM   14  C   UNL     1     -11.652  12.271  68.244  1.00  0.00    -0.331 C  
BRANCH  14  15
HETATM   15  N   UNL     1     -11.234  13.601  67.840  1.00  0.00    -0.263 NA 
HETATM   16  C   UNL     1     -10.538  14.484  68.636  1.00  0.00    -0.255 A  
HETATM   17  N   UNL     1     -10.256  15.608  68.003  1.00  0.00    -0.225 NA 
HETATM   18  C   UNL     1     -10.787  15.449  66.739  1.00  0.00    -0.306 A  
HETATM   19  C   UNL     1     -11.397  14.229  66.649  1.00  0.00    -0.349 A  
HETATM   20  N   UNL     1     -11.999  13.804  65.532  1.00  0.00    -0.363 NA 
HETATM   21  C   UNL     1     -11.930  14.631  64.443  1.00  0.00    -0.437 C  
HETATM   22  N   UNL     1     -12.498  14.102  63.330  1.00  0.00    -1.098 NA 
HETATM   23  N   UNL     1     -11.379  15.809  64.410  1.00  0.00    -0.742 N  
HETATM   24  H2  UNL     1     -12.933  13.179  63.306  1.00  0.00     0.000 HD 
HETATM   25  H1  UNL     1     -12.446  14.717  62.519  1.00  0.00     0.000 HD 
HETATM   26  C   UNL     1     -10.774  16.334  65.563  1.00  0.00    -0.313 C  
HETATM   27  H   UNL     1     -11.387  16.351  63.546  1.00  0.00     0.000 HD 
HETATM   28  O   UNL     1     -10.269  17.451  65.588  1.00  0.00    -0.586 OA 
ENDBRANCH  14  15
ENDBRANCH  13  14
ENDBRANCH  12  13
ENDBRANCH  11  12
ENDBRANCH  10  11
ENDBRANCH   8  10
ENDBRANCH   3   8
TORSDOF 7
ENDMDL
MODEL       87
REMARK 921   NORMALIZED FREE ENERGY PREDICTED BY IDOCK:   -5.49 KCAL/MOL
REMARK 922        TOTAL FREE ENERGY PREDICTED BY IDOCK:   -8.28 KCAL/MOL
REMARK 923 INTER-LIGAND FREE ENERGY PREDICTED BY IDOCK:   -7.27 KCAL/MOL
REMARK 924 INTRA-LIGAND FREE ENERGY PREDICTED BY IDOCK:   -1.02 KCAL/MOL
REMARK 927      BINDING AFFINITY PREDICTED BY RF-SCORE:    0.00 PKD
ROOT
HETATM    1  C   UNL     1     -12.199  12.241  63.819  1.00  0.00    -0.642 C  
HETATM    2  C   UNL     1     -10.668  12.276  63.881  1.00  0.00    -0.463 C  
HETATM    3  C   UNL     1     -10.122  12.314  65.331  1.00  0.00    -0.269 C  
HETATM    4  C   UNL     1     -10.093  11.093  63.091  1.00  0.00    -0.373 C  
HETATM    5  H1  UNL     1     -10.148  11.127  67.040  1.00  0.00     0.000 HD 
HETATM    6  N   UNL     1     -10.508  11.102  66.086  1.00  0.00    -0.250 NA 
HETATM    7  H2  UNL     1     -10.220  10.252  65.601  1.00  0.00     0.000 HD 
ENDROOT
BRANCH   3   8
HETATM    8  C   UNL     1     -10.576  13.574  66.105  1.00  0.00    -0.290 C  
HETATM    9  O   UNL     1     -10.409  14.729  65.730  1.00  0.00    -0.301 OA 
BRANCH   8  10
HETATM   10  O   UNL     1     -11.253  13.233  67.240  1.00  0.00    -0.274 OA 
BRANCH  10  11
HETATM   11  C   UNL     1     -10.729  13.815  68.451  1.00  0.00    -0.254 C  
BRANCH  11  12
HETATM   12  C   UNL     1     -11.809  14.631  69.164  1.00  0.00    -0.312 C  
BRANCH  12  13
HETATM   13  O   UNL     1     -11.783  15.958  68.633  1.00  0.00    -0.387 OA 
BRANCH  13  14
HETATM   14  C   UNL     1     -10.762  16.755  69.234  1.00  0.00    -0.324 C  
BRANCH  14  15
HETATM   15  N   UNL     1     -10.053  17.492  68.203  1.00  0.00    -0.321 NA 
HETATM   16  C   UNL     1     -10.475  18.683  67.654  1.00  0.00    -0.423 A  
HETATM   17  N   UNL     1      -9.619  19.150  66.763  1.00  0.00    -0.316 NA 
HETATM   18  C   UNL     1      -8.594  18.226  66.734  1.00  0.00    -0.261 A  
HETATM   19  C   UNL     1      -8.871  17.207  67.603  1.00  0.00    -0.218 A  
HETATM   20  N   UNL     1      -8.046  16.168  67.782  1.00  0.00    -0.144 NA 
HETATM   21  C   UNL     1      -6.865  16.194  67.091  1.00  0.00    -0.205 C  
HETATM   22  N   UNL     1      -6.051  15.147  67.380  1.00  0.00    -0.331 NA 
HETATM   23  N   UNL     1      -6.495  17.106  66.241  1.00  0.00    -0.196 N  
HETATM   24  H2  UNL     1      -6.296  14.413  68.045  1.00  0.00     0.000 HD 
HETATM   25  H1  UNL     1      -5.171  15.166  66.865  1.00  0.00     0.000 HD 
HETATM   26  C   UNL     1      -7.337  18.196  65.970  1.00  0.00    -0.255 C  
HETATM   27  H   UNL     1      -5.593  17.029  65.771  1.00  0.00     0.000 HD 
HETATM   28  O   UNL     1      -7.043  19.064  65.154  1.00  0.00    -0.457 OA 
ENDBRANCH  14  15
ENDBRANCH  13  14
ENDBRANCH  12  13
ENDBRANCH  11  12
ENDBRANCH  10  11
ENDBRANCH   8  10
ENDBRANCH   3   8
TORSDOF 7
ENDMDL
MODEL       88
REMARK 921   NORMALIZED FREE ENERGY PREDICTED BY IDOCK:   -5.49 KCAL/MOL
REMARK 922        TOTAL FREE ENERGY PREDICTED BY IDOCK:   -8.28 KCAL/MOL
REMARK 923 INTER-LIGAND FREE ENERGY PREDICTED BY IDOCK:   -8.36 KCAL/MOL
REMARK 924 INTRA-LIGAND FREE ENERGY PREDICTED BY IDOCK:    0.08 KCAL/MOL
REMARK 927      BINDING AFFINITY PREDICTED BY RF-SCORE:    0.00 PKD
ROOT
HETATM    1  C   UNL     1     -12.427  13.601  72.323  1.00  0.00     0.003 C  
HETATM    2  C   UNL     1     -12.400  15.132  72.282  1.00  0.00    -0.443 C  
HETATM    3  C   UNL     1     -12.980  15.713  70.968  1.00  0.00    -0.458 C  
HETATM    4  C   UNL     1     -13.121  15.694  73.515  1.00  0.00    -0.638 C  
HETATM    5  H1  UNL     1     -14.786  15.734  69.934  1.00  0.00     0.000 HD 
HETATM    6  N   UNL     1     -14.404  15.352  70.799  1.00  0.00    -0.758 NA 
HETATM    7  H2  UNL     1     -14.960  15.632  71.608  1.00  0.00     0.000 HD 
ENDROOT
BRANCH   3   8
HETATM    8  C   UNL     1     -12.181  15.273  69.719  1.00  0.00    -0.294 C  
HETATM    9  O   UNL     1     -12.314  14.200  69.141  1.00  0.00    -0.301 OA 
BRANCH   8  10
HETATM   10  O   UNL     1     -11.347  16.266  69.295  1.00  0.00    -0.325 OA 
BRANCH  10  11
HETATM   11  C   UNL     1     -10.901  16.138  67.930  1.00  0.00    -0.332 C  
BRANCH  11  12
HETATM   12  C   UNL     1      -9.381  15.978  67.876  1.00  0.00    -0.208 C  
BRANCH  12  13
HETATM   13  O   UNL     1      -9.035  15.480  66.580  1.00  0.00    -0.239 OA 
BRANCH  13  14
HETATM   14  C   UNL     1      -9.701  16.192  65.537  1.00  0.00    -0.088 C  
BRANCH  14  15
HETATM   15  N   UNL     1     -10.727  15.347  64.953  1.00  0.00    -0.425 NA 
HETATM   16  C   UNL     1     -11.903  15.804  64.400  1.00  0.00    -0.148 A  
HETATM   17  N   UNL     1     -12.637  14.821  63.910  1.00  0.00    -0.772 NA 
HETATM   18  C   UNL     1     -11.906  13.675  64.151  1.00  0.00    -0.422 A  
HETATM   19  C   UNL     1     -10.748  13.999  64.803  1.00  0.00    -0.427 A  
HETATM   20  N   UNL     1      -9.843  13.082  65.163  1.00  0.00    -0.128 NA 
HETATM   21  C   UNL     1     -10.098  11.788  64.796  1.00  0.00    -0.263 C  
HETATM   22  N   UNL     1      -9.102  10.929  65.130  1.00  0.00    -0.200 NA 
HETATM   23  N   UNL     1     -11.161  11.363  64.177  1.00  0.00    -0.347 N  
HETATM   24  H2  UNL     1      -8.249  11.218  65.608  1.00  0.00     0.000 HD 
HETATM   25  H1  UNL     1      -9.292   9.965  64.857  1.00  0.00     0.000 HD 
HETATM   26  C   UNL     1     -12.172  12.268  63.816  1.00  0.00    -0.546 C  
HETATM   27  H   UNL     1     -11.259  10.372  63.954  1.00  0.00     0.000 HD 
HETATM   28  O   UNL     1     -13.203  11.908  63.259  1.00  0.00    -0.602 OA 
ENDBRANCH  14  15
ENDBRANCH  13  14
ENDBRANCH  12  13
ENDBRANCH  11  12
ENDBRANCH  10  11
ENDBRANCH   8  10
ENDBRANCH   3   8
TORSDOF 7
ENDMDL
MODEL       89
REMARK 921   NORMALIZED FREE ENERGY PREDICTED BY IDOCK:   -5.49 KCAL/MOL
REMARK 922        TOTAL FREE ENERGY PREDICTED BY IDOCK:   -8.27 KCAL/MOL
REMARK 923 INTER-LIGAND FREE ENERGY PREDICTED BY IDOCK:   -7.60 KCAL/MOL
REMARK 924 INTRA-LIGAND FREE ENERGY PREDICTED BY IDOCK:   -0.67 KCAL/MOL
REMARK 927      BINDING AFFINITY PREDICTED BY RF-SCORE:    0.00 PKD
ROOT
HETATM    1  C   UNL     1     -10.112   9.307  66.221  1.00  0.00    -0.322 C  
HETATM    2  C   UNL     1     -10.025  10.252  65.017  1.00  0.00    -0.393 C  
HETATM    3  C   UNL     1     -10.033  11.748  65.419  1.00  0.00    -0.253 C  
HETATM    4  C   UNL     1      -8.792   9.900  64.174  1.00  0.00    -0.251 C  
HETATM    5  H1  UNL     1      -8.869  13.073  66.522  1.00  0.00     0.000 HD 
HETATM    6  N   UNL     1      -8.863  12.089  66.258  1.00  0.00    -0.365 NA 
HETATM    7  H2  UNL     1      -7.988  11.830  65.801  1.00  0.00     0.000 HD 
ENDROOT
BRANCH   3   8
HETATM    8  C   UNL     1     -11.333  12.161  66.149  1.00  0.00    -0.361 C  
HETATM    9  O   UNL     1     -11.420  12.401  67.348  1.00  0.00    -0.307 OA 
BRANCH   8  10
HETATM   10  O   UNL     1     -12.368  12.292  65.271  1.00  0.00    -0.555 OA 
BRANCH  10  11
HETATM   11  C   UNL     1     -12.125  13.208  64.183  1.00  0.00    -0.430 C  
BRANCH  11  12
HETATM   12  C   UNL     1     -12.214  14.655  64.671  1.00  0.00    -0.434 C  
BRANCH  12  13
HETATM   13  O   UNL     1     -11.049  15.348  64.216  1.00  0.00    -0.201 OA 
BRANCH  13  14
HETATM   14  C   UNL     1     -10.957  16.662  64.768  1.00  0.00    -0.109 C  
BRANCH  14  15
HETATM   15  N   UNL     1      -9.968  16.673  65.830  1.00  0.00    -0.472 NA 
HETATM   16  C   UNL     1      -9.291  15.564  66.288  1.00  0.00    -0.320 A  
HETATM   17  N   UNL     1      -8.423  15.868  67.236  1.00  0.00    -0.173 NA 
HETATM   18  C   UNL     1      -8.537  17.234  67.400  1.00  0.00    -0.205 A  
HETATM   19  C   UNL     1      -9.493  17.719  66.551  1.00  0.00    -0.290 A  
HETATM   20  N   UNL     1      -9.814  19.017  66.494  1.00  0.00    -0.348 NA 
HETATM   21  C   UNL     1      -9.096  19.865  67.292  1.00  0.00    -0.339 C  
HETATM   22  N   UNL     1      -9.428  21.170  67.124  1.00  0.00    -0.612 NA 
HETATM   23  N   UNL     1      -8.168  19.520  68.135  1.00  0.00    -0.310 N  
HETATM   24  H2  UNL     1     -10.142  21.488  66.469  1.00  0.00     0.000 HD 
HETATM   25  H1  UNL     1      -8.892  21.802  67.719  1.00  0.00     0.000 HD 
HETATM   26  C   UNL     1      -7.818  18.168  68.281  1.00  0.00    -0.293 C  
HETATM   27  H   UNL     1      -7.694  20.232  68.692  1.00  0.00     0.000 HD 
HETATM   28  O   UNL     1      -6.971  17.793  69.084  1.00  0.00    -0.256 OA 
ENDBRANCH  14  15
ENDBRANCH  13  14
ENDBRANCH  12  13
ENDBRANCH  11  12
ENDBRANCH  10  11
ENDBRANCH   8  10
ENDBRANCH   3   8
TORSDOF 7
ENDMDL
MODEL       90
REMARK 921   NORMALIZED FREE ENERGY PREDICTED BY IDOCK:   -5.47 KCAL/MOL
REMARK 922        TOTAL FREE ENERGY PREDICTED BY IDOCK:   -8.25 KCAL/MOL
REMARK 923 INTER-LIGAND FREE ENERGY PREDICTED BY IDOCK:   -7.71 KCAL/MOL
REMARK 924 INTRA-LIGAND FREE ENERGY PREDICTED BY IDOCK:   -0.55 KCAL/MOL
REMARK 927      BINDING AFFINITY PREDICTED BY RF-SCORE:    0.00 PKD
ROOT
HETATM    1  C   UNL     1      -8.082  18.535  66.404  1.00  0.00    -0.295 C  
HETATM    2  C   UNL     1      -9.476  19.167  66.329  1.00  0.00    -0.359 C  
HETATM    3  C   UNL     1     -10.608  18.185  66.724  1.00  0.00    -0.291 C  
HETATM    4  C   UNL     1      -9.510  20.442  67.183  1.00  0.00    -0.567 C  
HETATM    5  H1  UNL     1     -11.212  17.087  68.385  1.00  0.00     0.000 HD 
HETATM    6  N   UNL     1     -10.467  17.733  68.126  1.00  0.00    -0.382 NA 
HETATM    7  H2  UNL     1     -10.417  18.523  68.770  1.00  0.00     0.000 HD 
ENDROOT
BRANCH   3   8
HETATM    8  C   UNL     1     -10.683  16.956  65.788  1.00  0.00    -0.160 C  
HETATM    9  O   UNL     1     -10.975  16.994  64.598  1.00  0.00    -0.968 OA 
BRANCH   8  10
HETATM   10  O   UNL     1     -10.315  15.818  66.444  1.00  0.00    -0.280 OA 
BRANCH  10  11
HETATM   11  C   UNL     1     -11.333  14.797  66.497  1.00  0.00    -0.344 C  
BRANCH  11  12
HETATM   12  C   UNL     1     -10.858  13.529  65.786  1.00  0.00    -0.275 C  
BRANCH  12  13
HETATM   13  O   UNL     1     -11.098  12.419  66.655  1.00  0.00    -0.263 OA 
BRANCH  13  14
HETATM   14  C   UNL     1     -10.286  12.471  67.829  1.00  0.00    -0.222 C  
BRANCH  14  15
HETATM   15  N   UNL     1     -11.076  12.079  68.982  1.00  0.00    -0.238 NA 
HETATM   16  C   UNL     1     -11.854  12.933  69.732  1.00  0.00    -0.310 A  
HETATM   17  N   UNL     1     -12.493  12.303  70.701  1.00  0.00    -0.285 NA 
HETATM   18  C   UNL     1     -12.119  10.980  70.574  1.00  0.00    -0.377 A  
HETATM   19  C   UNL     1     -11.241  10.850  69.534  1.00  0.00    -0.277 A  
HETATM   20  N   UNL     1     -10.712   9.673  69.180  1.00  0.00    -0.221 NA 
HETATM   21  C   UNL     1     -11.136   8.574  69.876  1.00  0.00    -0.112 C  
HETATM   22  N   UNL     1     -10.613   7.410  69.412  1.00  0.00    -0.228 NA 
HETATM   23  N   UNL     1     -11.963   8.575  70.879  1.00  0.00    -0.431 N  
HETATM   24  H2  UNL     1      -9.968   7.360  68.623  1.00  0.00     0.000 HD 
HETATM   25  H1  UNL     1     -10.928   6.591  69.930  1.00  0.00     0.000 HD 
HETATM   26  C   UNL     1     -12.514   9.784  71.333  1.00  0.00    -0.387 C  
HETATM   27  H   UNL     1     -12.210   7.698  71.337  1.00  0.00     0.000 HD 
HETATM   28  O   UNL     1     -13.274   9.837  72.294  1.00  0.00    -0.437 OA 
ENDBRANCH  14  15
ENDBRANCH  13  14
ENDBRANCH  12  13
ENDBRANCH  11  12
ENDBRANCH  10  11
ENDBRANCH   8  10
ENDBRANCH   3   8
TORSDOF 7
ENDMDL
MODEL       91
REMARK 921   NORMALIZED FREE ENERGY PREDICTED BY IDOCK:   -5.45 KCAL/MOL
REMARK 922        TOTAL FREE ENERGY PREDICTED BY IDOCK:   -8.23 KCAL/MOL
REMARK 923 INTER-LIGAND FREE ENERGY PREDICTED BY IDOCK:   -7.32 KCAL/MOL
REMARK 924 INTRA-LIGAND FREE ENERGY PREDICTED BY IDOCK:   -0.90 KCAL/MOL
REMARK 927      BINDING AFFINITY PREDICTED BY RF-SCORE:    0.00 PKD
ROOT
HETATM    1  C   UNL     1     -11.962  13.230  63.578  1.00  0.00    -0.537 C  
HETATM    2  C   UNL     1     -10.729  12.560  64.193  1.00  0.00    -0.423 C  
HETATM    3  C   UNL     1     -10.718  12.615  65.742  1.00  0.00    -0.268 C  
HETATM    4  C   UNL     1     -10.614  11.119  63.678  1.00  0.00    -0.414 C  
HETATM    5  H1  UNL     1     -11.866  11.926  67.335  1.00  0.00     0.000 HD 
HETATM    6  N   UNL     1     -11.873  11.890  66.317  1.00  0.00    -0.528 NA 
HETATM    7  H2  UNL     1     -11.917  10.929  65.977  1.00  0.00     0.000 HD 
ENDROOT
BRANCH   3   8
HETATM    8  C   UNL     1     -10.692  14.062  66.286  1.00  0.00    -0.289 C  
HETATM    9  O   UNL     1     -11.682  14.718  66.589  1.00  0.00    -0.358 OA 
BRANCH   8  10
HETATM   10  O   UNL     1      -9.411  14.500  66.452  1.00  0.00    -0.282 OA 
BRANCH  10  11
HETATM   11  C   UNL     1      -8.595  13.670  67.305  1.00  0.00    -0.214 C  
BRANCH  11  12
HETATM   12  C   UNL     1      -7.394  14.458  67.829  1.00  0.00    -0.173 C  
BRANCH  12  13
HETATM   13  O   UNL     1      -7.701  14.903  69.153  1.00  0.00    -0.147 OA 
BRANCH  13  14
HETATM   14  C   UNL     1      -7.471  16.303  69.315  1.00  0.00    -0.217 C  
BRANCH  14  15
HETATM   15  N   UNL     1      -8.507  17.047  68.621  1.00  0.00    -0.259 NA 
HETATM   16  C   UNL     1      -9.860  16.894  68.827  1.00  0.00    -0.269 A  
HETATM   17  N   UNL     1     -10.573  17.725  68.088  1.00  0.00    -0.371 NA 
HETATM   18  C   UNL     1      -9.644  18.453  67.373  1.00  0.00    -0.286 A  
HETATM   19  C   UNL     1      -8.384  18.026  67.689  1.00  0.00    -0.238 A  
HETATM   20  N   UNL     1      -7.284  18.558  67.144  1.00  0.00    -0.207 NA 
HETATM   21  C   UNL     1      -7.470  19.606  66.284  1.00  0.00    -0.290 C  
HETATM   22  N   UNL     1      -6.307  20.140  65.830  1.00  0.00    -0.201 NA 
HETATM   23  N   UNL     1      -8.615  20.096  65.910  1.00  0.00    -0.535 N  
HETATM   24  H2  UNL     1      -5.387  19.794  66.103  1.00  0.00     0.000 HD 
HETATM   25  H1  UNL     1      -6.445  20.921  65.189  1.00  0.00     0.000 HD 
HETATM   26  C   UNL     1      -9.809  19.550  66.406  1.00  0.00    -0.418 C  
HETATM   27  H   UNL     1      -8.645  20.879  65.255  1.00  0.00     0.000 HD 
HETATM   28  O   UNL     1     -10.911  19.959  66.058  1.00  0.00    -0.400 OA 
ENDBRANCH  14  15
ENDBRANCH  13  14
ENDBRANCH  12  13
ENDBRANCH  11  12
ENDBRANCH  10  11
ENDBRANCH   8  10
ENDBRANCH   3   8
TORSDOF 7
ENDMDL
MODEL       92
REMARK 921   NORMALIZED FREE ENERGY PREDICTED BY IDOCK:   -5.45 KCAL/MOL
REMARK 922        TOTAL FREE ENERGY PREDICTED BY IDOCK:   -8.22 KCAL/MOL
REMARK 923 INTER-LIGAND FREE ENERGY PREDICTED BY IDOCK:   -7.38 KCAL/MOL
REMARK 924 INTRA-LIGAND FREE ENERGY PREDICTED BY IDOCK:   -0.84 KCAL/MOL
REMARK 927      BINDING AFFINITY PREDICTED BY RF-SCORE:    0.00 PKD
ROOT
HETATM    1  C   UNL     1     -12.501   7.038  70.967  1.00  0.00    -0.373 C  
HETATM    2  C   UNL     1     -11.002   6.809  71.186  1.00  0.00    -0.298 C  
HETATM    3  C   UNL     1     -10.134   8.019  70.758  1.00  0.00    -0.192 C  
HETATM    4  C   UNL     1     -10.748   6.420  72.649  1.00  0.00    -0.262 C  
HETATM    5  H1  UNL     1      -9.886  10.020  71.273  1.00  0.00     0.000 HD 
HETATM    6  N   UNL     1     -10.457   9.224  71.555  1.00  0.00    -0.345 NA 
HETATM    7  H2  UNL     1     -10.377   9.042  72.556  1.00  0.00     0.000 HD 
ENDROOT
BRANCH   3   8
HETATM    8  C   UNL     1     -10.266   8.343  69.252  1.00  0.00    -0.208 C  
HETATM    9  O   UNL     1     -10.243   7.514  68.349  1.00  0.00    -0.176 OA 
BRANCH   8  10
HETATM   10  O   UNL     1     -10.479   9.676  69.055  1.00  0.00    -0.200 OA 
BRANCH  10  11
HETATM   11  C   UNL     1      -9.283  10.481  69.027  1.00  0.00    -0.185 C  
BRANCH  11  12
HETATM   12  C   UNL     1      -9.299  11.424  67.823  1.00  0.00    -0.162 C  
BRANCH  12  13
HETATM   13  O   UNL     1      -9.716  12.714  68.277  1.00  0.00    -0.217 OA 
BRANCH  13  14
HETATM   14  C   UNL     1     -11.114  12.925  68.080  1.00  0.00    -0.253 C  
BRANCH  14  15
HETATM   15  N   UNL     1     -11.662  13.636  69.221  1.00  0.00    -0.304 NA 
HETATM   16  C   UNL     1     -11.708  15.006  69.349  1.00  0.00    -0.326 A  
HETATM   17  N   UNL     1     -12.292  15.382  70.472  1.00  0.00    -0.381 NA 
HETATM   18  C   UNL     1     -12.646  14.206  71.101  1.00  0.00    -0.367 A  
HETATM   19  C   UNL     1     -12.245  13.142  70.342  1.00  0.00    -0.316 A  
HETATM   20  N   UNL     1     -12.460  11.873  70.709  1.00  0.00    -0.335 NA 
HETATM   21  C   UNL     1     -13.160  11.678  71.869  1.00  0.00    -0.385 C  
HETATM   22  N   UNL     1     -13.402  10.369  72.137  1.00  0.00    -0.567 NA 
HETATM   23  N   UNL     1     -13.590  12.609  72.669  1.00  0.00    -0.498 N  
HETATM   24  H2  UNL     1     -13.092   9.607  71.534  1.00  0.00     0.000 HD 
HETATM   25  H1  UNL     1     -13.924  10.224  73.000  1.00  0.00     0.000 HD 
HETATM   26  C   UNL     1     -13.354  13.959  72.367  1.00  0.00    -0.529 C  
HETATM   27  H   UNL     1     -14.099  12.357  73.517  1.00  0.00     0.000 HD 
HETATM   28  O   UNL     1     -13.713  14.868  73.107  1.00  0.00    -0.506 OA 
ENDBRANCH  14  15
ENDBRANCH  13  14
ENDBRANCH  12  13
ENDBRANCH  11  12
ENDBRANCH  10  11
ENDBRANCH   8  10
ENDBRANCH   3   8
TORSDOF 7
ENDMDL
MODEL       93
REMARK 921   NORMALIZED FREE ENERGY PREDICTED BY IDOCK:   -5.44 KCAL/MOL
REMARK 922        TOTAL FREE ENERGY PREDICTED BY IDOCK:   -8.21 KCAL/MOL
REMARK 923 INTER-LIGAND FREE ENERGY PREDICTED BY IDOCK:   -7.30 KCAL/MOL
REMARK 924 INTRA-LIGAND FREE ENERGY PREDICTED BY IDOCK:   -0.91 KCAL/MOL
REMARK 927      BINDING AFFINITY PREDICTED BY RF-SCORE:    0.00 PKD
ROOT
HETATM    1  C   UNL     1     -10.688  12.213  64.502  1.00  0.00    -0.353 C  
HETATM    2  C   UNL     1     -12.193  12.472  64.630  1.00  0.00    -0.524 C  
HETATM    3  C   UNL     1     -12.526  13.939  64.999  1.00  0.00    -0.419 C  
HETATM    4  C   UNL     1     -12.902  12.039  63.340  1.00  0.00    -0.427 C  
HETATM    5  H1  UNL     1     -12.285  15.844  64.197  1.00  0.00     0.000 HD 
HETATM    6  N   UNL     1     -12.065  14.879  63.953  1.00  0.00    -0.920 NA 
HETATM    7  H2  UNL     1     -12.439  14.630  63.037  1.00  0.00     0.000 HD 
ENDROOT
BRANCH   3   8
HETATM    8  C   UNL     1     -11.938  14.357  66.367  1.00  0.00    -0.385 C  
HETATM    9  O   UNL     1     -12.198  13.821  67.439  1.00  0.00    -0.368 OA 
BRANCH   8  10
HETATM   10  O   UNL     1     -11.031  15.366  66.223  1.00  0.00    -0.324 OA 
BRANCH  10  11
HETATM   11  C   UNL     1      -9.658  14.935  66.134  1.00  0.00    -0.310 C  
BRANCH  11  12
HETATM   12  C   UNL     1      -8.967  15.063  67.493  1.00  0.00    -0.183 C  
BRANCH  12  13
HETATM   13  O   UNL     1      -7.704  14.398  67.411  1.00  0.00    -0.180 OA 
BRANCH  13  14
HETATM   14  C   UNL     1      -7.599  13.328  68.350  1.00  0.00    -0.137 C  
BRANCH  14  15
HETATM   15  N   UNL     1      -7.832  12.064  67.674  1.00  0.00    -0.138 NA 
HETATM   16  C   UNL     1      -6.889  11.377  66.941  1.00  0.00    -0.142 A  
HETATM   17  N   UNL     1      -7.361  10.239  66.466  1.00  0.00    -0.108 NA 
HETATM   18  C   UNL     1      -8.666  10.180  66.912  1.00  0.00    -0.129 A  
HETATM   19  C   UNL     1      -8.955  11.304  67.635  1.00  0.00    -0.142 A  
HETATM   20  N   UNL     1     -10.153  11.514  68.192  1.00  0.00    -0.187 NA 
HETATM   21  C   UNL     1     -11.079  10.516  68.056  1.00  0.00    -0.300 C  
HETATM   22  N   UNL     1     -12.242  10.770  68.708  1.00  0.00    -0.814 NA 
HETATM   23  N   UNL     1     -10.919   9.409  67.393  1.00  0.00    -0.400 N  
HETATM   24  H2  UNL     1     -12.409  11.620  69.246  1.00  0.00     0.000 HD 
HETATM   25  H1  UNL     1     -12.932  10.026  68.607  1.00  0.00     0.000 HD 
HETATM   26  C   UNL     1      -9.702   9.149  66.743  1.00  0.00    -0.210 C  
HETATM   27  H   UNL     1     -11.678   8.728  67.346  1.00  0.00     0.000 HD 
HETATM   28  O   UNL     1      -9.516   8.133  66.083  1.00  0.00    -0.201 OA 
ENDBRANCH  14  15
ENDBRANCH  13  14
ENDBRANCH  12  13
ENDBRANCH  11  12
ENDBRANCH  10  11
ENDBRANCH   8  10
ENDBRANCH   3   8
TORSDOF 7
ENDMDL
MODEL       94
REMARK 921   NORMALIZED FREE ENERGY PREDICTED BY IDOCK:   -5.43 KCAL/MOL
REMARK 922        TOTAL FREE ENERGY PREDICTED BY IDOCK:   -8.20 KCAL/MOL
REMARK 923 INTER-LIGAND FREE ENERGY PREDICTED BY IDOCK:   -7.24 KCAL/MOL
REMARK 924 INTRA-LIGAND FREE ENERGY PREDICTED BY IDOCK:   -0.95 KCAL/MOL
REMARK 927      BINDING AFFINITY PREDICTED BY RF-SCORE:    0.00 PKD
ROOT
HETATM    1  C   UNL     1     -10.573  11.184  65.041  1.00  0.00    -0.340 C  
HETATM    2  C   UNL     1     -11.668  12.257  65.045  1.00  0.00    -0.405 C  
HETATM    3  C   UNL     1     -11.143  13.655  65.457  1.00  0.00    -0.295 C  
HETATM    4  C   UNL     1     -12.360  12.293  63.676  1.00  0.00    -0.664 C  
HETATM    5  H1  UNL     1      -9.780  15.073  64.776  1.00  0.00     0.000 HD 
HETATM    6  N   UNL     1     -10.125  14.153  64.505  1.00  0.00    -0.700 NA 
HETATM    7  H2  UNL     1     -10.477  14.152  63.548  1.00  0.00     0.000 HD 
ENDROOT
BRANCH   3   8
HETATM    8  C   UNL     1     -10.566  13.677  66.892  1.00  0.00    -0.271 C  
HETATM    9  O   UNL     1     -11.225  13.544  67.917  1.00  0.00    -0.254 OA 
BRANCH   8  10
HETATM   10  O   UNL     1      -9.208  13.797  66.872  1.00  0.00    -0.240 OA 
BRANCH  10  11
HETATM   11  C   UNL     1      -8.559  13.517  68.129  1.00  0.00    -0.173 C  
BRANCH  11  12
HETATM   12  C   UNL     1      -7.060  13.808  68.035  1.00  0.00    -0.133 C  
BRANCH  12  13
HETATM   13  O   UNL     1      -6.862  14.775  67.000  1.00  0.00    -0.157 OA 
BRANCH  13  14
HETATM   14  C   UNL     1      -6.367  16.013  67.512  1.00  0.00    -0.170 C  
BRANCH  14  15
HETATM   15  N   UNL     1      -7.229  17.097  67.075  1.00  0.00    -0.167 NA 
HETATM   16  C   UNL     1      -6.980  17.917  65.998  1.00  0.00    -0.311 A  
HETATM   17  N   UNL     1      -7.948  18.795  65.806  1.00  0.00    -0.451 NA 
HETATM   18  C   UNL     1      -8.870  18.532  66.799  1.00  0.00    -0.282 A  
HETATM   19  C   UNL     1      -8.420  17.505  67.582  1.00  0.00    -0.215 A  
HETATM   20  N   UNL     1      -9.115  17.036  68.624  1.00  0.00    -0.268 NA 
HETATM   21  C   UNL     1     -10.344  17.595  68.848  1.00  0.00    -0.323 C  
HETATM   22  N   UNL     1     -11.018  17.019  69.875  1.00  0.00    -0.300 NA 
HETATM   23  N   UNL     1     -10.873  18.573  68.173  1.00  0.00    -0.282 N  
HETATM   24  H2  UNL     1     -10.646  16.245  70.426  1.00  0.00     0.000 HD 
HETATM   25  H1  UNL     1     -11.933  17.435  70.041  1.00  0.00     0.000 HD 
HETATM   26  C   UNL     1     -10.174  19.144  67.098  1.00  0.00    -0.401 C  
HETATM   27  H   UNL     1     -11.797  18.925  68.425  1.00  0.00     0.000 HD 
HETATM   28  O   UNL     1     -10.621  20.086  66.452  1.00  0.00    -0.441 OA 
ENDBRANCH  14  15
ENDBRANCH  13  14
ENDBRANCH  12  13
ENDBRANCH  11  12
ENDBRANCH  10  11
ENDBRANCH   8  10
ENDBRANCH   3   8
TORSDOF 7
ENDMDL
MODEL       95
REMARK 921   NORMALIZED FREE ENERGY PREDICTED BY IDOCK:   -5.43 KCAL/MOL
REMARK 922        TOTAL FREE ENERGY PREDICTED BY IDOCK:   -8.19 KCAL/MOL
REMARK 923 INTER-LIGAND FREE ENERGY PREDICTED BY IDOCK:   -6.89 KCAL/MOL
REMARK 924 INTRA-LIGAND FREE ENERGY PREDICTED BY IDOCK:   -1.30 KCAL/MOL
REMARK 927      BINDING AFFINITY PREDICTED BY RF-SCORE:    0.00 PKD
ROOT
HETATM    1  C   UNL     1     -12.763  11.980  63.282  1.00  0.00    -0.437 C  
HETATM    2  C   UNL     1     -11.349  12.382  63.713  1.00  0.00    -0.536 C  
HETATM    3  C   UNL     1     -11.277  12.861  65.185  1.00  0.00    -0.288 C  
HETATM    4  C   UNL     1     -10.379  11.222  63.447  1.00  0.00    -0.449 C  
HETATM    5  H1  UNL     1     -11.623  12.101  67.091  1.00  0.00     0.000 HD 
HETATM    6  N   UNL     1     -11.671  11.786  66.123  1.00  0.00    -0.448 NA 
HETATM    7  H2  UNL     1     -11.117  10.942  65.977  1.00  0.00     0.000 HD 
ENDROOT
BRANCH   3   8
HETATM    8  C   UNL     1     -12.139  14.118  65.445  1.00  0.00    -0.410 C  
HETATM    9  O   UNL     1     -13.101  14.167  66.203  1.00  0.00    -0.159 OA 
BRANCH   8  10
HETATM   10  O   UNL     1     -11.649  15.197  64.768  1.00  0.00    -0.398 OA 
BRANCH  10  11
HETATM   11  C   UNL     1     -10.384  15.689  65.253  1.00  0.00    -0.375 C  
BRANCH  11  12
HETATM   12  C   UNL     1     -10.582  16.973  66.061  1.00  0.00    -0.206 C  
BRANCH  12  13
HETATM   13  O   UNL     1      -9.753  16.897  67.223  1.00  0.00    -0.243 OA 
BRANCH  13  14
HETATM   14  C   UNL     1     -10.484  17.158  68.421  1.00  0.00    -0.376 C  
BRANCH  14  15
HETATM   15  N   UNL     1     -11.089  15.927  68.897  1.00  0.00    -0.294 NA 
HETATM   16  C   UNL     1     -12.342  15.831  69.462  1.00  0.00    -0.060 A  
HETATM   17  N   UNL     1     -12.654  14.586  69.772  1.00  0.00    -0.209 NA 
HETATM   18  C   UNL     1     -11.559  13.837  69.389  1.00  0.00    -0.310 A  
HETATM   19  C   UNL     1     -10.599  14.662  68.870  1.00  0.00    -0.253 A  
HETATM   20  N   UNL     1      -9.427  14.206  68.415  1.00  0.00    -0.211 NA 
HETATM   21  C   UNL     1      -9.243  12.850  68.436  1.00  0.00    -0.137 C  
HETATM   22  N   UNL     1      -8.063  12.459  67.892  1.00  0.00    -0.149 NA 
HETATM   23  N   UNL     1     -10.081  11.972  68.904  1.00  0.00    -0.411 N  
HETATM   24  H2  UNL     1      -7.380  13.111  67.506  1.00  0.00     0.000 HD 
HETATM   25  H1  UNL     1      -7.926  11.448  67.908  1.00  0.00     0.000 HD 
HETATM   26  C   UNL     1     -11.309  12.389  69.442  1.00  0.00    -0.220 C  
HETATM   27  H   UNL     1      -9.845  10.979  68.880  1.00  0.00     0.000 HD 
HETATM   28  O   UNL     1     -12.116  11.600  69.921  1.00  0.00    -0.307 OA 
ENDBRANCH  14  15
ENDBRANCH  13  14
ENDBRANCH  12  13
ENDBRANCH  11  12
ENDBRANCH  10  11
ENDBRANCH   8  10
ENDBRANCH   3   8
TORSDOF 7
ENDMDL
MODEL       96
REMARK 921   NORMALIZED FREE ENERGY PREDICTED BY IDOCK:   -5.40 KCAL/MOL
REMARK 922        TOTAL FREE ENERGY PREDICTED BY IDOCK:   -8.15 KCAL/MOL
REMARK 923 INTER-LIGAND FREE ENERGY PREDICTED BY IDOCK:   -7.50 KCAL/MOL
REMARK 924 INTRA-LIGAND FREE ENERGY PREDICTED BY IDOCK:   -0.65 KCAL/MOL
REMARK 927      BINDING AFFINITY PREDICTED BY RF-SCORE:    0.00 PKD
ROOT
HETATM    1  C   UNL     1     -12.081  13.906  66.731  1.00  0.00    -0.476 C  
HETATM    2  C   UNL     1     -10.949  13.917  65.699  1.00  0.00    -0.290 C  
HETATM    3  C   UNL     1     -11.444  13.652  64.255  1.00  0.00    -0.366 C  
HETATM    4  C   UNL     1     -10.173  15.237  65.797  1.00  0.00    -0.372 C  
HETATM    5  H1  UNL     1     -12.708  14.529  62.853  1.00  0.00     0.000 HD 
HETATM    6  N   UNL     1     -12.382  14.703  63.803  1.00  0.00    -1.092 NA 
HETATM    7  H2  UNL     1     -11.973  15.633  63.893  1.00  0.00     0.000 HD 
ENDROOT
BRANCH   3   8
HETATM    8  C   UNL     1     -12.107  12.263  64.097  1.00  0.00    -0.436 C  
HETATM    9  O   UNL     1     -13.232  12.067  63.652  1.00  0.00    -0.737 OA 
BRANCH   8  10
HETATM   10  O   UNL     1     -11.247  11.267  64.457  1.00  0.00    -0.244 OA 
BRANCH  10  11
HETATM   11  C   UNL     1     -10.268  10.923  63.456  1.00  0.00    -0.317 C  
BRANCH  11  12
HETATM   12  C   UNL     1      -9.261   9.916  64.014  1.00  0.00    -0.253 C  
BRANCH  12  13
HETATM   13  O   UNL     1      -9.730   9.485  65.294  1.00  0.00    -0.293 OA 
BRANCH  13  14
HETATM   14  C   UNL     1      -9.003   8.355  65.778  1.00  0.00    -0.159 C  
BRANCH  14  15
HETATM   15  N   UNL     1      -9.747   7.726  66.854  1.00  0.00    -0.198 NA 
HETATM   16  C   UNL     1     -10.559   6.622  66.711  1.00  0.00    -0.244 A  
HETATM   17  N   UNL     1     -11.084   6.238  67.860  1.00  0.00    -0.327 NA 
HETATM   18  C   UNL     1     -10.590   7.127  68.794  1.00  0.00    -0.196 A  
HETATM   19  C   UNL     1      -9.787   8.043  68.173  1.00  0.00    -0.170 A  
HETATM   20  N   UNL     1      -9.169   9.027  68.837  1.00  0.00    -0.139 NA 
HETATM   21  C   UNL     1      -9.329   9.048  70.196  1.00  0.00    -0.192 C  
HETATM   22  N   UNL     1      -8.615  10.028  70.806  1.00  0.00    -0.246 NA 
HETATM   23  N   UNL     1     -10.065   8.232  70.892  1.00  0.00    -0.188 N  
HETATM   24  H2  UNL     1      -8.018  10.684  70.302  1.00  0.00     0.000 HD 
HETATM   25  H1  UNL     1      -8.734  10.043  71.818  1.00  0.00     0.000 HD 
HETATM   26  C   UNL     1     -10.779   7.209  70.250  1.00  0.00    -0.238 C  
HETATM   27  H   UNL     1     -10.123   8.337  71.905  1.00  0.00     0.000 HD 
HETATM   28  O   UNL     1     -11.509   6.436  70.862  1.00  0.00    -0.321 OA 
ENDBRANCH  14  15
ENDBRANCH  13  14
ENDBRANCH  12  13
ENDBRANCH  11  12
ENDBRANCH  10  11
ENDBRANCH   8  10
ENDBRANCH   3   8
TORSDOF 7
ENDMDL
MODEL       97
REMARK 921   NORMALIZED FREE ENERGY PREDICTED BY IDOCK:   -5.38 KCAL/MOL
REMARK 922        TOTAL FREE ENERGY PREDICTED BY IDOCK:   -8.12 KCAL/MOL
REMARK 923 INTER-LIGAND FREE ENERGY PREDICTED BY IDOCK:   -7.89 KCAL/MOL
REMARK 924 INTRA-LIGAND FREE ENERGY PREDICTED BY IDOCK:   -0.24 KCAL/MOL
REMARK 927      BINDING AFFINITY PREDICTED BY RF-SCORE:    0.00 PKD
ROOT
HETATM    1  C   UNL     1     -12.558  12.118  71.501  1.00  0.00    -0.267 C  
HETATM    2  C   UNL     1     -12.886  10.759  70.874  1.00  0.00    -0.443 C  
HETATM    3  C   UNL     1     -11.746  10.214  69.977  1.00  0.00    -0.223 C  
HETATM    4  C   UNL     1     -13.264   9.761  71.977  1.00  0.00    -0.557 C  
HETATM    5  H1  UNL     1      -9.758   9.628  70.164  1.00  0.00     0.000 HD 
HETATM    6  N   UNL     1     -10.508   9.987  70.754  1.00  0.00    -0.374 NA 
HETATM    7  H2  UNL     1     -10.676   9.378  71.556  1.00  0.00     0.000 HD 
ENDROOT
BRANCH   3   8
HETATM    8  C   UNL     1     -11.441  11.138  68.775  1.00  0.00    -0.299 C  
HETATM    9  O   UNL     1     -12.258  11.483  67.928  1.00  0.00    -0.586 OA 
BRANCH   8  10
HETATM   10  O   UNL     1     -10.151  11.579  68.811  1.00  0.00    -0.213 OA 
BRANCH  10  11
HETATM   11  C   UNL     1      -9.636  12.041  67.546  1.00  0.00    -0.177 C  
BRANCH  11  12
HETATM   12  C   UNL     1      -8.447  12.980  67.762  1.00  0.00    -0.188 C  
BRANCH  12  13
HETATM   13  O   UNL     1      -8.666  14.157  66.980  1.00  0.00    -0.214 OA 
BRANCH  13  14
HETATM   14  C   UNL     1      -9.829  14.046  66.159  1.00  0.00    -0.303 C  
BRANCH  14  15
HETATM   15  N   UNL     1     -10.234  15.367  65.712  1.00  0.00    -0.325 NA 
HETATM   16  C   UNL     1     -11.041  15.618  64.624  1.00  0.00    -0.373 A  
HETATM   17  N   UNL     1     -11.279  16.908  64.468  1.00  0.00    -1.066 NA 
HETATM   18  C   UNL     1     -10.601  17.523  65.501  1.00  0.00    -0.092 A  
HETATM   19  C   UNL     1      -9.951  16.580  66.249  1.00  0.00    -0.329 A  
HETATM   20  N   UNL     1      -9.213  16.893  67.320  1.00  0.00    -0.224 NA 
HETATM   21  C   UNL     1      -9.179  18.213  67.679  1.00  0.00    -0.259 C  
HETATM   22  N   UNL     1      -8.472  18.442  68.815  1.00  0.00    -0.275 NA 
HETATM   23  N   UNL     1      -9.754  19.194  67.048  1.00  0.00    -0.314 N  
HETATM   24  H2  UNL     1      -8.011  17.704  69.348  1.00  0.00     0.000 HD 
HETATM   25  H1  UNL     1      -8.446  19.426  69.083  1.00  0.00     0.000 HD 
HETATM   26  C   UNL     1     -10.502  18.939  65.887  1.00  0.00    -0.391 C  
HETATM   27  H   UNL     1      -9.661  20.149  67.396  1.00  0.00     0.000 HD 
HETATM   28  O   UNL     1     -11.036  19.835  65.243  1.00  0.00    -0.395 OA 
ENDBRANCH  14  15
ENDBRANCH  13  14
ENDBRANCH  12  13
ENDBRANCH  11  12
ENDBRANCH  10  11
ENDBRANCH   8  10
ENDBRANCH   3   8
TORSDOF 7
ENDMDL
MODEL       98
REMARK 921   NORMALIZED FREE ENERGY PREDICTED BY IDOCK:   -5.38 KCAL/MOL
REMARK 922        TOTAL FREE ENERGY PREDICTED BY IDOCK:   -8.12 KCAL/MOL
REMARK 923 INTER-LIGAND FREE ENERGY PREDICTED BY IDOCK:   -7.90 KCAL/MOL
REMARK 924 INTRA-LIGAND FREE ENERGY PREDICTED BY IDOCK:   -0.22 KCAL/MOL
REMARK 927      BINDING AFFINITY PREDICTED BY RF-SCORE:    0.00 PKD
ROOT
HETATM    1  C   UNL     1      -8.503   6.037  68.112  1.00  0.00    -0.115 C  
HETATM    2  C   UNL     1      -9.784   6.706  68.621  1.00  0.00    -0.129 C  
HETATM    3  C   UNL     1     -10.698   7.212  67.477  1.00  0.00    -0.274 C  
HETATM    4  C   UNL     1     -10.530   5.747  69.559  1.00  0.00    -0.364 C  
HETATM    5  H1  UNL     1     -11.765   6.429  65.870  1.00  0.00     0.000 HD 
HETATM    6  N   UNL     1     -11.163   6.096  66.623  1.00  0.00    -0.758 NA 
HETATM    7  H2  UNL     1     -11.621   5.370  67.174  1.00  0.00     0.000 HD 
ENDROOT
BRANCH   3   8
HETATM    8  C   UNL     1     -10.015   8.286  66.599  1.00  0.00    -0.278 C  
HETATM    9  O   UNL     1      -8.942   8.147  66.023  1.00  0.00    -0.166 OA 
BRANCH   8  10
HETATM   10  O   UNL     1     -10.797   9.399  66.490  1.00  0.00    -0.030 OA 
BRANCH  10  11
HETATM   11  C   UNL     1     -10.442  10.476  67.381  1.00  0.00    -0.244 C  
BRANCH  11  12
HETATM   12  C   UNL     1     -11.556  11.523  67.427  1.00  0.00    -0.228 C  
BRANCH  12  13
HETATM   13  O   UNL     1     -12.408  11.213  68.534  1.00  0.00    -0.561 OA 
BRANCH  13  14
HETATM   14  C   UNL     1     -11.700  11.220  69.773  1.00  0.00    -0.349 C  
BRANCH  14  15
HETATM   15  N   UNL     1     -12.278  12.217  70.656  1.00  0.00    -0.364 NA 
HETATM   16  C   UNL     1     -13.105  11.940  71.723  1.00  0.00    -0.360 A  
HETATM   17  N   UNL     1     -13.457  13.033  72.376  1.00  0.00    -0.565 NA 
HETATM   18  C   UNL     1     -12.829  14.065  71.709  1.00  0.00    -0.340 A  
HETATM   19  C   UNL     1     -12.124  13.565  70.650  1.00  0.00    -0.309 A  
HETATM   20  N   UNL     1     -11.413  14.342  69.825  1.00  0.00    -0.272 NA 
HETATM   21  C   UNL     1     -11.372  15.678  70.122  1.00  0.00    -0.344 C  
HETATM   22  N   UNL     1     -10.574  16.389  69.285  1.00  0.00    -0.290 NA 
HETATM   23  N   UNL     1     -11.999  16.265  71.098  1.00  0.00    -0.607 N  
HETATM   24  H2  UNL     1     -10.056  15.970  68.512  1.00  0.00     0.000 HD 
HETATM   25  H1  UNL     1     -10.543  17.384  69.506  1.00  0.00     0.000 HD 
HETATM   26  C   UNL     1     -12.802  15.513  71.970  1.00  0.00    -0.420 C  
HETATM   27  H   UNL     1     -11.908  17.273  71.229  1.00  0.00     0.000 HD 
HETATM   28  O   UNL     1     -13.436  16.028  72.884  1.00  0.00    -0.533 OA 
ENDBRANCH  14  15
ENDBRANCH  13  14
ENDBRANCH  12  13
ENDBRANCH  11  12
ENDBRANCH  10  11
ENDBRANCH   8  10
ENDBRANCH   3   8
TORSDOF 7
ENDMDL
MODEL       99
REMARK 921   NORMALIZED FREE ENERGY PREDICTED BY IDOCK:   -5.38 KCAL/MOL
REMARK 922        TOTAL FREE ENERGY PREDICTED BY IDOCK:   -8.12 KCAL/MOL
REMARK 923 INTER-LIGAND FREE ENERGY PREDICTED BY IDOCK:   -7.12 KCAL/MOL
REMARK 924 INTRA-LIGAND FREE ENERGY PREDICTED BY IDOCK:   -1.00 KCAL/MOL
REMARK 927      BINDING AFFINITY PREDICTED BY RF-SCORE:    0.00 PKD
ROOT
HETATM    1  C   UNL     1      -9.254  10.984  68.922  1.00  0.00    -0.139 C  
HETATM    2  C   UNL     1     -10.335   9.925  68.680  1.00  0.00    -0.217 C  
HETATM    3  C   UNL     1     -11.763  10.522  68.617  1.00  0.00    -0.085 C  
HETATM    4  C   UNL     1      -9.999   9.127  67.413  1.00  0.00    -0.262 C  
HETATM    5  H1  UNL     1     -12.842  11.867  67.452  1.00  0.00     0.000 HD 
HETATM    6  N   UNL     1     -11.903  11.475  67.493  1.00  0.00    -0.631 NA 
HETATM    7  H2  UNL     1     -11.637  11.047  66.606  1.00  0.00     0.000 HD 
ENDROOT
BRANCH   3   8
HETATM    8  C   UNL     1     -12.179  11.213  69.937  1.00  0.00    -0.314 C  
HETATM    9  O   UNL     1     -12.192  10.676  71.038  1.00  0.00    -0.338 OA 
BRANCH   8  10
HETATM   10  O   UNL     1     -12.469  12.530  69.730  1.00  0.00    -0.059 OA 
BRANCH  10  11
HETATM   11  C   UNL     1     -12.005  13.420  70.766  1.00  0.00    -0.139 C  
BRANCH  11  12
HETATM   12  C   UNL     1     -11.093  14.497  70.178  1.00  0.00    -0.082 C  
BRANCH  12  13
HETATM   13  O   UNL     1     -11.228  14.462  68.755  1.00  0.00    -0.236 OA 
BRANCH  13  14
HETATM   14  C   UNL     1      -9.996  14.751  68.093  1.00  0.00    -0.221 C  
BRANCH  14  15
HETATM   15  N   UNL     1     -10.199  15.824  67.136  1.00  0.00    -0.273 NA 
HETATM   16  C   UNL     1     -10.423  15.647  65.789  1.00  0.00    -0.366 A  
HETATM   17  N   UNL     1     -10.611  16.794  65.161  1.00  0.00    -0.682 NA 
HETATM   18  C   UNL     1     -10.509  17.759  66.142  1.00  0.00    -0.301 A  
HETATM   19  C   UNL     1     -10.241  17.164  67.344  1.00  0.00    -0.321 A  
HETATM   20  N   UNL     1     -10.092  17.861  68.476  1.00  0.00    -0.373 NA 
HETATM   21  C   UNL     1     -10.277  19.215  68.394  1.00  0.00    -0.389 C  
HETATM   22  N   UNL     1     -10.182  19.843  69.594  1.00  0.00    -0.518 NA 
HETATM   23  N   UNL     1     -10.533  19.888  67.311  1.00  0.00    -0.435 N  
HETATM   24  H2  UNL     1      -9.991  19.355  70.469  1.00  0.00     0.000 HD 
HETATM   25  H1  UNL     1     -10.320  20.852  69.533  1.00  0.00     0.000 HD 
HETATM   26  C   UNL     1     -10.653  19.222  66.082  1.00  0.00    -0.459 C  
HETATM   27  H   UNL     1     -10.647  20.901  67.356  1.00  0.00     0.000 HD 
HETATM   28  O   UNL     1     -10.863  19.818  65.031  1.00  0.00    -0.280 OA 
ENDBRANCH  14  15
ENDBRANCH  13  14
ENDBRANCH  12  13
ENDBRANCH  11  12
ENDBRANCH  10  11
ENDBRANCH   8  10
ENDBRANCH   3   8
TORSDOF 7
ENDMDL
MODEL      100
REMARK 921   NORMALIZED FREE ENERGY PREDICTED BY IDOCK:   -5.37 KCAL/MOL
REMARK 922        TOTAL FREE ENERGY PREDICTED BY IDOCK:   -8.11 KCAL/MOL
REMARK 923 INTER-LIGAND FREE ENERGY PREDICTED BY IDOCK:   -7.40 KCAL/MOL
REMARK 924 INTRA-LIGAND FREE ENERGY PREDICTED BY IDOCK:   -0.70 KCAL/MOL
REMARK 927      BINDING AFFINITY PREDICTED BY RF-SCORE:    0.00 PKD
ROOT
HETATM    1  C   UNL     1      -9.659  14.588  66.480  1.00  0.00    -0.311 C  
HETATM    2  C   UNL     1     -10.480  14.531  65.187  1.00  0.00    -0.439 C  
HETATM    3  C   UNL     1     -11.723  13.613  65.298  1.00  0.00    -0.334 C  
HETATM    4  C   UNL     1     -10.863  15.953  64.756  1.00  0.00    -0.346 C  
HETATM    5  H1  UNL     1     -13.484  13.499  66.400  1.00  0.00     0.000 HD 
HETATM    6  N   UNL     1     -12.666  14.103  66.327  1.00  0.00    -0.487 NA 
HETATM    7  H2  UNL     1     -12.932  15.074  66.159  1.00  0.00     0.000 HD 
ENDROOT
BRANCH   3   8
HETATM    8  C   UNL     1     -11.352  12.141  65.594  1.00  0.00    -0.347 C  
HETATM    9  O   UNL     1     -10.635  11.440  64.888  1.00  0.00    -0.289 OA 
BRANCH   8  10
HETATM   10  O   UNL     1     -11.874  11.734  66.787  1.00  0.00    -0.586 OA 
BRANCH  10  11
HETATM   11  C   UNL     1     -10.902  11.260  67.740  1.00  0.00    -0.235 C  
BRANCH  11  12
HETATM   12  C   UNL     1     -11.146  11.890  69.113  1.00  0.00    -0.228 C  
BRANCH  12  13
HETATM   13  O   UNL     1     -12.440  11.483  69.563  1.00  0.00    -0.163 OA 
BRANCH  13  14
HETATM   14  C   UNL     1     -12.511  11.401  70.986  1.00  0.00    -0.383 C  
BRANCH  14  15
HETATM   15  N   UNL     1     -12.607  10.009  71.387  1.00  0.00    -0.380 NA 
HETATM   16  C   UNL     1     -13.779   9.289  71.464  1.00  0.00    -0.316 A  
HETATM   17  N   UNL     1     -13.571   8.035  71.820  1.00  0.00    -0.350 NA 
HETATM   18  C   UNL     1     -12.204   7.931  71.979  1.00  0.00    -0.317 A  
HETATM   19  C   UNL     1     -11.620   9.143  71.729  1.00  0.00    -0.387 A  
HETATM   20  N   UNL     1     -10.299   9.336  71.806  1.00  0.00    -0.261 NA 
HETATM   21  C   UNL     1      -9.532   8.239  72.094  1.00  0.00    -0.258 C  
HETATM   22  N   UNL     1      -8.199   8.498  72.083  1.00  0.00    -0.271 NA 
HETATM   23  N   UNL     1      -9.973   7.043  72.350  1.00  0.00    -0.164 N  
HETATM   24  H2  UNL     1      -7.808   9.418  71.879  1.00  0.00     0.000 HD 
HETATM   25  H1  UNL     1      -7.628   7.681  72.297  1.00  0.00     0.000 HD 
HETATM   26  C   UNL     1     -11.353   6.785  72.335  1.00  0.00    -0.268 C  
HETATM   27  H   UNL     1      -9.316   6.292  72.561  1.00  0.00     0.000 HD 
HETATM   28  O   UNL     1     -11.816   5.681  72.598  1.00  0.00    -0.283 OA 
ENDBRANCH  14  15
ENDBRANCH  13  14
ENDBRANCH  12  13
ENDBRANCH  11  12
ENDBRANCH  10  11
ENDBRANCH   8  10
ENDBRANCH   3   8
TORSDOF 7
ENDMDL
MODEL      101
REMARK 921   NORMALIZED FREE ENERGY PREDICTED BY IDOCK:   -5.37 KCAL/MOL
REMARK 922        TOTAL FREE ENERGY PREDICTED BY IDOCK:   -8.10 KCAL/MOL
REMARK 923 INTER-LIGAND FREE ENERGY PREDICTED BY IDOCK:   -7.05 KCAL/MOL
REMARK 924 INTRA-LIGAND FREE ENERGY PREDICTED BY IDOCK:   -1.05 KCAL/MOL
REMARK 927      BINDING AFFINITY PREDICTED BY RF-SCORE:    0.00 PKD
ROOT
HETATM    1  C   UNL     1      -7.973  13.223  67.231  1.00  0.00    -0.134 C  
HETATM    2  C   UNL     1      -7.319  11.925  67.715  1.00  0.00    -0.109 C  
HETATM    3  C   UNL     1      -7.211  10.850  66.604  1.00  0.00    -0.139 C  
HETATM    4  C   UNL     1      -5.951  12.237  68.335  1.00  0.00    -0.054 C  
HETATM    5  H1  UNL     1      -6.288  10.606  64.755  1.00  0.00     0.000 HD 
HETATM    6  N   UNL     1      -6.359  11.313  65.486  1.00  0.00    -0.348 NA 
HETATM    7  H2  UNL     1      -5.438  11.606  65.813  1.00  0.00     0.000 HD 
ENDROOT
BRANCH   3   8
HETATM    8  C   UNL     1      -8.591  10.415  66.059  1.00  0.00    -0.151 C  
HETATM    9  O   UNL     1      -9.501   9.952  66.737  1.00  0.00    -0.159 OA 
BRANCH   8  10
HETATM   10  O   UNL     1      -8.695  10.677  64.724  1.00  0.00    -0.184 OA 
BRANCH  10  11
HETATM   11  C   UNL     1     -10.045  10.703  64.218  1.00  0.00    -0.343 C  
BRANCH  11  12
HETATM   12  C   UNL     1     -10.378  12.084  63.651  1.00  0.00    -0.450 C  
BRANCH  12  13
HETATM   13  O   UNL     1     -10.706  12.944  64.746  1.00  0.00    -0.301 OA 
BRANCH  13  14
HETATM   14  C   UNL     1     -11.802  12.442  65.511  1.00  0.00    -0.412 C  
BRANCH  14  15
HETATM   15  N   UNL     1     -11.822  13.089  66.811  1.00  0.00    -0.386 NA 
HETATM   16  C   UNL     1     -11.802  14.451  67.014  1.00  0.00    -0.412 A  
HETATM   17  N   UNL     1     -11.864  14.764  68.296  1.00  0.00    -0.310 NA 
HETATM   18  C   UNL     1     -11.931  13.554  68.956  1.00  0.00    -0.335 A  
HETATM   19  C   UNL     1     -11.889  12.533  68.047  1.00  0.00    -0.325 A  
HETATM   20  N   UNL     1     -11.939  11.246  68.406  1.00  0.00    -0.603 NA 
HETATM   21  C   UNL     1     -12.095  10.985  69.741  1.00  0.00    -0.353 C  
HETATM   22  N   UNL     1     -12.211   9.661  70.019  1.00  0.00    -0.418 NA 
HETATM   23  N   UNL     1     -12.147  11.869  70.692  1.00  0.00    -0.449 N  
HETATM   24  H2  UNL     1     -12.185   8.933  69.305  1.00  0.00     0.000 HD 
HETATM   25  H1  UNL     1     -12.328   9.467  71.013  1.00  0.00     0.000 HD 
HETATM   26  C   UNL     1     -12.049  13.236  70.387  1.00  0.00    -0.327 C  
HETATM   27  H   UNL     1     -12.259  11.569  71.661  1.00  0.00     0.000 HD 
HETATM   28  O   UNL     1     -12.063  14.103  71.254  1.00  0.00    -0.351 OA 
ENDBRANCH  14  15
ENDBRANCH  13  14
ENDBRANCH  12  13
ENDBRANCH  11  12
ENDBRANCH  10  11
ENDBRANCH   8  10
ENDBRANCH   3   8
TORSDOF 7
ENDMDL
MODEL      102
REMARK 921   NORMALIZED FREE ENERGY PREDICTED BY IDOCK:   -5.36 KCAL/MOL
REMARK 922        TOTAL FREE ENERGY PREDICTED BY IDOCK:   -8.09 KCAL/MOL
REMARK 923 INTER-LIGAND FREE ENERGY PREDICTED BY IDOCK:   -7.46 KCAL/MOL
REMARK 924 INTRA-LIGAND FREE ENERGY PREDICTED BY IDOCK:   -0.63 KCAL/MOL
REMARK 927      BINDING AFFINITY PREDICTED BY RF-SCORE:    0.00 PKD
ROOT
HETATM    1  C   UNL     1      -8.199  19.808  66.415  1.00  0.00    -0.371 C  
HETATM    2  C   UNL     1      -9.562  19.106  66.388  1.00  0.00    -0.402 C  
HETATM    3  C   UNL     1     -10.031  18.641  67.789  1.00  0.00    -0.346 C  
HETATM    4  C   UNL     1     -10.598  20.019  65.719  1.00  0.00    -0.428 C  
HETATM    5  H1  UNL     1     -10.519  19.480  69.630  1.00  0.00     0.000 HD 
HETATM    6  N   UNL     1     -10.210  19.786  68.708  1.00  0.00    -0.561 NA 
HETATM    7  H2  UNL     1     -10.841  20.485  68.315  1.00  0.00     0.000 HD 
ENDROOT
BRANCH   3   8
HETATM    8  C   UNL     1      -9.071  17.609  68.427  1.00  0.00    -0.277 C  
HETATM    9  O   UNL     1      -7.995  17.879  68.948  1.00  0.00    -0.261 OA 
BRANCH   8  10
HETATM   10  O   UNL     1      -9.608  16.356  68.396  1.00  0.00    -0.209 OA 
BRANCH  10  11
HETATM   11  C   UNL     1      -9.005  15.464  67.436  1.00  0.00    -0.191 C  
BRANCH  11  12
HETATM   12  C   UNL     1      -8.294  14.312  68.148  1.00  0.00    -0.162 C  
BRANCH  12  13
HETATM   13  O   UNL     1      -8.743  13.087  67.563  1.00  0.00    -0.175 OA 
BRANCH  13  14
HETATM   14  C   UNL     1     -10.151  13.093  67.320  1.00  0.00    -0.233 C  
BRANCH  14  15
HETATM   15  N   UNL     1     -10.830  12.396  68.397  1.00  0.00    -0.228 NA 
HETATM   16  C   UNL     1     -10.708  11.051  68.668  1.00  0.00    -0.198 A  
HETATM   17  N   UNL     1     -11.409  10.691  69.727  1.00  0.00    -0.278 NA 
HETATM   18  C   UNL     1     -12.012  11.851  70.168  1.00  0.00    -0.332 A  
HETATM   19  C   UNL     1     -11.669  12.887  69.344  1.00  0.00    -0.321 A  
HETATM   20  N   UNL     1     -12.110  14.136  69.535  1.00  0.00    -0.333 NA 
HETATM   21  C   UNL     1     -12.887  14.352  70.641  1.00  0.00    -0.328 C  
HETATM   22  N   UNL     1     -13.234  15.654  70.807  1.00  0.00    -0.728 NA 
HETATM   23  N   UNL     1     -13.276  13.449  71.491  1.00  0.00    -0.342 N  
HETATM   24  H2  UNL     1     -12.945  16.397  70.171  1.00  0.00     0.000 HD 
HETATM   25  H1  UNL     1     -13.813  15.815  71.631  1.00  0.00     0.000 HD 
HETATM   26  C   UNL     1     -12.890  12.110  71.320  1.00  0.00    -0.250 C  
HETATM   27  H   UNL     1     -13.863  13.713  72.283  1.00  0.00     0.000 HD 
HETATM   28  O   UNL     1     -13.257  11.220  72.079  1.00  0.00    -0.506 OA 
ENDBRANCH  14  15
ENDBRANCH  13  14
ENDBRANCH  12  13
ENDBRANCH  11  12
ENDBRANCH  10  11
ENDBRANCH   8  10
ENDBRANCH   3   8
TORSDOF 7
ENDMDL
MODEL      103
REMARK 921   NORMALIZED FREE ENERGY PREDICTED BY IDOCK:   -5.36 KCAL/MOL
REMARK 922        TOTAL FREE ENERGY PREDICTED BY IDOCK:   -8.09 KCAL/MOL
REMARK 923 INTER-LIGAND FREE ENERGY PREDICTED BY IDOCK:   -6.96 KCAL/MOL
REMARK 924 INTRA-LIGAND FREE ENERGY PREDICTED BY IDOCK:   -1.13 KCAL/MOL
REMARK 927      BINDING AFFINITY PREDICTED BY RF-SCORE:    0.00 PKD
ROOT
HETATM    1  C   UNL     1      -9.447   9.920  70.065  1.00  0.00    -0.246 C  
HETATM    2  C   UNL     1     -10.734   9.116  69.852  1.00  0.00    -0.246 C  
HETATM    3  C   UNL     1     -11.883   9.960  69.246  1.00  0.00     0.290 C  
HETATM    4  C   UNL     1     -10.433   7.876  69.000  1.00  0.00    -0.210 C  
HETATM    5  H1  UNL     1     -12.284  11.028  67.506  1.00  0.00     0.000 HD 
HETATM    6  N   UNL     1     -11.528  10.473  67.905  1.00  0.00    -0.633 NA 
HETATM    7  H2  UNL     1     -11.248   9.718  67.278  1.00  0.00     0.000 HD 
ENDROOT
BRANCH   3   8
HETATM    8  C   UNL     1     -12.302  11.138  70.157  1.00  0.00    -0.295 C  
HETATM    9  O   UNL     1     -12.411  11.080  71.377  1.00  0.00    -0.360 OA 
BRANCH   8  10
HETATM   10  O   UNL     1     -12.472  12.281  69.433  1.00  0.00     0.001 OA 
BRANCH  10  11
HETATM   11  C   UNL     1     -12.147  13.496  70.138  1.00  0.00    -0.354 C  
BRANCH  11  12
HETATM   12  C   UNL     1     -11.366  14.450  69.233  1.00  0.00    -0.284 C  
BRANCH  12  13
HETATM   13  O   UNL     1     -11.175  13.804  67.971  1.00  0.00    -0.248 OA 
BRANCH  13  14
HETATM   14  C   UNL     1      -9.833  13.937  67.500  1.00  0.00    -0.236 C  
BRANCH  14  15
HETATM   15  N   UNL     1      -9.533  12.852  66.583  1.00  0.00    -0.251 NA 
HETATM   16  C   UNL     1      -8.619  11.849  66.821  1.00  0.00    -0.181 A  
HETATM   17  N   UNL     1      -8.573  10.973  65.833  1.00  0.00    -0.177 NA 
HETATM   18  C   UNL     1      -9.499  11.423  64.914  1.00  0.00    -0.171 A  
HETATM   19  C   UNL     1     -10.072  12.579  65.368  1.00  0.00    -0.267 A  
HETATM   20  N   UNL     1     -11.009  13.239  64.678  1.00  0.00    -0.349 NA 
HETATM   21  C   UNL     1     -11.423  12.670  63.504  1.00  0.00    -0.491 C  
HETATM   22  N   UNL     1     -12.426  13.357  62.900  1.00  0.00    -0.837 NA 
HETATM   23  N   UNL     1     -10.954  11.579  62.975  1.00  0.00    -0.783 N  
HETATM   24  H2  UNL     1     -12.831  14.212  63.282  1.00  0.00     0.000 HD 
HETATM   25  H1  UNL     1     -12.735  12.933  62.025  1.00  0.00     0.000 HD 
HETATM   26  C   UNL     1      -9.933  10.866  63.624  1.00  0.00    -0.359 C  
HETATM   27  H   UNL     1     -11.328  11.241  62.088  1.00  0.00     0.000 HD 
HETATM   28  O   UNL     1      -9.440   9.850  63.147  1.00  0.00    -0.271 OA 
ENDBRANCH  14  15
ENDBRANCH  13  14
ENDBRANCH  12  13
ENDBRANCH  11  12
ENDBRANCH  10  11
ENDBRANCH   8  10
ENDBRANCH   3   8
TORSDOF 7
ENDMDL
MODEL      104
REMARK 921   NORMALIZED FREE ENERGY PREDICTED BY IDOCK:   -5.35 KCAL/MOL
REMARK 922        TOTAL FREE ENERGY PREDICTED BY IDOCK:   -8.08 KCAL/MOL
REMARK 923 INTER-LIGAND FREE ENERGY PREDICTED BY IDOCK:   -7.41 KCAL/MOL
REMARK 924 INTRA-LIGAND FREE ENERGY PREDICTED BY IDOCK:   -0.66 KCAL/MOL
REMARK 927      BINDING AFFINITY PREDICTED BY RF-SCORE:    0.00 PKD
ROOT
HETATM    1  C   UNL     1     -11.373  16.530  68.175  1.00  0.00    -0.150 C  
HETATM    2  C   UNL     1     -10.116  15.871  67.597  1.00  0.00    -0.242 C  
HETATM    3  C   UNL     1      -9.788  16.349  66.160  1.00  0.00    -0.338 C  
HETATM    4  C   UNL     1      -8.934  16.092  68.550  1.00  0.00    -0.200 C  
HETATM    5  H1  UNL     1      -9.293  18.116  65.179  1.00  0.00     0.000 HD 
HETATM    6  N   UNL     1      -9.509  17.802  66.124  1.00  0.00    -0.501 NA 
HETATM    7  H2  UNL     1      -8.770  18.057  66.781  1.00  0.00     0.000 HD 
ENDROOT
BRANCH   3   8
HETATM    8  C   UNL     1     -10.909  16.011  65.149  1.00  0.00    -0.395 C  
HETATM    9  O   UNL     1     -11.331  16.773  64.286  1.00  0.00    -1.170 OA 
BRANCH   8  10
HETATM   10  O   UNL     1     -11.328  14.722  65.296  1.00  0.00    -0.341 OA 
BRANCH  10  11
HETATM   11  C   UNL     1     -11.823  14.107  64.089  1.00  0.00    -0.337 C  
BRANCH  11  12
HETATM   12  C   UNL     1     -11.251  12.697  63.932  1.00  0.00    -0.442 C  
BRANCH  12  13
HETATM   13  O   UNL     1     -10.544  12.371  65.132  1.00  0.00    -0.276 OA 
BRANCH  13  14
HETATM   14  C   UNL     1     -10.782  11.024  65.544  1.00  0.00    -0.148 C  
BRANCH  14  15
HETATM   15  N   UNL     1     -10.985  10.987  66.981  1.00  0.00    -0.284 NA 
HETATM   16  C   UNL     1     -11.480  12.027  67.735  1.00  0.00    -0.325 A  
HETATM   17  N   UNL     1     -11.595  11.707  69.011  1.00  0.00    -0.287 NA 
HETATM   18  C   UNL     1     -11.160  10.400  69.091  1.00  0.00    -0.246 A  
HETATM   19  C   UNL     1     -10.773   9.969  67.853  1.00  0.00    -0.272 A  
HETATM   20  N   UNL     1     -10.306   8.734  67.632  1.00  0.00    -0.241 NA 
HETATM   21  C   UNL     1     -10.285   7.884  68.705  1.00  0.00    -0.205 C  
HETATM   22  N   UNL     1      -9.869   6.631  68.388  1.00  0.00    -0.136 NA 
HETATM   23  N   UNL     1     -10.626   8.181  69.924  1.00  0.00    -0.238 N  
HETATM   24  H2  UNL     1      -9.600   6.351  67.445  1.00  0.00     0.000 HD 
HETATM   25  H1  UNL     1      -9.853   5.997  69.187  1.00  0.00     0.000 HD 
HETATM   26  C   UNL     1     -11.077   9.474  70.232  1.00  0.00    -0.271 C  
HETATM   27  H   UNL     1     -10.566   7.473  70.656  1.00  0.00     0.000 HD 
HETATM   28  O   UNL     1     -11.380   9.808  71.372  1.00  0.00    -0.369 OA 
ENDBRANCH  14  15
ENDBRANCH  13  14
ENDBRANCH  12  13
ENDBRANCH  11  12
ENDBRANCH  10  11
ENDBRANCH   8  10
ENDBRANCH   3   8
TORSDOF 7
ENDMDL
MODEL      105
REMARK 921   NORMALIZED FREE ENERGY PREDICTED BY IDOCK:   -5.34 KCAL/MOL
REMARK 922        TOTAL FREE ENERGY PREDICTED BY IDOCK:   -8.07 KCAL/MOL
REMARK 923 INTER-LIGAND FREE ENERGY PREDICTED BY IDOCK:   -7.45 KCAL/MOL
REMARK 924 INTRA-LIGAND FREE ENERGY PREDICTED BY IDOCK:   -0.62 KCAL/MOL
REMARK 927      BINDING AFFINITY PREDICTED BY RF-SCORE:    0.00 PKD
ROOT
HETATM    1  C   UNL     1     -10.578   8.195  72.593  1.00  0.00    -0.414 C  
HETATM    2  C   UNL     1     -11.593   8.915  71.698  1.00  0.00    -0.408 C  
HETATM    3  C   UNL     1     -11.619   8.366  70.249  1.00  0.00     0.016 C  
HETATM    4  C   UNL     1     -12.982   8.864  72.348  1.00  0.00    -0.467 C  
HETATM    5  H1  UNL     1     -12.042   6.582  69.265  1.00  0.00     0.000 HD 
HETATM    6  N   UNL     1     -12.024   6.943  70.218  1.00  0.00    -0.613 NA 
HETATM    7  H2  UNL     1     -12.918   6.799  70.689  1.00  0.00     0.000 HD 
ENDROOT
BRANCH   3   8
HETATM    8  C   UNL     1     -10.264   8.535  69.523  1.00  0.00    -0.206 C  
HETATM    9  O   UNL     1      -9.331   7.742  69.581  1.00  0.00    -0.153 OA 
BRANCH   8  10
HETATM   10  O   UNL     1     -10.261   9.657  68.747  1.00  0.00    -0.182 OA 
BRANCH  10  11
HETATM   11  C   UNL     1     -10.219   9.408  67.327  1.00  0.00    -0.246 C  
BRANCH  11  12
HETATM   12  C   UNL     1     -10.560  10.681  66.549  1.00  0.00    -0.193 C  
BRANCH  12  13
HETATM   13  O   UNL     1     -11.695  11.288  67.173  1.00  0.00    -0.533 OA 
BRANCH  13  14
HETATM   14  C   UNL     1     -11.629  12.714  67.131  1.00  0.00    -0.368 C  
BRANCH  14  15
HETATM   15  N   UNL     1     -11.753  13.244  68.477  1.00  0.00    -0.332 NA 
HETATM   16  C   UNL     1     -12.123  12.510  69.583  1.00  0.00    -0.207 A  
HETATM   17  N   UNL     1     -12.120  13.236  70.686  1.00  0.00    -0.330 NA 
HETATM   18  C   UNL     1     -11.728  14.496  70.283  1.00  0.00    -0.293 A  
HETATM   19  C   UNL     1     -11.520  14.501  68.931  1.00  0.00    -0.300 A  
HETATM   20  N   UNL     1     -11.130  15.595  68.266  1.00  0.00    -0.320 NA 
HETATM   21  C   UNL     1     -10.887  16.715  69.013  1.00  0.00    -0.314 C  
HETATM   22  N   UNL     1     -10.425  17.760  68.279  1.00  0.00    -0.377 NA 
HETATM   23  N   UNL     1     -11.048  16.828  70.298  1.00  0.00    -0.385 N  
HETATM   24  H2  UNL     1     -10.275  17.714  67.271  1.00  0.00     0.000 HD 
HETATM   25  H1  UNL     1     -10.243  18.595  68.835  1.00  0.00     0.000 HD 
HETATM   26  C   UNL     1     -11.504  15.732  71.048  1.00  0.00    -0.407 C  
HETATM   27  H   UNL     1     -10.844  17.714  70.761  1.00  0.00     0.000 HD 
HETATM   28  O   UNL     1     -11.699  15.802  72.256  1.00  0.00    -0.419 OA 
ENDBRANCH  14  15
ENDBRANCH  13  14
ENDBRANCH  12  13
ENDBRANCH  11  12
ENDBRANCH  10  11
ENDBRANCH   8  10
ENDBRANCH   3   8
TORSDOF 7
ENDMDL
MODEL      106
REMARK 921   NORMALIZED FREE ENERGY PREDICTED BY IDOCK:   -5.33 KCAL/MOL
REMARK 922        TOTAL FREE ENERGY PREDICTED BY IDOCK:   -8.06 KCAL/MOL
REMARK 923 INTER-LIGAND FREE ENERGY PREDICTED BY IDOCK:   -7.41 KCAL/MOL
REMARK 924 INTRA-LIGAND FREE ENERGY PREDICTED BY IDOCK:   -0.65 KCAL/MOL
REMARK 927      BINDING AFFINITY PREDICTED BY RF-SCORE:    0.00 PKD
ROOT
HETATM    1  C   UNL     1      -6.890   8.248  64.764  1.00  0.00    -0.067 C  
HETATM    2  C   UNL     1      -7.226   9.314  65.812  1.00  0.00    -0.090 C  
HETATM    3  C   UNL     1      -7.304   8.745  67.251  1.00  0.00    -0.081 C  
HETATM    4  C   UNL     1      -6.220  10.469  65.713  1.00  0.00    -0.132 C  
HETATM    5  H1  UNL     1      -6.055   7.810  68.628  1.00  0.00     0.000 HD 
HETATM    6  N   UNL     1      -6.004   8.184  67.681  1.00  0.00    -0.045 NA 
HETATM    7  H2  UNL     1      -5.253   8.868  67.590  1.00  0.00     0.000 HD 
ENDROOT
BRANCH   3   8
HETATM    8  C   UNL     1      -8.409   7.676  67.410  1.00  0.00    -0.116 C  
HETATM    9  O   UNL     1      -8.210   6.478  67.579  1.00  0.00    -0.119 OA 
BRANCH   8  10
HETATM   10  O   UNL     1      -9.648   8.247  67.405  1.00  0.00    -0.148 OA 
BRANCH  10  11
HETATM   11  C   UNL     1      -9.787   9.393  68.270  1.00  0.00    -0.160 C  
BRANCH  11  12
HETATM   12  C   UNL     1     -10.802  10.381  67.691  1.00  0.00    -0.306 C  
BRANCH  12  13
HETATM   13  O   UNL     1     -10.751  11.576  68.474  1.00  0.00    -0.190 OA 
BRANCH  13  14
HETATM   14  C   UNL     1     -11.982  12.297  68.431  1.00  0.00    -0.210 C  
BRANCH  14  15
HETATM   15  N   UNL     1     -11.836  13.455  67.568  1.00  0.00    -0.365 NA 
HETATM   16  C   UNL     1     -11.419  14.700  67.983  1.00  0.00    -0.324 A  
HETATM   17  N   UNL     1     -11.341  15.558  66.982  1.00  0.00    -0.183 NA 
HETATM   18  C   UNL     1     -11.720  14.840  65.866  1.00  0.00    -0.248 A  
HETATM   19  C   UNL     1     -12.037  13.560  66.230  1.00  0.00    -0.428 A  
HETATM   20  N   UNL     1     -12.437  12.638  65.348  1.00  0.00    -0.655 NA 
HETATM   21  C   UNL     1     -12.464  13.015  64.032  1.00  0.00    -0.292 C  
HETATM   22  N   UNL     1     -12.809  12.006  63.192  1.00  0.00    -0.805 NA 
HETATM   23  N   UNL     1     -12.185  14.198  63.570  1.00  0.00    -1.090 N  
HETATM   24  H2  UNL     1     -13.027  11.062  63.509  1.00  0.00     0.000 HD 
HETATM   25  H1  UNL     1     -12.828  12.287  62.212  1.00  0.00     0.000 HD 
HETATM   26  C   UNL     1     -11.807  15.225  64.448  1.00  0.00    -0.281 C  
HETATM   27  H   UNL     1     -12.242  14.379  62.567  1.00  0.00     0.000 HD 
HETATM   28  O   UNL     1     -11.565  16.363  64.061  1.00  0.00    -1.071 OA 
ENDBRANCH  14  15
ENDBRANCH  13  14
ENDBRANCH  12  13
ENDBRANCH  11  12
ENDBRANCH  10  11
ENDBRANCH   8  10
ENDBRANCH   3   8
TORSDOF 7
ENDMDL
MODEL      107
REMARK 921   NORMALIZED FREE ENERGY PREDICTED BY IDOCK:   -5.33 KCAL/MOL
REMARK 922        TOTAL FREE ENERGY PREDICTED BY IDOCK:   -8.05 KCAL/MOL
REMARK 923 INTER-LIGAND FREE ENERGY PREDICTED BY IDOCK:   -7.55 KCAL/MOL
REMARK 924 INTRA-LIGAND FREE ENERGY PREDICTED BY IDOCK:   -0.50 KCAL/MOL
REMARK 927      BINDING AFFINITY PREDICTED BY RF-SCORE:    0.00 PKD
ROOT
HETATM    1  C   UNL     1     -11.174   9.013  72.019  1.00  0.00    -0.379 C  
HETATM    2  C   UNL     1     -12.418   8.605  71.222  1.00  0.00    -0.284 C  
HETATM    3  C   UNL     1     -12.524   7.074  71.007  1.00  0.00    -0.326 C  
HETATM    4  C   UNL     1     -13.673   9.170  71.900  1.00  0.00    -0.485 C  
HETATM    5  H1  UNL     1     -12.713   5.347  72.152  1.00  0.00     0.000 HD 
HETATM    6  N   UNL     1     -12.643   6.354  72.294  1.00  0.00    -0.552 NA 
HETATM    7  H2  UNL     1     -13.421   6.709  72.850  1.00  0.00     0.000 HD 
ENDROOT
BRANCH   3   8
HETATM    8  C   UNL     1     -11.335   6.502  70.200  1.00  0.00    -0.402 C  
HETATM    9  O   UNL     1     -10.746   5.459  70.460  1.00  0.00    -0.263 OA 
BRANCH   8  10
HETATM   10  O   UNL     1     -11.064   7.277  69.111  1.00  0.00    -0.125 OA 
BRANCH  10  11
HETATM   11  C   UNL     1      -9.689   7.248  68.677  1.00  0.00    -0.146 C  
BRANCH  11  12
HETATM   12  C   UNL     1      -9.509   8.085  67.410  1.00  0.00    -0.151 C  
BRANCH  12  13
HETATM   13  O   UNL     1     -10.302   9.267  67.544  1.00  0.00    -0.228 OA 
BRANCH  13  14
HETATM   14  C   UNL     1     -10.488   9.932  66.294  1.00  0.00    -0.101 C  
BRANCH  14  15
HETATM   15  N   UNL     1     -10.183  11.343  66.445  1.00  0.00    -0.223 NA 
HETATM   16  C   UNL     1      -9.317  11.866  67.380  1.00  0.00    -0.176 A  
HETATM   17  N   UNL     1      -9.199  13.177  67.271  1.00  0.00    -0.212 NA 
HETATM   18  C   UNL     1     -10.021  13.522  66.217  1.00  0.00    -0.298 A  
HETATM   19  C   UNL     1     -10.632  12.402  65.726  1.00  0.00    -0.256 A  
HETATM   20  N   UNL     1     -11.486  12.439  64.696  1.00  0.00    -0.319 NA 
HETATM   21  C   UNL     1     -11.684  13.657  64.105  1.00  0.00    -0.386 C  
HETATM   22  N   UNL     1     -12.504  13.602  63.024  1.00  0.00    -0.973 NA 
HETATM   23  N   UNL     1     -11.161  14.786  64.483  1.00  0.00    -0.622 N  
HETATM   24  H2  UNL     1     -12.930  12.738  62.687  1.00  0.00     0.000 HD 
HETATM   25  H1  UNL     1     -12.652  14.509  62.583  1.00  0.00     0.000 HD 
HETATM   26  C   UNL     1     -10.296  14.824  65.588  1.00  0.00    -0.349 C  
HETATM   27  H   UNL     1     -11.379  15.644  63.976  1.00  0.00     0.000 HD 
HETATM   28  O   UNL     1      -9.803  15.869  65.998  1.00  0.00    -0.289 OA 
ENDBRANCH  14  15
ENDBRANCH  13  14
ENDBRANCH  12  13
ENDBRANCH  11  12
ENDBRANCH  10  11
ENDBRANCH   8  10
ENDBRANCH   3   8
TORSDOF 7
ENDMDL
MODEL      108
REMARK 921   NORMALIZED FREE ENERGY PREDICTED BY IDOCK:   -5.32 KCAL/MOL
REMARK 922        TOTAL FREE ENERGY PREDICTED BY IDOCK:   -8.03 KCAL/MOL
REMARK 923 INTER-LIGAND FREE ENERGY PREDICTED BY IDOCK:   -7.54 KCAL/MOL
REMARK 924 INTRA-LIGAND FREE ENERGY PREDICTED BY IDOCK:   -0.49 KCAL/MOL
REMARK 927      BINDING AFFINITY PREDICTED BY RF-SCORE:    0.00 PKD
ROOT
HETATM    1  C   UNL     1     -10.500  19.363  66.663  1.00  0.00    -0.568 C  
HETATM    2  C   UNL     1      -9.941  18.231  67.531  1.00  0.00    -0.345 C  
HETATM    3  C   UNL     1      -9.404  17.039  66.700  1.00  0.00    -0.255 C  
HETATM    4  C   UNL     1      -8.870  18.788  68.478  1.00  0.00    -0.378 C  
HETATM    5  H1  UNL     1      -7.923  16.664  65.287  1.00  0.00     0.000 HD 
HETATM    6  N   UNL     1      -8.276  17.448  65.833  1.00  0.00    -0.552 NA 
HETATM    7  H2  UNL     1      -7.533  17.893  66.373  1.00  0.00     0.000 HD 
ENDROOT
BRANCH   3   8
HETATM    8  C   UNL     1     -10.501  16.369  65.840  1.00  0.00    -0.337 C  
HETATM    9  O   UNL     1     -10.696  16.591  64.650  1.00  0.00    -0.713 OA 
BRANCH   8  10
HETATM   10  O   UNL     1     -11.191  15.441  66.563  1.00  0.00    -0.278 OA 
BRANCH  10  11
HETATM   11  C   UNL     1     -10.914  14.071  66.207  1.00  0.00    -0.300 C  
BRANCH  11  12
HETATM   12  C   UNL     1     -12.216  13.282  66.059  1.00  0.00    -0.424 C  
BRANCH  12  13
HETATM   13  O   UNL     1     -12.072  12.053  66.775  1.00  0.00    -0.613 OA 
BRANCH  13  14
HETATM   14  C   UNL     1     -10.847  12.000  67.508  1.00  0.00    -0.241 C  
BRANCH  14  15
HETATM   15  N   UNL     1     -11.043  11.231  68.723  1.00  0.00    -0.212 NA 
HETATM   16  C   UNL     1     -12.246  11.081  69.377  1.00  0.00    -0.259 A  
HETATM   17  N   UNL     1     -12.144  10.299  70.436  1.00  0.00    -0.289 NA 
HETATM   18  C   UNL     1     -10.817   9.921  70.473  1.00  0.00    -0.326 A  
HETATM   19  C   UNL     1     -10.145  10.504  69.435  1.00  0.00    -0.209 A  
HETATM   20  N   UNL     1      -8.838  10.311  69.223  1.00  0.00    -0.175 NA 
HETATM   21  C   UNL     1      -8.199   9.445  70.068  1.00  0.00    -0.162 C  
HETATM   22  N   UNL     1      -6.896   9.243  69.746  1.00  0.00    -0.050 NA 
HETATM   23  N   UNL     1      -8.732   8.834  71.085  1.00  0.00    -0.194 N  
HETATM   24  H2  UNL     1      -6.438   9.694  68.953  1.00  0.00     0.000 HD 
HETATM   25  H1  UNL     1      -6.419   8.598  70.375  1.00  0.00     0.000 HD 
HETATM   26  C   UNL     1     -10.088   9.033  71.392  1.00  0.00    -0.329 C  
HETATM   27  H   UNL     1      -8.165   8.210  71.660  1.00  0.00     0.000 HD 
HETATM   28  O   UNL     1     -10.625   8.503  72.358  1.00  0.00    -0.329 OA 
ENDBRANCH  14  15
ENDBRANCH  13  14
ENDBRANCH  12  13
ENDBRANCH  11  12
ENDBRANCH  10  11
ENDBRANCH   8  10
ENDBRANCH   3   8
TORSDOF 7
ENDMDL
MODEL      109
REMARK 921   NORMALIZED FREE ENERGY PREDICTED BY IDOCK:   -5.31 KCAL/MOL
REMARK 922        TOTAL FREE ENERGY PREDICTED BY IDOCK:   -8.02 KCAL/MOL
REMARK 923 INTER-LIGAND FREE ENERGY PREDICTED BY IDOCK:   -7.36 KCAL/MOL
REMARK 924 INTRA-LIGAND FREE ENERGY PREDICTED BY IDOCK:   -0.66 KCAL/MOL
REMARK 927      BINDING AFFINITY PREDICTED BY RF-SCORE:    0.00 PKD
ROOT
HETATM    1  C   UNL     1     -11.810  14.655  67.921  1.00  0.00    -0.352 C  
HETATM    2  C   UNL     1     -11.567  16.011  68.592  1.00  0.00    -0.343 C  
HETATM    3  C   UNL     1     -11.309  15.895  70.115  1.00  0.00    -0.365 C  
HETATM    4  C   UNL     1     -10.421  16.741  67.879  1.00  0.00    -0.335 C  
HETATM    5  H1  UNL     1      -9.922  15.028  71.401  1.00  0.00     0.000 HD 
HETATM    6  N   UNL     1     -10.091  15.104  70.399  1.00  0.00    -0.465 NA 
HETATM    7  H2  UNL     1      -9.279  15.481  69.910  1.00  0.00     0.000 HD 
ENDROOT
BRANCH   3   8
HETATM    8  C   UNL     1     -12.510  15.289  70.878  1.00  0.00    -0.388 C  
HETATM    9  O   UNL     1     -13.626  15.791  70.948  1.00  0.00    -0.538 OA 
BRANCH   8  10
HETATM   10  O   UNL     1     -12.188  14.077  71.415  1.00  0.00    -0.342 OA 
BRANCH  10  11
HETATM   11  C   UNL     1     -13.318  13.268  71.801  1.00  0.00    -0.393 C  
BRANCH  11  12
HETATM   12  C   UNL     1     -13.011  11.784  71.595  1.00  0.00    -0.362 C  
BRANCH  12  13
HETATM   13  O   UNL     1     -11.983  11.679  70.606  1.00  0.00    -0.358 OA 
BRANCH  13  14
HETATM   14  C   UNL     1     -12.409  10.928  69.469  1.00  0.00    -0.171 C  
BRANCH  14  15
HETATM   15  N   UNL     1     -11.272  10.675  68.602  1.00  0.00    -0.262 NA 
HETATM   16  C   UNL     1     -10.171   9.922  68.946  1.00  0.00    -0.196 A  
HETATM   17  N   UNL     1      -9.305   9.826  67.954  1.00  0.00    -0.128 NA 
HETATM   18  C   UNL     1      -9.867  10.543  66.918  1.00  0.00    -0.193 A  
HETATM   19  C   UNL     1     -11.061  11.074  67.323  1.00  0.00    -0.294 A  
HETATM   20  N   UNL     1     -11.829  11.818  66.519  1.00  0.00    -0.515 NA 
HETATM   21  C   UNL     1     -11.393  11.985  65.232  1.00  0.00    -0.312 C  
HETATM   22  N   UNL     1     -12.258  12.689  64.459  1.00  0.00    -0.418 NA 
HETATM   23  N   UNL     1     -10.280  11.531  64.737  1.00  0.00    -0.265 N  
HETATM   24  H2  UNL     1     -13.146  13.057  64.802  1.00  0.00     0.000 HD 
HETATM   25  H1  UNL     1     -11.934  12.813  63.500  1.00  0.00     0.000 HD 
HETATM   26  C   UNL     1      -9.405  10.784  65.542  1.00  0.00    -0.207 C  
HETATM   27  H   UNL     1     -10.042  11.717  63.762  1.00  0.00     0.000 HD 
HETATM   28  O   UNL     1      -8.332  10.362  65.126  1.00  0.00    -0.160 OA 
ENDBRANCH  14  15
ENDBRANCH  13  14
ENDBRANCH  12  13
ENDBRANCH  11  12
ENDBRANCH  10  11
ENDBRANCH   8  10
ENDBRANCH   3   8
TORSDOF 7
ENDMDL
MODEL      110
REMARK 921   NORMALIZED FREE ENERGY PREDICTED BY IDOCK:   -5.28 KCAL/MOL
REMARK 922        TOTAL FREE ENERGY PREDICTED BY IDOCK:   -7.98 KCAL/MOL
REMARK 923 INTER-LIGAND FREE ENERGY PREDICTED BY IDOCK:   -7.64 KCAL/MOL
REMARK 924 INTRA-LIGAND FREE ENERGY PREDICTED BY IDOCK:   -0.33 KCAL/MOL
REMARK 927      BINDING AFFINITY PREDICTED BY RF-SCORE:    0.00 PKD
ROOT
HETATM    1  C   UNL     1     -11.073   7.700  70.209  1.00  0.00    -0.256 C  
HETATM    2  C   UNL     1     -10.969   8.954  71.083  1.00  0.00    -0.356 C  
HETATM    3  C   UNL     1     -11.663  10.189  70.455  1.00  0.00    -0.308 C  
HETATM    4  C   UNL     1     -11.513   8.652  72.486  1.00  0.00    -0.287 C  
HETATM    5  H1  UNL     1     -13.571  10.776  69.869  1.00  0.00     0.000 HD 
HETATM    6  N   UNL     1     -13.115   9.963  70.282  1.00  0.00    -0.473 NA 
HETATM    7  H2  UNL     1     -13.558   9.692  71.160  1.00  0.00     0.000 HD 
ENDROOT
BRANCH   3   8
HETATM    8  C   UNL     1     -11.037  10.600  69.102  1.00  0.00    -0.255 C  
HETATM    9  O   UNL     1      -9.865  10.427  68.787  1.00  0.00    -0.168 OA 
BRANCH   8  10
HETATM   10  O   UNL     1     -11.979  11.125  68.266  1.00  0.00    -0.592 OA 
BRANCH  10  11
HETATM   11  C   UNL     1     -11.754  12.500  67.892  1.00  0.00    -0.359 C  
BRANCH  11  12
HETATM   12  C   UNL     1     -12.202  12.743  66.450  1.00  0.00    -0.172 C  
BRANCH  12  13
HETATM   13  O   UNL     1     -11.033  12.942  65.651  1.00  0.00    -0.268 OA 
BRANCH  13  14
HETATM   14  C   UNL     1     -10.100  13.823  66.278  1.00  0.00    -0.300 C  
BRANCH  14  15
HETATM   15  N   UNL     1     -10.357  15.186  65.848  1.00  0.00    -0.305 NA 
HETATM   16  C   UNL     1     -11.200  15.542  64.818  1.00  0.00    -0.390 A  
HETATM   17  N   UNL     1     -11.274  16.852  64.667  1.00  0.00    -0.956 NA 
HETATM   18  C   UNL     1     -10.447  17.372  65.641  1.00  0.00    -0.165 A  
HETATM   19  C   UNL     1      -9.876  16.351  66.350  1.00  0.00    -0.294 A  
HETATM   20  N   UNL     1      -9.027  16.563  67.362  1.00  0.00    -0.198 NA 
HETATM   21  C   UNL     1      -8.791  17.866  67.704  1.00  0.00    -0.250 C  
HETATM   22  N   UNL     1      -7.978  17.999  68.784  1.00  0.00    -0.281 NA 
HETATM   23  N   UNL     1      -9.274  18.915  67.106  1.00  0.00    -0.285 N  
HETATM   24  H2  UNL     1      -7.583  17.206  69.290  1.00  0.00     0.000 HD 
HETATM   25  H1  UNL     1      -7.802  18.971  69.040  1.00  0.00     0.000 HD 
HETATM   26  C   UNL     1     -10.132  18.762  66.005  1.00  0.00    -0.317 C  
HETATM   27  H   UNL     1      -9.030  19.849  67.436  1.00  0.00     0.000 HD 
HETATM   28  O   UNL     1     -10.587  19.721  65.392  1.00  0.00    -0.412 OA 
ENDBRANCH  14  15
ENDBRANCH  13  14
ENDBRANCH  12  13
ENDBRANCH  11  12
ENDBRANCH  10  11
ENDBRANCH   8  10
ENDBRANCH   3   8
TORSDOF 7
ENDMDL
MODEL      111
REMARK 921   NORMALIZED FREE ENERGY PREDICTED BY IDOCK:   -5.27 KCAL/MOL
REMARK 922        TOTAL FREE ENERGY PREDICTED BY IDOCK:   -7.97 KCAL/MOL
REMARK 923 INTER-LIGAND FREE ENERGY PREDICTED BY IDOCK:   -7.53 KCAL/MOL
REMARK 924 INTRA-LIGAND FREE ENERGY PREDICTED BY IDOCK:   -0.44 KCAL/MOL
REMARK 927      BINDING AFFINITY PREDICTED BY RF-SCORE:    0.00 PKD
ROOT
HETATM    1  C   UNL     1     -10.567   8.001  71.902  1.00  0.00    -0.305 C  
HETATM    2  C   UNL     1     -11.645   7.571  70.901  1.00  0.00    -0.309 C  
HETATM    3  C   UNL     1     -11.124   6.563  69.846  1.00  0.00    -0.371 C  
HETATM    4  C   UNL     1     -12.860   7.020  71.658  1.00  0.00    -0.408 C  
HETATM    5  H1  UNL     1     -10.324   4.643  69.783  1.00  0.00     0.000 HD 
HETATM    6  N   UNL     1     -10.667   5.306  70.478  1.00  0.00    -0.200 NA 
HETATM    7  H2  UNL     1     -11.396   4.894  71.060  1.00  0.00     0.000 HD 
ENDROOT
BRANCH   3   8
HETATM    8  C   UNL     1      -9.988   7.148  68.974  1.00  0.00    -0.174 C  
HETATM    9  O   UNL     1      -8.912   6.601  68.760  1.00  0.00    -0.126 OA 
BRANCH   8  10
HETATM   10  O   UNL     1     -10.364   8.332  68.410  1.00  0.00    -0.206 OA 
BRANCH  10  11
HETATM   11  C   UNL     1     -10.605   8.275  66.989  1.00  0.00    -0.258 C  
BRANCH  11  12
HETATM   12  C   UNL     1      -9.813   9.366  66.267  1.00  0.00    -0.281 C  
BRANCH  12  13
HETATM   13  O   UNL     1     -10.502  10.606  66.449  1.00  0.00    -0.242 OA 
BRANCH  13  14
HETATM   14  C   UNL     1     -10.052  11.608  65.538  1.00  0.00    -0.246 C  
BRANCH  14  15
HETATM   15  N   UNL     1      -9.722  12.817  66.271  1.00  0.00    -0.263 NA 
HETATM   16  C   UNL     1      -8.930  12.865  67.397  1.00  0.00    -0.199 A  
HETATM   17  N   UNL     1      -8.766  14.099  67.838  1.00  0.00    -0.171 NA 
HETATM   18  C   UNL     1      -9.478  14.890  66.959  1.00  0.00    -0.229 A  
HETATM   19  C   UNL     1     -10.073  14.102  66.013  1.00  0.00    -0.316 A  
HETATM   20  N   UNL     1     -10.828  14.603  65.029  1.00  0.00    -0.390 NA 
HETATM   21  C   UNL     1     -10.937  15.966  64.971  1.00  0.00    -0.412 C  
HETATM   22  N   UNL     1     -11.656  16.402  63.905  1.00  0.00    -1.602 NA 
HETATM   23  N   UNL     1     -10.418  16.812  65.811  1.00  0.00    -0.341 N  
HETATM   24  H2  UNL     1     -12.074  15.776  63.216  1.00  0.00     0.000 HD 
HETATM   25  H1  UNL     1     -11.737  17.418  63.861  1.00  0.00     0.000 HD 
HETATM   26  C   UNL     1      -9.657  16.348  66.895  1.00  0.00    -0.244 C  
HETATM   27  H   UNL     1     -10.565  17.814  65.682  1.00  0.00     0.000 HD 
HETATM   28  O   UNL     1      -9.174  17.107  67.729  1.00  0.00    -0.235 OA 
ENDBRANCH  14  15
ENDBRANCH  13  14
ENDBRANCH  12  13
ENDBRANCH  11  12
ENDBRANCH  10  11
ENDBRANCH   8  10
ENDBRANCH   3   8
TORSDOF 7
ENDMDL
MODEL      112
REMARK 921   NORMALIZED FREE ENERGY PREDICTED BY IDOCK:   -5.25 KCAL/MOL
REMARK 922        TOTAL FREE ENERGY PREDICTED BY IDOCK:   -7.94 KCAL/MOL
REMARK 923 INTER-LIGAND FREE ENERGY PREDICTED BY IDOCK:   -7.05 KCAL/MOL
REMARK 924 INTRA-LIGAND FREE ENERGY PREDICTED BY IDOCK:   -0.89 KCAL/MOL
REMARK 927      BINDING AFFINITY PREDICTED BY RF-SCORE:    0.00 PKD
ROOT
HETATM    1  C   UNL     1     -10.938  13.852  64.158  1.00  0.00    -0.084 C  
HETATM    2  C   UNL     1     -11.105  12.335  64.290  1.00  0.00    -0.401 C  
HETATM    3  C   UNL     1     -11.064  11.846  65.759  1.00  0.00    -0.317 C  
HETATM    4  C   UNL     1     -12.395  11.895  63.583  1.00  0.00    -0.591 C  
HETATM    5  H1  UNL     1     -12.145  12.100  67.519  1.00  0.00     0.000 HD 
HETATM    6  N   UNL     1     -12.172  12.422  66.552  1.00  0.00    -0.528 NA 
HETATM    7  H2  UNL     1     -13.078  12.233  66.121  1.00  0.00     0.000 HD 
ENDROOT
BRANCH   3   8
HETATM    8  C   UNL     1      -9.716  12.155  66.452  1.00  0.00    -0.231 C  
HETATM    9  O   UNL     1      -9.532  13.054  67.264  1.00  0.00    -0.210 OA 
BRANCH   8  10
HETATM   10  O   UNL     1      -8.761  11.248  66.092  1.00  0.00    -0.184 OA 
BRANCH  10  11
HETATM   11  C   UNL     1      -8.160  10.537  67.192  1.00  0.00    -0.120 C  
BRANCH  11  12
HETATM   12  C   UNL     1      -8.742   9.126  67.300  1.00  0.00    -0.117 C  
BRANCH  12  13
HETATM   13  O   UNL     1      -8.844   8.796  68.688  1.00  0.00    -0.136 OA 
BRANCH  13  14
HETATM   14  C   UNL     1      -8.927   9.959  69.511  1.00  0.00    -0.211 C  
BRANCH  14  15
HETATM   15  N   UNL     1     -10.256  10.053  70.086  1.00  0.00    -0.265 NA 
HETATM   16  C   UNL     1     -11.236  10.926  69.669  1.00  0.00    -0.282 A  
HETATM   17  N   UNL     1     -12.361  10.771  70.344  1.00  0.00    -0.330 NA 
HETATM   18  C   UNL     1     -12.104   9.750  71.236  1.00  0.00    -0.382 A  
HETATM   19  C   UNL     1     -10.813   9.325  71.087  1.00  0.00    -0.337 A  
HETATM   20  N   UNL     1     -10.288   8.340  71.825  1.00  0.00    -0.234 NA 
HETATM   21  C   UNL     1     -11.127   7.723  72.713  1.00  0.00    -0.398 C  
HETATM   22  N   UNL     1     -10.545   6.688  73.371  1.00  0.00    -0.292 NA 
HETATM   23  N   UNL     1     -12.368   8.039  72.941  1.00  0.00    -0.586 N  
HETATM   24  H2  UNL     1      -9.579   6.398  73.219  1.00  0.00     0.000 HD 
HETATM   25  H1  UNL     1     -11.170   6.228  74.032  1.00  0.00     0.000 HD 
HETATM   26  C   UNL     1     -12.964   9.097  72.236  1.00  0.00    -0.420 C  
HETATM   27  H   UNL     1     -12.908   7.518  73.632  1.00  0.00     0.000 HD 
HETATM   28  O   UNL     1     -14.120   9.450  72.438  1.00  0.00    -0.390 OA 
ENDBRANCH  14  15
ENDBRANCH  13  14
ENDBRANCH  12  13
ENDBRANCH  11  12
ENDBRANCH  10  11
ENDBRANCH   8  10
ENDBRANCH   3   8
TORSDOF 7
ENDMDL
MODEL      113
REMARK 921   NORMALIZED FREE ENERGY PREDICTED BY IDOCK:   -5.25 KCAL/MOL
REMARK 922        TOTAL FREE ENERGY PREDICTED BY IDOCK:   -7.94 KCAL/MOL
REMARK 923 INTER-LIGAND FREE ENERGY PREDICTED BY IDOCK:   -7.56 KCAL/MOL
REMARK 924 INTRA-LIGAND FREE ENERGY PREDICTED BY IDOCK:   -0.38 KCAL/MOL
REMARK 927      BINDING AFFINITY PREDICTED BY RF-SCORE:    0.00 PKD
ROOT
HETATM    1  C   UNL     1      -9.541   8.051  72.866  1.00  0.00    -0.348 C  
HETATM    2  C   UNL     1     -10.862   7.423  73.321  1.00  0.00    -0.417 C  
HETATM    3  C   UNL     1     -11.960   7.463  72.229  1.00  0.00    -0.239 C  
HETATM    4  C   UNL     1     -10.608   5.992  73.815  1.00  0.00    -0.265 C  
HETATM    5  H1  UNL     1     -12.284   6.716  70.313  1.00  0.00     0.000 HD 
HETATM    6  N   UNL     1     -11.561   6.690  71.032  1.00  0.00    -0.328 NA 
HETATM    7  H2  UNL     1     -11.310   5.731  71.274  1.00  0.00     0.000 HD 
ENDROOT
BRANCH   3   8
HETATM    8  C   UNL     1     -12.334   8.905  71.813  1.00  0.00    -0.357 C  
HETATM    9  O   UNL     1     -12.952   9.701  72.511  1.00  0.00    -0.331 OA 
BRANCH   8  10
HETATM   10  O   UNL     1     -11.826   9.207  70.583  1.00  0.00    -0.264 OA 
BRANCH  10  11
HETATM   11  C   UNL     1     -12.024  10.574  70.168  1.00  0.00    -0.316 C  
BRANCH  11  12
HETATM   12  C   UNL     1     -11.647  10.748  68.696  1.00  0.00    -0.272 C  
BRANCH  12  13
HETATM   13  O   UNL     1     -11.041  12.034  68.543  1.00  0.00    -0.211 OA 
BRANCH  13  14
HETATM   14  C   UNL     1     -11.880  12.939  67.823  1.00  0.00    -0.339 C  
BRANCH  14  15
HETATM   15  N   UNL     1     -11.446  14.302  68.071  1.00  0.00    -0.297 NA 
HETATM   16  C   UNL     1     -11.145  14.821  69.310  1.00  0.00    -0.266 A  
HETATM   17  N   UNL     1     -10.742  16.077  69.240  1.00  0.00    -0.252 NA 
HETATM   18  C   UNL     1     -10.779  16.388  67.896  1.00  0.00    -0.332 A  
HETATM   19  C   UNL     1     -11.224  15.307  67.187  1.00  0.00    -0.291 A  
HETATM   20  N   UNL     1     -11.359  15.324  65.856  1.00  0.00    -0.240 NA 
HETATM   21  C   UNL     1     -10.971  16.468  65.212  1.00  0.00    -0.162 C  
HETATM   22  N   UNL     1     -11.067  16.382  63.861  1.00  0.00    -1.085 NA 
HETATM   23  N   UNL     1     -10.534  17.554  65.778  1.00  0.00    -0.294 N  
HETATM   24  H2  UNL     1     -11.396  15.549  63.373  1.00  0.00     0.000 HD 
HETATM   25  H1  UNL     1     -10.778  17.235  63.381  1.00  0.00     0.000 HD 
HETATM   26  C   UNL     1     -10.418  17.619  67.176  1.00  0.00    -0.319 C  
HETATM   27  H   UNL     1     -10.277  18.359  65.207  1.00  0.00     0.000 HD 
HETATM   28  O   UNL     1     -10.039  18.632  67.755  1.00  0.00    -0.335 OA 
ENDBRANCH  14  15
ENDBRANCH  13  14
ENDBRANCH  12  13
ENDBRANCH  11  12
ENDBRANCH  10  11
ENDBRANCH   8  10
ENDBRANCH   3   8
TORSDOF 7
ENDMDL
MODEL      114
REMARK 921   NORMALIZED FREE ENERGY PREDICTED BY IDOCK:   -5.25 KCAL/MOL
REMARK 922        TOTAL FREE ENERGY PREDICTED BY IDOCK:   -7.94 KCAL/MOL
REMARK 923 INTER-LIGAND FREE ENERGY PREDICTED BY IDOCK:   -7.57 KCAL/MOL
REMARK 924 INTRA-LIGAND FREE ENERGY PREDICTED BY IDOCK:   -0.36 KCAL/MOL
REMARK 927      BINDING AFFINITY PREDICTED BY RF-SCORE:    0.00 PKD
ROOT
HETATM    1  C   UNL     1     -10.566  19.788  66.691  1.00  0.00    -0.578 C  
HETATM    2  C   UNL     1     -10.227  18.592  67.586  1.00  0.00    -0.417 C  
HETATM    3  C   UNL     1      -9.726  17.361  66.788  1.00  0.00    -0.290 C  
HETATM    4  C   UNL     1      -9.216  19.020  68.658  1.00  0.00    -0.414 C  
HETATM    5  H1  UNL     1      -8.143  16.853  65.537  1.00  0.00     0.000 HD 
HETATM    6  N   UNL     1      -8.472  17.662  66.061  1.00  0.00    -0.528 NA 
HETATM    7  H2  UNL     1      -7.752  18.018  66.690  1.00  0.00     0.000 HD 
ENDROOT
BRANCH   3   8
HETATM    8  C   UNL     1     -10.784  16.823  65.797  1.00  0.00    -0.180 C  
HETATM    9  O   UNL     1     -11.009  17.290  64.686  1.00  0.00    -1.013 OA 
BRANCH   8  10
HETATM   10  O   UNL     1     -11.396  15.709  66.291  1.00  0.00    -0.120 OA 
BRANCH  10  11
HETATM   11  C   UNL     1     -11.550  14.634  65.342  1.00  0.00    -0.345 C  
BRANCH  11  12
HETATM   12  C   UNL     1     -12.830  13.846  65.628  1.00  0.00    -0.424 C  
BRANCH  12  13
HETATM   13  O   UNL     1     -12.504  12.454  65.610  1.00  0.00    -0.640 OA 
BRANCH  13  14
HETATM   14  C   UNL     1     -11.138  12.227  65.262  1.00  0.00    -0.316 C  
BRANCH  14  15
HETATM   15  N   UNL     1     -10.676  11.001  65.886  1.00  0.00    -0.203 NA 
HETATM   16  C   UNL     1     -11.058  10.559  67.134  1.00  0.00    -0.160 A  
HETATM   17  N   UNL     1     -10.512   9.395  67.438  1.00  0.00    -0.269 NA 
HETATM   18  C   UNL     1      -9.745   9.062  66.340  1.00  0.00    -0.268 A  
HETATM   19  C   UNL     1      -9.835  10.053  65.401  1.00  0.00    -0.314 A  
HETATM   20  N   UNL     1      -9.192   9.996  64.229  1.00  0.00    -0.252 NA 
HETATM   21  C   UNL     1      -8.473   8.859  63.977  1.00  0.00    -0.133 C  
HETATM   22  N   UNL     1      -7.911   8.843  62.741  1.00  0.00    -0.123 NA 
HETATM   23  N   UNL     1      -8.316   7.856  64.789  1.00  0.00    -0.314 N  
HETATM   24  H2  UNL     1      -8.014   9.602  62.067  1.00  0.00     0.000 HD 
HETATM   25  H1  UNL     1      -7.375   7.996  62.553  1.00  0.00     0.000 HD 
HETATM   26  C   UNL     1      -8.923   7.876  66.055  1.00  0.00    -0.154 C  
HETATM   27  H   UNL     1      -7.751   7.055  64.507  1.00  0.00     0.000 HD 
HETATM   28  O   UNL     1      -8.778   6.968  66.865  1.00  0.00    -0.117 OA 
ENDBRANCH  14  15
ENDBRANCH  13  14
ENDBRANCH  12  13
ENDBRANCH  11  12
ENDBRANCH  10  11
ENDBRANCH   8  10
ENDBRANCH   3   8
TORSDOF 7
ENDMDL
MODEL      115
REMARK 921   NORMALIZED FREE ENERGY PREDICTED BY IDOCK:   -5.23 KCAL/MOL
REMARK 922        TOTAL FREE ENERGY PREDICTED BY IDOCK:   -7.91 KCAL/MOL
REMARK 923 INTER-LIGAND FREE ENERGY PREDICTED BY IDOCK:   -6.98 KCAL/MOL
REMARK 924 INTRA-LIGAND FREE ENERGY PREDICTED BY IDOCK:   -0.93 KCAL/MOL
REMARK 927      BINDING AFFINITY PREDICTED BY RF-SCORE:    0.00 PKD
ROOT
HETATM    1  C   UNL     1     -11.978  15.983  72.029  1.00  0.00    -0.622 C  
HETATM    2  C   UNL     1     -13.069  15.488  71.073  1.00  0.00    -0.551 C  
HETATM    3  C   UNL     1     -12.641  14.242  70.258  1.00  0.00    -0.319 C  
HETATM    4  C   UNL     1     -14.364  15.234  71.857  1.00  0.00    -0.691 C  
HETATM    5  H1  UNL     1     -12.074  12.270  70.606  1.00  0.00     0.000 HD 
HETATM    6  N   UNL     1     -12.356  13.090  71.142  1.00  0.00    -0.357 NA 
HETATM    7  H2  UNL     1     -13.146  12.883  71.753  1.00  0.00     0.000 HD 
ENDROOT
BRANCH   3   8
HETATM    8  C   UNL     1     -11.418  14.515  69.351  1.00  0.00    -0.285 C  
HETATM    9  O   UNL     1     -10.253  14.549  69.732  1.00  0.00     0.019 OA 
BRANCH   8  10
HETATM   10  O   UNL     1     -11.796  14.649  68.047  1.00  0.00    -0.338 OA 
BRANCH  10  11
HETATM   11  C   UNL     1     -11.233  15.792  67.371  1.00  0.00    -0.179 C  
BRANCH  11  12
HETATM   12  C   UNL     1      -9.981  15.389  66.590  1.00  0.00    -0.260 C  
BRANCH  12  13
HETATM   13  O   UNL     1     -10.159  14.047  66.131  1.00  0.00    -0.290 OA 
BRANCH  13  14
HETATM   14  C   UNL     1      -9.045  13.216  66.462  1.00  0.00    -0.124 C  
BRANCH  14  15
HETATM   15  N   UNL     1      -9.429  11.821  66.342  1.00  0.00    -0.216 NA 
HETATM   16  C   UNL     1      -9.301  11.064  65.198  1.00  0.00    -0.220 A  
HETATM   17  N   UNL     1      -9.694   9.816  65.381  1.00  0.00    -0.304 NA 
HETATM   18  C   UNL     1     -10.092   9.757  66.701  1.00  0.00    -0.237 A  
HETATM   19  C   UNL     1      -9.944  10.987  67.280  1.00  0.00    -0.181 A  
HETATM   20  N   UNL     1     -10.252  11.223  68.560  1.00  0.00    -0.198 NA 
HETATM   21  C   UNL     1     -10.677  10.152  69.298  1.00  0.00    -0.231 C  
HETATM   22  N   UNL     1     -10.900  10.453  70.603  1.00  0.00    -0.406 NA 
HETATM   23  N   UNL     1     -10.855   8.941  68.858  1.00  0.00    -0.420 N  
HETATM   24  H2  UNL     1     -10.765  11.385  70.995  1.00  0.00     0.000 HD 
HETATM   25  H1  UNL     1     -11.215   9.655  71.153  1.00  0.00     0.000 HD 
HETATM   26  C   UNL     1     -10.597   8.638  67.512  1.00  0.00    -0.222 C  
HETATM   27  H   UNL     1     -11.183   8.211  69.491  1.00  0.00     0.000 HD 
HETATM   28  O   UNL     1     -10.780   7.519  67.045  1.00  0.00    -0.346 OA 
ENDBRANCH  14  15
ENDBRANCH  13  14
ENDBRANCH  12  13
ENDBRANCH  11  12
ENDBRANCH  10  11
ENDBRANCH   8  10
ENDBRANCH   3   8
TORSDOF 7
ENDMDL
MODEL      116
REMARK 921   NORMALIZED FREE ENERGY PREDICTED BY IDOCK:   -5.22 KCAL/MOL
REMARK 922        TOTAL FREE ENERGY PREDICTED BY IDOCK:   -7.90 KCAL/MOL
REMARK 923 INTER-LIGAND FREE ENERGY PREDICTED BY IDOCK:   -6.99 KCAL/MOL
REMARK 924 INTRA-LIGAND FREE ENERGY PREDICTED BY IDOCK:   -0.92 KCAL/MOL
REMARK 927      BINDING AFFINITY PREDICTED BY RF-SCORE:    0.00 PKD
ROOT
HETATM    1  C   UNL     1     -10.483  12.490  64.259  1.00  0.00    -0.404 C  
HETATM    2  C   UNL     1     -11.978  12.500  64.592  1.00  0.00    -0.468 C  
HETATM    3  C   UNL     1     -12.493  13.897  65.024  1.00  0.00    -0.419 C  
HETATM    4  C   UNL     1     -12.775  11.946  63.404  1.00  0.00    -0.496 C  
HETATM    5  H1  UNL     1     -12.676  15.808  64.221  1.00  0.00     0.000 HD 
HETATM    6  N   UNL     1     -12.337  14.890  63.938  1.00  0.00    -1.064 NA 
HETATM    7  H2  UNL     1     -12.786  14.575  63.077  1.00  0.00     0.000 HD 
ENDROOT
BRANCH   3   8
HETATM    8  C   UNL     1     -11.801  14.417  66.305  1.00  0.00    -0.379 C  
HETATM    9  O   UNL     1     -10.930  15.279  66.334  1.00  0.00    -0.320 OA 
BRANCH   8  10
HETATM   10  O   UNL     1     -12.335  13.839  67.419  1.00  0.00    -0.312 OA 
BRANCH  10  11
HETATM   11  C   UNL     1     -11.561  14.020  68.623  1.00  0.00    -0.325 C  
BRANCH  11  12
HETATM   12  C   UNL     1     -11.443  12.701  69.388  1.00  0.00    -0.266 C  
BRANCH  12  13
HETATM   13  O   UNL     1     -11.796  11.640  68.497  1.00  0.00    -0.348 OA 
BRANCH  13  14
HETATM   14  C   UNL     1     -11.194  10.401  68.874  1.00  0.00    -0.235 C  
BRANCH  14  15
HETATM   15  N   UNL     1     -10.307   9.951  67.817  1.00  0.00    -0.205 NA 
HETATM   16  C   UNL     1     -10.542   8.870  66.996  1.00  0.00    -0.209 A  
HETATM   17  N   UNL     1      -9.587   8.710  66.098  1.00  0.00    -0.247 NA 
HETATM   18  C   UNL     1      -8.693   9.733  66.341  1.00  0.00    -0.131 A  
HETATM   19  C   UNL     1      -9.128  10.479  67.402  1.00  0.00    -0.139 A  
HETATM   20  N   UNL     1      -8.455  11.541  67.860  1.00  0.00    -0.136 NA 
HETATM   21  C   UNL     1      -7.323  11.894  67.177  1.00  0.00    -0.142 C  
HETATM   22  N   UNL     1      -6.737  13.022  67.654  1.00  0.00    -0.146 NA 
HETATM   23  N   UNL     1      -6.815  11.263  66.160  1.00  0.00    -0.358 N  
HETATM   24  H2  UNL     1      -7.105  13.554  68.444  1.00  0.00     0.000 HD 
HETATM   25  H1  UNL     1      -5.894  13.285  67.146  1.00  0.00     0.000 HD 
HETATM   26  C   UNL     1      -7.444  10.111  65.661  1.00  0.00    -0.144 C  
HETATM   27  H   UNL     1      -5.958  11.605  65.723  1.00  0.00     0.000 HD 
HETATM   28  O   UNL     1      -6.986   9.468  64.724  1.00  0.00    -0.095 OA 
ENDBRANCH  14  15
ENDBRANCH  13  14
ENDBRANCH  12  13
ENDBRANCH  11  12
ENDBRANCH  10  11
ENDBRANCH   8  10
ENDBRANCH   3   8
TORSDOF 7
ENDMDL
MODEL      117
REMARK 921   NORMALIZED FREE ENERGY PREDICTED BY IDOCK:   -5.22 KCAL/MOL
REMARK 922        TOTAL FREE ENERGY PREDICTED BY IDOCK:   -7.90 KCAL/MOL
REMARK 923 INTER-LIGAND FREE ENERGY PREDICTED BY IDOCK:   -7.41 KCAL/MOL
REMARK 924 INTRA-LIGAND FREE ENERGY PREDICTED BY IDOCK:   -0.49 KCAL/MOL
REMARK 927      BINDING AFFINITY PREDICTED BY RF-SCORE:    0.00 PKD
ROOT
HETATM    1  C   UNL     1      -6.914  18.698  65.897  1.00  0.00    -0.305 C  
HETATM    2  C   UNL     1      -7.365  20.121  66.242  1.00  0.00    -0.310 C  
HETATM    3  C   UNL     1      -8.468  20.161  67.328  1.00  0.00    -0.342 C  
HETATM    4  C   UNL     1      -6.147  20.965  66.642  1.00  0.00    -0.312 C  
HETATM    5  H1  UNL     1      -8.715  19.618  69.322  1.00  0.00     0.000 HD 
HETATM    6  N   UNL     1      -7.989  19.592  68.607  1.00  0.00    -0.331 NA 
HETATM    7  H2  UNL     1      -7.135  20.053  68.925  1.00  0.00     0.000 HD 
ENDROOT
BRANCH   3   8
HETATM    8  C   UNL     1      -9.762  19.434  66.891  1.00  0.00    -0.343 C  
HETATM    9  O   UNL     1     -10.488  19.785  65.967  1.00  0.00    -0.485 OA 
BRANCH   8  10
HETATM   10  O   UNL     1      -9.961  18.303  67.626  1.00  0.00    -0.311 OA 
BRANCH  10  11
HETATM   11  C   UNL     1     -10.775  17.301  66.984  1.00  0.00    -0.152 C  
BRANCH  11  12
HETATM   12  C   UNL     1     -10.075  15.941  67.016  1.00  0.00    -0.268 C  
BRANCH  12  13
HETATM   13  O   UNL     1     -11.051  14.950  67.350  1.00  0.00    -0.305 OA 
BRANCH  13  14
HETATM   14  C   UNL     1     -11.681  14.406  66.190  1.00  0.00    -0.378 C  
BRANCH  14  15
HETATM   15  N   UNL     1     -11.119  13.099  65.901  1.00  0.00    -0.277 NA 
HETATM   16  C   UNL     1     -10.400  12.781  64.771  1.00  0.00    -0.322 A  
HETATM   17  N   UNL     1      -9.977  11.530  64.784  1.00  0.00    -0.251 NA 
HETATM   18  C   UNL     1     -10.438  11.011  65.977  1.00  0.00    -0.245 A  
HETATM   19  C   UNL     1     -11.149  11.967  66.649  1.00  0.00    -0.310 A  
HETATM   20  N   UNL     1     -11.713  11.740  67.841  1.00  0.00    -0.509 NA 
HETATM   21  C   UNL     1     -11.500  10.509  68.399  1.00  0.00    -0.214 C  
HETATM   22  N   UNL     1     -12.040  10.380  69.638  1.00  0.00    -0.507 NA 
HETATM   23  N   UNL     1     -10.844   9.526  67.856  1.00  0.00    -0.444 N  
HETATM   24  H2  UNL     1     -12.554  11.127  70.106  1.00  0.00     0.000 HD 
HETATM   25  H1  UNL     1     -11.881   9.463  70.054  1.00  0.00     0.000 HD 
HETATM   26  C   UNL     1     -10.270   9.681  66.584  1.00  0.00    -0.232 C  
HETATM   27  H   UNL     1     -10.748   8.641  68.355  1.00  0.00     0.000 HD 
HETATM   28  O   UNL     1      -9.670   8.773  66.021  1.00  0.00    -0.254 OA 
ENDBRANCH  14  15
ENDBRANCH  13  14
ENDBRANCH  12  13
ENDBRANCH  11  12
ENDBRANCH  10  11
ENDBRANCH   8  10
ENDBRANCH   3   8
TORSDOF 7
ENDMDL
MODEL      118
REMARK 921   NORMALIZED FREE ENERGY PREDICTED BY IDOCK:   -5.22 KCAL/MOL
REMARK 922        TOTAL FREE ENERGY PREDICTED BY IDOCK:   -7.90 KCAL/MOL
REMARK 923 INTER-LIGAND FREE ENERGY PREDICTED BY IDOCK:   -7.56 KCAL/MOL
REMARK 924 INTRA-LIGAND FREE ENERGY PREDICTED BY IDOCK:   -0.33 KCAL/MOL
REMARK 927      BINDING AFFINITY PREDICTED BY RF-SCORE:    0.00 PKD
ROOT
HETATM    1  C   UNL     1      -9.977   4.834  70.063  1.00  0.00    -0.314 C  
HETATM    2  C   UNL     1      -9.759   6.279  70.527  1.00  0.00    -0.196 C  
HETATM    3  C   UNL     1     -10.692   7.291  69.816  1.00  0.00    -0.239 C  
HETATM    4  C   UNL     1      -9.898   6.357  72.053  1.00  0.00    -0.169 C  
HETATM    5  H1  UNL     1     -12.729   7.674  69.637  1.00  0.00     0.000 HD 
HETATM    6  N   UNL     1     -12.116   7.008  70.104  1.00  0.00    -0.623 NA 
HETATM    7  H2  UNL     1     -12.294   6.976  71.108  1.00  0.00     0.000 HD 
ENDROOT
BRANCH   3   8
HETATM    8  C   UNL     1     -10.471   7.332  68.286  1.00  0.00    -0.199 C  
HETATM    9  O   UNL     1     -11.139   6.718  67.462  1.00  0.00    -0.301 OA 
BRANCH   8  10
HETATM   10  O   UNL     1      -9.470   8.199  67.959  1.00  0.00    -0.142 OA 
BRANCH  10  11
HETATM   11  C   UNL     1      -9.831   9.593  68.034  1.00  0.00    -0.150 C  
BRANCH  11  12
HETATM   12  C   UNL     1      -9.538  10.295  66.707  1.00  0.00    -0.172 C  
BRANCH  12  13
HETATM   13  O   UNL     1     -10.751  10.898  66.248  1.00  0.00    -0.243 OA 
BRANCH  13  14
HETATM   14  C   UNL     1     -10.802  10.982  64.824  1.00  0.00    -0.163 C  
BRANCH  14  15
HETATM   15  N   UNL     1     -11.224  12.315  64.432  1.00  0.00    -0.316 NA 
HETATM   16  C   UNL     1     -12.228  12.591  63.531  1.00  0.00    -0.558 A  
HETATM   17  N   UNL     1     -12.427  13.889  63.389  1.00  0.00    -0.791 NA 
HETATM   18  C   UNL     1     -11.516  14.484  64.238  1.00  0.00    -0.180 A  
HETATM   19  C   UNL     1     -10.772  13.521  64.861  1.00  0.00    -0.381 A  
HETATM   20  N   UNL     1      -9.810  13.811  65.744  1.00  0.00    -0.258 NA 
HETATM   21  C   UNL     1      -9.633  15.134  66.049  1.00  0.00    -0.330 C  
HETATM   22  N   UNL     1      -8.692  15.343  67.004  1.00  0.00    -0.211 NA 
HETATM   23  N   UNL     1     -10.278  16.133  65.522  1.00  0.00    -0.359 N  
HETATM   24  H2  UNL     1      -8.168  14.590  67.451  1.00  0.00     0.000 HD 
HETATM   25  H1  UNL     1      -8.560  16.329  67.231  1.00  0.00     0.000 HD 
HETATM   26  C   UNL     1     -11.265  15.899  64.553  1.00  0.00    -0.312 C  
HETATM   27  H   UNL     1     -10.065  17.087  65.814  1.00  0.00     0.000 HD 
HETATM   28  O   UNL     1     -11.877  16.812  64.008  1.00  0.00    -0.956 OA 
ENDBRANCH  14  15
ENDBRANCH  13  14
ENDBRANCH  12  13
ENDBRANCH  11  12
ENDBRANCH  10  11
ENDBRANCH   8  10
ENDBRANCH   3   8
TORSDOF 7
ENDMDL
MODEL      119
REMARK 921   NORMALIZED FREE ENERGY PREDICTED BY IDOCK:   -5.21 KCAL/MOL
REMARK 922        TOTAL FREE ENERGY PREDICTED BY IDOCK:   -7.88 KCAL/MOL
REMARK 923 INTER-LIGAND FREE ENERGY PREDICTED BY IDOCK:   -7.33 KCAL/MOL
REMARK 924 INTRA-LIGAND FREE ENERGY PREDICTED BY IDOCK:   -0.56 KCAL/MOL
REMARK 927      BINDING AFFINITY PREDICTED BY RF-SCORE:    0.00 PKD
ROOT
HETATM    1  C   UNL     1      -7.787  18.478  68.275  1.00  0.00    -0.323 C  
HETATM    2  C   UNL     1      -7.763  18.861  66.791  1.00  0.00    -0.252 C  
HETATM    3  C   UNL     1      -9.075  19.536  66.319  1.00  0.00    -0.360 C  
HETATM    4  C   UNL     1      -6.539  19.742  66.506  1.00  0.00    -0.203 C  
HETATM    5  H1  UNL     1     -10.182  21.251  66.727  1.00  0.00     0.000 HD 
HETATM    6  N   UNL     1      -9.319  20.806  67.038  1.00  0.00    -0.654 NA 
HETATM    7  H2  UNL     1      -8.523  21.440  66.957  1.00  0.00     0.000 HD 
ENDROOT
BRANCH   3   8
HETATM    8  C   UNL     1     -10.307  18.612  66.467  1.00  0.00    -0.421 C  
HETATM    9  O   UNL     1     -10.970  18.483  67.490  1.00  0.00    -0.371 OA 
BRANCH   8  10
HETATM   10  O   UNL     1     -10.607  18.003  65.284  1.00  0.00    -0.615 OA 
BRANCH  10  11
HETATM   11  C   UNL     1     -10.604  16.561  65.331  1.00  0.00    -0.276 C  
BRANCH  11  12
HETATM   12  C   UNL     1     -11.633  15.992  64.353  1.00  0.00    -0.212 C  
BRANCH  12  13
HETATM   13  O   UNL     1     -11.677  14.574  64.533  1.00  0.00    -0.411 OA 
BRANCH  13  14
HETATM   14  C   UNL     1     -10.412  14.046  64.934  1.00  0.00    -0.431 C  
BRANCH  14  15
HETATM   15  N   UNL     1     -10.608  13.063  65.984  1.00  0.00    -0.275 NA 
HETATM   16  C   UNL     1     -11.736  12.286  66.136  1.00  0.00    -0.376 A  
HETATM   17  N   UNL     1     -11.631  11.451  67.154  1.00  0.00    -0.538 NA 
HETATM   18  C   UNL     1     -10.380  11.691  67.686  1.00  0.00    -0.189 A  
HETATM   19  C   UNL     1      -9.765  12.687  66.979  1.00  0.00    -0.225 A  
HETATM   20  N   UNL     1      -8.536  13.127  67.273  1.00  0.00    -0.203 NA 
HETATM   21  C   UNL     1      -7.883  12.490  68.293  1.00  0.00    -0.144 C  
HETATM   22  N   UNL     1      -6.616  12.941  68.483  1.00  0.00    -0.080 NA 
HETATM   23  N   UNL     1      -8.364  11.535  69.032  1.00  0.00    -0.368 N  
HETATM   24  H2  UNL     1      -6.194  13.682  67.923  1.00  0.00     0.000 HD 
HETATM   25  H1  UNL     1      -6.129  12.467  69.243  1.00  0.00     0.000 HD 
HETATM   26  C   UNL     1      -9.667  11.062  68.808  1.00  0.00    -0.191 C  
HETATM   27  H   UNL     1      -7.795  11.130  69.776  1.00  0.00     0.000 HD 
HETATM   28  O   UNL     1     -10.173  10.185  69.499  1.00  0.00    -0.209 OA 
ENDBRANCH  14  15
ENDBRANCH  13  14
ENDBRANCH  12  13
ENDBRANCH  11  12
ENDBRANCH  10  11
ENDBRANCH   8  10
ENDBRANCH   3   8
TORSDOF 7
ENDMDL
MODEL      120
REMARK 921   NORMALIZED FREE ENERGY PREDICTED BY IDOCK:   -5.21 KCAL/MOL
REMARK 922        TOTAL FREE ENERGY PREDICTED BY IDOCK:   -7.88 KCAL/MOL
REMARK 923 INTER-LIGAND FREE ENERGY PREDICTED BY IDOCK:   -6.62 KCAL/MOL
REMARK 924 INTRA-LIGAND FREE ENERGY PREDICTED BY IDOCK:   -1.26 KCAL/MOL
REMARK 927      BINDING AFFINITY PREDICTED BY RF-SCORE:    0.00 PKD
ROOT
HETATM    1  C   UNL     1     -12.661  11.810  63.158  1.00  0.00    -0.247 C  
HETATM    2  C   UNL     1     -11.320  12.276  63.735  1.00  0.00    -0.534 C  
HETATM    3  C   UNL     1     -11.458  12.940  65.128  1.00  0.00    -0.313 C  
HETATM    4  C   UNL     1     -10.334  11.100  63.765  1.00  0.00    -0.447 C  
HETATM    5  H1  UNL     1     -12.086  12.429  67.045  1.00  0.00     0.000 HD 
HETATM    6  N   UNL     1     -11.995  11.992  66.129  1.00  0.00    -0.557 NA 
HETATM    7  H2  UNL     1     -11.435  11.140  66.175  1.00  0.00     0.000 HD 
ENDROOT
BRANCH   3   8
HETATM    8  C   UNL     1     -12.336  14.213  65.097  1.00  0.00    -0.451 C  
HETATM    9  O   UNL     1     -13.505  14.271  65.460  1.00  0.00    -0.580 OA 
BRANCH   8  10
HETATM   10  O   UNL     1     -11.618  15.293  64.673  1.00  0.00    -0.404 OA 
BRANCH  10  11
HETATM   11  C   UNL     1     -10.360  15.486  65.351  1.00  0.00    -0.394 C  
BRANCH  11  12
HETATM   12  C   UNL     1     -10.582  16.140  66.716  1.00  0.00    -0.277 C  
BRANCH  12  13
HETATM   13  O   UNL     1      -9.588  15.639  67.613  1.00  0.00    -0.218 OA 
BRANCH  13  14
HETATM   14  C   UNL     1     -10.012  14.444  68.269  1.00  0.00    -0.232 C  
BRANCH  14  15
HETATM   15  N   UNL     1      -9.079  13.372  67.973  1.00  0.00    -0.198 NA 
HETATM   16  C   UNL     1      -7.803  13.549  67.485  1.00  0.00    -0.178 A  
HETATM   17  N   UNL     1      -7.162  12.404  67.341  1.00  0.00    -0.144 NA 
HETATM   18  C   UNL     1      -8.057  11.439  67.757  1.00  0.00    -0.121 A  
HETATM   19  C   UNL     1      -9.232  12.032  68.126  1.00  0.00    -0.195 A  
HETATM   20  N   UNL     1     -10.282  11.335  68.574  1.00  0.00    -0.198 NA 
HETATM   21  C   UNL     1     -10.112   9.983  68.706  1.00  0.00    -0.185 C  
HETATM   22  N   UNL     1     -11.193   9.355  69.234  1.00  0.00    -0.442 NA 
HETATM   23  N   UNL     1      -9.045   9.311  68.387  1.00  0.00    -0.129 N  
HETATM   24  H2  UNL     1     -12.048   9.842  69.506  1.00  0.00     0.000 HD 
HETATM   25  H1  UNL     1     -11.067   8.348  69.332  1.00  0.00     0.000 HD 
HETATM   26  C   UNL     1      -7.926   9.977  67.864  1.00  0.00    -0.105 C  
HETATM   27  H   UNL     1      -9.022   8.299  68.518  1.00  0.00     0.000 HD 
HETATM   28  O   UNL     1      -6.910   9.382  67.522  1.00  0.00    -0.074 OA 
ENDBRANCH  14  15
ENDBRANCH  13  14
ENDBRANCH  12  13
ENDBRANCH  11  12
ENDBRANCH  10  11
ENDBRANCH   8  10
ENDBRANCH   3   8
TORSDOF 7
ENDMDL
MODEL      121
REMARK 921   NORMALIZED FREE ENERGY PREDICTED BY IDOCK:   -5.21 KCAL/MOL
REMARK 922        TOTAL FREE ENERGY PREDICTED BY IDOCK:   -7.88 KCAL/MOL
REMARK 923 INTER-LIGAND FREE ENERGY PREDICTED BY IDOCK:   -7.21 KCAL/MOL
REMARK 924 INTRA-LIGAND FREE ENERGY PREDICTED BY IDOCK:   -0.67 KCAL/MOL
REMARK 927      BINDING AFFINITY PREDICTED BY RF-SCORE:    0.00 PKD
ROOT
HETATM    1  C   UNL     1      -7.309  17.696  66.622  1.00  0.00    -0.265 C  
HETATM    2  C   UNL     1      -7.439  19.201  66.364  1.00  0.00    -0.271 C  
HETATM    3  C   UNL     1      -8.387  19.907  67.365  1.00  0.00    -0.322 C  
HETATM    4  C   UNL     1      -6.046  19.844  66.354  1.00  0.00    -0.177 C  
HETATM    5  H1  UNL     1      -8.510  20.264  69.411  1.00  0.00     0.000 HD 
HETATM    6  N   UNL     1      -7.886  19.799  68.753  1.00  0.00    -0.280 NA 
HETATM    7  H2  UNL     1      -6.930  20.148  68.833  1.00  0.00     0.000 HD 
ENDROOT
BRANCH   3   8
HETATM    8  C   UNL     1      -9.836  19.370  67.294  1.00  0.00    -0.344 C  
HETATM    9  O   UNL     1     -10.550  19.401  66.298  1.00  0.00    -0.454 OA 
BRANCH   8  10
HETATM   10  O   UNL     1     -10.201  18.790  68.473  1.00  0.00    -0.377 OA 
BRANCH  10  11
HETATM   11  C   UNL     1     -10.674  17.433  68.357  1.00  0.00    -0.301 C  
BRANCH  11  12
HETATM   12  C   UNL     1      -9.973  16.531  69.374  1.00  0.00    -0.187 C  
BRANCH  12  13
HETATM   13  O   UNL     1     -10.907  16.226  70.413  1.00  0.00    -0.303 OA 
BRANCH  13  14
HETATM   14  C   UNL     1     -12.134  15.709  69.895  1.00  0.00    -0.341 C  
BRANCH  14  15
HETATM   15  N   UNL     1     -11.969  14.303  69.573  1.00  0.00    -0.318 NA 
HETATM   16  C   UNL     1     -12.100  13.268  70.473  1.00  0.00    -0.314 A  
HETATM   17  N   UNL     1     -11.933  12.089  69.902  1.00  0.00    -0.328 NA 
HETATM   18  C   UNL     1     -11.686  12.367  68.573  1.00  0.00    -0.326 A  
HETATM   19  C   UNL     1     -11.693  13.721  68.379  1.00  0.00    -0.358 A  
HETATM   20  N   UNL     1     -11.482  14.279  67.182  1.00  0.00    -0.341 NA 
HETATM   21  C   UNL     1     -11.313  13.425  66.126  1.00  0.00    -0.303 C  
HETATM   22  N   UNL     1     -11.178  14.063  64.935  1.00  0.00    -0.346 NA 
HETATM   23  N   UNL     1     -11.287  12.126  66.189  1.00  0.00    -0.346 N  
HETATM   24  H2  UNL     1     -11.201  15.078  64.837  1.00  0.00     0.000 HD 
HETATM   25  H1  UNL     1     -11.052  13.427  64.148  1.00  0.00     0.000 HD 
HETATM   26  C   UNL     1     -11.452  11.479  67.423  1.00  0.00    -0.274 C  
HETATM   27  H   UNL     1     -11.147  11.578  65.340  1.00  0.00     0.000 HD 
HETATM   28  O   UNL     1     -11.405  10.259  67.535  1.00  0.00    -0.335 OA 
ENDBRANCH  14  15
ENDBRANCH  13  14
ENDBRANCH  12  13
ENDBRANCH  11  12
ENDBRANCH  10  11
ENDBRANCH   8  10
ENDBRANCH   3   8
TORSDOF 7
ENDMDL
MODEL      122
REMARK 921   NORMALIZED FREE ENERGY PREDICTED BY IDOCK:   -5.19 KCAL/MOL
REMARK 922        TOTAL FREE ENERGY PREDICTED BY IDOCK:   -7.86 KCAL/MOL
REMARK 923 INTER-LIGAND FREE ENERGY PREDICTED BY IDOCK:   -7.10 KCAL/MOL
REMARK 924 INTRA-LIGAND FREE ENERGY PREDICTED BY IDOCK:   -0.76 KCAL/MOL
REMARK 927      BINDING AFFINITY PREDICTED BY RF-SCORE:    0.00 PKD
ROOT
HETATM    1  C   UNL     1      -7.081   9.614  65.335  1.00  0.00    -0.100 C  
HETATM    2  C   UNL     1      -8.182   9.695  66.398  1.00  0.00    -0.119 C  
HETATM    3  C   UNL     1      -8.622  11.148  66.705  1.00  0.00    -0.157 C  
HETATM    4  C   UNL     1      -9.371   8.821  65.975  1.00  0.00    -0.296 C  
HETATM    5  H1  UNL     1      -9.486  12.760  65.711  1.00  0.00     0.000 HD 
HETATM    6  N   UNL     1      -9.196  11.804  65.509  1.00  0.00    -0.407 NA 
HETATM    7  H2  UNL     1      -9.962  11.257  65.115  1.00  0.00     0.000 HD 
ENDROOT
BRANCH   3   8
HETATM    8  C   UNL     1      -7.470  12.013  67.267  1.00  0.00    -0.158 C  
HETATM    9  O   UNL     1      -6.284  11.874  66.987  1.00  0.00    -0.142 OA 
BRANCH   8  10
HETATM   10  O   UNL     1      -7.949  13.005  68.072  1.00  0.00    -0.131 OA 
BRANCH  10  11
HETATM   11  C   UNL     1      -7.391  14.310  67.818  1.00  0.00    -0.174 C  
BRANCH  11  12
HETATM   12  C   UNL     1      -7.969  15.339  68.792  1.00  0.00    -0.158 C  
BRANCH  12  13
HETATM   13  O   UNL     1      -8.513  16.416  68.025  1.00  0.00    -0.177 OA 
BRANCH  13  14
HETATM   14  C   UNL     1      -9.938  16.462  68.101  1.00  0.00    -0.242 C  
BRANCH  14  15
HETATM   15  N   UNL     1     -10.504  16.095  66.816  1.00  0.00    -0.298 NA 
HETATM   16  C   UNL     1     -10.507  16.898  65.697  1.00  0.00    -0.238 A  
HETATM   17  N   UNL     1     -11.055  16.299  64.656  1.00  0.00    -0.645 NA 
HETATM   18  C   UNL     1     -11.422  15.050  65.115  1.00  0.00    -0.339 A  
HETATM   19  C   UNL     1     -11.099  14.935  66.438  1.00  0.00    -0.342 A  
HETATM   20  N   UNL     1     -11.340  13.825  67.146  1.00  0.00    -0.311 NA 
HETATM   21  C   UNL     1     -11.881  12.768  66.466  1.00  0.00    -0.405 C  
HETATM   22  N   UNL     1     -12.028  11.656  67.231  1.00  0.00    -0.602 NA 
HETATM   23  N   UNL     1     -12.229  12.760  65.213  1.00  0.00    -0.464 N  
HETATM   24  H2  UNL     1     -11.762  11.613  68.215  1.00  0.00     0.000 HD 
HETATM   25  H1  UNL     1     -12.431  10.868  66.725  1.00  0.00     0.000 HD 
HETATM   26  C   UNL     1     -12.049  13.910  64.427  1.00  0.00    -0.443 C  
HETATM   27  H   UNL     1     -12.632  11.919  64.800  1.00  0.00     0.000 HD 
HETATM   28  O   UNL     1     -12.389  13.959  63.250  1.00  0.00    -0.749 OA 
ENDBRANCH  14  15
ENDBRANCH  13  14
ENDBRANCH  12  13
ENDBRANCH  11  12
ENDBRANCH  10  11
ENDBRANCH   8  10
ENDBRANCH   3   8
TORSDOF 7
ENDMDL
MODEL      123
REMARK 921   NORMALIZED FREE ENERGY PREDICTED BY IDOCK:   -5.18 KCAL/MOL
REMARK 922        TOTAL FREE ENERGY PREDICTED BY IDOCK:   -7.84 KCAL/MOL
REMARK 923 INTER-LIGAND FREE ENERGY PREDICTED BY IDOCK:   -7.12 KCAL/MOL
REMARK 924 INTRA-LIGAND FREE ENERGY PREDICTED BY IDOCK:   -0.71 KCAL/MOL
REMARK 927      BINDING AFFINITY PREDICTED BY RF-SCORE:    0.00 PKD
ROOT
HETATM    1  C   UNL     1     -12.113  13.664  66.467  1.00  0.00    -0.469 C  
HETATM    2  C   UNL     1     -10.967  13.771  65.455  1.00  0.00    -0.299 C  
HETATM    3  C   UNL     1     -11.415  13.480  64.001  1.00  0.00    -0.320 C  
HETATM    4  C   UNL     1     -10.298  15.146  65.577  1.00  0.00    -0.399 C  
HETATM    5  H1  UNL     1     -12.718  14.268  62.583  1.00  0.00     0.000 HD 
HETATM    6  N   UNL     1     -12.424  14.459  63.540  1.00  0.00    -1.090 NA 
HETATM    7  H2  UNL     1     -12.089  15.418  63.644  1.00  0.00     0.000 HD 
ENDROOT
BRANCH   3   8
HETATM    8  C   UNL     1     -11.965  12.046  63.822  1.00  0.00    -0.490 C  
HETATM    9  O   UNL     1     -13.007  11.759  63.245  1.00  0.00    -0.633 OA 
BRANCH   8  10
HETATM   10  O   UNL     1     -11.101  11.123  64.335  1.00  0.00    -0.279 OA 
BRANCH  10  11
HETATM   11  C   UNL     1      -9.882  10.953  63.582  1.00  0.00    -0.351 C  
BRANCH  11  12
HETATM   12  C   UNL     1      -8.829  10.230  64.424  1.00  0.00    -0.209 C  
BRANCH  12  13
HETATM   13  O   UNL     1      -9.319  10.140  65.764  1.00  0.00    -0.165 OA 
BRANCH  13  14
HETATM   14  C   UNL     1      -8.436  10.759  66.700  1.00  0.00    -0.142 C  
BRANCH  14  15
HETATM   15  N   UNL     1      -8.495  10.048  67.964  1.00  0.00    -0.117 NA 
HETATM   16  C   UNL     1      -7.533   9.176  68.425  1.00  0.00    -0.082 A  
HETATM   17  N   UNL     1      -7.825   8.699  69.621  1.00  0.00    -0.092 NA 
HETATM   18  C   UNL     1      -9.027   9.289  69.957  1.00  0.00    -0.198 A  
HETATM   19  C   UNL     1      -9.441  10.099  68.936  1.00  0.00    -0.182 A  
HETATM   20  N   UNL     1     -10.579  10.801  68.989  1.00  0.00    -0.207 NA 
HETATM   21  C   UNL     1     -11.299  10.719  70.150  1.00  0.00    -0.309 C  
HETATM   22  N   UNL     1     -12.399  11.514  70.156  1.00  0.00    -0.271 NA 
HETATM   23  N   UNL     1     -11.005   9.985  71.182  1.00  0.00    -0.279 N  
HETATM   24  H2  UNL     1     -12.664  12.112  69.373  1.00  0.00     0.000 HD 
HETATM   25  H1  UNL     1     -12.936  11.454  71.021  1.00  0.00     0.000 HD 
HETATM   26  C   UNL     1      -9.851   9.187  71.171  1.00  0.00    -0.301 C  
HETATM   27  H   UNL     1     -11.615   9.990  72.001  1.00  0.00     0.000 HD 
HETATM   28  O   UNL     1      -9.551   8.456  72.109  1.00  0.00    -0.240 OA 
ENDBRANCH  14  15
ENDBRANCH  13  14
ENDBRANCH  12  13
ENDBRANCH  11  12
ENDBRANCH  10  11
ENDBRANCH   8  10
ENDBRANCH   3   8
TORSDOF 7
ENDMDL
MODEL      124
REMARK 921   NORMALIZED FREE ENERGY PREDICTED BY IDOCK:   -5.15 KCAL/MOL
REMARK 922        TOTAL FREE ENERGY PREDICTED BY IDOCK:   -7.80 KCAL/MOL
REMARK 923 INTER-LIGAND FREE ENERGY PREDICTED BY IDOCK:   -7.10 KCAL/MOL
REMARK 924 INTRA-LIGAND FREE ENERGY PREDICTED BY IDOCK:   -0.70 KCAL/MOL
REMARK 927      BINDING AFFINITY PREDICTED BY RF-SCORE:    0.00 PKD
ROOT
HETATM    1  C   UNL     1      -8.707  10.754  67.572  1.00  0.00    -0.125 C  
HETATM    2  C   UNL     1     -10.125  10.683  66.995  1.00  0.00    -0.255 C  
HETATM    3  C   UNL     1     -10.223   9.785  65.737  1.00  0.00    -0.152 C  
HETATM    4  C   UNL     1     -11.104  10.235  68.088  1.00  0.00    -0.324 C  
HETATM    5  H1  UNL     1      -9.930   7.791  65.217  1.00  0.00     0.000 HD 
HETATM    6  N   UNL     1      -9.865   8.382  66.045  1.00  0.00    -0.474 NA 
HETATM    7  H2  UNL     1     -10.428   8.013  66.812  1.00  0.00     0.000 HD 
ENDROOT
BRANCH   3   8
HETATM    8  C   UNL     1      -9.348  10.298  64.569  1.00  0.00    -0.276 C  
HETATM    9  O   UNL     1      -8.128  10.202  64.508  1.00  0.00    -0.154 OA 
BRANCH   8  10
HETATM   10  O   UNL     1     -10.120  10.819  63.572  1.00  0.00    -0.333 OA 
BRANCH  10  11
HETATM   11  C   UNL     1     -10.246  12.255  63.593  1.00  0.00    -0.403 C  
BRANCH  11  12
HETATM   12  C   UNL     1     -11.694  12.670  63.331  1.00  0.00    -0.498 C  
BRANCH  12  13
HETATM   13  O   UNL     1     -12.291  13.009  64.586  1.00  0.00    -0.402 OA 
BRANCH  13  14
HETATM   14  C   UNL     1     -12.151  14.398  64.888  1.00  0.00    -0.436 C  
BRANCH  14  15
HETATM   15  N   UNL     1     -11.497  14.550  66.175  1.00  0.00    -0.353 NA 
HETATM   16  C   UNL     1     -11.785  13.807  67.299  1.00  0.00    -0.382 A  
HETATM   17  N   UNL     1     -11.014  14.130  68.320  1.00  0.00    -0.244 NA 
HETATM   18  C   UNL     1     -10.184  15.124  67.841  1.00  0.00    -0.232 A  
HETATM   19  C   UNL     1     -10.493  15.388  66.536  1.00  0.00    -0.294 A  
HETATM   20  N   UNL     1      -9.845  16.310  65.814  1.00  0.00    -0.462 NA 
HETATM   21  C   UNL     1      -8.803  16.951  66.428  1.00  0.00    -0.287 C  
HETATM   22  N   UNL     1      -8.149  17.817  65.612  1.00  0.00    -0.379 NA 
HETATM   23  N   UNL     1      -8.419  16.783  67.659  1.00  0.00    -0.189 N  
HETATM   24  H2  UNL     1      -8.409  17.974  64.638  1.00  0.00     0.000 HD 
HETATM   25  H1  UNL     1      -7.373  18.294  66.069  1.00  0.00     0.000 HD 
HETATM   26  C   UNL     1      -9.090  15.867  68.485  1.00  0.00    -0.200 C  
HETATM   27  H   UNL     1      -7.631  17.318  68.025  1.00  0.00     0.000 HD 
HETATM   28  O   UNL     1      -8.783  15.697  69.660  1.00  0.00    -0.245 OA 
ENDBRANCH  14  15
ENDBRANCH  13  14
ENDBRANCH  12  13
ENDBRANCH  11  12
ENDBRANCH  10  11
ENDBRANCH   8  10
ENDBRANCH   3   8
TORSDOF 7
ENDMDL
MODEL      125
REMARK 921   NORMALIZED FREE ENERGY PREDICTED BY IDOCK:   -5.14 KCAL/MOL
REMARK 922        TOTAL FREE ENERGY PREDICTED BY IDOCK:   -7.79 KCAL/MOL
REMARK 923 INTER-LIGAND FREE ENERGY PREDICTED BY IDOCK:   -7.29 KCAL/MOL
REMARK 924 INTRA-LIGAND FREE ENERGY PREDICTED BY IDOCK:   -0.50 KCAL/MOL
REMARK 927      BINDING AFFINITY PREDICTED BY RF-SCORE:    0.00 PKD
ROOT
HETATM    1  C   UNL     1     -10.629  19.416  66.841  1.00  0.00    -0.581 C  
HETATM    2  C   UNL     1      -9.719  18.493  67.659  1.00  0.00    -0.317 C  
HETATM    3  C   UNL     1      -9.100  17.350  66.815  1.00  0.00    -0.260 C  
HETATM    4  C   UNL     1      -8.639  19.324  68.364  1.00  0.00    -0.389 C  
HETATM    5  H1  UNL     1      -7.829  17.130  65.182  1.00  0.00     0.000 HD 
HETATM    6  N   UNL     1      -8.236  17.881  65.737  1.00  0.00    -0.506 NA 
HETATM    7  H2  UNL     1      -7.518  18.504  66.108  1.00  0.00     0.000 HD 
ENDROOT
BRANCH   3   8
HETATM    8  C   UNL     1     -10.169  16.412  66.207  1.00  0.00    -0.330 C  
HETATM    9  O   UNL     1     -10.395  16.285  65.009  1.00  0.00    -0.593 OA 
BRANCH   8  10
HETATM   10  O   UNL     1     -10.792  15.685  67.179  1.00  0.00    -0.312 OA 
BRANCH  10  11
HETATM   11  C   UNL     1     -10.593  14.260  67.087  1.00  0.00    -0.279 C  
BRANCH  11  12
HETATM   12  C   UNL     1     -11.893  13.561  66.685  1.00  0.00    -0.407 C  
BRANCH  12  13
HETATM   13  O   UNL     1     -11.896  12.259  67.276  1.00  0.00    -0.500 OA 
BRANCH  13  14
HETATM   14  C   UNL     1     -10.723  12.021  68.055  1.00  0.00    -0.212 C  
BRANCH  14  15
HETATM   15  N   UNL     1     -10.939  10.877  68.921  1.00  0.00    -0.210 NA 
HETATM   16  C   UNL     1     -11.276  10.949  70.254  1.00  0.00    -0.188 A  
HETATM   17  N   UNL     1     -11.447   9.755  70.790  1.00  0.00    -0.314 NA 
HETATM   18  C   UNL     1     -11.217   8.865  69.760  1.00  0.00    -0.006 A  
HETATM   19  C   UNL     1     -10.892   9.553  68.625  1.00  0.00    -0.139 A  
HETATM   20  N   UNL     1     -10.617   8.944  67.466  1.00  0.00    -0.269 NA 
HETATM   21  C   UNL     1     -10.733   7.580  67.445  1.00  0.00    -0.261 C  
HETATM   22  N   UNL     1     -10.512   7.041  66.219  1.00  0.00    -0.358 NA 
HETATM   23  N   UNL     1     -11.034   6.822  68.458  1.00  0.00    -0.442 N  
HETATM   24  H2  UNL     1     -10.282   7.596  65.395  1.00  0.00     0.000 HD 
HETATM   25  H1  UNL     1     -10.599   6.025  66.204  1.00  0.00     0.000 HD 
HETATM   26  C   UNL     1     -11.284   7.396  69.715  1.00  0.00    -0.091 C  
HETATM   27  H   UNL     1     -11.089   5.810  68.340  1.00  0.00     0.000 HD 
HETATM   28  O   UNL     1     -11.542   6.720  70.704  1.00  0.00    -0.326 OA 
ENDBRANCH  14  15
ENDBRANCH  13  14
ENDBRANCH  12  13
ENDBRANCH  11  12
ENDBRANCH  10  11
ENDBRANCH   8  10
ENDBRANCH   3   8
TORSDOF 7
ENDMDL
MODEL      126
REMARK 921   NORMALIZED FREE ENERGY PREDICTED BY IDOCK:   -5.14 KCAL/MOL
REMARK 922        TOTAL FREE ENERGY PREDICTED BY IDOCK:   -7.78 KCAL/MOL
REMARK 923 INTER-LIGAND FREE ENERGY PREDICTED BY IDOCK:   -7.18 KCAL/MOL
REMARK 924 INTRA-LIGAND FREE ENERGY PREDICTED BY IDOCK:   -0.60 KCAL/MOL
REMARK 927      BINDING AFFINITY PREDICTED BY RF-SCORE:    0.00 PKD
ROOT
HETATM    1  C   UNL     1     -11.747  10.416  70.341  1.00  0.00    -0.419 C  
HETATM    2  C   UNL     1     -10.732   9.268  70.301  1.00  0.00    -0.284 C  
HETATM    3  C   UNL     1      -9.610   9.488  69.255  1.00  0.00    -0.175 C  
HETATM    4  C   UNL     1     -10.159   9.037  71.705  1.00  0.00    -0.373 C  
HETATM    5  H1  UNL     1      -8.072  10.838  68.878  1.00  0.00     0.000 HD 
HETATM    6  N   UNL     1      -8.810  10.694  69.566  1.00  0.00    -0.398 NA 
HETATM    7  H2  UNL     1      -8.436  10.659  70.514  1.00  0.00     0.000 HD 
ENDROOT
BRANCH   3   8
HETATM    8  C   UNL     1     -10.153   9.584  67.810  1.00  0.00    -0.198 C  
HETATM    9  O   UNL     1     -10.757   8.693  67.225  1.00  0.00    -0.271 OA 
BRANCH   8  10
HETATM   10  O   UNL     1      -9.930  10.823  67.285  1.00  0.00    -0.178 OA 
BRANCH  10  11
HETATM   11  C   UNL     1      -9.481  10.826  65.914  1.00  0.00    -0.197 C  
BRANCH  11  12
HETATM   12  C   UNL     1     -10.592  11.321  64.987  1.00  0.00    -0.289 C  
BRANCH  12  13
HETATM   13  O   UNL     1     -10.440  12.734  64.830  1.00  0.00    -0.299 OA 
BRANCH  13  14
HETATM   14  C   UNL     1     -11.553  13.455  65.360  1.00  0.00    -0.314 C  
BRANCH  14  15
HETATM   15  N   UNL     1     -11.334  14.880  65.190  1.00  0.00    -0.367 NA 
HETATM   16  C   UNL     1     -11.714  15.609  64.085  1.00  0.00    -0.075 A  
HETATM   17  N   UNL     1     -11.423  16.891  64.211  1.00  0.00    -1.039 NA 
HETATM   18  C   UNL     1     -10.831  17.003  65.453  1.00  0.00    -0.073 A  
HETATM   19  C   UNL     1     -10.764  15.770  66.041  1.00  0.00    -0.306 A  
HETATM   20  N   UNL     1     -10.236  15.578  67.255  1.00  0.00    -0.255 NA 
HETATM   21  C   UNL     1      -9.810  16.693  67.924  1.00  0.00    -0.248 C  
HETATM   22  N   UNL     1      -9.356  16.428  69.176  1.00  0.00    -0.250 NA 
HETATM   23  N   UNL     1      -9.824  17.911  67.468  1.00  0.00    -0.298 N  
HETATM   24  H2  UNL     1      -9.335  15.491  69.578  1.00  0.00     0.000 HD 
HETATM   25  H1  UNL     1      -9.039  17.259  69.674  1.00  0.00     0.000 HD 
HETATM   26  C   UNL     1     -10.318  18.174  66.181  1.00  0.00    -0.385 C  
HETATM   27  H   UNL     1      -9.475  18.676  68.047  1.00  0.00     0.000 HD 
HETATM   28  O   UNL     1     -10.323  19.301  65.698  1.00  0.00    -0.489 OA 
ENDBRANCH  14  15
ENDBRANCH  13  14
ENDBRANCH  12  13
ENDBRANCH  11  12
ENDBRANCH  10  11
ENDBRANCH   8  10
ENDBRANCH   3   8
TORSDOF 7
ENDMDL
MODEL      127
REMARK 921   NORMALIZED FREE ENERGY PREDICTED BY IDOCK:   -5.12 KCAL/MOL
REMARK 922        TOTAL FREE ENERGY PREDICTED BY IDOCK:   -7.76 KCAL/MOL
REMARK 923 INTER-LIGAND FREE ENERGY PREDICTED BY IDOCK:   -7.07 KCAL/MOL
REMARK 924 INTRA-LIGAND FREE ENERGY PREDICTED BY IDOCK:   -0.69 KCAL/MOL
REMARK 927      BINDING AFFINITY PREDICTED BY RF-SCORE:    0.00 PKD
ROOT
HETATM    1  C   UNL     1     -14.392  15.259  72.139  1.00  0.00    -0.651 C  
HETATM    2  C   UNL     1     -12.993  15.008  72.711  1.00  0.00    -0.528 C  
HETATM    3  C   UNL     1     -11.895  14.948  71.619  1.00  0.00    -0.366 C  
HETATM    4  C   UNL     1     -12.674  16.066  73.776  1.00  0.00    -0.719 C  
HETATM    5  H1  UNL     1     -11.062  16.191  70.173  1.00  0.00     0.000 HD 
HETATM    6  N   UNL     1     -11.785  16.231  70.891  1.00  0.00    -0.571 NA 
HETATM    7  H2  UNL     1     -11.634  17.012  71.530  1.00  0.00     0.000 HD 
ENDROOT
BRANCH   3   8
HETATM    8  C   UNL     1     -12.120  13.797  70.611  1.00  0.00    -0.333 C  
HETATM    9  O   UNL     1     -12.360  12.633  70.913  1.00  0.00    -0.374 OA 
BRANCH   8  10
HETATM   10  O   UNL     1     -12.083  14.256  69.327  1.00  0.00    -0.325 OA 
BRANCH  10  11
HETATM   11  C   UNL     1     -11.813  13.248  68.333  1.00  0.00    -0.360 C  
BRANCH  11  12
HETATM   12  C   UNL     1     -11.960  13.829  66.926  1.00  0.00    -0.421 C  
BRANCH  12  13
HETATM   13  O   UNL     1     -10.903  13.304  66.118  1.00  0.00    -0.278 OA 
BRANCH  13  14
HETATM   14  C   UNL     1      -9.814  14.220  66.000  1.00  0.00    -0.314 C  
BRANCH  14  15
HETATM   15  N   UNL     1      -8.808  13.908  66.999  1.00  0.00    -0.227 NA 
HETATM   16  C   UNL     1      -8.309  12.648  67.249  1.00  0.00    -0.189 A  
HETATM   17  N   UNL     1      -7.378  12.659  68.185  1.00  0.00    -0.101 NA 
HETATM   18  C   UNL     1      -7.262  13.982  68.559  1.00  0.00    -0.109 A  
HETATM   19  C   UNL     1      -8.148  14.739  67.844  1.00  0.00    -0.141 A  
HETATM   20  N   UNL     1      -8.254  16.064  68.000  1.00  0.00    -0.148 NA 
HETATM   21  C   UNL     1      -7.385  16.652  68.878  1.00  0.00    -0.225 C  
HETATM   22  N   UNL     1      -7.503  18.003  68.927  1.00  0.00    -0.261 NA 
HETATM   23  N   UNL     1      -6.504  16.036  69.610  1.00  0.00    -0.193 N  
HETATM   24  H2  UNL     1      -8.173  18.529  68.365  1.00  0.00     0.000 HD 
HETATM   25  H1  UNL     1      -6.855  18.441  69.582  1.00  0.00     0.000 HD 
HETATM   26  C   UNL     1      -6.376  14.641  69.532  1.00  0.00    -0.127 C  
HETATM   27  H   UNL     1      -5.905  16.568  70.242  1.00  0.00     0.000 HD 
HETATM   28  O   UNL     1      -5.581  14.015  70.224  1.00  0.00    -0.106 OA 
ENDBRANCH  14  15
ENDBRANCH  13  14
ENDBRANCH  12  13
ENDBRANCH  11  12
ENDBRANCH  10  11
ENDBRANCH   8  10
ENDBRANCH   3   8
TORSDOF 7
ENDMDL
MODEL      128
REMARK 921   NORMALIZED FREE ENERGY PREDICTED BY IDOCK:   -5.12 KCAL/MOL
REMARK 922        TOTAL FREE ENERGY PREDICTED BY IDOCK:   -7.75 KCAL/MOL
REMARK 923 INTER-LIGAND FREE ENERGY PREDICTED BY IDOCK:   -7.04 KCAL/MOL
REMARK 924 INTRA-LIGAND FREE ENERGY PREDICTED BY IDOCK:   -0.71 KCAL/MOL
REMARK 927      BINDING AFFINITY PREDICTED BY RF-SCORE:    0.00 PKD
ROOT
HETATM    1  C   UNL     1     -12.087  14.277  66.904  1.00  0.00    -0.440 C  
HETATM    2  C   UNL     1     -11.033  14.346  65.794  1.00  0.00    -0.314 C  
HETATM    3  C   UNL     1     -11.600  13.990  64.397  1.00  0.00    -0.369 C  
HETATM    4  C   UNL     1     -10.368  15.729  65.799  1.00  0.00    -0.390 C  
HETATM    5  H1  UNL     1     -13.027  14.708  63.063  1.00  0.00     0.000 HD 
HETATM    6  N   UNL     1     -12.654  14.942  63.982  1.00  0.00    -0.925 NA 
HETATM    7  H2  UNL     1     -12.320  15.906  64.016  1.00  0.00     0.000 HD 
ENDROOT
BRANCH   3   8
HETATM    8  C   UNL     1     -12.150  12.546  64.327  1.00  0.00    -0.428 C  
HETATM    9  O   UNL     1     -13.338  12.246  64.298  1.00  0.00    -0.777 OA 
BRANCH   8  10
HETATM   10  O   UNL     1     -11.135  11.639  64.235  1.00  0.00    -0.332 OA 
BRANCH  10  11
HETATM   11  C   UNL     1     -10.281  11.805  63.085  1.00  0.00    -0.337 C  
BRANCH  11  12
HETATM   12  C   UNL     1      -9.047  10.909  63.200  1.00  0.00    -0.273 C  
BRANCH  12  13
HETATM   13  O   UNL     1      -8.883  10.558  64.577  1.00  0.00    -0.189 OA 
BRANCH  13  14
HETATM   14  C   UNL     1      -7.819   9.624  64.768  1.00  0.00    -0.128 C  
BRANCH  14  15
HETATM   15  N   UNL     1      -7.761   9.236  66.166  1.00  0.00    -0.096 NA 
HETATM   16  C   UNL     1      -6.821   9.681  67.069  1.00  0.00    -0.084 A  
HETATM   17  N   UNL     1      -7.027   9.196  68.280  1.00  0.00    -0.075 NA 
HETATM   18  C   UNL     1      -8.151   8.405  68.162  1.00  0.00    -0.120 A  
HETATM   19  C   UNL     1      -8.587   8.419  66.866  1.00  0.00    -0.125 A  
HETATM   20  N   UNL     1      -9.665   7.737  66.461  1.00  0.00    -0.212 NA 
HETATM   21  C   UNL     1     -10.361   7.058  67.423  1.00  0.00    -0.244 C  
HETATM   22  N   UNL     1     -11.481   6.453  66.950  1.00  0.00    -0.749 NA 
HETATM   23  N   UNL     1     -10.043   6.972  68.682  1.00  0.00    -0.160 N  
HETATM   24  H2  UNL     1     -11.774   6.500  65.974  1.00  0.00     0.000 HD 
HETATM   25  H1  UNL     1     -11.999   5.946  67.667  1.00  0.00     0.000 HD 
HETATM   26  C   UNL     1      -8.896   7.623  69.162  1.00  0.00    -0.139 C  
HETATM   27  H   UNL     1     -10.628   6.432  69.320  1.00  0.00     0.000 HD 
HETATM   28  O   UNL     1      -8.541   7.546  70.333  1.00  0.00    -0.139 OA 
ENDBRANCH  14  15
ENDBRANCH  13  14
ENDBRANCH  12  13
ENDBRANCH  11  12
ENDBRANCH  10  11
ENDBRANCH   8  10
ENDBRANCH   3   8
TORSDOF 7
ENDMDL
MODEL      129
REMARK 921   NORMALIZED FREE ENERGY PREDICTED BY IDOCK:   -5.10 KCAL/MOL
REMARK 922        TOTAL FREE ENERGY PREDICTED BY IDOCK:   -7.73 KCAL/MOL
REMARK 923 INTER-LIGAND FREE ENERGY PREDICTED BY IDOCK:   -7.25 KCAL/MOL
REMARK 924 INTRA-LIGAND FREE ENERGY PREDICTED BY IDOCK:   -0.48 KCAL/MOL
REMARK 927      BINDING AFFINITY PREDICTED BY RF-SCORE:    0.00 PKD
ROOT
HETATM    1  C   UNL     1      -9.577  14.245  65.902  1.00  0.00    -0.227 C  
HETATM    2  C   UNL     1     -11.020  14.516  65.465  1.00  0.00    -0.337 C  
HETATM    3  C   UNL     1     -12.046  14.329  66.611  1.00  0.00    -0.420 C  
HETATM    4  C   UNL     1     -11.117  15.916  64.843  1.00  0.00    -0.400 C  
HETATM    5  H1  UNL     1     -12.473  15.155  68.472  1.00  0.00     0.000 HD 
HETATM    6  N   UNL     1     -11.798  15.278  67.719  1.00  0.00    -0.385 NA 
HETATM    7  H2  UNL     1     -11.781  16.243  67.387  1.00  0.00     0.000 HD 
ENDROOT
BRANCH   3   8
HETATM    8  C   UNL     1     -12.067  12.884  67.161  1.00  0.00    -0.219 C  
HETATM    9  O   UNL     1     -12.092  11.869  66.474  1.00  0.00    -0.568 OA 
BRANCH   8  10
HETATM   10  O   UNL     1     -11.986  12.877  68.523  1.00  0.00    -0.309 OA 
BRANCH  10  11
HETATM   11  C   UNL     1     -11.414  11.680  69.088  1.00  0.00    -0.300 C  
BRANCH  11  12
HETATM   12  C   UNL     1     -12.279  11.164  70.239  1.00  0.00    -0.352 C  
BRANCH  12  13
HETATM   13  O   UNL     1     -11.484  10.271  71.023  1.00  0.00    -0.350 OA 
BRANCH  13  14
HETATM   14  C   UNL     1     -12.282   9.312  71.718  1.00  0.00    -0.385 C  
BRANCH  14  15
HETATM   15  N   UNL     1     -11.561   8.056  71.808  1.00  0.00    -0.271 NA 
HETATM   16  C   UNL     1     -11.129   7.477  72.982  1.00  0.00    -0.362 A  
HETATM   17  N   UNL     1     -10.532   6.318  72.775  1.00  0.00    -0.204 NA 
HETATM   18  C   UNL     1     -10.579   6.131  71.408  1.00  0.00    -0.243 A  
HETATM   19  C   UNL     1     -11.194   7.202  70.820  1.00  0.00    -0.279 A  
HETATM   20  N   UNL     1     -11.380   7.290  69.498  1.00  0.00    -0.030 NA 
HETATM   21  C   UNL     1     -10.975   6.219  68.747  1.00  0.00    -0.352 C  
HETATM   22  N   UNL     1     -11.263   6.350  67.427  1.00  0.00    -0.675 NA 
HETATM   23  N   UNL     1     -10.381   5.152  69.194  1.00  0.00    -0.195 N  
HETATM   24  H2  UNL     1     -11.734   7.165  67.033  1.00  0.00     0.000 HD 
HETATM   25  H1  UNL     1     -10.961   5.553  66.867  1.00  0.00     0.000 HD 
HETATM   26  C   UNL     1     -10.111   5.020  70.565  1.00  0.00    -0.253 C  
HETATM   27  H   UNL     1     -10.112   4.410  68.547  1.00  0.00     0.000 HD 
HETATM   28  O   UNL     1      -9.528   4.046  71.027  1.00  0.00    -0.136 OA 
ENDBRANCH  14  15
ENDBRANCH  13  14
ENDBRANCH  12  13
ENDBRANCH  11  12
ENDBRANCH  10  11
ENDBRANCH   8  10
ENDBRANCH   3   8
TORSDOF 7
ENDMDL
MODEL      130
REMARK 921   NORMALIZED FREE ENERGY PREDICTED BY IDOCK:   -5.09 KCAL/MOL
REMARK 922        TOTAL FREE ENERGY PREDICTED BY IDOCK:   -7.71 KCAL/MOL
REMARK 923 INTER-LIGAND FREE ENERGY PREDICTED BY IDOCK:   -6.96 KCAL/MOL
REMARK 924 INTRA-LIGAND FREE ENERGY PREDICTED BY IDOCK:   -0.75 KCAL/MOL
REMARK 927      BINDING AFFINITY PREDICTED BY RF-SCORE:    0.00 PKD
ROOT
HETATM    1  C   UNL     1      -8.213   7.378  69.264  1.00  0.00    -0.131 C  
HETATM    2  C   UNL     1      -8.893   8.731  69.498  1.00  0.00    -0.144 C  
HETATM    3  C   UNL     1     -10.312   8.810  68.883  1.00  0.00    -0.212 C  
HETATM    4  C   UNL     1      -8.908   9.047  71.000  1.00  0.00    -0.291 C  
HETATM    5  H1  UNL     1     -12.156   7.867  69.088  1.00  0.00     0.000 HD 
HETATM    6  N   UNL     1     -11.222   7.815  69.493  1.00  0.00    -0.446 NA 
HETATM    7  H2  UNL     1     -11.249   7.907  70.509  1.00  0.00     0.000 HD 
ENDROOT
BRANCH   3   8
HETATM    8  C   UNL     1     -10.306   8.634  67.346  1.00  0.00    -0.284 C  
HETATM    9  O   UNL     1     -10.820   7.698  66.743  1.00  0.00    -0.274 OA 
BRANCH   8  10
HETATM   10  O   UNL     1      -9.708   9.696  66.734  1.00  0.00    -0.174 OA 
BRANCH  10  11
HETATM   11  C   UNL     1      -9.215   9.427  65.406  1.00  0.00    -0.244 C  
BRANCH  11  12
HETATM   12  C   UNL     1      -9.243  10.699  64.556  1.00  0.00    -0.231 C  
BRANCH  12  13
HETATM   13  O   UNL     1     -10.571  11.228  64.595  1.00  0.00    -0.311 OA 
BRANCH  13  14
HETATM   14  C   UNL     1     -10.581  12.655  64.536  1.00  0.00    -0.346 C  
BRANCH  14  15
HETATM   15  N   UNL     1     -11.031  13.189  65.809  1.00  0.00    -0.276 NA 
HETATM   16  C   UNL     1     -11.724  12.476  66.763  1.00  0.00    -0.384 A  
HETATM   17  N   UNL     1     -11.975  13.198  67.839  1.00  0.00    -0.338 NA 
HETATM   18  C   UNL     1     -11.420  14.434  67.577  1.00  0.00    -0.349 A  
HETATM   19  C   UNL     1     -10.858  14.429  66.330  1.00  0.00    -0.314 A  
HETATM   20  N   UNL     1     -10.243  15.499  65.812  1.00  0.00    -0.337 NA 
HETATM   21  C   UNL     1     -10.146  16.602  66.616  1.00  0.00    -0.301 C  
HETATM   22  N   UNL     1      -9.447  17.619  66.051  1.00  0.00    -0.518 NA 
HETATM   23  N   UNL     1     -10.639  16.723  67.814  1.00  0.00    -0.338 N  
HETATM   24  H2  UNL     1      -9.035  17.566  65.119  1.00  0.00     0.000 HD 
HETATM   25  H1  UNL     1      -9.374  18.441  66.650  1.00  0.00     0.000 HD 
HETATM   26  C   UNL     1     -11.340  15.654  68.396  1.00  0.00    -0.364 C  
HETATM   27  H   UNL     1     -10.517  17.594  68.330  1.00  0.00     0.000 HD 
HETATM   28  O   UNL     1     -11.847  15.733  69.509  1.00  0.00    -0.354 OA 
ENDBRANCH  14  15
ENDBRANCH  13  14
ENDBRANCH  12  13
ENDBRANCH  11  12
ENDBRANCH  10  11
ENDBRANCH   8  10
ENDBRANCH   3   8
TORSDOF 7
ENDMDL
MODEL      131
REMARK 921   NORMALIZED FREE ENERGY PREDICTED BY IDOCK:   -5.09 KCAL/MOL
REMARK 922        TOTAL FREE ENERGY PREDICTED BY IDOCK:   -7.71 KCAL/MOL
REMARK 923 INTER-LIGAND FREE ENERGY PREDICTED BY IDOCK:   -7.08 KCAL/MOL
REMARK 924 INTRA-LIGAND FREE ENERGY PREDICTED BY IDOCK:   -0.63 KCAL/MOL
REMARK 927      BINDING AFFINITY PREDICTED BY RF-SCORE:    0.00 PKD
ROOT
HETATM    1  C   UNL     1      -9.325  20.117  67.102  1.00  0.00    -0.521 C  
HETATM    2  C   UNL     1      -8.560  19.042  67.883  1.00  0.00    -0.333 C  
HETATM    3  C   UNL     1      -8.481  17.689  67.133  1.00  0.00    -0.226 C  
HETATM    4  C   UNL     1      -7.166  19.567  68.251  1.00  0.00    -0.338 C  
HETATM    5  H1  UNL     1      -7.700  16.932  65.359  1.00  0.00     0.000 HD 
HETATM    6  N   UNL     1      -7.752  17.822  65.852  1.00  0.00    -0.538 NA 
HETATM    7  H2  UNL     1      -6.825  18.228  65.990  1.00  0.00     0.000 HD 
ENDROOT
BRANCH   3   8
HETATM    8  C   UNL     1      -9.874  17.070  66.873  1.00  0.00    -0.271 C  
HETATM    9  O   UNL     1     -10.201  16.476  65.852  1.00  0.00    -0.335 OA 
BRANCH   8  10
HETATM   10  O   UNL     1     -10.683  17.210  67.963  1.00  0.00    -0.372 OA 
BRANCH  10  11
HETATM   11  C   UNL     1     -11.205  15.973  68.490  1.00  0.00    -0.374 C  
BRANCH  11  12
HETATM   12  C   UNL     1     -10.728  15.759  69.927  1.00  0.00    -0.328 C  
BRANCH  12  13
HETATM   13  O   UNL     1     -11.524  14.723  70.507  1.00  0.00    -0.270 OA 
BRANCH  13  14
HETATM   14  C   UNL     1     -12.283  14.016  69.525  1.00  0.00    -0.308 C  
BRANCH  14  15
HETATM   15  N   UNL     1     -11.878  12.622  69.511  1.00  0.00    -0.318 NA 
HETATM   16  C   UNL     1     -12.214  11.694  70.472  1.00  0.00    -0.361 A  
HETATM   17  N   UNL     1     -11.742  10.493  70.190  1.00  0.00    -0.299 NA 
HETATM   18  C   UNL     1     -11.074  10.644  68.992  1.00  0.00    -0.254 A  
HETATM   19  C   UNL     1     -11.145  11.949  68.589  1.00  0.00    -0.246 A  
HETATM   20  N   UNL     1     -10.584  12.385  67.455  1.00  0.00    -0.216 NA 
HETATM   21  C   UNL     1      -9.972  11.445  66.671  1.00  0.00    -0.208 C  
HETATM   22  N   UNL     1      -9.492  11.949  65.505  1.00  0.00    -0.377 NA 
HETATM   23  N   UNL     1      -9.842  10.182  66.950  1.00  0.00    -0.187 N  
HETATM   24  H2  UNL     1      -9.578  12.931  65.240  1.00  0.00     0.000 HD 
HETATM   25  H1  UNL     1      -9.036  11.249  64.920  1.00  0.00     0.000 HD 
HETATM   26  C   UNL     1     -10.365   9.670  68.148  1.00  0.00    -0.209 C  
HETATM   27  H   UNL     1      -9.360   9.562  66.298  1.00  0.00     0.000 HD 
HETATM   28  O   UNL     1     -10.240   8.493  68.467  1.00  0.00    -0.190 OA 
ENDBRANCH  14  15
ENDBRANCH  13  14
ENDBRANCH  12  13
ENDBRANCH  11  12
ENDBRANCH  10  11
ENDBRANCH   8  10
ENDBRANCH   3   8
TORSDOF 7
ENDMDL
MODEL      132
REMARK 921   NORMALIZED FREE ENERGY PREDICTED BY IDOCK:   -5.08 KCAL/MOL
REMARK 922        TOTAL FREE ENERGY PREDICTED BY IDOCK:   -7.70 KCAL/MOL
REMARK 923 INTER-LIGAND FREE ENERGY PREDICTED BY IDOCK:   -7.18 KCAL/MOL
REMARK 924 INTRA-LIGAND FREE ENERGY PREDICTED BY IDOCK:   -0.52 KCAL/MOL
REMARK 927      BINDING AFFINITY PREDICTED BY RF-SCORE:    0.00 PKD
ROOT
HETATM    1  C   UNL     1     -10.462   7.790  72.681  1.00  0.00    -0.363 C  
HETATM    2  C   UNL     1     -11.886   7.928  72.131  1.00  0.00    -0.384 C  
HETATM    3  C   UNL     1     -11.932   8.574  70.723  1.00  0.00    -0.112 C  
HETATM    4  C   UNL     1     -12.581   6.560  72.149  1.00  0.00    -0.157 C  
HETATM    5  H1  UNL     1     -11.246   8.172  68.800  1.00  0.00     0.000 HD 
HETATM    6  N   UNL     1     -11.216   7.747  69.726  1.00  0.00    -0.450 NA 
HETATM    7  H2  UNL     1     -11.570   6.791  69.710  1.00  0.00     0.000 HD 
ENDROOT
BRANCH   3   8
HETATM    8  C   UNL     1     -11.364  10.012  70.708  1.00  0.00    -0.360 C  
HETATM    9  O   UNL     1     -10.435  10.395  70.006  1.00  0.00    -0.256 OA 
BRANCH   8  10
HETATM   10  O   UNL     1     -12.077  10.829  71.536  1.00  0.00    -0.269 OA 
BRANCH  10  11
HETATM   11  C   UNL     1     -12.939  11.768  70.861  1.00  0.00    -0.026 C  
BRANCH  11  12
HETATM   12  C   UNL     1     -12.629  13.197  71.309  1.00  0.00    -0.290 C  
BRANCH  12  13
HETATM   13  O   UNL     1     -12.624  14.033  70.148  1.00  0.00    -0.334 OA 
BRANCH  13  14
HETATM   14  C   UNL     1     -11.302  14.408  69.764  1.00  0.00    -0.237 C  
BRANCH  14  15
HETATM   15  N   UNL     1     -11.279  14.721  68.347  1.00  0.00    -0.271 NA 
HETATM   16  C   UNL     1     -11.580  13.833  67.338  1.00  0.00    -0.362 A  
HETATM   17  N   UNL     1     -11.515  14.394  66.144  1.00  0.00    -0.351 NA 
HETATM   18  C   UNL     1     -11.161  15.706  66.386  1.00  0.00    -0.038 A  
HETATM   19  C   UNL     1     -11.002  15.898  67.730  1.00  0.00    -0.315 A  
HETATM   20  N   UNL     1     -10.660  17.081  68.254  1.00  0.00    -0.357 NA 
HETATM   21  C   UNL     1     -10.527  18.126  67.380  1.00  0.00    -0.399 C  
HETATM   22  N   UNL     1     -10.252  19.306  67.992  1.00  0.00    -0.388 NA 
HETATM   23  N   UNL     1     -10.653  18.063  66.087  1.00  0.00    -0.329 N  
HETATM   24  H2  UNL     1     -10.152  19.404  69.003  1.00  0.00     0.000 HD 
HETATM   25  H1  UNL     1     -10.153  20.084  67.341  1.00  0.00     0.000 HD 
HETATM   26  C   UNL     1     -10.962  16.841  65.470  1.00  0.00    -0.031 C  
HETATM   27  H   UNL     1     -10.527  18.903  65.522  1.00  0.00     0.000 HD 
HETATM   28  O   UNL     1     -11.061  16.728  64.253  1.00  0.00    -1.106 OA 
ENDBRANCH  14  15
ENDBRANCH  13  14
ENDBRANCH  12  13
ENDBRANCH  11  12
ENDBRANCH  10  11
ENDBRANCH   8  10
ENDBRANCH   3   8
TORSDOF 7
ENDMDL
MODEL      133
REMARK 921   NORMALIZED FREE ENERGY PREDICTED BY IDOCK:   -5.08 KCAL/MOL
REMARK 922        TOTAL FREE ENERGY PREDICTED BY IDOCK:   -7.70 KCAL/MOL
REMARK 923 INTER-LIGAND FREE ENERGY PREDICTED BY IDOCK:   -6.61 KCAL/MOL
REMARK 924 INTRA-LIGAND FREE ENERGY PREDICTED BY IDOCK:   -1.09 KCAL/MOL
REMARK 927      BINDING AFFINITY PREDICTED BY RF-SCORE:    0.00 PKD
ROOT
HETATM    1  C   UNL     1     -11.808  15.888  72.308  1.00  0.00    -0.617 C  
HETATM    2  C   UNL     1     -12.962  15.580  71.348  1.00  0.00    -0.553 C  
HETATM    3  C   UNL     1     -12.597  14.515  70.284  1.00  0.00    -0.323 C  
HETATM    4  C   UNL     1     -14.206  15.175  72.150  1.00  0.00    -0.656 C  
HETATM    5  H1  UNL     1     -12.025  12.515  70.210  1.00  0.00     0.000 HD 
HETATM    6  N   UNL     1     -12.265  13.216  70.910  1.00  0.00    -0.459 NA 
HETATM    7  H2  UNL     1     -13.016  12.893  71.520  1.00  0.00     0.000 HD 
ENDROOT
BRANCH   3   8
HETATM    8  C   UNL     1     -11.433  14.961  69.368  1.00  0.00    -0.299 C  
HETATM    9  O   UNL     1     -10.317  14.454  69.350  1.00  0.00    -0.158 OA 
BRANCH   8  10
HETATM   10  O   UNL     1     -11.828  15.959  68.526  1.00  0.00    -0.366 OA 
BRANCH  10  11
HETATM   11  C   UNL     1     -10.885  17.042  68.389  1.00  0.00    -0.333 C  
BRANCH  11  12
HETATM   12  C   UNL     1     -10.311  17.077  66.972  1.00  0.00    -0.304 C  
BRANCH  12  13
HETATM   13  O   UNL     1     -11.181  16.323  66.124  1.00  0.00     0.045 OA 
BRANCH  13  14
HETATM   14  C   UNL     1     -10.461  15.421  65.284  1.00  0.00    -0.415 C  
BRANCH  14  15
HETATM   15  N   UNL     1     -10.496  14.089  65.861  1.00  0.00    -0.300 NA 
HETATM   16  C   UNL     1     -11.581  13.242  65.825  1.00  0.00    -0.337 A  
HETATM   17  N   UNL     1     -11.324  12.079  66.396  1.00  0.00    -0.341 NA 
HETATM   18  C   UNL     1     -10.013  12.171  66.818  1.00  0.00    -0.203 A  
HETATM   19  C   UNL     1      -9.516  13.405  66.504  1.00  0.00    -0.245 A  
HETATM   20  N   UNL     1      -8.263  13.773  66.795  1.00  0.00     0.077 NA 
HETATM   21  C   UNL     1      -7.464  12.827  67.379  1.00  0.00    -0.145 C  
HETATM   22  N   UNL     1      -6.189  13.249  67.576  1.00  0.00    -0.271 NA 
HETATM   23  N   UNL     1      -7.826  11.626  67.723  1.00  0.00    -0.122 N  
HETATM   24  H2  UNL     1      -5.859  14.179  67.316  1.00  0.00     0.000 HD 
HETATM   25  H1  UNL     1      -5.594  12.545  68.012  1.00  0.00     0.000 HD 
HETATM   26  C   UNL     1      -9.141  11.195  67.491  1.00  0.00    -0.146 C  
HETATM   27  H   UNL     1      -7.152  10.997  68.161  1.00  0.00     0.000 HD 
HETATM   28  O   UNL     1      -9.535  10.083  67.825  1.00  0.00    -0.140 OA 
ENDBRANCH  14  15
ENDBRANCH  13  14
ENDBRANCH  12  13
ENDBRANCH  11  12
ENDBRANCH  10  11
ENDBRANCH   8  10
ENDBRANCH   3   8
TORSDOF 7
ENDMDL
MODEL      134
REMARK 921   NORMALIZED FREE ENERGY PREDICTED BY IDOCK:   -5.08 KCAL/MOL
REMARK 922        TOTAL FREE ENERGY PREDICTED BY IDOCK:   -7.69 KCAL/MOL
REMARK 923 INTER-LIGAND FREE ENERGY PREDICTED BY IDOCK:   -6.98 KCAL/MOL
REMARK 924 INTRA-LIGAND FREE ENERGY PREDICTED BY IDOCK:   -0.71 KCAL/MOL
REMARK 927      BINDING AFFINITY PREDICTED BY RF-SCORE:    0.00 PKD
ROOT
HETATM    1  C   UNL     1     -11.844  13.881  68.624  1.00  0.00    -0.407 C  
HETATM    2  C   UNL     1     -12.178  15.294  69.115  1.00  0.00    -0.188 C  
HETATM    3  C   UNL     1     -12.140  15.423  70.659  1.00  0.00    -0.369 C  
HETATM    4  C   UNL     1     -11.246  16.309  68.439  1.00  0.00    -0.349 C  
HETATM    5  H1  UNL     1     -10.763  15.228  72.207  1.00  0.00     0.000 HD 
HETATM    6  N   UNL     1     -10.788  15.143  71.191  1.00  0.00    -0.536 NA 
HETATM    7  H2  UNL     1     -10.083  15.733  70.749  1.00  0.00     0.000 HD 
ENDROOT
BRANCH   3   8
HETATM    8  C   UNL     1     -13.173  14.509  71.359  1.00  0.00    -0.355 C  
HETATM    9  O   UNL     1     -14.389  14.652  71.306  1.00  0.00    -0.390 OA 
BRANCH   8  10
HETATM   10  O   UNL     1     -12.556  13.472  71.995  1.00  0.00    -0.194 OA 
BRANCH  10  11
HETATM   11  C   UNL     1     -13.341  12.265  72.081  1.00  0.00    -0.368 C  
BRANCH  11  12
HETATM   12  C   UNL     1     -12.833  11.223  71.084  1.00  0.00    -0.352 C  
BRANCH  12  13
HETATM   13  O   UNL     1     -13.407   9.960  71.433  1.00  0.00    -0.383 OA 
BRANCH  13  14
HETATM   14  C   UNL     1     -12.559   9.208  72.301  1.00  0.00    -0.355 C  
BRANCH  14  15
HETATM   15  N   UNL     1     -11.835   8.214  71.530  1.00  0.00    -0.283 NA 
HETATM   16  C   UNL     1     -12.328   6.977  71.178  1.00  0.00    -0.378 A  
HETATM   17  N   UNL     1     -11.470   6.290  70.446  1.00  0.00    -0.373 NA 
HETATM   18  C   UNL     1     -10.373   7.116  70.311  1.00  0.00    -0.201 A  
HETATM   19  C   UNL     1     -10.593   8.284  70.987  1.00  0.00    -0.204 A  
HETATM   20  N   UNL     1      -9.694   9.274  71.027  1.00  0.00    -0.282 NA 
HETATM   21  C   UNL     1      -8.547   9.093  70.303  1.00  0.00    -0.198 C  
HETATM   22  N   UNL     1      -7.719  10.169  70.333  1.00  0.00    -0.433 NA 
HETATM   23  N   UNL     1      -8.230   8.031  69.624  1.00  0.00    -0.119 N  
HETATM   24  H2  UNL     1      -7.930  11.026  70.844  1.00  0.00     0.000 HD 
HETATM   25  H1  UNL     1      -6.864  10.034  69.793  1.00  0.00     0.000 HD 
HETATM   26  C   UNL     1      -9.107   6.936  69.583  1.00  0.00    -0.143 C  
HETATM   27  H   UNL     1      -7.343   7.993  69.122  1.00  0.00     0.000 HD 
HETATM   28  O   UNL     1      -8.837   5.902  68.982  1.00  0.00    -0.119 OA 
ENDBRANCH  14  15
ENDBRANCH  13  14
ENDBRANCH  12  13
ENDBRANCH  11  12
ENDBRANCH  10  11
ENDBRANCH   8  10
ENDBRANCH   3   8
TORSDOF 7
ENDMDL
MODEL      135
REMARK 921   NORMALIZED FREE ENERGY PREDICTED BY IDOCK:   -5.07 KCAL/MOL
REMARK 922        TOTAL FREE ENERGY PREDICTED BY IDOCK:   -7.69 KCAL/MOL
REMARK 923 INTER-LIGAND FREE ENERGY PREDICTED BY IDOCK:   -6.60 KCAL/MOL
REMARK 924 INTRA-LIGAND FREE ENERGY PREDICTED BY IDOCK:   -1.09 KCAL/MOL
REMARK 927      BINDING AFFINITY PREDICTED BY RF-SCORE:    0.00 PKD
ROOT
HETATM    1  C   UNL     1     -12.406   7.786  71.830  1.00  0.00    -0.346 C  
HETATM    2  C   UNL     1     -10.968   7.263  71.906  1.00  0.00    -0.260 C  
HETATM    3  C   UNL     1      -9.980   8.077  71.034  1.00  0.00    -0.182 C  
HETATM    4  C   UNL     1     -10.516   7.208  73.371  1.00  0.00    -0.410 C  
HETATM    5  H1  UNL     1      -9.248  10.021  70.908  1.00  0.00     0.000 HD 
HETATM    6  N   UNL     1      -9.898   9.485  71.482  1.00  0.00    -0.217 NA 
HETATM    7  H2  UNL     1      -9.662   9.549  72.472  1.00  0.00     0.000 HD 
ENDROOT
BRANCH   3   8
HETATM    8  C   UNL     1     -10.336   8.032  69.529  1.00  0.00    -0.221 C  
HETATM    9  O   UNL     1     -10.568   7.011  68.892  1.00  0.00    -0.206 OA 
BRANCH   8  10
HETATM   10  O   UNL     1     -10.424   9.290  69.009  1.00  0.00    -0.210 OA 
BRANCH  10  11
HETATM   11  C   UNL     1      -9.668   9.496  67.798  1.00  0.00    -0.147 C  
BRANCH  11  12
HETATM   12  C   UNL     1     -10.596   9.887  66.647  1.00  0.00    -0.115 C  
BRANCH  12  13
HETATM   13  O   UNL     1     -10.348  11.258  66.325  1.00  0.00    -0.232 OA 
BRANCH  13  14
HETATM   14  C   UNL     1     -11.558  11.997  66.160  1.00  0.00    -0.304 C  
BRANCH  14  15
HETATM   15  N   UNL     1     -11.562  13.129  67.069  1.00  0.00    -0.339 NA 
HETATM   16  C   UNL     1     -11.369  14.441  66.696  1.00  0.00    -0.353 A  
HETATM   17  N   UNL     1     -11.460  15.269  67.721  1.00  0.00    -0.329 NA 
HETATM   18  C   UNL     1     -11.726  14.462  68.808  1.00  0.00    -0.337 A  
HETATM   19  C   UNL     1     -11.772  13.155  68.409  1.00  0.00    -0.351 A  
HETATM   20  N   UNL     1     -12.016  12.150  69.258  1.00  0.00    -0.289 NA 
HETATM   21  C   UNL     1     -12.279  12.492  70.557  1.00  0.00    -0.297 C  
HETATM   22  N   UNL     1     -12.589  11.427  71.340  1.00  0.00    -0.362 NA 
HETATM   23  N   UNL     1     -12.264  13.695  71.050  1.00  0.00    -0.429 N  
HETATM   24  H2  UNL     1     -12.622  10.468  70.996  1.00  0.00     0.000 HD 
HETATM   25  H1  UNL     1     -12.785  11.682  72.308  1.00  0.00     0.000 HD 
HETATM   26  C   UNL     1     -11.966  14.789  70.223  1.00  0.00    -0.310 C  
HETATM   27  H   UNL     1     -12.469  13.844  72.039  1.00  0.00     0.000 HD 
HETATM   28  O   UNL     1     -11.910  15.937  70.650  1.00  0.00    -0.353 OA 
ENDBRANCH  14  15
ENDBRANCH  13  14
ENDBRANCH  12  13
ENDBRANCH  11  12
ENDBRANCH  10  11
ENDBRANCH   8  10
ENDBRANCH   3   8
TORSDOF 7
ENDMDL
MODEL      136
REMARK 921   NORMALIZED FREE ENERGY PREDICTED BY IDOCK:   -5.07 KCAL/MOL
REMARK 922        TOTAL FREE ENERGY PREDICTED BY IDOCK:   -7.69 KCAL/MOL
REMARK 923 INTER-LIGAND FREE ENERGY PREDICTED BY IDOCK:   -7.07 KCAL/MOL
REMARK 924 INTRA-LIGAND FREE ENERGY PREDICTED BY IDOCK:   -0.62 KCAL/MOL
REMARK 927      BINDING AFFINITY PREDICTED BY RF-SCORE:    0.00 PKD
ROOT
HETATM    1  C   UNL     1      -8.610   5.124  64.302  1.00  0.00    -0.110 C  
HETATM    2  C   UNL     1      -9.079   4.092  65.332  1.00  0.00    -0.142 C  
HETATM    3  C   UNL     1     -10.411   4.485  66.020  1.00  0.00    -0.243 C  
HETATM    4  C   UNL     1      -9.171   2.709  64.672  1.00  0.00    -0.136 C  
HETATM    5  H1  UNL     1     -12.393   4.838  65.495  1.00  0.00     0.000 HD 
HETATM    6  N   UNL     1     -11.517   4.580  65.042  1.00  0.00    -1.108 NA 
HETATM    7  H2  UNL     1     -11.615   3.718  64.504  1.00  0.00     0.000 HD 
ENDROOT
BRANCH   3   8
HETATM    8  C   UNL     1     -10.304   5.810  66.811  1.00  0.00    -0.256 C  
HETATM    9  O   UNL     1     -11.168   6.679  66.849  1.00  0.00    -0.391 OA 
BRANCH   8  10
HETATM   10  O   UNL     1      -9.142   5.862  67.525  1.00  0.00    -0.109 OA 
BRANCH  10  11
HETATM   11  C   UNL     1      -9.280   6.374  68.866  1.00  0.00    -0.128 C  
BRANCH  11  12
HETATM   12  C   UNL     1      -8.052   7.199  69.254  1.00  0.00    -0.120 C  
BRANCH  12  13
HETATM   13  O   UNL     1      -7.971   7.227  70.681  1.00  0.00    -0.097 OA 
BRANCH  13  14
HETATM   14  C   UNL     1      -8.334   8.502  71.213  1.00  0.00    -0.156 C  
BRANCH  14  15
HETATM   15  N   UNL     1      -9.697   8.450  71.709  1.00  0.00    -0.211 NA 
HETATM   16  C   UNL     1     -10.094   7.804  72.859  1.00  0.00    -0.301 A  
HETATM   17  N   UNL     1     -11.386   7.949  73.090  1.00  0.00    -0.286 NA 
HETATM   18  C   UNL     1     -11.851   8.726  72.049  1.00  0.00    -0.372 A  
HETATM   19  C   UNL     1     -10.820   9.017  71.198  1.00  0.00    -0.294 A  
HETATM   20  N   UNL     1     -10.981   9.759  70.097  1.00  0.00    -0.270 NA 
HETATM   21  C   UNL     1     -12.230  10.275  69.880  1.00  0.00    -0.061 C  
HETATM   22  N   UNL     1     -12.297  11.077  68.787  1.00  0.00    -0.731 NA 
HETATM   23  N   UNL     1     -13.282  10.068  70.616  1.00  0.00    -0.607 N  
HETATM   24  H2  UNL     1     -11.497  11.274  68.186  1.00  0.00     0.000 HD 
HETATM   25  H1  UNL     1     -13.227  11.461  68.625  1.00  0.00     0.000 HD 
HETATM   26  C   UNL     1     -13.192   9.257  71.758  1.00  0.00    -0.403 C  
HETATM   27  H   UNL     1     -14.173  10.496  70.363  1.00  0.00     0.000 HD 
HETATM   28  O   UNL     1     -14.163   9.009  72.464  1.00  0.00    -0.537 OA 
ENDBRANCH  14  15
ENDBRANCH  13  14
ENDBRANCH  12  13
ENDBRANCH  11  12
ENDBRANCH  10  11
ENDBRANCH   8  10
ENDBRANCH   3   8
TORSDOF 7
ENDMDL
MODEL      137
REMARK 921   NORMALIZED FREE ENERGY PREDICTED BY IDOCK:   -5.07 KCAL/MOL
REMARK 922        TOTAL FREE ENERGY PREDICTED BY IDOCK:   -7.69 KCAL/MOL
REMARK 923 INTER-LIGAND FREE ENERGY PREDICTED BY IDOCK:   -7.50 KCAL/MOL
REMARK 924 INTRA-LIGAND FREE ENERGY PREDICTED BY IDOCK:   -0.19 KCAL/MOL
REMARK 927      BINDING AFFINITY PREDICTED BY RF-SCORE:    0.00 PKD
ROOT
HETATM    1  C   UNL     1      -9.992   4.649  70.998  1.00  0.00    -0.270 C  
HETATM    2  C   UNL     1     -10.345   5.848  71.884  1.00  0.00    -0.255 C  
HETATM    3  C   UNL     1     -10.784   7.092  71.072  1.00  0.00    -0.232 C  
HETATM    4  C   UNL     1     -11.410   5.436  72.909  1.00  0.00    -0.365 C  
HETATM    5  H1  UNL     1     -12.299   7.641  69.756  1.00  0.00     0.000 HD 
HETATM    6  N   UNL     1     -12.010   6.822  70.289  1.00  0.00    -0.609 NA 
HETATM    7  H2  UNL     1     -12.765   6.478  70.884  1.00  0.00     0.000 HD 
ENDROOT
BRANCH   3   8
HETATM    8  C   UNL     1      -9.673   7.613  70.131  1.00  0.00    -0.179 C  
HETATM    9  O   UNL     1      -8.477   7.370  70.252  1.00  0.00    -0.133 OA 
BRANCH   8  10
HETATM   10  O   UNL     1     -10.201   8.330  69.098  1.00  0.00    -0.208 OA 
BRANCH  10  11
HETATM   11  C   UNL     1      -9.262   9.182  68.412  1.00  0.00    -0.132 C  
BRANCH  11  12
HETATM   12  C   UNL     1      -8.920  10.403  69.268  1.00  0.00    -0.163 C  
BRANCH  12  13
HETATM   13  O   UNL     1      -9.878  11.425  68.981  1.00  0.00    -0.153 OA 
BRANCH  13  14
HETATM   14  C   UNL     1      -9.348  12.428  68.113  1.00  0.00    -0.209 C  
BRANCH  14  15
HETATM   15  N   UNL     1     -10.209  12.569  66.953  1.00  0.00    -0.225 NA 
HETATM   16  C   UNL     1     -10.999  11.568  66.431  1.00  0.00    -0.284 A  
HETATM   17  N   UNL     1     -11.708  11.982  65.397  1.00  0.00    -0.320 NA 
HETATM   18  C   UNL     1     -11.368  13.311  65.240  1.00  0.00    -0.295 A  
HETATM   19  C   UNL     1     -10.441  13.661  66.182  1.00  0.00    -0.297 A  
HETATM   20  N   UNL     1      -9.931  14.895  66.268  1.00  0.00    -0.267 NA 
HETATM   21  C   UNL     1     -10.424  15.827  65.395  1.00  0.00    -0.414 C  
HETATM   22  N   UNL     1      -9.914  17.069  65.591  1.00  0.00    -0.578 NA 
HETATM   23  N   UNL     1     -11.303  15.611  64.461  1.00  0.00    -0.685 N  
HETATM   24  H2  UNL     1      -9.230  17.287  66.316  1.00  0.00     0.000 HD 
HETATM   25  H1  UNL     1     -10.281  17.763  64.941  1.00  0.00     0.000 HD 
HETATM   26  C   UNL     1     -11.840  14.326  64.285  1.00  0.00    -0.379 C  
HETATM   27  H   UNL     1     -11.601  16.376  63.855  1.00  0.00     0.000 HD 
HETATM   28  O   UNL     1     -12.648  14.069  63.400  1.00  0.00    -0.845 OA 
ENDBRANCH  14  15
ENDBRANCH  13  14
ENDBRANCH  12  13
ENDBRANCH  11  12
ENDBRANCH  10  11
ENDBRANCH   8  10
ENDBRANCH   3   8
TORSDOF 7
ENDMDL
MODEL      138
REMARK 921   NORMALIZED FREE ENERGY PREDICTED BY IDOCK:   -5.06 KCAL/MOL
REMARK 922        TOTAL FREE ENERGY PREDICTED BY IDOCK:   -7.67 KCAL/MOL
REMARK 923 INTER-LIGAND FREE ENERGY PREDICTED BY IDOCK:   -7.01 KCAL/MOL
REMARK 924 INTRA-LIGAND FREE ENERGY PREDICTED BY IDOCK:   -0.66 KCAL/MOL
REMARK 927      BINDING AFFINITY PREDICTED BY RF-SCORE:    0.00 PKD
ROOT
HETATM    1  C   UNL     1      -8.464   5.586  65.194  1.00  0.00    -0.147 C  
HETATM    2  C   UNL     1      -9.038   4.431  66.021  1.00  0.00    -0.131 C  
HETATM    3  C   UNL     1     -10.521   4.646  66.413  1.00  0.00    -0.163 C  
HETATM    4  C   UNL     1      -8.838   3.109  65.268  1.00  0.00    -0.134 C  
HETATM    5  H1  UNL     1     -12.366   4.871  65.477  1.00  0.00     0.000 HD 
HETATM    6  N   UNL     1     -11.390   4.729  65.219  1.00  0.00    -1.018 NA 
HETATM    7  H2  UNL     1     -11.277   3.913  64.617  1.00  0.00     0.000 HD 
ENDROOT
BRANCH   3   8
HETATM    8  C   UNL     1     -10.729   5.901  67.294  1.00  0.00    -0.297 C  
HETATM    9  O   UNL     1     -11.148   6.981  66.892  1.00  0.00    -0.359 OA 
BRANCH   8  10
HETATM   10  O   UNL     1     -10.447   5.634  68.601  1.00  0.00    -0.202 OA 
BRANCH  10  11
HETATM   11  C   UNL     1     -11.327   6.270  69.550  1.00  0.00    -0.404 C  
BRANCH  11  12
HETATM   12  C   UNL     1     -10.769   6.141  70.969  1.00  0.00    -0.260 C  
BRANCH  12  13
HETATM   13  O   UNL     1     -11.700   6.749  71.867  1.00  0.00    -0.280 OA 
BRANCH  13  14
HETATM   14  C   UNL     1     -11.181   7.946  72.448  1.00  0.00    -0.350 C  
BRANCH  14  15
HETATM   15  N   UNL     1     -11.662   9.095  71.702  1.00  0.00    -0.353 NA 
HETATM   16  C   UNL     1     -12.888   9.696  71.883  1.00  0.00    -0.425 A  
HETATM   17  N   UNL     1     -13.050  10.743  71.095  1.00  0.00    -0.340 NA 
HETATM   18  C   UNL     1     -11.877  10.831  70.372  1.00  0.00    -0.358 A  
HETATM   19  C   UNL     1     -11.039   9.813  70.734  1.00  0.00    -0.345 A  
HETATM   20  N   UNL     1      -9.825   9.652  70.193  1.00  0.00    -0.249 NA 
HETATM   21  C   UNL     1      -9.425  10.596  69.288  1.00  0.00    -0.133 C  
HETATM   22  N   UNL     1      -8.158  10.407  68.839  1.00  0.00    -0.120 NA 
HETATM   23  N   UNL     1     -10.133  11.603  68.868  1.00  0.00    -0.373 N  
HETATM   24  H2  UNL     1      -7.563   9.637  69.147  1.00  0.00     0.000 HD 
HETATM   25  H1  UNL     1      -7.859  11.111  68.165  1.00  0.00     0.000 HD 
HETATM   26  C   UNL     1     -11.433  11.800  69.359  1.00  0.00    -0.307 C  
HETATM   27  H   UNL     1      -9.743  12.250  68.182  1.00  0.00     0.000 HD 
HETATM   28  O   UNL     1     -12.148  12.718  68.970  1.00  0.00    -0.262 OA 
ENDBRANCH  14  15
ENDBRANCH  13  14
ENDBRANCH  12  13
ENDBRANCH  11  12
ENDBRANCH  10  11
ENDBRANCH   8  10
ENDBRANCH   3   8
TORSDOF 7
ENDMDL
MODEL      139
REMARK 921   NORMALIZED FREE ENERGY PREDICTED BY IDOCK:   -5.05 KCAL/MOL
REMARK 922        TOTAL FREE ENERGY PREDICTED BY IDOCK:   -7.66 KCAL/MOL
REMARK 923 INTER-LIGAND FREE ENERGY PREDICTED BY IDOCK:   -7.10 KCAL/MOL
REMARK 924 INTRA-LIGAND FREE ENERGY PREDICTED BY IDOCK:   -0.56 KCAL/MOL
REMARK 927      BINDING AFFINITY PREDICTED BY RF-SCORE:    0.00 PKD
ROOT
HETATM    1  C   UNL     1     -10.160   3.765  72.230  1.00  0.00    -0.228 C  
HETATM    2  C   UNL     1      -9.783   3.880  70.749  1.00  0.00    -0.255 C  
HETATM    3  C   UNL     1      -9.488   5.336  70.311  1.00  0.00    -0.168 C  
HETATM    4  C   UNL     1      -8.604   2.947  70.443  1.00  0.00    -0.112 C  
HETATM    5  H1  UNL     1      -8.137   6.855  70.755  1.00  0.00     0.000 HD 
HETATM    6  N   UNL     1      -8.331   5.897  71.044  1.00  0.00    -0.122 NA 
HETATM    7  H2  UNL     1      -7.506   5.304  70.950  1.00  0.00     0.000 HD 
ENDROOT
BRANCH   3   8
HETATM    8  C   UNL     1     -10.710   6.268  70.479  1.00  0.00    -0.269 C  
HETATM    9  O   UNL     1     -11.654   6.338  69.700  1.00  0.00    -0.430 OA 
BRANCH   8  10
HETATM   10  O   UNL     1     -10.638   6.964  71.650  1.00  0.00    -0.209 OA 
BRANCH  10  11
HETATM   11  C   UNL     1     -11.006   8.355  71.549  1.00  0.00    -0.262 C  
BRANCH  11  12
HETATM   12  C   UNL     1      -9.853   9.174  70.966  1.00  0.00    -0.296 C  
BRANCH  12  13
HETATM   13  O   UNL     1     -10.412  10.278  70.251  1.00  0.00    -0.265 OA 
BRANCH  13  14
HETATM   14  C   UNL     1     -11.839  10.233  70.226  1.00  0.00    -0.288 C  
BRANCH  14  15
HETATM   15  N   UNL     1     -12.372  11.482  70.741  1.00  0.00    -0.391 NA 
HETATM   16  C   UNL     1     -13.086  11.611  71.911  1.00  0.00    -0.385 A  
HETATM   17  N   UNL     1     -13.418  12.866  72.156  1.00  0.00    -0.549 NA 
HETATM   18  C   UNL     1     -12.894  13.586  71.101  1.00  0.00    -0.309 A  
HETATM   19  C   UNL     1     -12.270  12.735  70.231  1.00  0.00    -0.277 A  
HETATM   20  N   UNL     1     -11.669  13.160  69.114  1.00  0.00    -0.307 NA 
HETATM   21  C   UNL     1     -11.652  14.512  68.900  1.00  0.00    -0.309 C  
HETATM   22  N   UNL     1     -10.961  14.871  67.788  1.00  0.00    -0.283 NA 
HETATM   23  N   UNL     1     -12.209  15.413  69.654  1.00  0.00    -0.524 N  
HETATM   24  H2  UNL     1     -10.501  14.200  67.172  1.00  0.00     0.000 HD 
HETATM   25  H1  UNL     1     -10.949  15.878  67.628  1.00  0.00     0.000 HD 
HETATM   26  C   UNL     1     -12.899  15.029  70.814  1.00  0.00    -0.392 C  
HETATM   27  H   UNL     1     -12.144  16.399  69.402  1.00  0.00     0.000 HD 
HETATM   28  O   UNL     1     -13.465  15.840  71.539  1.00  0.00    -0.473 OA 
ENDBRANCH  14  15
ENDBRANCH  13  14
ENDBRANCH  12  13
ENDBRANCH  11  12
ENDBRANCH  10  11
ENDBRANCH   8  10
ENDBRANCH   3   8
TORSDOF 7
ENDMDL
MODEL      140
REMARK 921   NORMALIZED FREE ENERGY PREDICTED BY IDOCK:   -5.04 KCAL/MOL
REMARK 922        TOTAL FREE ENERGY PREDICTED BY IDOCK:   -7.65 KCAL/MOL
REMARK 923 INTER-LIGAND FREE ENERGY PREDICTED BY IDOCK:   -7.32 KCAL/MOL
REMARK 924 INTRA-LIGAND FREE ENERGY PREDICTED BY IDOCK:   -0.33 KCAL/MOL
REMARK 927      BINDING AFFINITY PREDICTED BY RF-SCORE:    0.00 PKD
ROOT
HETATM    1  C   UNL     1      -7.765  13.847  68.704  1.00  0.00    -0.128 C  
HETATM    2  C   UNL     1      -6.927  12.716  69.309  1.00  0.00     0.040 C  
HETATM    3  C   UNL     1      -6.339  11.760  68.241  1.00  0.00    -0.050 C  
HETATM    4  C   UNL     1      -5.830  13.308  70.204  1.00  0.00    -0.147 C  
HETATM    5  H1  UNL     1      -5.030  11.842  66.626  1.00  0.00     0.000 HD 
HETATM    6  N   UNL     1      -5.417  12.471  67.328  1.00  0.00    -0.286 NA 
HETATM    7  H2  UNL     1      -4.681  12.955  67.843  1.00  0.00     0.000 HD 
ENDROOT
BRANCH   3   8
HETATM    8  C   UNL     1      -7.432  11.041  67.418  1.00  0.00    -0.106 C  
HETATM    9  O   UNL     1      -7.710  11.288  66.249  1.00  0.00    -0.139 OA 
BRANCH   8  10
HETATM   10  O   UNL     1      -8.012  10.040  68.141  1.00  0.00    -0.099 OA 
BRANCH  10  11
HETATM   11  C   UNL     1      -9.312  10.359  68.678  1.00  0.00    -0.167 C  
BRANCH  11  12
HETATM   12  C   UNL     1     -10.413   9.711  67.836  1.00  0.00    -0.246 C  
BRANCH  12  13
HETATM   13  O   UNL     1     -11.177  10.756  67.227  1.00  0.00    -0.324 OA 
BRANCH  13  14
HETATM   14  C   UNL     1     -11.215  11.932  68.036  1.00  0.00    -0.257 C  
BRANCH  14  15
HETATM   15  N   UNL     1     -11.481  13.088  67.198  1.00  0.00    -0.312 NA 
HETATM   16  C   UNL     1     -11.445  14.396  67.626  1.00  0.00    -0.346 A  
HETATM   17  N   UNL     1     -11.692  15.247  66.646  1.00  0.00    -0.049 NA 
HETATM   18  C   UNL     1     -11.893  14.459  65.531  1.00  0.00    -0.357 A  
HETATM   19  C   UNL     1     -11.779  13.140  65.876  1.00  0.00    -0.384 A  
HETATM   20  N   UNL     1     -11.925  12.148  64.990  1.00  0.00    -0.329 NA 
HETATM   21  C   UNL     1     -12.140  12.513  63.688  1.00  0.00    -0.554 C  
HETATM   22  N   UNL     1     -12.204  11.456  62.838  1.00  0.00    -0.825 NA 
HETATM   23  N   UNL     1     -12.266  13.729  63.244  1.00  0.00    -1.096 N  
HETATM   24  H2  UNL     1     -12.103  10.487  63.140  1.00  0.00     0.000 HD 
HETATM   25  H1  UNL     1     -12.364  11.727  61.868  1.00  0.00     0.000 HD 
HETATM   26  C   UNL     1     -12.174  14.813  64.131  1.00  0.00    -0.295 C  
HETATM   27  H   UNL     1     -12.432  13.895  62.251  1.00  0.00     0.000 HD 
HETATM   28  O   UNL     1     -12.316  15.974  63.763  1.00  0.00    -0.858 OA 
ENDBRANCH  14  15
ENDBRANCH  13  14
ENDBRANCH  12  13
ENDBRANCH  11  12
ENDBRANCH  10  11
ENDBRANCH   8  10
ENDBRANCH   3   8
TORSDOF 7
ENDMDL
MODEL      141
REMARK 921   NORMALIZED FREE ENERGY PREDICTED BY IDOCK:   -5.04 KCAL/MOL
REMARK 922        TOTAL FREE ENERGY PREDICTED BY IDOCK:   -7.64 KCAL/MOL
REMARK 923 INTER-LIGAND FREE ENERGY PREDICTED BY IDOCK:   -7.08 KCAL/MOL
REMARK 924 INTRA-LIGAND FREE ENERGY PREDICTED BY IDOCK:   -0.57 KCAL/MOL
REMARK 927      BINDING AFFINITY PREDICTED BY RF-SCORE:    0.00 PKD
ROOT
HETATM    1  C   UNL     1      -7.397  16.879  67.467  1.00  0.00    -0.177 C  
HETATM    2  C   UNL     1      -8.742  16.156  67.340  1.00  0.00    -0.194 C  
HETATM    3  C   UNL     1      -8.796  14.833  68.143  1.00  0.00    -0.170 C  
HETATM    4  C   UNL     1      -9.878  17.107  67.739  1.00  0.00    -0.274 C  
HETATM    5  H1  UNL     1      -8.663  14.203  70.122  1.00  0.00     0.000 HD 
HETATM    6  N   UNL     1      -8.627  15.073  69.594  1.00  0.00    -0.451 NA 
HETATM    7  H2  UNL     1      -9.307  15.750  69.942  1.00  0.00     0.000 HD 
ENDROOT
BRANCH   3   8
HETATM    8  C   UNL     1      -7.748  13.801  67.664  1.00  0.00    -0.179 C  
HETATM    9  O   UNL     1      -6.561  14.040  67.472  1.00  0.00    -0.219 OA 
BRANCH   8  10
HETATM   10  O   UNL     1      -8.302  12.560  67.543  1.00  0.00    -0.154 OA 
BRANCH  10  11
HETATM   11  C   UNL     1      -7.436  11.567  66.959  1.00  0.00    -0.151 C  
BRANCH  11  12
HETATM   12  C   UNL     1      -8.055  10.174  67.085  1.00  0.00    -0.120 C  
BRANCH  12  13
HETATM   13  O   UNL     1      -8.704   9.865  65.848  1.00  0.00    -0.133 OA 
BRANCH  13  14
HETATM   14  C   UNL     1     -10.126   9.884  65.970  1.00  0.00    -0.244 C  
BRANCH  14  15
HETATM   15  N   UNL     1     -10.660  11.025  65.248  1.00  0.00    -0.248 NA 
HETATM   16  C   UNL     1     -10.743  11.120  63.876  1.00  0.00    -0.337 A  
HETATM   17  N   UNL     1     -11.303  12.252  63.490  1.00  0.00    -0.459 NA 
HETATM   18  C   UNL     1     -11.601  12.921  64.660  1.00  0.00    -0.346 A  
HETATM   19  C   UNL     1     -11.192  12.176  65.730  1.00  0.00    -0.339 A  
HETATM   20  N   UNL     1     -11.356  12.581  66.995  1.00  0.00    -0.308 NA 
HETATM   21  C   UNL     1     -12.013  13.766  67.181  1.00  0.00    -0.405 C  
HETATM   22  N   UNL     1     -12.205  14.074  68.490  1.00  0.00    -0.537 NA 
HETATM   23  N   UNL     1     -12.445  14.557  66.244  1.00  0.00    -0.364 N  
HETATM   24  H2  UNL     1     -11.892  13.480  69.258  1.00  0.00     0.000 HD 
HETATM   25  H1  UNL     1     -12.695  14.957  68.629  1.00  0.00     0.000 HD 
HETATM   26  C   UNL     1     -12.260  14.215  64.895  1.00  0.00    -0.438 C  
HETATM   27  H   UNL     1     -12.919  15.427  66.489  1.00  0.00     0.000 HD 
HETATM   28  O   UNL     1     -12.624  14.944  63.979  1.00  0.00    -0.832 OA 
ENDBRANCH  14  15
ENDBRANCH  13  14
ENDBRANCH  12  13
ENDBRANCH  11  12
ENDBRANCH  10  11
ENDBRANCH   8  10
ENDBRANCH   3   8
TORSDOF 7
ENDMDL
MODEL      142
REMARK 921   NORMALIZED FREE ENERGY PREDICTED BY IDOCK:   -5.03 KCAL/MOL
REMARK 922        TOTAL FREE ENERGY PREDICTED BY IDOCK:   -7.63 KCAL/MOL
REMARK 923 INTER-LIGAND FREE ENERGY PREDICTED BY IDOCK:   -7.22 KCAL/MOL
REMARK 924 INTRA-LIGAND FREE ENERGY PREDICTED BY IDOCK:   -0.41 KCAL/MOL
REMARK 927      BINDING AFFINITY PREDICTED BY RF-SCORE:    0.00 PKD
ROOT
HETATM    1  C   UNL     1      -8.089  19.208  66.599  1.00  0.00    -0.290 C  
HETATM    2  C   UNL     1      -9.595  18.928  66.564  1.00  0.00    -0.373 C  
HETATM    3  C   UNL     1     -10.151  18.437  67.925  1.00  0.00    -0.362 C  
HETATM    4  C   UNL     1     -10.340  20.173  66.065  1.00  0.00    -0.483 C  
HETATM    5  H1  UNL     1     -10.343  19.136  69.875  1.00  0.00     0.000 HD 
HETATM    6  N   UNL     1      -9.977  19.459  68.981  1.00  0.00    -0.522 NA 
HETATM    7  H2  UNL     1     -10.390  20.352  68.708  1.00  0.00     0.000 HD 
ENDROOT
BRANCH   3   8
HETATM    8  C   UNL     1      -9.514  17.105  68.383  1.00  0.00    -0.276 C  
HETATM    9  O   UNL     1      -8.417  16.997  68.919  1.00  0.00    -0.253 OA 
BRANCH   8  10
HETATM   10  O   UNL     1     -10.364  16.058  68.174  1.00  0.00    -0.247 OA 
BRANCH  10  11
HETATM   11  C   UNL     1     -10.716  15.833  66.794  1.00  0.00    -0.293 C  
BRANCH  11  12
HETATM   12  C   UNL     1      -9.493  15.376  65.997  1.00  0.00    -0.346 C  
BRANCH  12  13
HETATM   13  O   UNL     1      -9.942  14.492  64.966  1.00  0.00    -0.341 OA 
BRANCH  13  14
HETATM   14  C   UNL     1     -11.163  13.838  65.316  1.00  0.00    -0.307 C  
BRANCH  14  15
HETATM   15  N   UNL     1     -10.874  12.499  65.796  1.00  0.00    -0.270 NA 
HETATM   16  C   UNL     1     -10.293  11.501  65.046  1.00  0.00    -0.281 A  
HETATM   17  N   UNL     1     -10.113  10.394  65.745  1.00  0.00    -0.264 NA 
HETATM   18  C   UNL     1     -10.595  10.685  67.005  1.00  0.00    -0.262 A  
HETATM   19  C   UNL     1     -11.074  11.966  67.028  1.00  0.00    -0.302 A  
HETATM   20  N   UNL     1     -11.602  12.519  68.126  1.00  0.00    -0.319 NA 
HETATM   21  C   UNL     1     -11.593  11.757  69.263  1.00  0.00    -0.315 C  
HETATM   22  N   UNL     1     -12.077  12.411  70.350  1.00  0.00    -0.449 NA 
HETATM   23  N   UNL     1     -11.167  10.533  69.361  1.00  0.00    -0.251 N  
HETATM   24  H2  UNL     1     -12.414  13.373  70.323  1.00  0.00     0.000 HD 
HETATM   25  H1  UNL     1     -12.070  11.844  71.198  1.00  0.00     0.000 HD 
HETATM   26  C   UNL     1     -10.647   9.878  68.234  1.00  0.00    -0.229 C  
HETATM   27  H   UNL     1     -11.210  10.048  70.258  1.00  0.00     0.000 HD 
HETATM   28  O   UNL     1     -10.261   8.715  68.272  1.00  0.00    -0.187 OA 
ENDBRANCH  14  15
ENDBRANCH  13  14
ENDBRANCH  12  13
ENDBRANCH  11  12
ENDBRANCH  10  11
ENDBRANCH   8  10
ENDBRANCH   3   8
TORSDOF 7
ENDMDL
MODEL      143
REMARK 921   NORMALIZED FREE ENERGY PREDICTED BY IDOCK:   -5.02 KCAL/MOL
REMARK 922        TOTAL FREE ENERGY PREDICTED BY IDOCK:   -7.62 KCAL/MOL
REMARK 923 INTER-LIGAND FREE ENERGY PREDICTED BY IDOCK:   -6.85 KCAL/MOL
REMARK 924 INTRA-LIGAND FREE ENERGY PREDICTED BY IDOCK:   -0.77 KCAL/MOL
REMARK 927      BINDING AFFINITY PREDICTED BY RF-SCORE:    0.00 PKD
ROOT
HETATM    1  C   UNL     1     -12.048  15.225  69.495  1.00  0.00    -0.320 C  
HETATM    2  C   UNL     1     -10.771  14.595  68.929  1.00  0.00    -0.251 C  
HETATM    3  C   UNL     1     -10.779  14.494  67.383  1.00  0.00    -0.282 C  
HETATM    4  C   UNL     1      -9.546  15.366  69.440  1.00  0.00    -0.270 C  
HETATM    5  H1  UNL     1     -10.861  15.764  65.737  1.00  0.00     0.000 HD 
HETATM    6  N   UNL     1     -10.856  15.831  66.754  1.00  0.00    -0.295 NA 
HETATM    7  H2  UNL     1     -10.109  16.443  67.085  1.00  0.00     0.000 HD 
ENDROOT
BRANCH   3   8
HETATM    8  C   UNL     1     -11.925  13.603  66.850  1.00  0.00    -0.410 C  
HETATM    9  O   UNL     1     -12.743  13.942  66.002  1.00  0.00    -0.463 OA 
BRANCH   8  10
HETATM   10  O   UNL     1     -11.872  12.356  67.400  1.00  0.00    -0.441 OA 
BRANCH  10  11
HETATM   11  C   UNL     1     -11.280  11.349  66.554  1.00  0.00    -0.209 C  
BRANCH  11  12
HETATM   12  C   UNL     1     -10.105  10.675  67.265  1.00  0.00    -0.199 C  
BRANCH  12  13
HETATM   13  O   UNL     1     -10.087  11.132  68.620  1.00  0.00    -0.187 OA 
BRANCH  13  14
HETATM   14  C   UNL     1      -9.204  10.360  69.435  1.00  0.00    -0.159 C  
BRANCH  14  15
HETATM   15  N   UNL     1      -9.901   9.186  69.927  1.00  0.00    -0.180 NA 
HETATM   16  C   UNL     1      -9.487   7.886  69.738  1.00  0.00    -0.163 A  
HETATM   17  N   UNL     1     -10.291   7.017  70.324  1.00  0.00    -0.200 NA 
HETATM   18  C   UNL     1     -11.269   7.784  70.924  1.00  0.00    -0.271 A  
HETATM   19  C   UNL     1     -11.036   9.107  70.666  1.00  0.00    -0.265 A  
HETATM   20  N   UNL     1     -11.829  10.081  71.127  1.00  0.00    -0.369 NA 
HETATM   21  C   UNL     1     -12.869   9.700  71.931  1.00  0.00    -0.425 C  
HETATM   22  N   UNL     1     -13.582  10.747  72.419  1.00  0.00    -0.428 NA 
HETATM   23  N   UNL     1     -13.186   8.478  72.244  1.00  0.00    -0.502 N  
HETATM   24  H2  UNL     1     -13.365  11.721  72.207  1.00  0.00     0.000 HD 
HETATM   25  H1  UNL     1     -14.357  10.463  73.018  1.00  0.00     0.000 HD 
HETATM   26  C   UNL     1     -12.425   7.407  71.751  1.00  0.00    -0.336 C  
HETATM   27  H   UNL     1     -13.989   8.299  72.848  1.00  0.00     0.000 HD 
HETATM   28  O   UNL     1     -12.704   6.238  71.995  1.00  0.00    -0.226 OA 
ENDBRANCH  14  15
ENDBRANCH  13  14
ENDBRANCH  12  13
ENDBRANCH  11  12
ENDBRANCH  10  11
ENDBRANCH   8  10
ENDBRANCH   3   8
TORSDOF 7
ENDMDL
MODEL      144
REMARK 921   NORMALIZED FREE ENERGY PREDICTED BY IDOCK:   -5.02 KCAL/MOL
REMARK 922        TOTAL FREE ENERGY PREDICTED BY IDOCK:   -7.62 KCAL/MOL
REMARK 923 INTER-LIGAND FREE ENERGY PREDICTED BY IDOCK:   -6.77 KCAL/MOL
REMARK 924 INTRA-LIGAND FREE ENERGY PREDICTED BY IDOCK:   -0.84 KCAL/MOL
REMARK 927      BINDING AFFINITY PREDICTED BY RF-SCORE:    0.00 PKD
ROOT
HETATM    1  C   UNL     1     -10.824   8.620  72.265  1.00  0.00    -0.392 C  
HETATM    2  C   UNL     1     -12.046   8.312  71.394  1.00  0.00    -0.331 C  
HETATM    3  C   UNL     1     -12.228   6.798  71.120  1.00  0.00    -0.360 C  
HETATM    4  C   UNL     1     -13.300   8.927  72.029  1.00  0.00    -0.471 C  
HETATM    5  H1  UNL     1     -12.574   5.049  72.193  1.00  0.00     0.000 HD 
HETATM    6  N   UNL     1     -12.453   6.045  72.374  1.00  0.00    -0.475 NA 
HETATM    7  H2  UNL     1     -13.238   6.426  72.903  1.00  0.00     0.000 HD 
ENDROOT
BRANCH   3   8
HETATM    8  C   UNL     1     -11.034   6.183  70.353  1.00  0.00    -0.337 C  
HETATM    9  O   UNL     1     -10.501   5.113  70.623  1.00  0.00    -0.250 OA 
BRANCH   8  10
HETATM   10  O   UNL     1     -10.686   6.958  69.286  1.00  0.00    -0.219 OA 
BRANCH  10  11
HETATM   11  C   UNL     1      -9.680   6.385  68.427  1.00  0.00    -0.131 C  
BRANCH  11  12
HETATM   12  C   UNL     1      -8.328   7.063  68.657  1.00  0.00    -0.122 C  
BRANCH  12  13
HETATM   13  O   UNL     1      -7.947   7.713  67.442  1.00  0.00    -0.115 OA 
BRANCH  13  14
HETATM   14  C   UNL     1      -8.917   7.532  66.410  1.00  0.00    -0.167 C  
BRANCH  14  15
HETATM   15  N   UNL     1      -9.237   8.817  65.815  1.00  0.00    -0.219 NA 
HETATM   16  C   UNL     1      -8.781   9.255  64.592  1.00  0.00    -0.192 A  
HETATM   17  N   UNL     1      -9.256  10.447  64.280  1.00  0.00    -0.232 NA 
HETATM   18  C   UNL     1     -10.060  10.800  65.345  1.00  0.00    -0.285 A  
HETATM   19  C   UNL     1     -10.033   9.810  66.288  1.00  0.00    -0.262 A  
HETATM   20  N   UNL     1     -10.724   9.883  67.431  1.00  0.00    -0.272 NA 
HETATM   21  C   UNL     1     -11.521  10.983  67.599  1.00  0.00    -0.224 C  
HETATM   22  N   UNL     1     -12.246  10.951  68.746  1.00  0.00    -0.793 NA 
HETATM   23  N   UNL     1     -11.627  11.984  66.775  1.00  0.00    -0.347 N  
HETATM   24  H2  UNL     1     -12.201  10.184  69.417  1.00  0.00     0.000 HD 
HETATM   25  H1  UNL     1     -12.839  11.771  68.871  1.00  0.00     0.000 HD 
HETATM   26  C   UNL     1     -10.889  11.992  65.581  1.00  0.00    -0.282 C  
HETATM   27  H   UNL     1     -12.247  12.764  66.997  1.00  0.00     0.000 HD 
HETATM   28  O   UNL     1     -10.934  12.927  64.789  1.00  0.00    -0.294 OA 
ENDBRANCH  14  15
ENDBRANCH  13  14
ENDBRANCH  12  13
ENDBRANCH  11  12
ENDBRANCH  10  11
ENDBRANCH   8  10
ENDBRANCH   3   8
TORSDOF 7
ENDMDL
MODEL      145
REMARK 921   NORMALIZED FREE ENERGY PREDICTED BY IDOCK:   -5.00 KCAL/MOL
REMARK 922        TOTAL FREE ENERGY PREDICTED BY IDOCK:   -7.59 KCAL/MOL
REMARK 923 INTER-LIGAND FREE ENERGY PREDICTED BY IDOCK:   -6.83 KCAL/MOL
REMARK 924 INTRA-LIGAND FREE ENERGY PREDICTED BY IDOCK:   -0.76 KCAL/MOL
REMARK 927      BINDING AFFINITY PREDICTED BY RF-SCORE:    0.00 PKD
ROOT
HETATM    1  C   UNL     1     -12.489  14.111  66.261  1.00  0.00    -0.395 C  
HETATM    2  C   UNL     1     -11.236  13.998  65.386  1.00  0.00    -0.319 C  
HETATM    3  C   UNL     1     -11.536  13.466  63.962  1.00  0.00    -0.385 C  
HETATM    4  C   UNL     1     -10.513  15.351  65.344  1.00  0.00    -0.426 C  
HETATM    5  H1  UNL     1     -12.634  14.029  62.286  1.00  0.00     0.000 HD 
HETATM    6  N   UNL     1     -12.437  14.379  63.223  1.00  0.00    -0.963 NA 
HETATM    7  H2  UNL     1     -12.066  15.329  63.197  1.00  0.00     0.000 HD 
ENDROOT
BRANCH   3   8
HETATM    8  C   UNL     1     -12.137  12.041  63.973  1.00  0.00    -0.406 C  
HETATM    9  O   UNL     1     -13.327  11.780  64.112  1.00  0.00    -0.521 OA 
BRANCH   8  10
HETATM   10  O   UNL     1     -11.175  11.102  63.739  1.00  0.00    -0.275 OA 
BRANCH  10  11
HETATM   11  C   UNL     1     -10.008  11.213  64.578  1.00  0.00    -0.296 C  
BRANCH  11  12
HETATM   12  C   UNL     1     -10.115  10.264  65.773  1.00  0.00    -0.255 C  
BRANCH  12  13
HETATM   13  O   UNL     1      -9.036  10.555  66.667  1.00  0.00    -0.152 OA 
BRANCH  13  14
HETATM   14  C   UNL     1      -9.484  11.225  67.846  1.00  0.00    -0.178 C  
BRANCH  14  15
HETATM   15  N   UNL     1      -8.826  12.515  67.949  1.00  0.00    -0.176 NA 
HETATM   16  C   UNL     1      -7.564  12.797  67.475  1.00  0.00    -0.162 A  
HETATM   17  N   UNL     1      -7.230  14.060  67.671  1.00  0.00    -0.167 NA 
HETATM   18  C   UNL     1      -8.322  14.626  68.296  1.00  0.00    -0.148 A  
HETATM   19  C   UNL     1      -9.289  13.676  68.479  1.00  0.00    -0.128 A  
HETATM   20  N   UNL     1     -10.462  13.944  69.062  1.00  0.00    -0.183 NA 
HETATM   21  C   UNL     1     -10.686  15.245  69.425  1.00  0.00    -0.265 C  
HETATM   22  N   UNL     1     -11.924  15.453  69.941  1.00  0.00    -0.338 NA 
HETATM   23  N   UNL     1      -9.845  16.229  69.301  1.00  0.00    -0.259 N  
HETATM   24  H2  UNL     1     -12.619  14.714  70.049  1.00  0.00     0.000 HD 
HETATM   25  H1  UNL     1     -12.091  16.422  70.211  1.00  0.00     0.000 HD 
HETATM   26  C   UNL     1      -8.577  16.004  68.743  1.00  0.00    -0.223 C  
HETATM   27  H   UNL     1     -10.108  17.166  69.610  1.00  0.00     0.000 HD 
HETATM   28  O   UNL     1      -7.741  16.895  68.634  1.00  0.00    -0.212 OA 
ENDBRANCH  14  15
ENDBRANCH  13  14
ENDBRANCH  12  13
ENDBRANCH  11  12
ENDBRANCH  10  11
ENDBRANCH   8  10
ENDBRANCH   3   8
TORSDOF 7
ENDMDL
MODEL      146
REMARK 921   NORMALIZED FREE ENERGY PREDICTED BY IDOCK:   -4.98 KCAL/MOL
REMARK 922        TOTAL FREE ENERGY PREDICTED BY IDOCK:   -7.56 KCAL/MOL
REMARK 923 INTER-LIGAND FREE ENERGY PREDICTED BY IDOCK:   -7.08 KCAL/MOL
REMARK 924 INTRA-LIGAND FREE ENERGY PREDICTED BY IDOCK:   -0.48 KCAL/MOL
REMARK 927      BINDING AFFINITY PREDICTED BY RF-SCORE:    0.00 PKD
ROOT
HETATM    1  C   UNL     1     -12.077  10.745  71.202  1.00  0.00    -0.415 C  
HETATM    2  C   UNL     1     -11.659   9.660  70.203  1.00  0.00    -0.193 C  
HETATM    3  C   UNL     1     -10.562  10.133  69.218  1.00  0.00    -0.230 C  
HETATM    4  C   UNL     1     -11.230   8.397  70.964  1.00  0.00    -0.304 C  
HETATM    5  H1  UNL     1      -8.595  10.809  69.281  1.00  0.00     0.000 HD 
HETATM    6  N   UNL     1      -9.317  10.498  69.930  1.00  0.00    -0.368 NA 
HETATM    7  H2  UNL     1      -8.986   9.733  70.518  1.00  0.00     0.000 HD 
ENDROOT
BRANCH   3   8
HETATM    8  C   UNL     1     -11.022  11.320  68.339  1.00  0.00    -0.219 C  
HETATM    9  O   UNL     1     -12.010  11.316  67.612  1.00  0.00    -0.634 OA 
BRANCH   8  10
HETATM   10  O   UNL     1     -10.221  12.408  68.526  1.00  0.00    -0.226 OA 
BRANCH  10  11
HETATM   11  C   UNL     1      -9.591  12.906  67.328  1.00  0.00    -0.220 C  
BRANCH  11  12
HETATM   12  C   UNL     1      -8.303  13.656  67.672  1.00  0.00    -0.182 C  
BRANCH  12  13
HETATM   13  O   UNL     1      -8.502  15.039  67.366  1.00  0.00    -0.159 OA 
BRANCH  13  14
HETATM   14  C   UNL     1      -8.774  15.813  68.534  1.00  0.00    -0.184 C  
BRANCH  14  15
HETATM   15  N   UNL     1      -8.098  17.094  68.435  1.00  0.00    -0.245 NA 
HETATM   16  C   UNL     1      -6.855  17.372  68.960  1.00  0.00    -0.244 A  
HETATM   17  N   UNL     1      -6.466  18.605  68.691  1.00  0.00    -0.226 NA 
HETATM   18  C   UNL     1      -7.498  19.153  67.956  1.00  0.00    -0.263 A  
HETATM   19  C   UNL     1      -8.499  18.232  67.816  1.00  0.00    -0.249 A  
HETATM   20  N   UNL     1      -9.627  18.491  67.145  1.00  0.00    -0.288 NA 
HETATM   21  C   UNL     1      -9.718  19.717  66.543  1.00  0.00    -0.399 C  
HETATM   22  N   UNL     1     -10.856  19.878  65.821  1.00  0.00    -0.354 NA 
HETATM   23  N   UNL     1      -8.834  20.668  66.607  1.00  0.00    -0.564 N  
HETATM   24  H2  UNL     1     -11.573  19.157  65.736  1.00  0.00     0.000 HD 
HETATM   25  H1  UNL     1     -10.924  20.791  65.373  1.00  0.00     0.000 HD 
HETATM   26  C   UNL     1      -7.650  20.479  67.338  1.00  0.00    -0.339 C  
HETATM   27  H   UNL     1      -9.000  21.553  66.126  1.00  0.00     0.000 HD 
HETATM   28  O   UNL     1      -6.802  21.357  67.451  1.00  0.00    -0.573 OA 
ENDBRANCH  14  15
ENDBRANCH  13  14
ENDBRANCH  12  13
ENDBRANCH  11  12
ENDBRANCH  10  11
ENDBRANCH   8  10
ENDBRANCH   3   8
TORSDOF 7
ENDMDL
MODEL      147
REMARK 921   NORMALIZED FREE ENERGY PREDICTED BY IDOCK:   -4.94 KCAL/MOL
REMARK 922        TOTAL FREE ENERGY PREDICTED BY IDOCK:   -7.50 KCAL/MOL
REMARK 923 INTER-LIGAND FREE ENERGY PREDICTED BY IDOCK:   -7.10 KCAL/MOL
REMARK 924 INTRA-LIGAND FREE ENERGY PREDICTED BY IDOCK:   -0.40 KCAL/MOL
REMARK 927      BINDING AFFINITY PREDICTED BY RF-SCORE:    0.00 PKD
ROOT
HETATM    1  C   UNL     1     -10.470   8.501  72.488  1.00  0.00    -0.303 C  
HETATM    2  C   UNL     1     -11.794   8.825  71.786  1.00  0.00    -0.414 C  
HETATM    3  C   UNL     1     -11.634   9.035  70.260  1.00  0.00    -0.060 C  
HETATM    4  C   UNL     1     -12.825   7.733  72.102  1.00  0.00    -0.190 C  
HETATM    5  H1  UNL     1     -11.034   7.950  68.589  1.00  0.00     0.000 HD 
HETATM    6  N   UNL     1     -11.138   7.811  69.594  1.00  0.00    -0.439 NA 
HETATM    7  H2  UNL     1     -11.732   7.007  69.800  1.00  0.00     0.000 HD 
ENDROOT
BRANCH   3   8
HETATM    8  C   UNL     1     -10.707  10.224  69.916  1.00  0.00    -0.294 C  
HETATM    9  O   UNL     1      -9.613  10.129  69.370  1.00  0.00    -0.210 OA 
BRANCH   8  10
HETATM   10  O   UNL     1     -11.293  11.413  70.240  1.00  0.00    -0.223 OA 
BRANCH  10  11
HETATM   11  C   UNL     1     -11.874  12.122  69.127  1.00  0.00    -0.305 C  
BRANCH  11  12
HETATM   12  C   UNL     1     -10.892  13.159  68.580  1.00  0.00    -0.262 C  
BRANCH  12  13
HETATM   13  O   UNL     1     -11.465  13.733  67.402  1.00  0.00    -0.311 OA 
BRANCH  13  14
HETATM   14  C   UNL     1     -11.723  15.128  67.558  1.00  0.00    -0.199 C  
BRANCH  14  15
HETATM   15  N   UNL     1     -10.655  15.890  66.935  1.00  0.00    -0.314 NA 
HETATM   16  C   UNL     1      -9.932  15.482  65.836  1.00  0.00    -0.349 A  
HETATM   17  N   UNL     1      -9.047  16.386  65.458  1.00  0.00    -0.299 NA 
HETATM   18  C   UNL     1      -9.203  17.431  66.347  1.00  0.00    -0.249 A  
HETATM   19  C   UNL     1     -10.175  17.118  67.256  1.00  0.00    -0.316 A  
HETATM   20  N   UNL     1     -10.538  17.951  68.238  1.00  0.00    -0.346 NA 
HETATM   21  C   UNL     1      -9.929  19.176  68.263  1.00  0.00    -0.403 C  
HETATM   22  N   UNL     1     -10.402  19.991  69.240  1.00  0.00    -0.557 NA 
HETATM   23  N   UNL     1      -8.996  19.583  67.454  1.00  0.00    -0.299 N  
HETATM   24  H2  UNL     1     -11.138  19.718  69.891  1.00  0.00     0.000 HD 
HETATM   25  H1  UNL     1      -9.948  20.904  69.259  1.00  0.00     0.000 HD 
HETATM   26  C   UNL     1      -8.533  18.738  66.433  1.00  0.00    -0.284 C  
HETATM   27  H   UNL     1      -8.600  20.517  67.562  1.00  0.00     0.000 HD 
HETATM   28  O   UNL     1      -7.635  19.068  65.666  1.00  0.00    -0.474 OA 
ENDBRANCH  14  15
ENDBRANCH  13  14
ENDBRANCH  12  13
ENDBRANCH  11  12
ENDBRANCH  10  11
ENDBRANCH   8  10
ENDBRANCH   3   8
TORSDOF 7
ENDMDL
MODEL      148
REMARK 921   NORMALIZED FREE ENERGY PREDICTED BY IDOCK:   -4.93 KCAL/MOL
REMARK 922        TOTAL FREE ENERGY PREDICTED BY IDOCK:   -7.49 KCAL/MOL
REMARK 923 INTER-LIGAND FREE ENERGY PREDICTED BY IDOCK:   -7.05 KCAL/MOL
REMARK 924 INTRA-LIGAND FREE ENERGY PREDICTED BY IDOCK:   -0.45 KCAL/MOL
REMARK 927      BINDING AFFINITY PREDICTED BY RF-SCORE:    0.00 PKD
ROOT
HETATM    1  C   UNL     1     -10.576  16.435  69.339  1.00  0.00    -0.317 C  
HETATM    2  C   UNL     1     -10.341  14.921  69.318  1.00  0.00    -0.240 C  
HETATM    3  C   UNL     1     -11.655  14.105  69.241  1.00  0.00    -0.304 C  
HETATM    4  C   UNL     1      -9.385  14.563  68.172  1.00  0.00    -0.197 C  
HETATM    5  H1  UNL     1     -13.263  13.855  67.944  1.00  0.00     0.000 HD 
HETATM    6  N   UNL     1     -12.398  14.392  67.995  1.00  0.00    -0.589 NA 
HETATM    7  H2  UNL     1     -11.817  14.243  67.170  1.00  0.00     0.000 HD 
ENDROOT
BRANCH   3   8
HETATM    8  C   UNL     1     -12.576  14.342  70.461  1.00  0.00    -0.353 C  
HETATM    9  O   UNL     1     -13.236  15.357  70.657  1.00  0.00    -0.416 OA 
BRANCH   8  10
HETATM   10  O   UNL     1     -12.616  13.242  71.267  1.00  0.00    -0.358 OA 
BRANCH  10  11
HETATM   11  C   UNL     1     -12.357  11.993  70.595  1.00  0.00    -0.304 C  
BRANCH  11  12
HETATM   12  C   UNL     1     -12.882  10.820  71.424  1.00  0.00    -0.452 C  
BRANCH  12  13
HETATM   13  O   UNL     1     -11.853   9.829  71.489  1.00  0.00    -0.379 OA 
BRANCH  13  14
HETATM   14  C   UNL     1     -10.999   9.867  70.345  1.00  0.00    -0.318 C  
BRANCH  14  15
HETATM   15  N   UNL     1     -10.942   8.549  69.740  1.00  0.00    -0.182 NA 
HETATM   16  C   UNL     1     -11.400   7.391  70.327  1.00  0.00    -0.221 A  
HETATM   17  N   UNL     1     -11.256   6.342  69.538  1.00  0.00    -0.413 NA 
HETATM   18  C   UNL     1     -10.683   6.838  68.385  1.00  0.00    -0.232 A  
HETATM   19  C   UNL     1     -10.478   8.184  68.518  1.00  0.00    -0.162 A  
HETATM   20  N   UNL     1      -9.935   8.930  67.549  1.00  0.00    -0.188 NA 
HETATM   21  C   UNL     1      -9.639   8.292  66.374  1.00  0.00    -0.230 C  
HETATM   22  N   UNL     1      -9.162   9.127  65.416  1.00  0.00    -0.315 NA 
HETATM   23  N   UNL     1      -9.790   7.023  66.133  1.00  0.00    -0.413 N  
HETATM   24  H2  UNL     1      -9.035  10.129  65.557  1.00  0.00     0.000 HD 
HETATM   25  H1  UNL     1      -8.942   8.652  64.541  1.00  0.00     0.000 HD 
HETATM   26  C   UNL     1     -10.308   6.176  67.126  1.00  0.00    -0.230 C  
HETATM   27  H   UNL     1      -9.531   6.643  65.222  1.00  0.00     0.000 HD 
HETATM   28  O   UNL     1     -10.439   4.970  66.954  1.00  0.00    -0.234 OA 
ENDBRANCH  14  15
ENDBRANCH  13  14
ENDBRANCH  12  13
ENDBRANCH  11  12
ENDBRANCH  10  11
ENDBRANCH   8  10
ENDBRANCH   3   8
TORSDOF 7
ENDMDL
MODEL      149
REMARK 921   NORMALIZED FREE ENERGY PREDICTED BY IDOCK:   -4.93 KCAL/MOL
REMARK 922        TOTAL FREE ENERGY PREDICTED BY IDOCK:   -7.48 KCAL/MOL
REMARK 923 INTER-LIGAND FREE ENERGY PREDICTED BY IDOCK:   -6.77 KCAL/MOL
REMARK 924 INTRA-LIGAND FREE ENERGY PREDICTED BY IDOCK:   -0.71 KCAL/MOL
REMARK 927      BINDING AFFINITY PREDICTED BY RF-SCORE:    0.00 PKD
ROOT
HETATM    1  C   UNL     1     -13.055  14.614  70.497  1.00  0.00    -0.252 C  
HETATM    2  C   UNL     1     -11.598  14.833  70.919  1.00  0.00    -0.316 C  
HETATM    3  C   UNL     1     -10.739  15.493  69.812  1.00  0.00    -0.295 C  
HETATM    4  C   UNL     1     -11.556  15.639  72.225  1.00  0.00    -0.534 C  
HETATM    5  H1  UNL     1     -10.678  17.276  68.740  1.00  0.00     0.000 HD 
HETATM    6  N   UNL     1     -11.244  16.841  69.468  1.00  0.00    -0.296 NA 
HETATM    7  H2  UNL     1     -11.311  17.437  70.294  1.00  0.00     0.000 HD 
ENDROOT
BRANCH   3   8
HETATM    8  C   UNL     1     -10.651  14.630  68.532  1.00  0.00    -0.245 C  
HETATM    9  O   UNL     1     -11.486  14.615  67.635  1.00  0.00    -0.317 OA 
BRANCH   8  10
HETATM   10  O   UNL     1      -9.482  13.929  68.493  1.00  0.00    -0.208 OA 
BRANCH  10  11
HETATM   11  C   UNL     1      -9.235  13.235  67.253  1.00  0.00    -0.222 C  
BRANCH  11  12
HETATM   12  C   UNL     1      -8.620  11.860  67.521  1.00  0.00    -0.160 C  
BRANCH  12  13
HETATM   13  O   UNL     1      -9.145  11.375  68.760  1.00  0.00    -0.167 OA 
BRANCH  13  14
HETATM   14  C   UNL     1      -9.994  10.242  68.575  1.00  0.00    -0.164 C  
BRANCH  14  15
HETATM   15  N   UNL     1     -11.078  10.287  69.540  1.00  0.00    -0.248 NA 
HETATM   16  C   UNL     1     -12.017  11.290  69.624  1.00  0.00    -0.353 A  
HETATM   17  N   UNL     1     -12.910  11.058  70.570  1.00  0.00    -0.227 NA 
HETATM   18  C   UNL     1     -12.538   9.849  71.122  1.00  0.00    -0.367 A  
HETATM   19  C   UNL     1     -11.410   9.389  70.501  1.00  0.00    -0.274 A  
HETATM   20  N   UNL     1     -10.825   8.233  70.834  1.00  0.00    -0.225 NA 
HETATM   21  C   UNL     1     -11.443   7.485  71.799  1.00  0.00    -0.260 C  
HETATM   22  N   UNL     1     -10.833   6.295  72.029  1.00  0.00    -0.235 NA 
HETATM   23  N   UNL     1     -12.515   7.819  72.456  1.00  0.00    -0.554 N  
HETATM   24  H2  UNL     1      -9.997   5.987  71.533  1.00  0.00     0.000 HD 
HETATM   25  H1  UNL     1     -11.294   5.738  72.749  1.00  0.00     0.000 HD 
HETATM   26  C   UNL     1     -13.149   9.043  72.191  1.00  0.00    -0.435 C  
HETATM   27  H   UNL     1     -12.894   7.191  73.165  1.00  0.00     0.000 HD 
HETATM   28  O   UNL     1     -14.143   9.413  72.806  1.00  0.00    -0.417 OA 
ENDBRANCH  14  15
ENDBRANCH  13  14
ENDBRANCH  12  13
ENDBRANCH  11  12
ENDBRANCH  10  11
ENDBRANCH   8  10
ENDBRANCH   3   8
TORSDOF 7
ENDMDL
MODEL      150
REMARK 921   NORMALIZED FREE ENERGY PREDICTED BY IDOCK:   -4.90 KCAL/MOL
REMARK 922        TOTAL FREE ENERGY PREDICTED BY IDOCK:   -7.45 KCAL/MOL
REMARK 923 INTER-LIGAND FREE ENERGY PREDICTED BY IDOCK:   -6.97 KCAL/MOL
REMARK 924 INTRA-LIGAND FREE ENERGY PREDICTED BY IDOCK:   -0.48 KCAL/MOL
REMARK 927      BINDING AFFINITY PREDICTED BY RF-SCORE:    0.00 PKD
ROOT
HETATM    1  C   UNL     1     -10.562   8.202  70.007  1.00  0.00    -0.239 C  
HETATM    2  C   UNL     1      -9.165   7.780  69.539  1.00  0.00    -0.149 C  
HETATM    3  C   UNL     1      -8.273   8.981  69.138  1.00  0.00    -0.121 C  
HETATM    4  C   UNL     1      -8.499   6.916  70.619  1.00  0.00    -0.136 C  
HETATM    5  H1  UNL     1      -7.447  10.675  70.020  1.00  0.00     0.000 HD 
HETATM    6  N   UNL     1      -8.034   9.885  70.284  1.00  0.00    -0.270 NA 
HETATM    7  H2  UNL     1      -7.646   9.382  71.083  1.00  0.00     0.000 HD 
ENDROOT
BRANCH   3   8
HETATM    8  C   UNL     1      -8.857   9.788  67.954  1.00  0.00    -0.122 C  
HETATM    9  O   UNL     1      -9.009   9.358  66.817  1.00  0.00    -0.128 OA 
BRANCH   8  10
HETATM   10  O   UNL     1      -9.248  11.032  68.355  1.00  0.00    -0.161 OA 
BRANCH  10  11
HETATM   11  C   UNL     1     -10.263  11.640  67.531  1.00  0.00    -0.195 C  
BRANCH  11  12
HETATM   12  C   UNL     1     -11.637  11.049  67.851  1.00  0.00    -0.226 C  
BRANCH  12  13
HETATM   13  O   UNL     1     -12.288  11.920  68.780  1.00  0.00    -0.264 OA 
BRANCH  13  14
HETATM   14  C   UNL     1     -12.221  11.425  70.117  1.00  0.00    -0.321 C  
BRANCH  14  15
HETATM   15  N   UNL     1     -12.682  12.449  71.037  1.00  0.00    -0.291 NA 
HETATM   16  C   UNL     1     -13.514  12.227  72.112  1.00  0.00    -0.327 A  
HETATM   17  N   UNL     1     -13.742  13.331  72.800  1.00  0.00    -0.618 NA 
HETATM   18  C   UNL     1     -13.025  14.313  72.149  1.00  0.00    -0.373 A  
HETATM   19  C   UNL     1     -12.392  13.774  71.063  1.00  0.00    -0.372 A  
HETATM   20  N   UNL     1     -11.620  14.500  70.245  1.00  0.00    -0.278 NA 
HETATM   21  C   UNL     1     -11.440  15.816  70.576  1.00  0.00    -0.381 C  
HETATM   22  N   UNL     1     -10.588  16.466  69.743  1.00  0.00    -0.309 NA 
HETATM   23  N   UNL     1     -11.989  16.435  71.579  1.00  0.00    -0.635 N  
HETATM   24  H2  UNL     1     -10.129  16.020  68.949  1.00  0.00     0.000 HD 
HETATM   25  H1  UNL     1     -10.454  17.447  69.989  1.00  0.00     0.000 HD 
HETATM   26  C   UNL     1     -12.849  15.743  72.446  1.00  0.00    -0.457 C  
HETATM   27  H   UNL     1     -11.794  17.424  71.735  1.00  0.00     0.000 HD 
HETATM   28  O   UNL     1     -13.412  16.293  73.387  1.00  0.00    -0.598 OA 
ENDBRANCH  14  15
ENDBRANCH  13  14
ENDBRANCH  12  13
ENDBRANCH  11  12
ENDBRANCH  10  11
ENDBRANCH   8  10
ENDBRANCH   3   8
TORSDOF 7
ENDMDL
MODEL      151
REMARK 921   NORMALIZED FREE ENERGY PREDICTED BY IDOCK:   -4.90 KCAL/MOL
REMARK 922        TOTAL FREE ENERGY PREDICTED BY IDOCK:   -7.45 KCAL/MOL
REMARK 923 INTER-LIGAND FREE ENERGY PREDICTED BY IDOCK:   -6.70 KCAL/MOL
REMARK 924 INTRA-LIGAND FREE ENERGY PREDICTED BY IDOCK:   -0.75 KCAL/MOL
REMARK 927      BINDING AFFINITY PREDICTED BY RF-SCORE:    0.00 PKD
ROOT
HETATM    1  C   UNL     1      -7.486  13.634  68.154  1.00  0.00    -0.125 C  
HETATM    2  C   UNL     1      -6.891  12.263  68.494  1.00  0.00    -0.081 C  
HETATM    3  C   UNL     1      -6.948  11.268  67.308  1.00  0.00    -0.109 C  
HETATM    4  C   UNL     1      -5.459  12.438  69.017  1.00  0.00    -0.063 C  
HETATM    5  H1  UNL     1      -6.194  11.099  65.375  1.00  0.00     0.000 HD 
HETATM    6  N   UNL     1      -6.156  11.754  66.156  1.00  0.00    -0.461 NA 
HETATM    7  H2  UNL     1      -5.194  11.960  66.424  1.00  0.00     0.000 HD 
ENDROOT
BRANCH   3   8
HETATM    8  C   UNL     1      -8.395  10.967  66.852  1.00  0.00    -0.133 C  
HETATM    9  O   UNL     1      -8.893  11.341  65.796  1.00  0.00    -0.196 OA 
BRANCH   8  10
HETATM   10  O   UNL     1      -9.035  10.166  67.752  1.00  0.00    -0.128 OA 
BRANCH  10  11
HETATM   11  C   UNL     1      -9.818  10.871  68.737  1.00  0.00    -0.196 C  
BRANCH  11  12
HETATM   12  C   UNL     1     -11.261  10.365  68.737  1.00  0.00    -0.241 C  
BRANCH  12  13
HETATM   13  O   UNL     1     -12.006  11.151  67.803  1.00  0.00    -0.630 OA 
BRANCH  13  14
HETATM   14  C   UNL     1     -11.963  12.543  68.120  1.00  0.00    -0.219 C  
BRANCH  14  15
HETATM   15  N   UNL     1     -11.835  13.314  66.897  1.00  0.00    -0.385 NA 
HETATM   16  C   UNL     1     -12.182  12.867  65.642  1.00  0.00    -0.463 A  
HETATM   17  N   UNL     1     -11.995  13.788  64.715  1.00  0.00    -0.384 NA 
HETATM   18  C   UNL     1     -11.507  14.885  65.396  1.00  0.00    -0.320 A  
HETATM   19  C   UNL     1     -11.396  14.587  66.725  1.00  0.00    -0.352 A  
HETATM   20  N   UNL     1     -10.949  15.468  67.627  1.00  0.00    -0.310 NA 
HETATM   21  C   UNL     1     -10.656  16.724  67.167  1.00  0.00    -0.256 C  
HETATM   22  N   UNL     1     -10.279  17.581  68.150  1.00  0.00    -0.338 NA 
HETATM   23  N   UNL     1     -10.723  17.121  65.931  1.00  0.00    -0.214 N  
HETATM   24  H2  UNL     1     -10.221  17.316  69.134  1.00  0.00     0.000 HD 
HETATM   25  H1  UNL     1     -10.061  18.517  67.808  1.00  0.00     0.000 HD 
HETATM   26  C   UNL     1     -11.136  16.230  64.928  1.00  0.00    -0.290 C  
HETATM   27  H   UNL     1     -10.474  18.081  65.690  1.00  0.00     0.000 HD 
HETATM   28  O   UNL     1     -11.186  16.551  63.746  1.00  0.00    -0.801 OA 
ENDBRANCH  14  15
ENDBRANCH  13  14
ENDBRANCH  12  13
ENDBRANCH  11  12
ENDBRANCH  10  11
ENDBRANCH   8  10
ENDBRANCH   3   8
TORSDOF 7
ENDMDL
MODEL      152
REMARK 921   NORMALIZED FREE ENERGY PREDICTED BY IDOCK:   -4.90 KCAL/MOL
REMARK 922        TOTAL FREE ENERGY PREDICTED BY IDOCK:   -7.44 KCAL/MOL
REMARK 923 INTER-LIGAND FREE ENERGY PREDICTED BY IDOCK:   -6.35 KCAL/MOL
REMARK 924 INTRA-LIGAND FREE ENERGY PREDICTED BY IDOCK:   -1.10 KCAL/MOL
REMARK 927      BINDING AFFINITY PREDICTED BY RF-SCORE:    0.00 PKD
ROOT
HETATM    1  C   UNL     1      -8.298  13.415  67.214  1.00  0.00    -0.183 C  
HETATM    2  C   UNL     1      -8.480  12.247  68.189  1.00  0.00    -0.176 C  
HETATM    3  C   UNL     1      -9.107  10.995  67.525  1.00  0.00    -0.137 C  
HETATM    4  C   UNL     1      -7.138  11.920  68.858  1.00  0.00    -0.110 C  
HETATM    5  H1  UNL     1      -8.654   9.639  66.012  1.00  0.00     0.000 HD 
HETATM    6  N   UNL     1      -8.241  10.463  66.449  1.00  0.00    -0.136 NA 
HETATM    7  H2  UNL     1      -7.298  10.273  66.788  1.00  0.00     0.000 HD 
ENDROOT
BRANCH   3   8
HETATM    8  C   UNL     1     -10.523  11.264  66.965  1.00  0.00    -0.234 C  
HETATM    9  O   UNL     1     -11.452  11.746  67.604  1.00  0.00    -0.280 OA 
BRANCH   8  10
HETATM   10  O   UNL     1     -10.592  10.956  65.638  1.00  0.00    -0.236 OA 
BRANCH  10  11
HETATM   11  C   UNL     1     -11.607  11.672  64.905  1.00  0.00    -0.084 C  
BRANCH  11  12
HETATM   12  C   UNL     1     -10.983  12.441  63.739  1.00  0.00    -0.447 C  
BRANCH  12  13
HETATM   13  O   UNL     1     -10.559  13.716  64.228  1.00  0.00    -0.394 OA 
BRANCH  13  14
HETATM   14  C   UNL     1     -11.579  14.365  64.988  1.00  0.00    -0.374 C  
BRANCH  14  15
HETATM   15  N   UNL     1     -10.997  15.457  65.747  1.00  0.00    -0.327 NA 
HETATM   16  C   UNL     1     -10.209  16.454  65.216  1.00  0.00    -0.082 A  
HETATM   17  N   UNL     1      -9.845  17.339  66.127  1.00  0.00    -0.431 NA 
HETATM   18  C   UNL     1     -10.423  16.901  67.301  1.00  0.00    -0.301 A  
HETATM   19  C   UNL     1     -11.112  15.743  67.068  1.00  0.00    -0.152 A  
HETATM   20  N   UNL     1     -11.776  15.093  68.031  1.00  0.00    -0.333 NA 
HETATM   21  C   UNL     1     -11.788  15.674  69.271  1.00  0.00    -0.363 C  
HETATM   22  N   UNL     1     -12.541  14.996  70.174  1.00  0.00    -0.535 NA 
HETATM   23  N   UNL     1     -11.171  16.768  69.609  1.00  0.00    -0.318 N  
HETATM   24  H2  UNL     1     -13.048  14.139  69.952  1.00  0.00     0.000 HD 
HETATM   25  H1  UNL     1     -12.549  15.429  71.098  1.00  0.00     0.000 HD 
HETATM   26  C   UNL     1     -10.415  17.471  68.657  1.00  0.00    -0.338 C  
HETATM   27  H   UNL     1     -11.237  17.115  70.566  1.00  0.00     0.000 HD 
HETATM   28  O   UNL     1      -9.794  18.490  68.938  1.00  0.00    -0.377 OA 
ENDBRANCH  14  15
ENDBRANCH  13  14
ENDBRANCH  12  13
ENDBRANCH  11  12
ENDBRANCH  10  11
ENDBRANCH   8  10
ENDBRANCH   3   8
TORSDOF 7
ENDMDL
MODEL      153
REMARK 921   NORMALIZED FREE ENERGY PREDICTED BY IDOCK:   -4.90 KCAL/MOL
REMARK 922        TOTAL FREE ENERGY PREDICTED BY IDOCK:   -7.44 KCAL/MOL
REMARK 923 INTER-LIGAND FREE ENERGY PREDICTED BY IDOCK:   -6.64 KCAL/MOL
REMARK 924 INTRA-LIGAND FREE ENERGY PREDICTED BY IDOCK:   -0.81 KCAL/MOL
REMARK 927      BINDING AFFINITY PREDICTED BY RF-SCORE:    0.00 PKD
ROOT
HETATM    1  C   UNL     1     -11.294   9.782  69.875  1.00  0.00    -0.238 C  
HETATM    2  C   UNL     1      -9.991   9.006  69.659  1.00  0.00    -0.196 C  
HETATM    3  C   UNL     1      -9.286   9.365  68.327  1.00  0.00    -0.130 C  
HETATM    4  C   UNL     1      -9.062   9.212  70.863  1.00  0.00    -0.316 C  
HETATM    5  H1  UNL     1      -8.428  11.027  67.414  1.00  0.00     0.000 HD 
HETATM    6  N   UNL     1      -8.892  10.791  68.290  1.00  0.00    -0.133 NA 
HETATM    7  H2  UNL     1      -8.317  11.040  69.096  1.00  0.00     0.000 HD 
ENDROOT
BRANCH   3   8
HETATM    8  C   UNL     1     -10.150   9.034  67.087  1.00  0.00    -0.243 C  
HETATM    9  O   UNL     1     -10.570   7.919  66.799  1.00  0.00    -0.326 OA 
BRANCH   8  10
HETATM   10  O   UNL     1     -10.446  10.163  66.381  1.00  0.00    -0.208 OA 
BRANCH  10  11
HETATM   11  C   UNL     1      -9.898  10.202  65.048  1.00  0.00    -0.322 C  
BRANCH  11  12
HETATM   12  C   UNL     1     -10.245  11.526  64.364  1.00  0.00    -0.300 C  
BRANCH  12  13
HETATM   13  O   UNL     1     -10.043  12.578  65.311  1.00  0.00    -0.278 OA 
BRANCH  13  14
HETATM   14  C   UNL     1     -11.179  13.439  65.405  1.00  0.00    -0.288 C  
BRANCH  14  15
HETATM   15  N   UNL     1     -11.421  13.771  66.797  1.00  0.00    -0.333 NA 
HETATM   16  C   UNL     1     -11.904  12.896  67.745  1.00  0.00    -0.339 A  
HETATM   17  N   UNL     1     -11.993  13.453  68.939  1.00  0.00    -0.338 NA 
HETATM   18  C   UNL     1     -11.545  14.747  68.763  1.00  0.00    -0.320 A  
HETATM   19  C   UNL     1     -11.212  14.942  67.451  1.00  0.00    -0.338 A  
HETATM   20  N   UNL     1     -10.744  16.108  66.991  1.00  0.00    -0.293 NA 
HETATM   21  C   UNL     1     -10.554  17.101  67.914  1.00  0.00    -0.376 C  
HETATM   22  N   UNL     1     -10.009  18.227  67.386  1.00  0.00    -0.320 NA 
HETATM   23  N   UNL     1     -10.833  17.032  69.182  1.00  0.00    -0.315 N  
HETATM   24  H2  UNL     1      -9.766  18.324  66.400  1.00  0.00     0.000 HD 
HETATM   25  H1  UNL     1      -9.867  18.967  68.074  1.00  0.00     0.000 HD 
HETATM   26  C   UNL     1     -11.374  15.852  69.718  1.00  0.00    -0.347 C  
HETATM   27  H   UNL     1     -10.660  17.835  69.787  1.00  0.00     0.000 HD 
HETATM   28  O   UNL     1     -11.681  15.751  70.901  1.00  0.00    -0.337 OA 
ENDBRANCH  14  15
ENDBRANCH  13  14
ENDBRANCH  12  13
ENDBRANCH  11  12
ENDBRANCH  10  11
ENDBRANCH   8  10
ENDBRANCH   3   8
TORSDOF 7
ENDMDL
MODEL      154
REMARK 921   NORMALIZED FREE ENERGY PREDICTED BY IDOCK:   -4.90 KCAL/MOL
REMARK 922        TOTAL FREE ENERGY PREDICTED BY IDOCK:   -7.44 KCAL/MOL
REMARK 923 INTER-LIGAND FREE ENERGY PREDICTED BY IDOCK:   -6.95 KCAL/MOL
REMARK 924 INTRA-LIGAND FREE ENERGY PREDICTED BY IDOCK:   -0.49 KCAL/MOL
REMARK 927      BINDING AFFINITY PREDICTED BY RF-SCORE:    0.00 PKD
ROOT
HETATM    1  C   UNL     1      -9.556   9.820  67.967  1.00  0.00    -0.160 C  
HETATM    2  C   UNL     1      -9.946   9.300  66.580  1.00  0.00    -0.344 C  
HETATM    3  C   UNL     1      -9.878  10.392  65.483  1.00  0.00    -0.269 C  
HETATM    4  C   UNL     1      -9.080   8.085  66.222  1.00  0.00    -0.232 C  
HETATM    5  H1  UNL     1      -8.458  11.632  64.601  1.00  0.00     0.000 HD 
HETATM    6  N   UNL     1      -8.503  10.913  65.323  1.00  0.00    -0.328 NA 
HETATM    7  H2  UNL     1      -7.837  10.161  65.143  1.00  0.00     0.000 HD 
ENDROOT
BRANCH   3   8
HETATM    8  C   UNL     1     -10.849  11.566  65.750  1.00  0.00    -0.262 C  
HETATM    9  O   UNL     1     -11.906  11.479  66.365  1.00  0.00    -0.397 OA 
BRANCH   8  10
HETATM   10  O   UNL     1     -10.345  12.738  65.268  1.00  0.00    -0.288 OA 
BRANCH  10  11
HETATM   11  C   UNL     1     -11.188  13.408  64.309  1.00  0.00    -0.380 C  
BRANCH  11  12
HETATM   12  C   UNL     1     -11.360  14.882  64.683  1.00  0.00    -0.357 C  
BRANCH  12  13
HETATM   13  O   UNL     1     -10.337  15.221  65.623  1.00  0.00    -0.311 OA 
BRANCH  13  14
HETATM   14  C   UNL     1     -10.427  16.583  66.043  1.00  0.00    -0.310 C  
BRANCH  14  15
HETATM   15  N   UNL     1     -10.480  16.640  67.493  1.00  0.00    -0.312 NA 
HETATM   16  C   UNL     1     -10.249  17.769  68.247  1.00  0.00    -0.382 A  
HETATM   17  N   UNL     1     -10.400  17.545  69.539  1.00  0.00    -0.110 NA 
HETATM   18  C   UNL     1     -10.747  16.212  69.632  1.00  0.00    -0.325 A  
HETATM   19  C   UNL     1     -10.779  15.659  68.382  1.00  0.00    -0.271 A  
HETATM   20  N   UNL     1     -11.090  14.375  68.169  1.00  0.00    -0.255 NA 
HETATM   21  C   UNL     1     -11.437  13.636  69.268  1.00  0.00    -0.291 C  
HETATM   22  N   UNL     1     -11.809  12.366  68.965  1.00  0.00    -0.310 NA 
HETATM   23  N   UNL     1     -11.442  14.052  70.500  1.00  0.00    -0.510 N  
HETATM   24  H2  UNL     1     -11.828  11.999  68.013  1.00  0.00     0.000 HD 
HETATM   25  H1  UNL     1     -12.068  11.815  69.783  1.00  0.00     0.000 HD 
HETATM   26  C   UNL     1     -11.078  15.375  70.796  1.00  0.00    -0.336 C  
HETATM   27  H   UNL     1     -11.711  13.417  71.251  1.00  0.00     0.000 HD 
HETATM   28  O   UNL     1     -11.039  15.803  71.944  1.00  0.00    -0.212 OA 
ENDBRANCH  14  15
ENDBRANCH  13  14
ENDBRANCH  12  13
ENDBRANCH  11  12
ENDBRANCH  10  11
ENDBRANCH   8  10
ENDBRANCH   3   8
TORSDOF 7
ENDMDL
MODEL      155
REMARK 921   NORMALIZED FREE ENERGY PREDICTED BY IDOCK:   -4.87 KCAL/MOL
REMARK 922        TOTAL FREE ENERGY PREDICTED BY IDOCK:   -7.40 KCAL/MOL
REMARK 923 INTER-LIGAND FREE ENERGY PREDICTED BY IDOCK:   -6.72 KCAL/MOL
REMARK 924 INTRA-LIGAND FREE ENERGY PREDICTED BY IDOCK:   -0.68 KCAL/MOL
REMARK 927      BINDING AFFINITY PREDICTED BY RF-SCORE:    0.00 PKD
ROOT
HETATM    1  C   UNL     1      -8.999  11.287  68.386  1.00  0.00    -0.167 C  
HETATM    2  C   UNL     1     -10.459  10.844  68.240  1.00  0.00    -0.205 C  
HETATM    3  C   UNL     1     -10.615   9.536  67.424  1.00  0.00    -0.271 C  
HETATM    4  C   UNL     1     -11.102  10.725  69.628  1.00  0.00    -0.339 C  
HETATM    5  H1  UNL     1     -10.039   7.540  67.549  1.00  0.00     0.000 HD 
HETATM    6  N   UNL     1      -9.935   8.401  68.086  1.00  0.00    -0.184 NA 
HETATM    7  H2  UNL     1     -10.256   8.282  69.047  1.00  0.00     0.000 HD 
ENDROOT
BRANCH   3   8
HETATM    8  C   UNL     1     -10.100   9.674  65.973  1.00  0.00    -0.248 C  
HETATM    9  O   UNL     1      -9.238   8.968  65.461  1.00  0.00    -0.215 OA 
BRANCH   8  10
HETATM   10  O   UNL     1     -10.779  10.649  65.302  1.00  0.00    -0.179 OA 
BRANCH  10  11
HETATM   11  C   UNL     1     -10.078  11.203  64.171  1.00  0.00    -0.333 C  
BRANCH  11  12
HETATM   12  C   UNL     1     -10.738  12.507  63.718  1.00  0.00    -0.445 C  
BRANCH  12  13
HETATM   13  O   UNL     1     -11.070  13.263  64.885  1.00  0.00    -0.306 OA 
BRANCH  13  14
HETATM   14  C   UNL     1     -10.929  14.668  64.671  1.00  0.00    -0.325 C  
BRANCH  14  15
HETATM   15  N   UNL     1     -10.166  15.250  65.761  1.00  0.00    -0.321 NA 
HETATM   16  C   UNL     1      -9.360  14.542  66.625  1.00  0.00    -0.281 A  
HETATM   17  N   UNL     1      -8.756  15.327  67.498  1.00  0.00    -0.171 NA 
HETATM   18  C   UNL     1      -9.182  16.602  67.186  1.00  0.00    -0.222 A  
HETATM   19  C   UNL     1     -10.055  16.549  66.135  1.00  0.00    -0.348 A  
HETATM   20  N   UNL     1     -10.628  17.642  65.618  1.00  0.00    -0.569 NA 
HETATM   21  C   UNL     1     -10.254  18.845  66.155  1.00  0.00    -0.433 C  
HETATM   22  N   UNL     1     -10.820  19.910  65.531  1.00  0.00    -0.310 NA 
HETATM   23  N   UNL     1      -9.437  19.018  67.151  1.00  0.00    -0.301 N  
HETATM   24  H2  UNL     1     -11.460  19.822  64.741  1.00  0.00     0.000 HD 
HETATM   25  H1  UNL     1     -10.542  20.806  65.930  1.00  0.00     0.000 HD 
HETATM   26  C   UNL     1      -8.841  17.908  67.771  1.00  0.00    -0.251 C  
HETATM   27  H   UNL     1      -9.229  19.960  67.482  1.00  0.00     0.000 HD 
HETATM   28  O   UNL     1      -8.088  18.021  68.732  1.00  0.00    -0.298 OA 
ENDBRANCH  14  15
ENDBRANCH  13  14
ENDBRANCH  12  13
ENDBRANCH  11  12
ENDBRANCH  10  11
ENDBRANCH   8  10
ENDBRANCH   3   8
TORSDOF 7
ENDMDL
MODEL      156
REMARK 921   NORMALIZED FREE ENERGY PREDICTED BY IDOCK:   -4.87 KCAL/MOL
REMARK 922        TOTAL FREE ENERGY PREDICTED BY IDOCK:   -7.40 KCAL/MOL
REMARK 923 INTER-LIGAND FREE ENERGY PREDICTED BY IDOCK:   -6.44 KCAL/MOL
REMARK 924 INTRA-LIGAND FREE ENERGY PREDICTED BY IDOCK:   -0.95 KCAL/MOL
REMARK 927      BINDING AFFINITY PREDICTED BY RF-SCORE:    0.00 PKD
ROOT
HETATM    1  C   UNL     1     -11.822  15.650  72.016  1.00  0.00    -0.548 C  
HETATM    2  C   UNL     1     -13.207  15.203  71.534  1.00  0.00    -0.512 C  
HETATM    3  C   UNL     1     -13.299  13.677  71.286  1.00  0.00    -0.189 C  
HETATM    4  C   UNL     1     -14.277  15.681  72.525  1.00  0.00    -0.472 C  
HETATM    5  H1  UNL     1     -13.124  11.907  72.367  1.00  0.00     0.000 HD 
HETATM    6  N   UNL     1     -13.063  12.912  72.530  1.00  0.00    -0.293 NA 
HETATM    7  H2  UNL     1     -13.693  13.208  73.276  1.00  0.00     0.000 HD 
ENDROOT
BRANCH   3   8
HETATM    8  C   UNL     1     -12.325  13.192  70.187  1.00  0.00    -0.213 C  
HETATM    9  O   UNL     1     -11.537  12.261  70.306  1.00  0.00    -0.196 OA 
BRANCH   8  10
HETATM   10  O   UNL     1     -12.502  13.895  69.031  1.00  0.00    -0.209 OA 
BRANCH  10  11
HETATM   11  C   UNL     1     -11.360  13.907  68.151  1.00  0.00    -0.295 C  
BRANCH  11  12
HETATM   12  C   UNL     1     -11.680  13.175  66.847  1.00  0.00    -0.387 C  
BRANCH  12  13
HETATM   13  O   UNL     1     -11.695  11.771  67.120  1.00  0.00    -0.547 OA 
BRANCH  13  14
HETATM   14  C   UNL     1     -10.530  11.115  66.619  1.00  0.00    -0.250 C  
BRANCH  14  15
HETATM   15  N   UNL     1      -9.653  10.775  67.725  1.00  0.00    -0.161 NA 
HETATM   16  C   UNL     1      -8.456  11.398  68.002  1.00  0.00    -0.145 A  
HETATM   17  N   UNL     1      -7.882  10.912  69.088  1.00  0.00    -0.138 NA 
HETATM   18  C   UNL     1      -8.744   9.933  69.540  1.00  0.00    -0.190 A  
HETATM   19  C   UNL     1      -9.816   9.842  68.696  1.00  0.00    -0.157 A  
HETATM   20  N   UNL     1     -10.815   8.973  68.892  1.00  0.00    -0.111 NA 
HETATM   21  C   UNL     1     -10.750   8.204  70.022  1.00  0.00    -0.243 C  
HETATM   22  N   UNL     1     -11.832   7.402  70.189  1.00  0.00    -0.515 NA 
HETATM   23  N   UNL     1      -9.784   8.204  70.893  1.00  0.00    -0.164 N  
HETATM   24  H2  UNL     1     -12.616   7.375  69.537  1.00  0.00     0.000 HD 
HETATM   25  H1  UNL     1     -11.784   6.829  71.031  1.00  0.00     0.000 HD 
HETATM   26  C   UNL     1      -8.682   9.056  70.719  1.00  0.00    -0.224 C  
HETATM   27  H   UNL     1      -9.827   7.584  71.702  1.00  0.00     0.000 HD 
HETATM   28  O   UNL     1      -7.735   9.069  71.498  1.00  0.00    -0.284 OA 
ENDBRANCH  14  15
ENDBRANCH  13  14
ENDBRANCH  12  13
ENDBRANCH  11  12
ENDBRANCH  10  11
ENDBRANCH   8  10
ENDBRANCH   3   8
TORSDOF 7
ENDMDL
MODEL      157
REMARK 921   NORMALIZED FREE ENERGY PREDICTED BY IDOCK:   -4.86 KCAL/MOL
REMARK 922        TOTAL FREE ENERGY PREDICTED BY IDOCK:   -7.39 KCAL/MOL
REMARK 923 INTER-LIGAND FREE ENERGY PREDICTED BY IDOCK:   -6.69 KCAL/MOL
REMARK 924 INTRA-LIGAND FREE ENERGY PREDICTED BY IDOCK:   -0.71 KCAL/MOL
REMARK 927      BINDING AFFINITY PREDICTED BY RF-SCORE:    0.00 PKD
ROOT
HETATM    1  C   UNL     1      -7.823  19.008  68.723  1.00  0.00    -0.378 C  
HETATM    2  C   UNL     1      -7.542  19.265  67.239  1.00  0.00    -0.256 C  
HETATM    3  C   UNL     1      -8.832  19.351  66.385  1.00  0.00    -0.359 C  
HETATM    4  C   UNL     1      -6.679  20.525  67.088  1.00  0.00    -0.325 C  
HETATM    5  H1  UNL     1     -10.538  20.534  66.250  1.00  0.00     0.000 HD 
HETATM    6  N   UNL     1      -9.690  20.478  66.812  1.00  0.00    -0.635 NA 
HETATM    7  H2  UNL     1      -9.177  21.361  66.805  1.00  0.00     0.000 HD 
ENDROOT
BRANCH   3   8
HETATM    8  C   UNL     1      -9.650  18.039  66.408  1.00  0.00    -0.295 C  
HETATM    9  O   UNL     1     -10.691  17.870  67.033  1.00  0.00    -0.319 OA 
BRANCH   8  10
HETATM   10  O   UNL     1      -9.098  17.102  65.584  1.00  0.00    -0.500 OA 
BRANCH  10  11
HETATM   11  C   UNL     1      -9.082  15.763  66.118  1.00  0.00    -0.342 C  
BRANCH  11  12
HETATM   12  C   UNL     1      -8.121  15.670  67.304  1.00  0.00    -0.195 C  
BRANCH  12  13
HETATM   13  O   UNL     1      -8.415  14.466  68.018  1.00  0.00    -0.148 OA 
BRANCH  13  14
HETATM   14  C   UNL     1      -9.794  14.107  67.918  1.00  0.00    -0.224 C  
BRANCH  14  15
HETATM   15  N   UNL     1      -9.911  12.666  67.789  1.00  0.00    -0.206 NA 
HETATM   16  C   UNL     1     -10.168  11.799  68.828  1.00  0.00    -0.160 A  
HETATM   17  N   UNL     1     -10.258  10.546  68.421  1.00  0.00    -0.165 NA 
HETATM   18  C   UNL     1     -10.055  10.599  67.057  1.00  0.00    -0.211 A  
HETATM   19  C   UNL     1      -9.827  11.893  66.677  1.00  0.00    -0.201 A  
HETATM   20  N   UNL     1      -9.600  12.241  65.405  1.00  0.00    -0.132 NA 
HETATM   21  C   UNL     1      -9.662  11.241  64.473  1.00  0.00    -0.253 C  
HETATM   22  N   UNL     1      -9.494  11.683  63.200  1.00  0.00    -0.546 NA 
HETATM   23  N   UNL     1      -9.869   9.981  64.715  1.00  0.00    -0.373 N  
HETATM   24  H2  UNL     1      -9.337  12.663  62.962  1.00  0.00     0.000 HD 
HETATM   25  H1  UNL     1      -9.540  10.938  62.505  1.00  0.00     0.000 HD 
HETATM   26  C   UNL     1     -10.065   9.542  66.034  1.00  0.00    -0.249 C  
HETATM   27  H   UNL     1      -9.890   9.311  63.946  1.00  0.00     0.000 HD 
HETATM   28  O   UNL     1     -10.235   8.360  66.312  1.00  0.00    -0.212 OA 
ENDBRANCH  14  15
ENDBRANCH  13  14
ENDBRANCH  12  13
ENDBRANCH  11  12
ENDBRANCH  10  11
ENDBRANCH   8  10
ENDBRANCH   3   8
TORSDOF 7
ENDMDL
MODEL      158
REMARK 921   NORMALIZED FREE ENERGY PREDICTED BY IDOCK:   -4.85 KCAL/MOL
REMARK 922        TOTAL FREE ENERGY PREDICTED BY IDOCK:   -7.38 KCAL/MOL
REMARK 923 INTER-LIGAND FREE ENERGY PREDICTED BY IDOCK:   -6.86 KCAL/MOL
REMARK 924 INTRA-LIGAND FREE ENERGY PREDICTED BY IDOCK:   -0.52 KCAL/MOL
REMARK 927      BINDING AFFINITY PREDICTED BY RF-SCORE:    0.00 PKD
ROOT
HETATM    1  C   UNL     1      -7.847  12.367  67.812  1.00  0.00    -0.154 C  
HETATM    2  C   UNL     1      -7.524  13.839  67.535  1.00  0.00    -0.182 C  
HETATM    3  C   UNL     1      -8.335  14.814  68.425  1.00  0.00    -0.154 C  
HETATM    4  C   UNL     1      -6.014  14.071  67.674  1.00  0.00    -0.048 C  
HETATM    5  H1  UNL     1      -8.563  15.261  70.445  1.00  0.00     0.000 HD 
HETATM    6  N   UNL     1      -8.029  14.619  69.860  1.00  0.00    -0.368 NA 
HETATM    7  H2  UNL     1      -7.028  14.693  70.041  1.00  0.00     0.000 HD 
ENDROOT
BRANCH   3   8
HETATM    8  C   UNL     1      -9.861  14.698  68.200  1.00  0.00    -0.224 C  
HETATM    9  O   UNL     1     -10.579  13.830  68.684  1.00  0.00    -0.246 OA 
BRANCH   8  10
HETATM   10  O   UNL     1     -10.325  15.732  67.441  1.00  0.00    -0.269 OA 
BRANCH  10  11
HETATM   11  C   UNL     1      -9.561  15.994  66.246  1.00  0.00    -0.307 C  
BRANCH  11  12
HETATM   12  C   UNL     1     -10.198  15.302  65.040  1.00  0.00    -0.289 C  
BRANCH  12  13
HETATM   13  O   UNL     1     -11.517  14.891  65.412  1.00  0.00    -0.346 OA 
BRANCH  13  14
HETATM   14  C   UNL     1     -12.075  13.970  64.475  1.00  0.00    -0.459 C  
BRANCH  14  15
HETATM   15  N   UNL     1     -11.309  12.738  64.491  1.00  0.00    -0.318 NA 
HETATM   16  C   UNL     1     -10.512  12.291  63.460  1.00  0.00    -0.424 A  
HETATM   17  N   UNL     1      -9.902  11.158  63.758  1.00  0.00    -0.297 NA 
HETATM   18  C   UNL     1     -10.316  10.856  65.040  1.00  0.00    -0.288 A  
HETATM   19  C   UNL     1     -11.187  11.814  65.478  1.00  0.00    -0.258 A  
HETATM   20  N   UNL     1     -11.749  11.777  66.691  1.00  0.00    -0.554 NA 
HETATM   21  C   UNL     1     -11.366  10.753  67.516  1.00  0.00    -0.205 C  
HETATM   22  N   UNL     1     -11.920  10.824  68.753  1.00  0.00    -0.718 NA 
HETATM   23  N   UNL     1     -10.549   9.789  67.210  1.00  0.00    -0.264 N  
HETATM   24  H2  UNL     1     -12.559  11.566  69.040  1.00  0.00     0.000 HD 
HETATM   25  H1  UNL     1     -11.635  10.062  69.367  1.00  0.00     0.000 HD 
HETATM   26  C   UNL     1      -9.964   9.742  65.934  1.00  0.00    -0.275 C  
HETATM   27  H   UNL     1     -10.332   9.067  67.897  1.00  0.00     0.000 HD 
HETATM   28  O   UNL     1      -9.212   8.837  65.592  1.00  0.00    -0.217 OA 
ENDBRANCH  14  15
ENDBRANCH  13  14
ENDBRANCH  12  13
ENDBRANCH  11  12
ENDBRANCH  10  11
ENDBRANCH   8  10
ENDBRANCH   3   8
TORSDOF 7
ENDMDL
MODEL      159
REMARK 921   NORMALIZED FREE ENERGY PREDICTED BY IDOCK:   -4.85 KCAL/MOL
REMARK 922        TOTAL FREE ENERGY PREDICTED BY IDOCK:   -7.38 KCAL/MOL
REMARK 923 INTER-LIGAND FREE ENERGY PREDICTED BY IDOCK:   -6.91 KCAL/MOL
REMARK 924 INTRA-LIGAND FREE ENERGY PREDICTED BY IDOCK:   -0.47 KCAL/MOL
REMARK 927      BINDING AFFINITY PREDICTED BY RF-SCORE:    0.00 PKD
ROOT
HETATM    1  C   UNL     1      -7.638  17.740  66.136  1.00  0.00    -0.302 C  
HETATM    2  C   UNL     1      -8.072  19.185  66.406  1.00  0.00    -0.319 C  
HETATM    3  C   UNL     1      -8.646  19.389  67.830  1.00  0.00    -0.313 C  
HETATM    4  C   UNL     1      -6.899  20.135  66.127  1.00  0.00    -0.272 C  
HETATM    5  H1  UNL     1      -8.012  19.228  69.806  1.00  0.00     0.000 HD 
HETATM    6  N   UNL     1      -7.634  19.094  68.869  1.00  0.00    -0.347 NA 
HETATM    7  H2  UNL     1      -6.783  19.639  68.727  1.00  0.00     0.000 HD 
ENDROOT
BRANCH   3   8
HETATM    8  C   UNL     1      -9.915  18.544  68.088  1.00  0.00    -0.361 C  
HETATM    9  O   UNL     1     -11.028  18.790  67.637  1.00  0.00    -0.384 OA 
BRANCH   8  10
HETATM   10  O   UNL     1      -9.625  17.439  68.833  1.00  0.00    -0.271 OA 
BRANCH  10  11
HETATM   11  C   UNL     1     -10.682  16.460  68.899  1.00  0.00    -0.319 C  
BRANCH  11  12
HETATM   12  C   UNL     1     -10.163  15.081  68.489  1.00  0.00    -0.227 C  
BRANCH  12  13
HETATM   13  O   UNL     1     -11.070  14.099  68.995  1.00  0.00    -0.247 OA 
BRANCH  13  14
HETATM   14  C   UNL     1     -12.256  14.007  68.205  1.00  0.00    -0.160 C  
BRANCH  14  15
HETATM   15  N   UNL     1     -11.935  13.428  66.914  1.00  0.00    -0.391 NA 
HETATM   16  C   UNL     1     -12.178  14.028  65.698  1.00  0.00    -0.442 A  
HETATM   17  N   UNL     1     -11.751  13.293  64.686  1.00  0.00    -0.347 NA 
HETATM   18  C   UNL     1     -11.203  12.169  65.268  1.00  0.00    -0.332 A  
HETATM   19  C   UNL     1     -11.331  12.247  66.627  1.00  0.00    -0.343 A  
HETATM   20  N   UNL     1     -10.884  11.291  67.450  1.00  0.00    -0.245 NA 
HETATM   21  C   UNL     1     -10.229  10.238  66.871  1.00  0.00    -0.230 C  
HETATM   22  N   UNL     1      -9.741   9.348  67.773  1.00  0.00    -0.147 NA 
HETATM   23  N   UNL     1     -10.048  10.057  65.596  1.00  0.00    -0.277 N  
HETATM   24  H2  UNL     1      -9.852   9.453  68.781  1.00  0.00     0.000 HD 
HETATM   25  H1  UNL     1      -9.253   8.563  67.342  1.00  0.00     0.000 HD 
HETATM   26  C   UNL     1     -10.537  10.998  64.676  1.00  0.00    -0.299 C  
HETATM   27  H   UNL     1      -9.550   9.230  65.264  1.00  0.00     0.000 HD 
HETATM   28  O   UNL     1     -10.416  10.854  63.465  1.00  0.00    -0.333 OA 
ENDBRANCH  14  15
ENDBRANCH  13  14
ENDBRANCH  12  13
ENDBRANCH  11  12
ENDBRANCH  10  11
ENDBRANCH   8  10
ENDBRANCH   3   8
TORSDOF 7
ENDMDL
MODEL      160
REMARK 921   NORMALIZED FREE ENERGY PREDICTED BY IDOCK:   -4.85 KCAL/MOL
REMARK 922        TOTAL FREE ENERGY PREDICTED BY IDOCK:   -7.38 KCAL/MOL
REMARK 923 INTER-LIGAND FREE ENERGY PREDICTED BY IDOCK:   -6.49 KCAL/MOL
REMARK 924 INTRA-LIGAND FREE ENERGY PREDICTED BY IDOCK:   -0.89 KCAL/MOL
REMARK 927      BINDING AFFINITY PREDICTED BY RF-SCORE:    0.00 PKD
ROOT
HETATM    1  C   UNL     1      -8.216   7.420  69.339  1.00  0.00    -0.131 C  
HETATM    2  C   UNL     1      -9.003   8.734  69.325  1.00  0.00    -0.144 C  
HETATM    3  C   UNL     1     -10.367   8.615  68.599  1.00  0.00    -0.193 C  
HETATM    4  C   UNL     1      -9.170   9.251  70.760  1.00  0.00    -0.316 C  
HETATM    5  H1  UNL     1     -12.154   7.567  68.797  1.00  0.00     0.000 HD 
HETATM    6  N   UNL     1     -11.256   7.645  69.275  1.00  0.00    -0.433 NA 
HETATM    7  H2  UNL     1     -11.377   7.873  70.262  1.00  0.00     0.000 HD 
ENDROOT
BRANCH   3   8
HETATM    8  C   UNL     1     -10.217   8.231  67.109  1.00  0.00    -0.295 C  
HETATM    9  O   UNL     1     -10.523   7.146  66.627  1.00  0.00    -0.235 OA 
BRANCH   8  10
HETATM   10  O   UNL     1      -9.758   9.285  66.375  1.00  0.00    -0.214 OA 
BRANCH  10  11
HETATM   11  C   UNL     1      -9.116   8.923  65.135  1.00  0.00    -0.097 C  
BRANCH  11  12
HETATM   12  C   UNL     1      -9.055  10.126  64.192  1.00  0.00    -0.251 C  
BRANCH  12  13
HETATM   13  O   UNL     1     -10.330  10.774  64.218  1.00  0.00    -0.359 OA 
BRANCH  13  14
HETATM   14  C   UNL     1     -10.255  12.123  63.757  1.00  0.00    -0.424 C  
BRANCH  14  15
HETATM   15  N   UNL     1     -10.871  13.003  64.733  1.00  0.00    -0.319 NA 
HETATM   16  C   UNL     1     -11.952  13.820  64.486  1.00  0.00    -0.427 A  
HETATM   17  N   UNL     1     -12.329  14.486  65.563  1.00  0.00    -0.316 NA 
HETATM   18  C   UNL     1     -11.458  14.083  66.555  1.00  0.00    -0.357 A  
HETATM   19  C   UNL     1     -10.559  13.190  66.040  1.00  0.00    -0.281 A  
HETATM   20  N   UNL     1      -9.595  12.630  66.780  1.00  0.00    -0.235 NA 
HETATM   21  C   UNL     1      -9.577  12.948  68.111  1.00  0.00    -0.223 C  
HETATM   22  N   UNL     1      -8.619  12.286  68.809  1.00  0.00    -0.367 NA 
HETATM   23  N   UNL     1     -10.377  13.781  68.709  1.00  0.00    -0.330 N  
HETATM   24  H2  UNL     1      -7.976  11.619  68.383  1.00  0.00     0.000 HD 
HETATM   25  H1  UNL     1      -8.606  12.523  69.800  1.00  0.00     0.000 HD 
HETATM   26  C   UNL     1     -11.379  14.440  67.980  1.00  0.00    -0.294 C  
HETATM   27  H   UNL     1     -10.276  13.955  69.710  1.00  0.00     0.000 HD 
HETATM   28  O   UNL     1     -12.136  15.255  68.495  1.00  0.00    -0.250 OA 
ENDBRANCH  14  15
ENDBRANCH  13  14
ENDBRANCH  12  13
ENDBRANCH  11  12
ENDBRANCH  10  11
ENDBRANCH   8  10
ENDBRANCH   3   8
TORSDOF 7
ENDMDL
MODEL      161
REMARK 921   NORMALIZED FREE ENERGY PREDICTED BY IDOCK:   -4.85 KCAL/MOL
REMARK 922        TOTAL FREE ENERGY PREDICTED BY IDOCK:   -7.38 KCAL/MOL
REMARK 923 INTER-LIGAND FREE ENERGY PREDICTED BY IDOCK:   -6.89 KCAL/MOL
REMARK 924 INTRA-LIGAND FREE ENERGY PREDICTED BY IDOCK:   -0.48 KCAL/MOL
REMARK 927      BINDING AFFINITY PREDICTED BY RF-SCORE:    0.00 PKD
ROOT
HETATM    1  C   UNL     1     -10.865   6.178  70.018  1.00  0.00    -0.408 C  
HETATM    2  C   UNL     1     -10.605   6.336  71.520  1.00  0.00    -0.282 C  
HETATM    3  C   UNL     1     -11.503   7.412  72.180  1.00  0.00    -0.282 C  
HETATM    4  C   UNL     1     -10.748   4.975  72.215  1.00  0.00    -0.246 C  
HETATM    5  H1  UNL     1     -13.527   7.766  72.511  1.00  0.00     0.000 HD 
HETATM    6  N   UNL     1     -12.936   7.058  72.076  1.00  0.00    -0.541 NA 
HETATM    7  H2  UNL     1     -13.120   6.130  72.460  1.00  0.00     0.000 HD 
ENDROOT
BRANCH   3   8
HETATM    8  C   UNL     1     -11.274   8.823  71.591  1.00  0.00    -0.324 C  
HETATM    9  O   UNL     1     -10.186   9.380  71.501  1.00  0.00    -0.308 OA 
BRANCH   8  10
HETATM   10  O   UNL     1     -12.439   9.351  71.116  1.00  0.00    -0.308 OA 
BRANCH  10  11
HETATM   11  C   UNL     1     -12.474  10.792  71.071  1.00  0.00    -0.420 C  
BRANCH  11  12
HETATM   12  C   UNL     1     -12.086  11.294  69.679  1.00  0.00    -0.322 C  
BRANCH  12  13
HETATM   13  O   UNL     1     -12.397  12.688  69.609  1.00  0.00    -0.143 OA 
BRANCH  13  14
HETATM   14  C   UNL     1     -11.420  13.419  68.868  1.00  0.00    -0.304 C  
BRANCH  14  15
HETATM   15  N   UNL     1     -11.583  13.146  67.451  1.00  0.00    -0.334 NA 
HETATM   16  C   UNL     1     -12.628  13.599  66.676  1.00  0.00    -0.104 A  
HETATM   17  N   UNL     1     -12.506  13.232  65.413  1.00  0.00    -0.479 NA 
HETATM   18  C   UNL     1     -11.329  12.513  65.362  1.00  0.00    -0.325 A  
HETATM   19  C   UNL     1     -10.777  12.449  66.611  1.00  0.00    -0.235 A  
HETATM   20  N   UNL     1      -9.626  11.812  66.859  1.00  0.00    -0.190 NA 
HETATM   21  C   UNL     1      -8.982  11.265  65.783  1.00  0.00    -0.181 C  
HETATM   22  N   UNL     1      -7.788  10.702  66.102  1.00  0.00    -0.148 NA 
HETATM   23  N   UNL     1      -9.409  11.263  64.555  1.00  0.00    -0.362 N  
HETATM   24  H2  UNL     1      -7.410  10.687  67.049  1.00  0.00     0.000 HD 
HETATM   25  H1  UNL     1      -7.308  10.294  65.300  1.00  0.00     0.000 HD 
HETATM   26  C   UNL     1     -10.633  11.871  64.236  1.00  0.00    -0.334 C  
HETATM   27  H   UNL     1      -8.853  10.820  63.823  1.00  0.00     0.000 HD 
HETATM   28  O   UNL     1     -11.090  11.867  63.098  1.00  0.00    -0.312 OA 
ENDBRANCH  14  15
ENDBRANCH  13  14
ENDBRANCH  12  13
ENDBRANCH  11  12
ENDBRANCH  10  11
ENDBRANCH   8  10
ENDBRANCH   3   8
TORSDOF 7
ENDMDL
MODEL      162
REMARK 921   NORMALIZED FREE ENERGY PREDICTED BY IDOCK:   -4.85 KCAL/MOL
REMARK 922        TOTAL FREE ENERGY PREDICTED BY IDOCK:   -7.37 KCAL/MOL
REMARK 923 INTER-LIGAND FREE ENERGY PREDICTED BY IDOCK:   -6.74 KCAL/MOL
REMARK 924 INTRA-LIGAND FREE ENERGY PREDICTED BY IDOCK:   -0.63 KCAL/MOL
REMARK 927      BINDING AFFINITY PREDICTED BY RF-SCORE:    0.00 PKD
ROOT
HETATM    1  C   UNL     1     -10.482   6.300  69.760  1.00  0.00    -0.289 C  
HETATM    2  C   UNL     1      -9.397   7.381  69.711  1.00  0.00    -0.146 C  
HETATM    3  C   UNL     1      -8.913   7.818  71.117  1.00  0.00    -0.138 C  
HETATM    4  C   UNL     1      -8.232   6.903  68.835  1.00  0.00    -0.121 C  
HETATM    5  H1  UNL     1      -7.978   6.978  72.776  1.00  0.00     0.000 HD 
HETATM    6  N   UNL     1      -8.296   6.691  71.851  1.00  0.00    -0.114 NA 
HETATM    7  H2  UNL     1      -7.543   6.262  71.313  1.00  0.00     0.000 HD 
ENDROOT
BRANCH   3   8
HETATM    8  C   UNL     1     -10.045   8.435  71.972  1.00  0.00    -0.294 C  
HETATM    9  O   UNL     1     -10.353   8.071  73.101  1.00  0.00    -0.332 OA 
BRANCH   8  10
HETATM   10  O   UNL     1     -10.623   9.492  71.330  1.00  0.00    -0.336 OA 
BRANCH  10  11
HETATM   11  C   UNL     1     -12.063   9.515  71.383  1.00  0.00    -0.378 C  
BRANCH  11  12
HETATM   12  C   UNL     1     -12.581  10.950  71.259  1.00  0.00    -0.421 C  
BRANCH  12  13
HETATM   13  O   UNL     1     -11.742  11.644  70.332  1.00  0.00    -0.313 OA 
BRANCH  13  14
HETATM   14  C   UNL     1     -12.251  11.582  68.999  1.00  0.00    -0.121 C  
BRANCH  14  15
HETATM   15  N   UNL     1     -11.893  12.795  68.287  1.00  0.00    -0.330 NA 
HETATM   16  C   UNL     1     -12.150  14.074  68.730  1.00  0.00    -0.303 A  
HETATM   17  N   UNL     1     -11.683  14.991  67.902  1.00  0.00    -0.331 NA 
HETATM   18  C   UNL     1     -11.094  14.279  66.877  1.00  0.00    -0.312 A  
HETATM   19  C   UNL     1     -11.238  12.939  67.108  1.00  0.00    -0.289 A  
HETATM   20  N   UNL     1     -10.760  12.008  66.274  1.00  0.00    -0.257 NA 
HETATM   21  C   UNL     1     -10.057  12.457  65.189  1.00  0.00    -0.256 C  
HETATM   22  N   UNL     1      -9.541  11.455  64.432  1.00  0.00    -0.332 NA 
HETATM   23  N   UNL     1      -9.856  13.701  64.868  1.00  0.00    -0.606 N  
HETATM   24  H2  UNL     1      -9.665  10.466  64.649  1.00  0.00     0.000 HD 
HETATM   25  H1  UNL     1      -9.017  11.789  63.624  1.00  0.00     0.000 HD 
HETATM   26  C   UNL     1     -10.375  14.727  65.674  1.00  0.00    -0.349 C  
HETATM   27  H   UNL     1      -9.321  13.931  64.030  1.00  0.00     0.000 HD 
HETATM   28  O   UNL     1     -10.237  15.912  65.395  1.00  0.00    -0.371 OA 
ENDBRANCH  14  15
ENDBRANCH  13  14
ENDBRANCH  12  13
ENDBRANCH  11  12
ENDBRANCH  10  11
ENDBRANCH   8  10
ENDBRANCH   3   8
TORSDOF 7
ENDMDL
MODEL      163
REMARK 921   NORMALIZED FREE ENERGY PREDICTED BY IDOCK:   -4.84 KCAL/MOL
REMARK 922        TOTAL FREE ENERGY PREDICTED BY IDOCK:   -7.37 KCAL/MOL
REMARK 923 INTER-LIGAND FREE ENERGY PREDICTED BY IDOCK:   -6.80 KCAL/MOL
REMARK 924 INTRA-LIGAND FREE ENERGY PREDICTED BY IDOCK:   -0.57 KCAL/MOL
REMARK 927      BINDING AFFINITY PREDICTED BY RF-SCORE:    0.00 PKD
ROOT
HETATM    1  C   UNL     1     -10.163   8.369  72.376  1.00  0.00    -0.399 C  
HETATM    2  C   UNL     1     -11.190   8.950  71.398  1.00  0.00    -0.382 C  
HETATM    3  C   UNL     1     -11.235   8.195  70.046  1.00  0.00    -0.084 C  
HETATM    4  C   UNL     1     -12.571   8.995  72.067  1.00  0.00    -0.464 C  
HETATM    5  H1  UNL     1     -11.667   6.286  69.340  1.00  0.00     0.000 HD 
HETATM    6  N   UNL     1     -11.638   6.783  70.229  1.00  0.00    -0.467 NA 
HETATM    7  H2  UNL     1     -12.525   6.709  70.728  1.00  0.00     0.000 HD 
ENDROOT
BRANCH   3   8
HETATM    8  C   UNL     1      -9.890   8.255  69.285  1.00  0.00    -0.186 C  
HETATM    9  O   UNL     1      -8.906   7.570  69.539  1.00  0.00    -0.137 OA 
BRANCH   8  10
HETATM   10  O   UNL     1      -9.957   9.130  68.240  1.00  0.00    -0.163 OA 
BRANCH  10  11
HETATM   11  C   UNL     1     -10.254   8.525  66.965  1.00  0.00    -0.301 C  
BRANCH  11  12
HETATM   12  C   UNL     1      -9.527   9.262  65.840  1.00  0.00    -0.259 C  
BRANCH  12  13
HETATM   13  O   UNL     1      -9.222  10.581  66.300  1.00  0.00    -0.161 OA 
BRANCH  13  14
HETATM   14  C   UNL     1      -9.960  11.579  65.594  1.00  0.00    -0.236 C  
BRANCH  14  15
HETATM   15  N   UNL     1     -10.594  12.476  66.544  1.00  0.00    -0.239 NA 
HETATM   16  C   UNL     1     -11.509  12.093  67.499  1.00  0.00    -0.340 A  
HETATM   17  N   UNL     1     -11.897  13.106  68.252  1.00  0.00    -0.350 NA 
HETATM   18  C   UNL     1     -11.200  14.196  67.769  1.00  0.00    -0.287 A  
HETATM   19  C   UNL     1     -10.418  13.810  66.716  1.00  0.00    -0.270 A  
HETATM   20  N   UNL     1      -9.631  14.664  66.052  1.00  0.00    -0.307 NA 
HETATM   21  C   UNL     1      -9.594  15.952  66.513  1.00  0.00    -0.268 C  
HETATM   22  N   UNL     1      -8.719  16.739  65.836  1.00  0.00    -0.512 NA 
HETATM   23  N   UNL     1     -10.290  16.432  67.501  1.00  0.00    -0.282 N  
HETATM   24  H2  UNL     1      -8.146  16.404  65.061  1.00  0.00     0.000 HD 
HETATM   25  H1  UNL     1      -8.691  17.699  66.179  1.00  0.00     0.000 HD 
HETATM   26  C   UNL     1     -11.173  15.600  68.207  1.00  0.00    -0.353 C  
HETATM   27  H   UNL     1     -10.194  17.414  67.762  1.00  0.00     0.000 HD 
HETATM   28  O   UNL     1     -11.872  16.016  69.125  1.00  0.00    -0.356 OA 
ENDBRANCH  14  15
ENDBRANCH  13  14
ENDBRANCH  12  13
ENDBRANCH  11  12
ENDBRANCH  10  11
ENDBRANCH   8  10
ENDBRANCH   3   8
TORSDOF 7
ENDMDL
MODEL      164
REMARK 921   NORMALIZED FREE ENERGY PREDICTED BY IDOCK:   -4.84 KCAL/MOL
REMARK 922        TOTAL FREE ENERGY PREDICTED BY IDOCK:   -7.37 KCAL/MOL
REMARK 923 INTER-LIGAND FREE ENERGY PREDICTED BY IDOCK:   -7.48 KCAL/MOL
REMARK 924 INTRA-LIGAND FREE ENERGY PREDICTED BY IDOCK:    0.11 KCAL/MOL
REMARK 927      BINDING AFFINITY PREDICTED BY RF-SCORE:    0.00 PKD
ROOT
HETATM    1  C   UNL     1     -13.644  13.157  72.470  1.00  0.00    -0.595 C  
HETATM    2  C   UNL     1     -12.741  14.395  72.426  1.00  0.00    -0.400 C  
HETATM    3  C   UNL     1     -12.590  14.983  71.001  1.00  0.00    -0.350 C  
HETATM    4  C   UNL     1     -13.257  15.444  73.420  1.00  0.00    -0.570 C  
HETATM    5  H1  UNL     1     -13.791  15.827  69.526  1.00  0.00     0.000 HD 
HETATM    6  N   UNL     1     -13.890  15.440  70.463  1.00  0.00    -0.707 NA 
HETATM    7  H2  UNL     1     -14.344  16.101  71.095  1.00  0.00     0.000 HD 
ENDROOT
BRANCH   3   8
HETATM    8  C   UNL     1     -11.940  13.988  70.011  1.00  0.00    -0.339 C  
HETATM    9  O   UNL     1     -11.963  12.768  70.123  1.00  0.00    -0.342 OA 
BRANCH   8  10
HETATM   10  O   UNL     1     -11.389  14.643  68.949  1.00  0.00    -0.255 OA 
BRANCH  10  11
HETATM   11  C   UNL     1     -12.048  14.410  67.688  1.00  0.00    -0.277 C  
BRANCH  11  12
HETATM   12  C   UNL     1     -11.089  14.669  66.525  1.00  0.00    -0.329 C  
BRANCH  12  13
HETATM   13  O   UNL     1     -11.183  13.566  65.621  1.00  0.00    -0.293 OA 
BRANCH  13  14
HETATM   14  C   UNL     1     -12.052  12.544  66.110  1.00  0.00    -0.286 C  
BRANCH  14  15
HETATM   15  N   UNL     1     -11.264  11.401  66.534  1.00  0.00    -0.305 NA 
HETATM   16  C   UNL     1     -11.277  10.860  67.801  1.00  0.00    -0.317 A  
HETATM   17  N   UNL     1     -10.493   9.802  67.899  1.00  0.00    -0.224 NA 
HETATM   18  C   UNL     1      -9.948   9.644  66.641  1.00  0.00    -0.236 A  
HETATM   19  C   UNL     1     -10.409  10.631  65.815  1.00  0.00    -0.219 A  
HETATM   20  N   UNL     1     -10.045  10.724  64.530  1.00  0.00    -0.328 NA 
HETATM   21  C   UNL     1      -9.223   9.741  64.051  1.00  0.00    -0.215 C  
HETATM   22  N   UNL     1      -8.959   9.862  62.725  1.00  0.00    -0.243 NA 
HETATM   23  N   UNL     1      -8.724   8.757  64.739  1.00  0.00    -0.350 N  
HETATM   24  H2  UNL     1      -9.335  10.611  62.143  1.00  0.00     0.000 HD 
HETATM   25  H1  UNL     1      -8.346   9.129  62.367  1.00  0.00     0.000 HD 
HETATM   26  C   UNL     1      -9.026   8.631  66.105  1.00  0.00    -0.180 C  
HETATM   27  H   UNL     1      -8.112   8.077  64.287  1.00  0.00     0.000 HD 
HETATM   28  O   UNL     1      -8.554   7.738  66.800  1.00  0.00    -0.124 OA 
ENDBRANCH  14  15
ENDBRANCH  13  14
ENDBRANCH  12  13
ENDBRANCH  11  12
ENDBRANCH  10  11
ENDBRANCH   8  10
ENDBRANCH   3   8
TORSDOF 7
ENDMDL
MODEL      165
REMARK 921   NORMALIZED FREE ENERGY PREDICTED BY IDOCK:   -4.83 KCAL/MOL
REMARK 922        TOTAL FREE ENERGY PREDICTED BY IDOCK:   -7.35 KCAL/MOL
REMARK 923 INTER-LIGAND FREE ENERGY PREDICTED BY IDOCK:   -6.40 KCAL/MOL
REMARK 924 INTRA-LIGAND FREE ENERGY PREDICTED BY IDOCK:   -0.96 KCAL/MOL
REMARK 927      BINDING AFFINITY PREDICTED BY RF-SCORE:    0.00 PKD
ROOT
HETATM    1  C   UNL     1     -10.761  15.282  66.605  1.00  0.00    -0.309 C  
HETATM    2  C   UNL     1     -11.072  14.802  65.184  1.00  0.00    -0.389 C  
HETATM    3  C   UNL     1     -12.035  13.589  65.152  1.00  0.00    -0.368 C  
HETATM    4  C   UNL     1     -11.608  15.972  64.349  1.00  0.00    -0.212 C  
HETATM    5  H1  UNL     1     -13.985  13.130  65.715  1.00  0.00     0.000 HD 
HETATM    6  N   UNL     1     -13.351  13.928  65.736  1.00  0.00    -0.579 NA 
HETATM    7  H2  UNL     1     -13.763  14.744  65.282  1.00  0.00     0.000 HD 
ENDROOT
BRANCH   3   8
HETATM    8  C   UNL     1     -11.454  12.347  65.868  1.00  0.00    -0.374 C  
HETATM    9  O   UNL     1     -10.496  11.692  65.475  1.00  0.00    -0.255 OA 
BRANCH   8  10
HETATM   10  O   UNL     1     -12.108  12.109  67.042  1.00  0.00    -0.591 OA 
BRANCH  10  11
HETATM   11  C   UNL     1     -11.287  12.218  68.222  1.00  0.00    -0.289 C  
BRANCH  11  12
HETATM   12  C   UNL     1     -12.153  12.177  69.483  1.00  0.00    -0.201 C  
BRANCH  12  13
HETATM   13  O   UNL     1     -12.353  10.806  69.838  1.00  0.00    -0.329 OA 
BRANCH  13  14
HETATM   14  C   UNL     1     -11.213  10.251  70.494  1.00  0.00    -0.330 C  
BRANCH  14  15
HETATM   15  N   UNL     1     -11.022   8.880  70.057  1.00  0.00    -0.230 NA 
HETATM   16  C   UNL     1     -11.476   7.767  70.730  1.00  0.00    -0.272 A  
HETATM   17  N   UNL     1     -11.194   6.648  70.088  1.00  0.00    -0.331 NA 
HETATM   18  C   UNL     1     -10.531   7.049  68.945  1.00  0.00    -0.203 A  
HETATM   19  C   UNL     1     -10.414   8.411  68.938  1.00  0.00    -0.189 A  
HETATM   20  N   UNL     1      -9.813   9.078  67.945  1.00  0.00    -0.163 NA 
HETATM   21  C   UNL     1      -9.363   8.333  66.889  1.00  0.00    -0.176 C  
HETATM   22  N   UNL     1      -8.833   9.085  65.890  1.00  0.00    -0.164 NA 
HETATM   23  N   UNL     1      -9.419   7.038  66.786  1.00  0.00    -0.157 N  
HETATM   24  H2  UNL     1      -8.776  10.103  65.923  1.00  0.00     0.000 HD 
HETATM   25  H1  UNL     1      -8.497   8.530  65.102  1.00  0.00     0.000 HD 
HETATM   26  C   UNL     1      -9.991   6.276  67.816  1.00  0.00    -0.127 C  
HETATM   27  H   UNL     1      -9.046   6.576  65.956  1.00  0.00     0.000 HD 
HETATM   28  O   UNL     1     -10.039   5.051  67.776  1.00  0.00    -0.159 OA 
ENDBRANCH  14  15
ENDBRANCH  13  14
ENDBRANCH  12  13
ENDBRANCH  11  12
ENDBRANCH  10  11
ENDBRANCH   8  10
ENDBRANCH   3   8
TORSDOF 7
ENDMDL
MODEL      166
REMARK 921   NORMALIZED FREE ENERGY PREDICTED BY IDOCK:   -4.83 KCAL/MOL
REMARK 922        TOTAL FREE ENERGY PREDICTED BY IDOCK:   -7.35 KCAL/MOL
REMARK 923 INTER-LIGAND FREE ENERGY PREDICTED BY IDOCK:   -7.33 KCAL/MOL
REMARK 924 INTRA-LIGAND FREE ENERGY PREDICTED BY IDOCK:   -0.02 KCAL/MOL
REMARK 927      BINDING AFFINITY PREDICTED BY RF-SCORE:    0.00 PKD
ROOT
HETATM    1  C   UNL     1      -8.197  19.045  67.084  1.00  0.00    -0.286 C  
HETATM    2  C   UNL     1      -9.583  18.395  67.006  1.00  0.00    -0.301 C  
HETATM    3  C   UNL     1     -10.071  17.843  68.369  1.00  0.00    -0.383 C  
HETATM    4  C   UNL     1     -10.586  19.390  66.407  1.00  0.00    -0.558 C  
HETATM    5  H1  UNL     1     -10.532  18.561  70.267  1.00  0.00     0.000 HD 
HETATM    6  N   UNL     1     -10.211  18.924  69.371  1.00  0.00    -0.383 NA 
HETATM    7  H2  UNL     1     -10.818  19.671  69.031  1.00  0.00     0.000 HD 
ENDROOT
BRANCH   3   8
HETATM    8  C   UNL     1      -9.148  16.735  68.928  1.00  0.00    -0.230 C  
HETATM    9  O   UNL     1      -7.956  16.871  69.177  1.00  0.00    -0.213 OA 
BRANCH   8  10
HETATM   10  O   UNL     1      -9.850  15.592  69.176  1.00  0.00    -0.213 OA 
BRANCH  10  11
HETATM   11  C   UNL     1     -11.182  15.570  68.623  1.00  0.00    -0.325 C  
BRANCH  11  12
HETATM   12  C   UNL     1     -11.277  14.545  67.492  1.00  0.00    -0.321 C  
BRANCH  12  13
HETATM   13  O   UNL     1     -12.154  13.498  67.917  1.00  0.00    -0.346 OA 
BRANCH  13  14
HETATM   14  C   UNL     1     -11.904  13.105  69.267  1.00  0.00    -0.323 C  
BRANCH  14  15
HETATM   15  N   UNL     1     -11.381  11.751  69.288  1.00  0.00    -0.269 NA 
HETATM   16  C   UNL     1     -10.342  11.294  68.508  1.00  0.00    -0.203 A  
HETATM   17  N   UNL     1     -10.050  10.031  68.758  1.00  0.00    -0.176 NA 
HETATM   18  C   UNL     1     -10.933   9.649  69.747  1.00  0.00    -0.240 A  
HETATM   19  C   UNL     1     -11.755  10.697  70.057  1.00  0.00    -0.324 A  
HETATM   20  N   UNL     1     -12.712  10.612  70.989  1.00  0.00    -0.384 NA 
HETATM   21  C   UNL     1     -12.801   9.430  71.673  1.00  0.00    -0.378 C  
HETATM   22  N   UNL     1     -13.744   9.445  72.649  1.00  0.00    -0.725 NA 
HETATM   23  N   UNL     1     -12.077   8.369  71.466  1.00  0.00    -0.291 N  
HETATM   24  H2  UNL     1     -14.328  10.256  72.853  1.00  0.00     0.000 HD 
HETATM   25  H1  UNL     1     -13.810   8.564  73.160  1.00  0.00     0.000 HD 
HETATM   26  C   UNL     1     -11.089   8.377  70.469  1.00  0.00    -0.252 C  
HETATM   27  H   UNL     1     -12.227   7.532  72.029  1.00  0.00     0.000 HD 
HETATM   28  O   UNL     1     -10.404   7.391  70.218  1.00  0.00    -0.205 OA 
ENDBRANCH  14  15
ENDBRANCH  13  14
ENDBRANCH  12  13
ENDBRANCH  11  12
ENDBRANCH  10  11
ENDBRANCH   8  10
ENDBRANCH   3   8
TORSDOF 7
ENDMDL
MODEL      167
REMARK 921   NORMALIZED FREE ENERGY PREDICTED BY IDOCK:   -4.82 KCAL/MOL
REMARK 922        TOTAL FREE ENERGY PREDICTED BY IDOCK:   -7.34 KCAL/MOL
REMARK 923 INTER-LIGAND FREE ENERGY PREDICTED BY IDOCK:   -6.74 KCAL/MOL
REMARK 924 INTRA-LIGAND FREE ENERGY PREDICTED BY IDOCK:   -0.60 KCAL/MOL
REMARK 927      BINDING AFFINITY PREDICTED BY RF-SCORE:    0.00 PKD
ROOT
HETATM    1  C   UNL     1     -10.624  10.765  65.555  1.00  0.00    -0.205 C  
HETATM    2  C   UNL     1     -10.022  10.115  66.806  1.00  0.00    -0.266 C  
HETATM    3  C   UNL     1     -10.426  10.835  68.117  1.00  0.00    -0.185 C  
HETATM    4  C   UNL     1     -10.391   8.626  66.841  1.00  0.00    -0.355 C  
HETATM    5  H1  UNL     1     -12.156  11.263  69.192  1.00  0.00     0.000 HD 
HETATM    6  N   UNL     1     -11.890  10.790  68.329  1.00  0.00    -0.765 NA 
HETATM    7  H2  UNL     1     -12.241   9.832  68.305  1.00  0.00     0.000 HD 
ENDROOT
BRANCH   3   8
HETATM    8  C   UNL     1      -9.941  12.303  68.164  1.00  0.00    -0.210 C  
HETATM    9  O   UNL     1      -8.778  12.664  68.026  1.00  0.00    -0.175 OA 
BRANCH   8  10
HETATM   10  O   UNL     1     -10.990  13.161  68.315  1.00  0.00    -0.234 OA 
BRANCH  10  11
HETATM   11  C   UNL     1     -10.767  14.226  69.262  1.00  0.00    -0.172 C  
BRANCH  11  12
HETATM   12  C   UNL     1     -11.954  15.191  69.273  1.00  0.00    -0.292 C  
BRANCH  12  13
HETATM   13  O   UNL     1     -11.553  16.393  68.611  1.00  0.00    -0.311 OA 
BRANCH  13  14
HETATM   14  C   UNL     1     -10.251  16.818  69.015  1.00  0.00    -0.310 C  
BRANCH  14  15
HETATM   15  N   UNL     1      -9.429  17.043  67.840  1.00  0.00    -0.241 NA 
HETATM   16  C   UNL     1      -9.630  16.451  66.612  1.00  0.00    -0.256 A  
HETATM   17  N   UNL     1      -8.755  16.863  65.712  1.00  0.00    -0.476 NA 
HETATM   18  C   UNL     1      -7.952  17.764  66.381  1.00  0.00    -0.271 A  
HETATM   19  C   UNL     1      -8.357  17.859  67.684  1.00  0.00    -0.234 A  
HETATM   20  N   UNL     1      -7.756  18.664  68.568  1.00  0.00    -0.308 NA 
HETATM   21  C   UNL     1      -6.738  19.447  68.095  1.00  0.00    -0.259 C  
HETATM   22  N   UNL     1      -6.229  20.289  69.031  1.00  0.00    -0.326 NA 
HETATM   23  N   UNL     1      -6.269  19.443  66.883  1.00  0.00    -0.181 N  
HETATM   24  H2  UNL     1      -6.571  20.333  69.991  1.00  0.00     0.000 HD 
HETATM   25  H1  UNL     1      -5.470  20.872  68.679  1.00  0.00     0.000 HD 
HETATM   26  C   UNL     1      -6.821  18.584  65.919  1.00  0.00    -0.283 C  
HETATM   27  H   UNL     1      -5.499  20.063  66.632  1.00  0.00     0.000 HD 
HETATM   28  O   UNL     1      -6.392  18.524  64.772  1.00  0.00    -0.431 OA 
ENDBRANCH  14  15
ENDBRANCH  13  14
ENDBRANCH  12  13
ENDBRANCH  11  12
ENDBRANCH  10  11
ENDBRANCH   8  10
ENDBRANCH   3   8
TORSDOF 7
ENDMDL
MODEL      168
REMARK 921   NORMALIZED FREE ENERGY PREDICTED BY IDOCK:   -4.82 KCAL/MOL
REMARK 922        TOTAL FREE ENERGY PREDICTED BY IDOCK:   -7.33 KCAL/MOL
REMARK 923 INTER-LIGAND FREE ENERGY PREDICTED BY IDOCK:   -6.89 KCAL/MOL
REMARK 924 INTRA-LIGAND FREE ENERGY PREDICTED BY IDOCK:   -0.44 KCAL/MOL
REMARK 927      BINDING AFFINITY PREDICTED BY RF-SCORE:    0.00 PKD
ROOT
HETATM    1  C   UNL     1     -10.944   6.176  72.889  1.00  0.00    -0.294 C  
HETATM    2  C   UNL     1     -10.365   5.957  71.487  1.00  0.00    -0.273 C  
HETATM    3  C   UNL     1      -9.466   7.127  71.014  1.00  0.00    -0.159 C  
HETATM    4  C   UNL     1      -9.620   4.616  71.441  1.00  0.00    -0.230 C  
HETATM    5  H1  UNL     1      -7.695   8.062  71.581  1.00  0.00     0.000 HD 
HETATM    6  N   UNL     1      -8.287   7.292  71.893  1.00  0.00    -0.107 NA 
HETATM    7  H2  UNL     1      -7.757   6.424  71.975  1.00  0.00     0.000 HD 
ENDROOT
BRANCH   3   8
HETATM    8  C   UNL     1     -10.232   8.466  70.917  1.00  0.00    -0.194 C  
HETATM    9  O   UNL     1     -10.316   9.296  71.816  1.00  0.00    -0.328 OA 
BRANCH   8  10
HETATM   10  O   UNL     1     -10.755   8.643  69.669  1.00  0.00    -0.229 OA 
BRANCH  10  11
HETATM   11  C   UNL     1     -10.693   9.996  69.175  1.00  0.00    -0.220 C  
BRANCH  11  12
HETATM   12  C   UNL     1      -9.462  10.186  68.287  1.00  0.00    -0.140 C  
BRANCH  12  13
HETATM   13  O   UNL     1      -9.884  10.827  67.080  1.00  0.00    -0.179 OA 
BRANCH  13  14
HETATM   14  C   UNL     1     -11.178  11.416  67.209  1.00  0.00    -0.304 C  
BRANCH  14  15
HETATM   15  N   UNL     1     -11.321  12.490  66.244  1.00  0.00    -0.319 NA 
HETATM   16  C   UNL     1     -11.947  12.375  65.022  1.00  0.00    -0.402 A  
HETATM   17  N   UNL     1     -11.964  13.519  64.362  1.00  0.00    -0.403 NA 
HETATM   18  C   UNL     1     -11.325  14.419  65.191  1.00  0.00    -0.359 A  
HETATM   19  C   UNL     1     -10.919  13.783  66.332  1.00  0.00    -0.298 A  
HETATM   20  N   UNL     1     -10.272  14.415  67.317  1.00  0.00    -0.251 NA 
HETATM   21  C   UNL     1     -10.078  15.761  67.162  1.00  0.00    -0.251 C  
HETATM   22  N   UNL     1      -9.482  16.345  68.233  1.00  0.00    -0.213 NA 
HETATM   23  N   UNL     1     -10.418  16.469  66.126  1.00  0.00    -0.315 N  
HETATM   24  H2  UNL     1      -9.206  15.831  69.071  1.00  0.00     0.000 HD 
HETATM   25  H1  UNL     1      -9.337  17.347  68.118  1.00  0.00     0.000 HD 
HETATM   26  C   UNL     1     -11.055  15.857  65.035  1.00  0.00    -0.360 C  
HETATM   27  H   UNL     1     -10.221  17.470  66.105  1.00  0.00     0.000 HD 
HETATM   28  O   UNL     1     -11.367  16.478  64.025  1.00  0.00    -1.064 OA 
ENDBRANCH  14  15
ENDBRANCH  13  14
ENDBRANCH  12  13
ENDBRANCH  11  12
ENDBRANCH  10  11
ENDBRANCH   8  10
ENDBRANCH   3   8
TORSDOF 7
ENDMDL
MODEL      169
REMARK 921   NORMALIZED FREE ENERGY PREDICTED BY IDOCK:   -4.80 KCAL/MOL
REMARK 922        TOTAL FREE ENERGY PREDICTED BY IDOCK:   -7.31 KCAL/MOL
REMARK 923 INTER-LIGAND FREE ENERGY PREDICTED BY IDOCK:   -7.24 KCAL/MOL
REMARK 924 INTRA-LIGAND FREE ENERGY PREDICTED BY IDOCK:   -0.07 KCAL/MOL
REMARK 927      BINDING AFFINITY PREDICTED BY RF-SCORE:    0.00 PKD
ROOT
HETATM    1  C   UNL     1      -7.923   9.616  64.767  1.00  0.00    -0.129 C  
HETATM    2  C   UNL     1      -8.869   9.379  63.585  1.00  0.00    -0.198 C  
HETATM    3  C   UNL     1      -9.372  10.694  62.938  1.00  0.00    -0.331 C  
HETATM    4  C   UNL     1      -8.188   8.467  62.555  1.00  0.00    -0.189 C  
HETATM    5  H1  UNL     1      -8.585  12.350  61.954  1.00  0.00     0.000 HD 
HETATM    6  N   UNL     1      -8.253  11.485  62.380  1.00  0.00    -0.635 NA 
HETATM    7  H2  UNL     1      -7.698  10.935  61.723  1.00  0.00     0.000 HD 
ENDROOT
BRANCH   3   8
HETATM    8  C   UNL     1     -10.184  11.568  63.922  1.00  0.00    -0.362 C  
HETATM    9  O   UNL     1     -10.257  12.791  63.882  1.00  0.00    -0.402 OA 
BRANCH   8  10
HETATM   10  O   UNL     1     -10.872  10.795  64.811  1.00  0.00    -0.204 OA 
BRANCH  10  11
HETATM   11  C   UNL     1     -10.670  11.143  66.196  1.00  0.00    -0.225 C  
BRANCH  11  12
HETATM   12  C   UNL     1     -11.593  12.294  66.600  1.00  0.00    -0.375 C  
BRANCH  12  13
HETATM   13  O   UNL     1     -11.158  12.785  67.871  1.00  0.00    -0.225 OA 
BRANCH  13  14
HETATM   14  C   UNL     1     -12.112  13.670  68.458  1.00  0.00    -0.286 C  
BRANCH  14  15
HETATM   15  N   UNL     1     -11.571  15.017  68.484  1.00  0.00    -0.316 NA 
HETATM   16  C   UNL     1     -11.186  15.691  69.622  1.00  0.00    -0.310 A  
HETATM   17  N   UNL     1     -10.695  16.887  69.351  1.00  0.00    -0.319 NA 
HETATM   18  C   UNL     1     -10.760  16.995  67.976  1.00  0.00    -0.365 A  
HETATM   19  C   UNL     1     -11.310  15.859  67.452  1.00  0.00    -0.048 A  
HETATM   20  N   UNL     1     -11.493  15.686  66.138  1.00  0.00     0.068 NA 
HETATM   21  C   UNL     1     -11.047  16.687  65.318  1.00  0.00    -0.033 C  
HETATM   22  N   UNL     1     -11.201  16.409  63.998  1.00  0.00    -1.427 NA 
HETATM   23  N   UNL     1     -10.511  17.809  65.701  1.00  0.00    -0.246 N  
HETATM   24  H2  UNL     1     -11.608  15.540  63.652  1.00  0.00     0.000 HD 
HETATM   25  H1  UNL     1     -10.869  17.154  63.387  1.00  0.00     0.000 HD 
HETATM   26  C   UNL     1     -10.337  18.073  67.068  1.00  0.00    -0.369 C  
HETATM   27  H   UNL     1     -10.217  18.496  65.007  1.00  0.00     0.000 HD 
HETATM   28  O   UNL     1      -9.864  19.128  67.476  1.00  0.00    -0.308 OA 
ENDBRANCH  14  15
ENDBRANCH  13  14
ENDBRANCH  12  13
ENDBRANCH  11  12
ENDBRANCH  10  11
ENDBRANCH   8  10
ENDBRANCH   3   8
TORSDOF 7
ENDMDL
MODEL      170
REMARK 921   NORMALIZED FREE ENERGY PREDICTED BY IDOCK:   -4.79 KCAL/MOL
REMARK 922        TOTAL FREE ENERGY PREDICTED BY IDOCK:   -7.29 KCAL/MOL
REMARK 923 INTER-LIGAND FREE ENERGY PREDICTED BY IDOCK:   -6.73 KCAL/MOL
REMARK 924 INTRA-LIGAND FREE ENERGY PREDICTED BY IDOCK:   -0.55 KCAL/MOL
REMARK 927      BINDING AFFINITY PREDICTED BY RF-SCORE:    0.00 PKD
ROOT
HETATM    1  C   UNL     1      -8.427   9.617  68.518  1.00  0.00    -0.118 C  
HETATM    2  C   UNL     1      -9.682   8.737  68.500  1.00  0.00    -0.173 C  
HETATM    3  C   UNL     1     -10.558   8.959  67.242  1.00  0.00    -0.234 C  
HETATM    4  C   UNL     1      -9.281   7.264  68.658  1.00  0.00    -0.136 C  
HETATM    5  H1  UNL     1     -10.403   8.752  65.177  1.00  0.00     0.000 HD 
HETATM    6  N   UNL     1      -9.827   8.607  66.004  1.00  0.00    -0.459 NA 
HETATM    7  H2  UNL     1      -9.463   7.654  66.044  1.00  0.00     0.000 HD 
ENDROOT
BRANCH   3   8
HETATM    8  C   UNL     1     -11.091  10.407  67.134  1.00  0.00    -0.122 C  
HETATM    9  O   UNL     1     -11.898  10.918  67.902  1.00  0.00    -0.590 OA 
BRANCH   8  10
HETATM   10  O   UNL     1     -10.494  11.073  66.104  1.00  0.00    -0.246 OA 
BRANCH  10  11
HETATM   11  C   UNL     1     -11.242  12.198  65.600  1.00  0.00    -0.335 C  
BRANCH  11  12
HETATM   12  C   UNL     1     -10.468  13.499  65.821  1.00  0.00    -0.291 C  
BRANCH  12  13
HETATM   13  O   UNL     1     -10.793  13.992  67.123  1.00  0.00    -0.281 OA 
BRANCH  13  14
HETATM   14  C   UNL     1     -11.123  15.381  67.103  1.00  0.00    -0.291 C  
BRANCH  14  15
HETATM   15  N   UNL     1     -10.067  16.139  67.748  1.00  0.00    -0.245 NA 
HETATM   16  C   UNL     1      -9.218  15.645  68.714  1.00  0.00    -0.211 A  
HETATM   17  N   UNL     1      -8.329  16.541  69.101  1.00  0.00    -0.207 NA 
HETATM   18  C   UNL     1      -8.606  17.666  68.351  1.00  0.00    -0.284 A  
HETATM   19  C   UNL     1      -9.678  17.422  67.538  1.00  0.00    -0.266 A  
HETATM   20  N   UNL     1     -10.169  18.340  66.697  1.00  0.00    -0.365 NA 
HETATM   21  C   UNL     1      -9.508  19.537  66.639  1.00  0.00    -0.360 C  
HETATM   22  N   UNL     1     -10.019  20.387  65.712  1.00  0.00    -0.571 NA 
HETATM   23  N   UNL     1      -8.482  19.881  67.361  1.00  0.00    -0.316 N  
HETATM   24  H2  UNL     1     -10.816  20.158  65.118  1.00  0.00     0.000 HD 
HETATM   25  H1  UNL     1      -9.526  21.279  65.668  1.00  0.00     0.000 HD 
HETATM   26  C   UNL     1      -7.950  18.982  68.298  1.00  0.00    -0.315 C  
HETATM   27  H   UNL     1      -8.065  20.805  67.245  1.00  0.00     0.000 HD 
HETATM   28  O   UNL     1      -7.004  19.274  69.021  1.00  0.00    -0.320 OA 
ENDBRANCH  14  15
ENDBRANCH  13  14
ENDBRANCH  12  13
ENDBRANCH  11  12
ENDBRANCH  10  11
ENDBRANCH   8  10
ENDBRANCH   3   8
TORSDOF 7
ENDMDL
MODEL      171
REMARK 921   NORMALIZED FREE ENERGY PREDICTED BY IDOCK:   -4.78 KCAL/MOL
REMARK 922        TOTAL FREE ENERGY PREDICTED BY IDOCK:   -7.28 KCAL/MOL
REMARK 923 INTER-LIGAND FREE ENERGY PREDICTED BY IDOCK:   -6.80 KCAL/MOL
REMARK 924 INTRA-LIGAND FREE ENERGY PREDICTED BY IDOCK:   -0.49 KCAL/MOL
REMARK 927      BINDING AFFINITY PREDICTED BY RF-SCORE:    0.00 PKD
ROOT
HETATM    1  C   UNL     1     -10.755  15.318  66.617  1.00  0.00    -0.309 C  
HETATM    2  C   UNL     1     -11.112  14.904  65.185  1.00  0.00    -0.399 C  
HETATM    3  C   UNL     1     -12.089  13.703  65.128  1.00  0.00    -0.403 C  
HETATM    4  C   UNL     1     -11.660  16.116  64.420  1.00  0.00    -0.146 C  
HETATM    5  H1  UNL     1     -14.026  13.238  65.728  1.00  0.00     0.000 HD 
HETATM    6  N   UNL     1     -13.384  14.028  65.766  1.00  0.00    -0.618 NA 
HETATM    7  H2  UNL     1     -13.799  14.868  65.361  1.00  0.00     0.000 HD 
ENDROOT
BRANCH   3   8
HETATM    8  C   UNL     1     -11.501  12.426  65.772  1.00  0.00    -0.370 C  
HETATM    9  O   UNL     1     -10.569  11.772  65.315  1.00  0.00    -0.260 OA 
BRANCH   8  10
HETATM   10  O   UNL     1     -12.111  12.150  66.960  1.00  0.00    -0.591 OA 
BRANCH  10  11
HETATM   11  C   UNL     1     -11.253  12.245  68.115  1.00  0.00    -0.269 C  
BRANCH  11  12
HETATM   12  C   UNL     1     -12.075  12.158  69.402  1.00  0.00    -0.190 C  
BRANCH  12  13
HETATM   13  O   UNL     1     -12.223  10.776  69.740  1.00  0.00    -0.323 OA 
BRANCH  13  14
HETATM   14  C   UNL     1     -11.072  10.263  70.413  1.00  0.00    -0.319 C  
BRANCH  14  15
HETATM   15  N   UNL     1     -10.804   8.913  69.953  1.00  0.00    -0.228 NA 
HETATM   16  C   UNL     1     -10.494   8.568  68.656  1.00  0.00    -0.169 A  
HETATM   17  N   UNL     1     -10.263   7.275  68.526  1.00  0.00    -0.176 NA 
HETATM   18  C   UNL     1     -10.425   6.754  69.794  1.00  0.00    -0.210 A  
HETATM   19  C   UNL     1     -10.772   7.755  70.659  1.00  0.00    -0.231 A  
HETATM   20  N   UNL     1     -10.992   7.538  71.961  1.00  0.00    -0.234 NA 
HETATM   21  C   UNL     1     -10.798   6.261  72.413  1.00  0.00    -0.243 C  
HETATM   22  N   UNL     1     -10.968   6.135  73.754  1.00  0.00    -0.408 NA 
HETATM   23  N   UNL     1     -10.470   5.233  71.687  1.00  0.00    -0.222 N  
HETATM   24  H2  UNL     1     -11.217   6.914  74.364  1.00  0.00     0.000 HD 
HETATM   25  H1  UNL     1     -10.823   5.183  74.092  1.00  0.00     0.000 HD 
HETATM   26  C   UNL     1     -10.273   5.383  70.305  1.00  0.00    -0.267 C  
HETATM   27  H   UNL     1     -10.356   4.317  72.122  1.00  0.00     0.000 HD 
HETATM   28  O   UNL     1      -9.993   4.438  69.577  1.00  0.00    -0.211 OA 
ENDBRANCH  14  15
ENDBRANCH  13  14
ENDBRANCH  12  13
ENDBRANCH  11  12
ENDBRANCH  10  11
ENDBRANCH   8  10
ENDBRANCH   3   8
TORSDOF 7
ENDMDL
MODEL      172
REMARK 921   NORMALIZED FREE ENERGY PREDICTED BY IDOCK:   -4.78 KCAL/MOL
REMARK 922        TOTAL FREE ENERGY PREDICTED BY IDOCK:   -7.28 KCAL/MOL
REMARK 923 INTER-LIGAND FREE ENERGY PREDICTED BY IDOCK:   -6.93 KCAL/MOL
REMARK 924 INTRA-LIGAND FREE ENERGY PREDICTED BY IDOCK:   -0.35 KCAL/MOL
REMARK 927      BINDING AFFINITY PREDICTED BY RF-SCORE:    0.00 PKD
ROOT
HETATM    1  C   UNL     1     -12.217  14.077  66.670  1.00  0.00    -0.463 C  
HETATM    2  C   UNL     1     -11.059  14.023  65.668  1.00  0.00    -0.302 C  
HETATM    3  C   UNL     1     -11.531  13.817  64.207  1.00  0.00    -0.340 C  
HETATM    4  C   UNL     1     -10.196  15.284  65.811  1.00  0.00    -0.372 C  
HETATM    5  H1  UNL     1     -12.691  14.803  62.788  1.00  0.00     0.000 HD 
HETATM    6  N   UNL     1     -12.381  14.939  63.750  1.00  0.00    -1.071 NA 
HETATM    7  H2  UNL     1     -11.909  15.836  63.867  1.00  0.00     0.000 HD 
ENDROOT
BRANCH   3   8
HETATM    8  C   UNL     1     -12.285  12.481  64.008  1.00  0.00    -0.480 C  
HETATM    9  O   UNL     1     -13.405  12.234  64.440  1.00  0.00    -0.786 OA 
BRANCH   8  10
HETATM   10  O   UNL     1     -11.566  11.625  63.225  1.00  0.00    -0.338 OA 
BRANCH  10  11
HETATM   11  C   UNL     1     -10.138  11.815  63.278  1.00  0.00    -0.420 C  
BRANCH  11  12
HETATM   12  C   UNL     1      -9.413  10.476  63.128  1.00  0.00    -0.336 C  
BRANCH  12  13
HETATM   13  O   UNL     1      -8.769  10.180  64.370  1.00  0.00    -0.173 OA 
BRANCH  13  14
HETATM   14  C   UNL     1      -9.698   9.755  65.367  1.00  0.00    -0.313 C  
BRANCH  14  15
HETATM   15  N   UNL     1      -8.975   9.315  66.547  1.00  0.00    -0.144 NA 
HETATM   16  C   UNL     1      -8.644   8.008  66.827  1.00  0.00    -0.130 A  
HETATM   17  N   UNL     1      -7.955   7.898  67.948  1.00  0.00    -0.126 NA 
HETATM   18  C   UNL     1      -7.827   9.190  68.416  1.00  0.00    -0.102 A  
HETATM   19  C   UNL     1      -8.466  10.051  67.567  1.00  0.00    -0.118 A  
HETATM   20  N   UNL     1      -8.503  11.372  67.773  1.00  0.00    -0.124 NA 
HETATM   21  C   UNL     1      -7.816  11.845  68.858  1.00  0.00     0.015 C  
HETATM   22  N   UNL     1      -7.839  13.199  68.960  1.00  0.00    -0.327 NA 
HETATM   23  N   UNL     1      -7.176  11.126  69.732  1.00  0.00    -0.354 N  
HETATM   24  H2  UNL     1      -8.321  13.803  68.294  1.00  0.00     0.000 HD 
HETATM   25  H1  UNL     1      -7.328  13.551  69.769  1.00  0.00     0.000 HD 
HETATM   26  C   UNL     1      -7.141   9.728  69.601  1.00  0.00    -0.083 C  
HETATM   27  H   UNL     1      -6.700  11.577  70.514  1.00  0.00     0.000 HD 
HETATM   28  O   UNL     1      -6.576   9.008  70.416  1.00  0.00    -0.040 OA 
ENDBRANCH  14  15
ENDBRANCH  13  14
ENDBRANCH  12  13
ENDBRANCH  11  12
ENDBRANCH  10  11
ENDBRANCH   8  10
ENDBRANCH   3   8
TORSDOF 7
ENDMDL
MODEL      173
REMARK 921   NORMALIZED FREE ENERGY PREDICTED BY IDOCK:   -4.78 KCAL/MOL
REMARK 922        TOTAL FREE ENERGY PREDICTED BY IDOCK:   -7.27 KCAL/MOL
REMARK 923 INTER-LIGAND FREE ENERGY PREDICTED BY IDOCK:   -6.95 KCAL/MOL
REMARK 924 INTRA-LIGAND FREE ENERGY PREDICTED BY IDOCK:   -0.32 KCAL/MOL
REMARK 927      BINDING AFFINITY PREDICTED BY RF-SCORE:    0.00 PKD
ROOT
HETATM    1  C   UNL     1     -10.803   4.084  72.998  1.00  0.00    -0.234 C  
HETATM    2  C   UNL     1      -9.590   4.990  72.759  1.00  0.00    -0.164 C  
HETATM    3  C   UNL     1      -9.982   6.458  72.452  1.00  0.00    -0.171 C  
HETATM    4  C   UNL     1      -8.634   4.899  73.956  1.00  0.00    -0.105 C  
HETATM    5  H1  UNL     1     -10.960   8.039  73.386  1.00  0.00     0.000 HD 
HETATM    6  N   UNL     1     -10.702   7.074  73.588  1.00  0.00    -0.515 NA 
HETATM    7  H2  UNL     1     -10.165   7.004  74.453  1.00  0.00     0.000 HD 
ENDROOT
BRANCH   3   8
HETATM    8  C   UNL     1     -10.832   6.591  71.166  1.00  0.00    -0.249 C  
HETATM    9  O   UNL     1     -12.052   6.486  71.115  1.00  0.00    -0.350 OA 
BRANCH   8  10
HETATM   10  O   UNL     1     -10.051   6.909  70.094  1.00  0.00    -0.181 OA 
BRANCH  10  11
HETATM   11  C   UNL     1     -10.371   8.168  69.468  1.00  0.00    -0.222 C  
BRANCH  11  12
HETATM   12  C   UNL     1     -10.752   7.957  68.002  1.00  0.00    -0.054 C  
BRANCH  12  13
HETATM   13  O   UNL     1      -9.712   8.511  67.191  1.00  0.00    -0.163 OA 
BRANCH  13  14
HETATM   14  C   UNL     1      -9.332   9.817  67.625  1.00  0.00    -0.140 C  
BRANCH  14  15
HETATM   15  N   UNL     1     -10.318  10.783  67.176  1.00  0.00    -0.213 NA 
HETATM   16  C   UNL     1     -11.253  11.389  67.986  1.00  0.00    -0.281 A  
HETATM   17  N   UNL     1     -12.001  12.252  67.322  1.00  0.00    -0.559 NA 
HETATM   18  C   UNL     1     -11.531  12.209  66.025  1.00  0.00    -0.370 A  
HETATM   19  C   UNL     1     -10.514  11.299  65.937  1.00  0.00    -0.259 A  
HETATM   20  N   UNL     1      -9.868  11.049  64.792  1.00  0.00    -0.254 NA 
HETATM   21  C   UNL     1     -10.232  11.796  63.704  1.00  0.00    -0.428 C  
HETATM   22  N   UNL     1      -9.483  11.539  62.602  1.00  0.00    -0.491 NA 
HETATM   23  N   UNL     1     -11.179  12.686  63.669  1.00  0.00    -0.458 N  
HETATM   24  H2  UNL     1      -8.725  10.857  62.585  1.00  0.00     0.000 HD 
HETATM   25  H1  UNL     1      -9.754  12.095  61.791  1.00  0.00     0.000 HD 
HETATM   26  C   UNL     1     -11.930  12.959  64.824  1.00  0.00    -0.396 C  
HETATM   27  H   UNL     1     -11.378  13.186  62.802  1.00  0.00     0.000 HD 
HETATM   28  O   UNL     1     -12.852  13.767  64.830  1.00  0.00    -0.690 OA 
ENDBRANCH  14  15
ENDBRANCH  13  14
ENDBRANCH  12  13
ENDBRANCH  11  12
ENDBRANCH  10  11
ENDBRANCH   8  10
ENDBRANCH   3   8
TORSDOF 7
ENDMDL
MODEL      174
REMARK 921   NORMALIZED FREE ENERGY PREDICTED BY IDOCK:   -4.77 KCAL/MOL
REMARK 922        TOTAL FREE ENERGY PREDICTED BY IDOCK:   -7.26 KCAL/MOL
REMARK 923 INTER-LIGAND FREE ENERGY PREDICTED BY IDOCK:   -6.64 KCAL/MOL
REMARK 924 INTRA-LIGAND FREE ENERGY PREDICTED BY IDOCK:   -0.62 KCAL/MOL
REMARK 927      BINDING AFFINITY PREDICTED BY RF-SCORE:    0.00 PKD
ROOT
HETATM    1  C   UNL     1     -10.866   6.622  66.857  1.00  0.00    -0.415 C  
HETATM    2  C   UNL     1      -9.448   7.065  66.479  1.00  0.00    -0.199 C  
HETATM    3  C   UNL     1      -8.931   8.241  67.344  1.00  0.00    -0.134 C  
HETATM    4  C   UNL     1      -8.499   5.860  66.536  1.00  0.00    -0.113 C  
HETATM    5  H1  UNL     1      -8.504   8.640  69.341  1.00  0.00     0.000 HD 
HETATM    6  N   UNL     1      -8.845   7.865  68.773  1.00  0.00    -0.138 NA 
HETATM    7  H2  UNL     1      -8.279   7.027  68.905  1.00  0.00     0.000 HD 
ENDROOT
BRANCH   3   8
HETATM    8  C   UNL     1      -9.794   9.516  67.194  1.00  0.00    -0.185 C  
HETATM    9  O   UNL     1     -10.560   9.741  66.264  1.00  0.00    -0.133 OA 
BRANCH   8  10
HETATM   10  O   UNL     1      -9.644  10.338  68.272  1.00  0.00    -0.139 OA 
BRANCH  10  11
HETATM   11  C   UNL     1      -8.495  11.208  68.213  1.00  0.00    -0.145 C  
BRANCH  11  12
HETATM   12  C   UNL     1      -8.930  12.674  68.253  1.00  0.00    -0.176 C  
BRANCH  12  13
HETATM   13  O   UNL     1      -8.610  13.264  66.990  1.00  0.00    -0.208 OA 
BRANCH  13  14
HETATM   14  C   UNL     1      -9.500  14.329  66.656  1.00  0.00    -0.286 C  
BRANCH  14  15
HETATM   15  N   UNL     1     -10.680  13.789  66.004  1.00  0.00    -0.281 NA 
HETATM   16  C   UNL     1     -11.979  14.107  66.335  1.00  0.00    -0.436 A  
HETATM   17  N   UNL     1     -12.854  13.498  65.555  1.00  0.00    -0.591 NA 
HETATM   18  C   UNL     1     -12.092  12.755  64.676  1.00  0.00    -0.423 A  
HETATM   19  C   UNL     1     -10.766  12.923  64.964  1.00  0.00    -0.305 A  
HETATM   20  N   UNL     1      -9.795  12.320  64.268  1.00  0.00    -0.182 NA 
HETATM   21  C   UNL     1     -10.186  11.558  63.200  1.00  0.00    -0.345 C  
HETATM   22  N   UNL     1      -9.145  11.039  62.501  1.00  0.00    -0.391 NA 
HETATM   23  N   UNL     1     -11.412  11.327  62.833  1.00  0.00    -0.692 N  
HETATM   24  H2  UNL     1      -8.168  11.201  62.746  1.00  0.00     0.000 HD 
HETATM   25  H1  UNL     1      -9.436  10.472  61.705  1.00  0.00     0.000 HD 
HETATM   26  C   UNL     1     -12.479  11.889  63.551  1.00  0.00    -0.492 C  
HETATM   27  H   UNL     1     -11.598  10.736  62.022  1.00  0.00     0.000 HD 
HETATM   28  O   UNL     1     -13.650  11.674  63.260  1.00  0.00    -0.232 OA 
ENDBRANCH  14  15
ENDBRANCH  13  14
ENDBRANCH  12  13
ENDBRANCH  11  12
ENDBRANCH  10  11
ENDBRANCH   8  10
ENDBRANCH   3   8
TORSDOF 7
ENDMDL
MODEL      175
REMARK 921   NORMALIZED FREE ENERGY PREDICTED BY IDOCK:   -4.77 KCAL/MOL
REMARK 922        TOTAL FREE ENERGY PREDICTED BY IDOCK:   -7.26 KCAL/MOL
REMARK 923 INTER-LIGAND FREE ENERGY PREDICTED BY IDOCK:   -6.53 KCAL/MOL
REMARK 924 INTRA-LIGAND FREE ENERGY PREDICTED BY IDOCK:   -0.73 KCAL/MOL
REMARK 927      BINDING AFFINITY PREDICTED BY RF-SCORE:    0.00 PKD
ROOT
HETATM    1  C   UNL     1      -7.842   8.383  68.505  1.00  0.00    -0.120 C  
HETATM    2  C   UNL     1      -8.923   9.401  68.881  1.00  0.00    -0.136 C  
HETATM    3  C   UNL     1     -10.241   9.206  68.090  1.00  0.00    -0.207 C  
HETATM    4  C   UNL     1      -9.163   9.363  70.396  1.00  0.00    -0.305 C  
HETATM    5  H1  UNL     1     -11.714   7.757  67.846  1.00  0.00     0.000 HD 
HETATM    6  N   UNL     1     -10.847   7.885  68.367  1.00  0.00    -0.424 NA 
HETATM    7  H2  UNL     1     -10.987   7.741  69.367  1.00  0.00     0.000 HD 
ENDROOT
BRANCH   3   8
HETATM    8  C   UNL     1     -10.051   9.380  66.565  1.00  0.00    -0.262 C  
HETATM    9  O   UNL     1      -9.431   8.609  65.840  1.00  0.00    -0.223 OA 
BRANCH   8  10
HETATM   10  O   UNL     1     -10.724  10.476  66.109  1.00  0.00    -0.159 OA 
BRANCH  10  11
HETATM   11  C   UNL     1      -9.890  11.614  65.810  1.00  0.00    -0.239 C  
BRANCH  11  12
HETATM   12  C   UNL     1     -10.708  12.712  65.128  1.00  0.00    -0.292 C  
BRANCH  12  13
HETATM   13  O   UNL     1     -10.115  13.972  65.456  1.00  0.00    -0.322 OA 
BRANCH  13  14
HETATM   14  C   UNL     1      -9.474  13.946  66.731  1.00  0.00    -0.279 C  
BRANCH  14  15
HETATM   15  N   UNL     1     -10.306  14.627  67.706  1.00  0.00    -0.236 NA 
HETATM   16  C   UNL     1     -10.533  15.985  67.738  1.00  0.00    -0.298 A  
HETATM   17  N   UNL     1     -11.359  16.330  68.709  1.00  0.00    -0.350 NA 
HETATM   18  C   UNL     1     -11.687  15.144  69.335  1.00  0.00    -0.332 A  
HETATM   19  C   UNL     1     -11.030  14.109  68.730  1.00  0.00    -0.257 A  
HETATM   20  N   UNL     1     -11.162  12.839  69.131  1.00  0.00    -0.254 NA 
HETATM   21  C   UNL     1     -12.042  12.605  70.152  1.00  0.00    -0.294 C  
HETATM   22  N   UNL     1     -12.178  11.287  70.452  1.00  0.00    -0.351 NA 
HETATM   23  N   UNL     1     -12.720  13.505  70.801  1.00  0.00    -0.281 N  
HETATM   24  H2  UNL     1     -11.673  10.546  69.965  1.00  0.00     0.000 HD 
HETATM   25  H1  UNL     1     -12.833  11.112  71.213  1.00  0.00     0.000 HD 
HETATM   26  C   UNL     1     -12.588  14.861  70.463  1.00  0.00    -0.360 C  
HETATM   27  H   UNL     1     -13.348  13.226  71.555  1.00  0.00     0.000 HD 
HETATM   28  O   UNL     1     -13.184  15.747  71.067  1.00  0.00    -0.547 OA 
ENDBRANCH  14  15
ENDBRANCH  13  14
ENDBRANCH  12  13
ENDBRANCH  11  12
ENDBRANCH  10  11
ENDBRANCH   8  10
ENDBRANCH   3   8
TORSDOF 7
ENDMDL
MODEL      176
REMARK 921   NORMALIZED FREE ENERGY PREDICTED BY IDOCK:   -4.76 KCAL/MOL
REMARK 922        TOTAL FREE ENERGY PREDICTED BY IDOCK:   -7.26 KCAL/MOL
REMARK 923 INTER-LIGAND FREE ENERGY PREDICTED BY IDOCK:   -6.81 KCAL/MOL
REMARK 924 INTRA-LIGAND FREE ENERGY PREDICTED BY IDOCK:   -0.45 KCAL/MOL
REMARK 927      BINDING AFFINITY PREDICTED BY RF-SCORE:    0.00 PKD
ROOT
HETATM    1  C   UNL     1     -10.563  19.789  66.687  1.00  0.00    -0.578 C  
HETATM    2  C   UNL     1     -10.160  18.600  67.567  1.00  0.00    -0.397 C  
HETATM    3  C   UNL     1      -9.615  17.401  66.753  1.00  0.00    -0.277 C  
HETATM    4  C   UNL     1      -9.156  19.064  68.632  1.00  0.00    -0.401 C  
HETATM    5  H1  UNL     1      -8.026  16.973  65.478  1.00  0.00     0.000 HD 
HETATM    6  N   UNL     1      -8.385  17.763  66.014  1.00  0.00    -0.524 NA 
HETATM    7  H2  UNL     1      -7.674  18.145  66.637  1.00  0.00     0.000 HD 
ENDROOT
BRANCH   3   8
HETATM    8  C   UNL     1     -10.660  16.825  65.769  1.00  0.00    -0.250 C  
HETATM    9  O   UNL     1     -10.938  17.306  64.677  1.00  0.00    -1.013 OA 
BRANCH   8  10
HETATM   10  O   UNL     1     -11.192  15.662  66.245  1.00  0.00    -0.197 OA 
BRANCH  10  11
HETATM   11  C   UNL     1     -11.300  14.604  65.271  1.00  0.00    -0.354 C  
BRANCH  11  12
HETATM   12  C   UNL     1     -12.502  13.710  65.581  1.00  0.00    -0.496 C  
BRANCH  12  13
HETATM   13  O   UNL     1     -12.070  12.349  65.508  1.00  0.00    -0.495 OA 
BRANCH  13  14
HETATM   14  C   UNL     1     -10.712  12.240  65.082  1.00  0.00    -0.293 C  
BRANCH  14  15
HETATM   15  N   UNL     1     -10.117  11.048  65.659  1.00  0.00    -0.245 NA 
HETATM   16  C   UNL     1     -10.257   9.773  65.156  1.00  0.00     0.190 A  
HETATM   17  N   UNL     1      -9.580   8.883  65.858  1.00  0.00    -0.249 NA 
HETATM   18  C   UNL     1      -8.968   9.610  66.860  1.00  0.00    -0.134 A  
HETATM   19  C   UNL     1      -9.312  10.928  66.745  1.00  0.00    -0.165 A  
HETATM   20  N   UNL     1      -8.860  11.866  67.585  1.00  0.00    -0.162 NA 
HETATM   21  C   UNL     1      -7.980  11.457  68.549  1.00  0.00    -0.143 C  
HETATM   22  N   UNL     1      -7.510  12.475  69.315  1.00  0.00    -0.321 NA 
HETATM   23  N   UNL     1      -7.582  10.236  68.754  1.00  0.00    -0.087 N  
HETATM   24  H2  UNL     1      -7.787  13.448  69.185  1.00  0.00     0.000 HD 
HETATM   25  H1  UNL     1      -6.854  12.170  70.033  1.00  0.00     0.000 HD 
HETATM   26  C   UNL     1      -8.058   9.196  67.939  1.00  0.00    -0.105 C  
HETATM   27  H   UNL     1      -6.925  10.033  69.508  1.00  0.00     0.000 HD 
HETATM   28  O   UNL     1      -7.734   8.027  68.113  1.00  0.00    -0.112 OA 
ENDBRANCH  14  15
ENDBRANCH  13  14
ENDBRANCH  12  13
ENDBRANCH  11  12
ENDBRANCH  10  11
ENDBRANCH   8  10
ENDBRANCH   3   8
TORSDOF 7
ENDMDL
MODEL      177
REMARK 921   NORMALIZED FREE ENERGY PREDICTED BY IDOCK:   -4.76 KCAL/MOL
REMARK 922        TOTAL FREE ENERGY PREDICTED BY IDOCK:   -7.25 KCAL/MOL
REMARK 923 INTER-LIGAND FREE ENERGY PREDICTED BY IDOCK:   -6.97 KCAL/MOL
REMARK 924 INTRA-LIGAND FREE ENERGY PREDICTED BY IDOCK:   -0.28 KCAL/MOL
REMARK 927      BINDING AFFINITY PREDICTED BY RF-SCORE:    0.00 PKD
ROOT
HETATM    1  C   UNL     1     -12.707  13.905  66.257  1.00  0.00    -0.260 C  
HETATM    2  C   UNL     1     -11.408  13.976  65.447  1.00  0.00    -0.315 C  
HETATM    3  C   UNL     1     -11.597  13.571  63.963  1.00  0.00    -0.353 C  
HETATM    4  C   UNL     1     -10.796  15.377  65.577  1.00  0.00    -0.384 C  
HETATM    5  H1  UNL     1     -12.655  14.216  62.292  1.00  0.00     0.000 HD 
HETATM    6  N   UNL     1     -12.531  14.483  63.268  1.00  0.00    -0.836 NA 
HETATM    7  H2  UNL     1     -12.237  15.456  63.355  1.00  0.00     0.000 HD 
ENDROOT
BRANCH   3   8
HETATM    8  C   UNL     1     -12.081  12.111  63.802  1.00  0.00    -0.525 C  
HETATM    9  O   UNL     1     -13.253  11.754  63.807  1.00  0.00    -0.546 OA 
BRANCH   8  10
HETATM   10  O   UNL     1     -11.031  11.268  63.583  1.00  0.00    -0.385 OA 
BRANCH  10  11
HETATM   11  C   UNL     1      -9.779  11.704  64.150  1.00  0.00    -0.184 C  
BRANCH  11  12
HETATM   12  C   UNL     1      -8.924  10.501  64.552  1.00  0.00    -0.209 C  
BRANCH  12  13
HETATM   13  O   UNL     1      -8.095  10.894  65.649  1.00  0.00    -0.145 OA 
BRANCH  13  14
HETATM   14  C   UNL     1      -8.663  10.532  66.907  1.00  0.00    -0.127 C  
BRANCH  14  15
HETATM   15  N   UNL     1      -9.143  11.723  67.583  1.00  0.00    -0.171 NA 
HETATM   16  C   UNL     1      -8.647  12.994  67.390  1.00  0.00    -0.199 A  
HETATM   17  N   UNL     1      -9.293  13.895  68.108  1.00  0.00    -0.198 NA 
HETATM   18  C   UNL     1     -10.254  13.182  68.795  1.00  0.00    -0.097 A  
HETATM   19  C   UNL     1     -10.149  11.854  68.484  1.00  0.00    -0.206 A  
HETATM   20  N   UNL     1     -10.959  10.926  69.006  1.00  0.00    -0.217 NA 
HETATM   21  C   UNL     1     -11.953  11.372  69.835  1.00  0.00    -0.359 C  
HETATM   22  N   UNL     1     -12.778  10.383  70.265  1.00  0.00    -0.526 NA 
HETATM   23  N   UNL     1     -12.149  12.605  70.200  1.00  0.00    -0.363 N  
HETATM   24  H2  UNL     1     -12.667   9.405  69.998  1.00  0.00     0.000 HD 
HETATM   25  H1  UNL     1     -13.518  10.715  70.882  1.00  0.00     0.000 HD 
HETATM   26  C   UNL     1     -11.303  13.620  69.728  1.00  0.00    -0.112 C  
HETATM   27  H   UNL     1     -12.919  12.833  70.831  1.00  0.00     0.000 HD 
HETATM   28  O   UNL     1     -11.432  14.791  70.069  1.00  0.00    -0.257 OA 
ENDBRANCH  14  15
ENDBRANCH  13  14
ENDBRANCH  12  13
ENDBRANCH  11  12
ENDBRANCH  10  11
ENDBRANCH   8  10
ENDBRANCH   3   8
TORSDOF 7
ENDMDL
MODEL      178
REMARK 921   NORMALIZED FREE ENERGY PREDICTED BY IDOCK:   -4.75 KCAL/MOL
REMARK 922        TOTAL FREE ENERGY PREDICTED BY IDOCK:   -7.23 KCAL/MOL
REMARK 923 INTER-LIGAND FREE ENERGY PREDICTED BY IDOCK:   -7.18 KCAL/MOL
REMARK 924 INTRA-LIGAND FREE ENERGY PREDICTED BY IDOCK:   -0.05 KCAL/MOL
REMARK 927      BINDING AFFINITY PREDICTED BY RF-SCORE:    0.00 PKD
ROOT
HETATM    1  C   UNL     1     -13.324  13.715  72.807  1.00  0.00    -0.465 C  
HETATM    2  C   UNL     1     -12.295  14.777  72.408  1.00  0.00    -0.398 C  
HETATM    3  C   UNL     1     -12.312  15.099  70.893  1.00  0.00    -0.354 C  
HETATM    4  C   UNL     1     -12.502  16.039  73.257  1.00  0.00    -0.645 C  
HETATM    5  H1  UNL     1     -13.628  15.866  69.475  1.00  0.00     0.000 HD 
HETATM    6  N   UNL     1     -13.617  15.655  70.472  1.00  0.00    -0.768 NA 
HETATM    7  H2  UNL     1     -13.873  16.470  71.030  1.00  0.00     0.000 HD 
ENDROOT
BRANCH   3   8
HETATM    8  C   UNL     1     -11.967  13.870  70.020  1.00  0.00    -0.336 C  
HETATM    9  O   UNL     1     -12.320  12.719  70.252  1.00  0.00    -0.287 OA 
BRANCH   8  10
HETATM   10  O   UNL     1     -11.267  14.240  68.908  1.00  0.00    -0.240 OA 
BRANCH  10  11
HETATM   11  C   UNL     1     -11.478  13.400  67.755  1.00  0.00    -0.316 C  
BRANCH  11  12
HETATM   12  C   UNL     1     -10.708  13.942  66.550  1.00  0.00    -0.277 C  
BRANCH  12  13
HETATM   13  O   UNL     1     -10.013  12.849  65.942  1.00  0.00    -0.273 OA 
BRANCH  13  14
HETATM   14  C   UNL     1     -10.585  11.589  66.292  1.00  0.00    -0.263 C  
BRANCH  14  15
HETATM   15  N   UNL     1      -9.740  10.518  65.797  1.00  0.00    -0.209 NA 
HETATM   16  C   UNL     1      -8.631  10.694  64.998  1.00  0.00    -0.160 A  
HETATM   17  N   UNL     1      -8.027   9.552  64.725  1.00  0.00    -0.116 NA 
HETATM   18  C   UNL     1      -8.772   8.590  65.378  1.00  0.00    -0.159 A  
HETATM   19  C   UNL     1      -9.826   9.182  66.017  1.00  0.00    -0.272 A  
HETATM   20  N   UNL     1     -10.717   8.488  66.734  1.00  0.00    -0.161 NA 
HETATM   21  C   UNL     1     -10.496   7.142  66.852  1.00  0.00    -0.294 C  
HETATM   22  N   UNL     1     -11.398   6.519  67.653  1.00  0.00    -0.702 NA 
HETATM   23  N   UNL     1      -9.533   6.472  66.291  1.00  0.00    -0.314 N  
HETATM   24  H2  UNL     1     -12.164   7.004  68.120  1.00  0.00     0.000 HD 
HETATM   25  H1  UNL     1     -11.234   5.516  67.741  1.00  0.00     0.000 HD 
HETATM   26  C   UNL     1      -8.594   7.134  65.485  1.00  0.00    -0.080 C  
HETATM   27  H   UNL     1      -9.461   5.465  66.437  1.00  0.00     0.000 HD 
HETATM   28  O   UNL     1      -7.687   6.539  64.913  1.00  0.00    -0.090 OA 
ENDBRANCH  14  15
ENDBRANCH  13  14
ENDBRANCH  12  13
ENDBRANCH  11  12
ENDBRANCH  10  11
ENDBRANCH   8  10
ENDBRANCH   3   8
TORSDOF 7
ENDMDL
MODEL      179
REMARK 921   NORMALIZED FREE ENERGY PREDICTED BY IDOCK:   -4.75 KCAL/MOL
REMARK 922        TOTAL FREE ENERGY PREDICTED BY IDOCK:   -7.23 KCAL/MOL
REMARK 923 INTER-LIGAND FREE ENERGY PREDICTED BY IDOCK:   -6.41 KCAL/MOL
REMARK 924 INTRA-LIGAND FREE ENERGY PREDICTED BY IDOCK:   -0.82 KCAL/MOL
REMARK 927      BINDING AFFINITY PREDICTED BY RF-SCORE:    0.00 PKD
ROOT
HETATM    1  C   UNL     1      -7.935  11.570  68.210  1.00  0.00    -0.142 C  
HETATM    2  C   UNL     1      -7.612  10.145  67.749  1.00  0.00    -0.090 C  
HETATM    3  C   UNL     1      -7.885   9.920  66.240  1.00  0.00    -0.108 C  
HETATM    4  C   UNL     1      -6.164   9.798  68.119  1.00  0.00    -0.055 C  
HETATM    5  H1  UNL     1      -7.215  10.647  64.409  1.00  0.00     0.000 HD 
HETATM    6  N   UNL     1      -7.036  10.795  65.401  1.00  0.00    -0.354 NA 
HETATM    7  H2  UNL     1      -6.047  10.680  65.623  1.00  0.00     0.000 HD 
ENDROOT
BRANCH   3   8
HETATM    8  C   UNL     1      -9.371  10.127  65.866  1.00  0.00    -0.175 C  
HETATM    9  O   UNL     1     -10.319   9.587  66.425  1.00  0.00    -0.240 OA 
BRANCH   8  10
HETATM   10  O   UNL     1      -9.502  11.049  64.869  1.00  0.00    -0.218 OA 
BRANCH  10  11
HETATM   11  C   UNL     1     -10.815  11.115  64.276  1.00  0.00    -0.284 C  
BRANCH  11  12
HETATM   12  C   UNL     1     -11.135  12.546  63.841  1.00  0.00    -0.423 C  
BRANCH  12  13
HETATM   13  O   UNL     1     -11.897  13.164  64.882  1.00  0.00    -0.328 OA 
BRANCH  13  14
HETATM   14  C   UNL     1     -11.128  14.120  65.613  1.00  0.00    -0.307 C  
BRANCH  14  15
HETATM   15  N   UNL     1     -11.434  14.007  67.028  1.00  0.00    -0.333 NA 
HETATM   16  C   UNL     1     -11.860  12.856  67.654  1.00  0.00    -0.346 A  
HETATM   17  N   UNL     1     -12.029  13.029  68.952  1.00  0.00    -0.296 NA 
HETATM   18  C   UNL     1     -11.696  14.348  69.183  1.00  0.00    -0.317 A  
HETATM   19  C   UNL     1     -11.349  14.946  68.003  1.00  0.00    -0.324 A  
HETATM   20  N   UNL     1     -10.977  16.229  67.928  1.00  0.00    -0.333 NA 
HETATM   21  C   UNL     1     -10.901  16.918  69.108  1.00  0.00    -0.237 C  
HETATM   22  N   UNL     1     -10.447  18.189  68.959  1.00  0.00    -0.410 NA 
HETATM   23  N   UNL     1     -11.205  16.457  70.285  1.00  0.00    -0.460 N  
HETATM   24  H2  UNL     1     -10.189  18.591  68.058  1.00  0.00     0.000 HD 
HETATM   25  H1  UNL     1     -10.390  18.703  69.838  1.00  0.00     0.000 HD 
HETATM   26  C   UNL     1     -11.650  15.133  70.426  1.00  0.00    -0.292 C  
HETATM   27  H   UNL     1     -11.120  17.057  71.106  1.00  0.00     0.000 HD 
HETATM   28  O   UNL     1     -11.976  14.664  71.511  1.00  0.00    -0.343 OA 
ENDBRANCH  14  15
ENDBRANCH  13  14
ENDBRANCH  12  13
ENDBRANCH  11  12
ENDBRANCH  10  11
ENDBRANCH   8  10
ENDBRANCH   3   8
TORSDOF 7
ENDMDL
MODEL      180
REMARK 921   NORMALIZED FREE ENERGY PREDICTED BY IDOCK:   -4.74 KCAL/MOL
REMARK 922        TOTAL FREE ENERGY PREDICTED BY IDOCK:   -7.22 KCAL/MOL
REMARK 923 INTER-LIGAND FREE ENERGY PREDICTED BY IDOCK:   -6.72 KCAL/MOL
REMARK 924 INTRA-LIGAND FREE ENERGY PREDICTED BY IDOCK:   -0.50 KCAL/MOL
REMARK 927      BINDING AFFINITY PREDICTED BY RF-SCORE:    0.00 PKD
ROOT
HETATM    1  C   UNL     1     -10.703  11.077  64.638  1.00  0.00    -0.318 C  
HETATM    2  C   UNL     1      -9.261  10.918  64.144  1.00  0.00    -0.216 C  
HETATM    3  C   UNL     1      -8.473   9.831  64.917  1.00  0.00    -0.157 C  
HETATM    4  C   UNL     1      -9.260  10.651  62.633  1.00  0.00    -0.331 C  
HETATM    5  H1  UNL     1      -8.566   7.779  65.254  1.00  0.00     0.000 HD 
HETATM    6  N   UNL     1      -9.085   8.494  64.746  1.00  0.00    -0.377 NA 
HETATM    7  H2  UNL     1      -9.185   8.253  63.759  1.00  0.00     0.000 HD 
ENDROOT
BRANCH   3   8
HETATM    8  C   UNL     1      -8.339  10.150  66.424  1.00  0.00    -0.125 C  
HETATM    9  O   UNL     1      -8.401   9.323  67.327  1.00  0.00    -0.123 OA 
BRANCH   8  10
HETATM   10  O   UNL     1      -8.073  11.473  66.623  1.00  0.00    -0.159 OA 
BRANCH  10  11
HETATM   11  C   UNL     1      -8.467  11.981  67.914  1.00  0.00    -0.160 C  
BRANCH  11  12
HETATM   12  C   UNL     1      -9.963  12.295  67.932  1.00  0.00    -0.202 C  
BRANCH  12  13
HETATM   13  O   UNL     1     -10.119  13.712  67.815  1.00  0.00    -0.233 OA 
BRANCH  13  14
HETATM   14  C   UNL     1     -11.471  14.122  68.020  1.00  0.00    -0.312 C  
BRANCH  14  15
HETATM   15  N   UNL     1     -11.576  14.838  69.278  1.00  0.00    -0.286 NA 
HETATM   16  C   UNL     1     -11.193  16.147  69.474  1.00  0.00    -0.337 A  
HETATM   17  N   UNL     1     -11.433  16.556  70.706  1.00  0.00    -0.185 NA 
HETATM   18  C   UNL     1     -12.001  15.469  71.340  1.00  0.00    -0.394 A  
HETATM   19  C   UNL     1     -12.071  14.417  70.469  1.00  0.00    -0.334 A  
HETATM   20  N   UNL     1     -12.581  13.229  70.813  1.00  0.00    -0.315 NA 
HETATM   21  C   UNL     1     -13.091  13.121  72.078  1.00  0.00    -0.376 C  
HETATM   22  N   UNL     1     -13.656  11.912  72.329  1.00  0.00    -0.492 NA 
HETATM   23  N   UNL     1     -13.080  14.049  72.989  1.00  0.00    -0.416 N  
HETATM   24  H2  UNL     1     -13.695  11.159  71.643  1.00  0.00     0.000 HD 
HETATM   25  H1  UNL     1     -14.036  11.832  73.271  1.00  0.00     0.000 HD 
HETATM   26  C   UNL     1     -12.514  15.303  72.708  1.00  0.00    -0.391 C  
HETATM   27  H   UNL     1     -13.482  13.866  73.909  1.00  0.00     0.000 HD 
HETATM   28  O   UNL     1     -12.454  16.197  73.545  1.00  0.00    -0.480 OA 
ENDBRANCH  14  15
ENDBRANCH  13  14
ENDBRANCH  12  13
ENDBRANCH  11  12
ENDBRANCH  10  11
ENDBRANCH   8  10
ENDBRANCH   3   8
TORSDOF 7
ENDMDL
MODEL      181
REMARK 921   NORMALIZED FREE ENERGY PREDICTED BY IDOCK:   -4.74 KCAL/MOL
REMARK 922        TOTAL FREE ENERGY PREDICTED BY IDOCK:   -7.22 KCAL/MOL
REMARK 923 INTER-LIGAND FREE ENERGY PREDICTED BY IDOCK:   -6.73 KCAL/MOL
REMARK 924 INTRA-LIGAND FREE ENERGY PREDICTED BY IDOCK:   -0.48 KCAL/MOL
REMARK 927      BINDING AFFINITY PREDICTED BY RF-SCORE:    0.00 PKD
ROOT
HETATM    1  C   UNL     1     -10.705  19.598  65.974  1.00  0.00    -0.527 C  
HETATM    2  C   UNL     1     -10.220  18.791  67.182  1.00  0.00    -0.433 C  
HETATM    3  C   UNL     1      -9.533  17.460  66.785  1.00  0.00    -0.273 C  
HETATM    4  C   UNL     1      -9.304  19.663  68.051  1.00  0.00    -0.425 C  
HETATM    5  H1  UNL     1      -7.867  16.825  65.712  1.00  0.00     0.000 HD 
HETATM    6  N   UNL     1      -8.319  17.700  65.973  1.00  0.00    -0.530 NA 
HETATM    7  H2  UNL     1      -7.670  18.329  66.448  1.00  0.00     0.000 HD 
ENDROOT
BRANCH   3   8
HETATM    8  C   UNL     1     -10.482  16.502  66.028  1.00  0.00    -0.310 C  
HETATM    9  O   UNL     1     -10.662  16.503  64.815  1.00  0.00    -0.719 OA 
BRANCH   8  10
HETATM   10  O   UNL     1     -11.050  15.601  66.880  1.00  0.00    -0.287 OA 
BRANCH  10  11
HETATM   11  C   UNL     1     -10.150  14.590  67.377  1.00  0.00    -0.235 C  
BRANCH  11  12
HETATM   12  C   UNL     1     -10.452  13.238  66.728  1.00  0.00    -0.270 C  
BRANCH  12  13
HETATM   13  O   UNL     1      -9.746  12.231  67.457  1.00  0.00    -0.185 OA 
BRANCH  13  14
HETATM   14  C   UNL     1      -8.368  12.168  67.087  1.00  0.00    -0.183 C  
BRANCH  14  15
HETATM   15  N   UNL     1      -8.036  10.814  66.684  1.00  0.00    -0.133 NA 
HETATM   16  C   UNL     1      -7.393   9.890  67.477  1.00  0.00    -0.090 A  
HETATM   17  N   UNL     1      -7.251   8.726  66.871  1.00  0.00    -0.078 NA 
HETATM   18  C   UNL     1      -7.829   8.897  65.629  1.00  0.00    -0.096 A  
HETATM   19  C   UNL     1      -8.293  10.178  65.513  1.00  0.00    -0.158 A  
HETATM   20  N   UNL     1      -8.905  10.626  64.410  1.00  0.00    -0.189 NA 
HETATM   21  C   UNL     1      -9.103   9.718  63.405  1.00  0.00    -0.229 C  
HETATM   22  N   UNL     1      -9.794  10.226  62.352  1.00  0.00    -0.732 NA 
HETATM   23  N   UNL     1      -8.708   8.480  63.403  1.00  0.00    -0.420 N  
HETATM   24  H2  UNL     1     -10.131  11.188  62.314  1.00  0.00     0.000 HD 
HETATM   25  H1  UNL     1      -9.942   9.550  61.603  1.00  0.00     0.000 HD 
HETATM   26  C   UNL     1      -8.016   7.961  64.509  1.00  0.00    -0.140 C  
HETATM   27  H   UNL     1      -8.900   7.884  62.597  1.00  0.00     0.000 HD 
HETATM   28  O   UNL     1      -7.598   6.809  64.539  1.00  0.00    -0.088 OA 
ENDBRANCH  14  15
ENDBRANCH  13  14
ENDBRANCH  12  13
ENDBRANCH  11  12
ENDBRANCH  10  11
ENDBRANCH   8  10
ENDBRANCH   3   8
TORSDOF 7
ENDMDL
MODEL      182
REMARK 921   NORMALIZED FREE ENERGY PREDICTED BY IDOCK:   -4.73 KCAL/MOL
REMARK 922        TOTAL FREE ENERGY PREDICTED BY IDOCK:   -7.21 KCAL/MOL
REMARK 923 INTER-LIGAND FREE ENERGY PREDICTED BY IDOCK:   -6.91 KCAL/MOL
REMARK 924 INTRA-LIGAND FREE ENERGY PREDICTED BY IDOCK:   -0.31 KCAL/MOL
REMARK 927      BINDING AFFINITY PREDICTED BY RF-SCORE:    0.00 PKD
ROOT
HETATM    1  C   UNL     1      -9.679   6.286  73.889  1.00  0.00    -0.209 C  
HETATM    2  C   UNL     1     -11.015   5.881  73.257  1.00  0.00    -0.267 C  
HETATM    3  C   UNL     1     -11.097   6.214  71.746  1.00  0.00    -0.274 C  
HETATM    4  C   UNL     1     -11.282   4.394  73.524  1.00  0.00    -0.375 C  
HETATM    5  H1  UNL     1     -10.124   5.698  69.981  1.00  0.00     0.000 HD 
HETATM    6  N   UNL     1     -10.071   5.479  70.975  1.00  0.00    -0.199 NA 
HETATM    7  H2  UNL     1     -10.129   4.473  71.139  1.00  0.00     0.000 HD 
ENDROOT
BRANCH   3   8
HETATM    8  C   UNL     1     -10.971   7.730  71.463  1.00  0.00    -0.233 C  
HETATM    9  O   UNL     1     -10.413   8.219  70.487  1.00  0.00    -0.204 OA 
BRANCH   8  10
HETATM   10  O   UNL     1     -11.625   8.461  72.411  1.00  0.00    -0.367 OA 
BRANCH  10  11
HETATM   11  C   UNL     1     -12.981   8.814  72.071  1.00  0.00    -0.390 C  
BRANCH  11  12
HETATM   12  C   UNL     1     -13.126  10.332  71.952  1.00  0.00    -0.463 C  
BRANCH  12  13
HETATM   13  O   UNL     1     -11.983  10.832  71.252  1.00  0.00    -0.304 OA 
BRANCH  13  14
HETATM   14  C   UNL     1     -12.319  11.306  69.948  1.00  0.00    -0.233 C  
BRANCH  14  15
HETATM   15  N   UNL     1     -12.111  12.741  69.886  1.00  0.00    -0.292 NA 
HETATM   16  C   UNL     1     -12.520  13.639  70.847  1.00  0.00    -0.371 A  
HETATM   17  N   UNL     1     -12.168  14.878  70.553  1.00  0.00    -0.305 NA 
HETATM   18  C   UNL     1     -11.499  14.783  69.350  1.00  0.00    -0.301 A  
HETATM   19  C   UNL     1     -11.480  13.479  68.938  1.00  0.00    -0.306 A  
HETATM   20  N   UNL     1     -10.894  13.091  67.799  1.00  0.00    -0.235 NA 
HETATM   21  C   UNL     1     -10.252  14.060  67.077  1.00  0.00    -0.261 C  
HETATM   22  N   UNL     1      -9.620  13.578  65.976  1.00  0.00    -0.462 NA 
HETATM   23  N   UNL     1     -10.203  15.326  67.368  1.00  0.00    -0.241 N  
HETATM   24  H2  UNL     1      -9.624  12.592  65.713  1.00  0.00     0.000 HD 
HETATM   25  H1  UNL     1      -9.141  14.300  65.437  1.00  0.00     0.000 HD 
HETATM   26  C   UNL     1     -10.841  15.806  68.523  1.00  0.00    -0.290 C  
HETATM   27  H   UNL     1      -9.701  15.971  66.757  1.00  0.00     0.000 HD 
HETATM   28  O   UNL     1     -10.847  16.995  68.821  1.00  0.00    -0.322 OA 
ENDBRANCH  14  15
ENDBRANCH  13  14
ENDBRANCH  12  13
ENDBRANCH  11  12
ENDBRANCH  10  11
ENDBRANCH   8  10
ENDBRANCH   3   8
TORSDOF 7
ENDMDL
MODEL      183
REMARK 921   NORMALIZED FREE ENERGY PREDICTED BY IDOCK:   -4.73 KCAL/MOL
REMARK 922        TOTAL FREE ENERGY PREDICTED BY IDOCK:   -7.20 KCAL/MOL
REMARK 923 INTER-LIGAND FREE ENERGY PREDICTED BY IDOCK:   -7.54 KCAL/MOL
REMARK 924 INTRA-LIGAND FREE ENERGY PREDICTED BY IDOCK:    0.34 KCAL/MOL
REMARK 927      BINDING AFFINITY PREDICTED BY RF-SCORE:    0.00 PKD
ROOT
HETATM    1  C   UNL     1      -8.233  19.703  66.689  1.00  0.00    -0.342 C  
HETATM    2  C   UNL     1      -9.573  18.983  66.505  1.00  0.00    -0.386 C  
HETATM    3  C   UNL     1     -10.112  18.361  67.817  1.00  0.00    -0.356 C  
HETATM    4  C   UNL     1     -10.591  19.942  65.873  1.00  0.00    -0.523 C  
HETATM    5  H1  UNL     1     -10.729  18.989  69.703  1.00  0.00     0.000 HD 
HETATM    6  N   UNL     1     -10.374  19.399  68.839  1.00  0.00    -0.549 NA 
HETATM    7  H2  UNL     1     -10.999  20.123  68.485  1.00  0.00     0.000 HD 
ENDROOT
BRANCH   3   8
HETATM    8  C   UNL     1      -9.166  17.286  68.400  1.00  0.00    -0.268 C  
HETATM    9  O   UNL     1      -7.949  17.399  68.500  1.00  0.00    -0.249 OA 
BRANCH   8  10
HETATM   10  O   UNL     1      -9.869  16.210  68.857  1.00  0.00    -0.217 OA 
BRANCH  10  11
HETATM   11  C   UNL     1     -11.106  15.958  68.160  1.00  0.00    -0.338 C  
BRANCH  11  12
HETATM   12  C   UNL     1     -10.857  15.095  66.921  1.00  0.00    -0.317 C  
BRANCH  12  13
HETATM   13  O   UNL     1     -11.757  13.985  66.967  1.00  0.00    -0.355 OA 
BRANCH  13  14
HETATM   14  C   UNL     1     -11.608  13.225  68.167  1.00  0.00    -0.338 C  
BRANCH  14  15
HETATM   15  N   UNL     1     -10.903  11.990  67.873  1.00  0.00    -0.206 NA 
HETATM   16  C   UNL     1     -10.388  11.132  68.820  1.00  0.00    -0.205 A  
HETATM   17  N   UNL     1      -9.829  10.067  68.275  1.00  0.00    -0.144 NA 
HETATM   18  C   UNL     1      -9.989  10.236  66.915  1.00  0.00    -0.208 A  
HETATM   19  C   UNL     1     -10.631  11.420  66.673  1.00  0.00    -0.258 A  
HETATM   20  N   UNL     1     -10.922  11.842  65.437  1.00  0.00    -0.296 NA 
HETATM   21  C   UNL     1     -10.597  11.002  64.407  1.00  0.00    -0.325 C  
HETATM   22  N   UNL     1     -10.989  11.465  63.192  1.00  0.00    -0.820 NA 
HETATM   23  N   UNL     1      -9.988   9.858  64.515  1.00  0.00    -0.405 N  
HETATM   24  H2  UNL     1     -11.476  12.352  63.060  1.00  0.00     0.000 HD 
HETATM   25  H1  UNL     1     -10.747  10.839  62.425  1.00  0.00     0.000 HD 
HETATM   26  C   UNL     1      -9.610   9.381  65.780  1.00  0.00    -0.271 C  
HETATM   27  H   UNL     1      -9.784   9.308  63.680  1.00  0.00     0.000 HD 
HETATM   28  O   UNL     1      -9.008   8.323  65.927  1.00  0.00    -0.170 OA 
ENDBRANCH  14  15
ENDBRANCH  13  14
ENDBRANCH  12  13
ENDBRANCH  11  12
ENDBRANCH  10  11
ENDBRANCH   8  10
ENDBRANCH   3   8
TORSDOF 7
ENDMDL
MODEL      184
REMARK 921   NORMALIZED FREE ENERGY PREDICTED BY IDOCK:   -4.73 KCAL/MOL
REMARK 922        TOTAL FREE ENERGY PREDICTED BY IDOCK:   -7.20 KCAL/MOL
REMARK 923 INTER-LIGAND FREE ENERGY PREDICTED BY IDOCK:   -6.95 KCAL/MOL
REMARK 924 INTRA-LIGAND FREE ENERGY PREDICTED BY IDOCK:   -0.25 KCAL/MOL
REMARK 927      BINDING AFFINITY PREDICTED BY RF-SCORE:    0.00 PKD
ROOT
HETATM    1  C   UNL     1     -10.624  15.752  66.650  1.00  0.00    -0.307 C  
HETATM    2  C   UNL     1     -10.996  16.969  67.503  1.00  0.00    -0.119 C  
HETATM    3  C   UNL     1     -10.402  16.910  68.933  1.00  0.00    -0.333 C  
HETATM    4  C   UNL     1     -10.586  18.255  66.773  1.00  0.00    -0.338 C  
HETATM    5  H1  UNL     1      -8.532  16.863  69.845  1.00  0.00     0.000 HD 
HETATM    6  N   UNL     1      -8.923  16.901  68.905  1.00  0.00    -0.247 NA 
HETATM    7  H2  UNL     1      -8.555  17.695  68.379  1.00  0.00     0.000 HD 
ENDROOT
BRANCH   3   8
HETATM    8  C   UNL     1     -10.912  15.694  69.740  1.00  0.00    -0.304 C  
HETATM    9  O   UNL     1     -10.633  14.524  69.502  1.00  0.00    -0.204 OA 
BRANCH   8  10
HETATM   10  O   UNL     1     -11.668  16.093  70.804  1.00  0.00    -0.382 OA 
BRANCH  10  11
HETATM   11  C   UNL     1     -12.935  15.417  70.932  1.00  0.00    -0.478 C  
BRANCH  11  12
HETATM   12  C   UNL     1     -12.838  14.286  71.957  1.00  0.00    -0.347 C  
BRANCH  12  13
HETATM   13  O   UNL     1     -13.526  13.150  71.428  1.00  0.00    -0.213 OA 
BRANCH  13  14
HETATM   14  C   UNL     1     -13.121  11.935  72.060  1.00  0.00    -0.336 C  
BRANCH  14  15
HETATM   15  N   UNL     1     -12.429  11.096  71.098  1.00  0.00    -0.396 NA 
HETATM   16  C   UNL     1     -12.119  11.466  69.808  1.00  0.00    -0.320 A  
HETATM   17  N   UNL     1     -11.455  10.522  69.166  1.00  0.00    -0.259 NA 
HETATM   18  C   UNL     1     -11.323   9.495  70.077  1.00  0.00    -0.166 A  
HETATM   19  C   UNL     1     -11.933   9.843  71.251  1.00  0.00    -0.402 A  
HETATM   20  N   UNL     1     -11.960   9.034  72.316  1.00  0.00    -0.312 NA 
HETATM   21  C   UNL     1     -11.292   7.845  72.204  1.00  0.00    -0.313 C  
HETATM   22  N   UNL     1     -11.301   7.113  73.347  1.00  0.00    -0.523 NA 
HETATM   23  N   UNL     1     -10.679   7.409  71.143  1.00  0.00    -0.230 N  
HETATM   24  H2  UNL     1     -11.761   7.418  74.205  1.00  0.00     0.000 HD 
HETATM   25  H1  UNL     1     -10.803   6.227  73.263  1.00  0.00     0.000 HD 
HETATM   26  C   UNL     1     -10.657   8.187  69.975  1.00  0.00    -0.239 C  
HETATM   27  H   UNL     1     -10.214   6.500  71.159  1.00  0.00     0.000 HD 
HETATM   28  O   UNL     1     -10.118   7.804  68.942  1.00  0.00    -0.185 OA 
ENDBRANCH  14  15
ENDBRANCH  13  14
ENDBRANCH  12  13
ENDBRANCH  11  12
ENDBRANCH  10  11
ENDBRANCH   8  10
ENDBRANCH   3   8
TORSDOF 7
ENDMDL
MODEL      185
REMARK 921   NORMALIZED FREE ENERGY PREDICTED BY IDOCK:   -4.71 KCAL/MOL
REMARK 922        TOTAL FREE ENERGY PREDICTED BY IDOCK:   -7.18 KCAL/MOL
REMARK 923 INTER-LIGAND FREE ENERGY PREDICTED BY IDOCK:   -6.50 KCAL/MOL
REMARK 924 INTRA-LIGAND FREE ENERGY PREDICTED BY IDOCK:   -0.68 KCAL/MOL
REMARK 927      BINDING AFFINITY PREDICTED BY RF-SCORE:    0.00 PKD
ROOT
HETATM    1  C   UNL     1      -9.642   3.872  68.099  1.00  0.00    -0.182 C  
HETATM    2  C   UNL     1      -9.788   5.352  67.731  1.00  0.00    -0.174 C  
HETATM    3  C   UNL     1      -9.997   5.581  66.213  1.00  0.00    -0.140 C  
HETATM    4  C   UNL     1     -10.918   5.980  68.558  1.00  0.00    -0.350 C  
HETATM    5  H1  UNL     1     -11.382   5.095  64.738  1.00  0.00     0.000 HD 
HETATM    6  N   UNL     1     -11.245   4.944  65.737  1.00  0.00    -0.893 NA 
HETATM    7  H2  UNL     1     -12.053   5.256  66.276  1.00  0.00     0.000 HD 
ENDROOT
BRANCH   3   8
HETATM    8  C   UNL     1      -8.804   5.081  65.365  1.00  0.00    -0.152 C  
HETATM    9  O   UNL     1      -8.799   4.056  64.694  1.00  0.00    -0.121 OA 
BRANCH   8  10
HETATM   10  O   UNL     1      -7.768   5.968  65.406  1.00  0.00    -0.082 OA 
BRANCH  10  11
HETATM   11  C   UNL     1      -8.023   7.223  64.744  1.00  0.00    -0.122 C  
BRANCH  11  12
HETATM   12  C   UNL     1      -7.274   8.359  65.443  1.00  0.00    -0.082 C  
BRANCH  12  13
HETATM   13  O   UNL     1      -8.007   9.569  65.229  1.00  0.00    -0.106 OA 
BRANCH  13  14
HETATM   14  C   UNL     1      -9.403   9.326  65.057  1.00  0.00    -0.127 C  
BRANCH  14  15
HETATM   15  N   UNL     1     -10.068  10.561  64.683  1.00  0.00    -0.346 NA 
HETATM   16  C   UNL     1     -10.163  11.048  63.398  1.00  0.00    -0.346 A  
HETATM   17  N   UNL     1     -10.852  12.173  63.341  1.00  0.00    -0.438 NA 
HETATM   18  C   UNL     1     -11.226  12.428  64.645  1.00  0.00    -0.312 A  
HETATM   19  C   UNL     1     -10.732  11.450  65.463  1.00  0.00    -0.253 A  
HETATM   20  N   UNL     1     -10.941  11.442  66.785  1.00  0.00    -0.287 NA 
HETATM   21  C   UNL     1     -11.734  12.438  67.288  1.00  0.00    -0.349 C  
HETATM   22  N   UNL     1     -11.961  12.321  68.622  1.00  0.00    -0.286 NA 
HETATM   23  N   UNL     1     -12.257  13.417  66.610  1.00  0.00    -0.370 N  
HETATM   24  H2  UNL     1     -11.579  11.566  69.192  1.00  0.00     0.000 HD 
HETATM   25  H1  UNL     1     -12.551  13.063  68.997  1.00  0.00     0.000 HD 
HETATM   26  C   UNL     1     -12.033  13.511  65.228  1.00  0.00    -0.373 C  
HETATM   27  H   UNL     1     -12.830  14.116  67.084  1.00  0.00     0.000 HD 
HETATM   28  O   UNL     1     -12.481  14.432  64.553  1.00  0.00    -0.608 OA 
ENDBRANCH  14  15
ENDBRANCH  13  14
ENDBRANCH  12  13
ENDBRANCH  11  12
ENDBRANCH  10  11
ENDBRANCH   8  10
ENDBRANCH   3   8
TORSDOF 7
ENDMDL
MODEL      186
REMARK 921   NORMALIZED FREE ENERGY PREDICTED BY IDOCK:   -4.71 KCAL/MOL
REMARK 922        TOTAL FREE ENERGY PREDICTED BY IDOCK:   -7.18 KCAL/MOL
REMARK 923 INTER-LIGAND FREE ENERGY PREDICTED BY IDOCK:   -7.02 KCAL/MOL
REMARK 924 INTRA-LIGAND FREE ENERGY PREDICTED BY IDOCK:   -0.16 KCAL/MOL
REMARK 927      BINDING AFFINITY PREDICTED BY RF-SCORE:    0.00 PKD
ROOT
HETATM    1  C   UNL     1      -8.975   4.092  67.963  1.00  0.00    -0.150 C  
HETATM    2  C   UNL     1      -8.634   4.715  66.605  1.00  0.00    -0.108 C  
HETATM    3  C   UNL     1      -8.599   6.264  66.641  1.00  0.00    -0.119 C  
HETATM    4  C   UNL     1      -7.313   4.131  66.087  1.00  0.00    -0.080 C  
HETATM    5  H1  UNL     1      -7.529   7.778  67.586  1.00  0.00     0.000 HD 
HETATM    6  N   UNL     1      -7.552   6.759  67.563  1.00  0.00    -0.103 NA 
HETATM    7  H2  UNL     1      -6.637   6.369  67.333  1.00  0.00     0.000 HD 
ENDROOT
BRANCH   3   8
HETATM    8  C   UNL     1      -9.963   6.882  67.026  1.00  0.00    -0.197 C  
HETATM    9  O   UNL     1     -11.051   6.340  66.868  1.00  0.00    -0.361 OA 
BRANCH   8  10
HETATM   10  O   UNL     1      -9.798   8.094  67.630  1.00  0.00    -0.152 OA 
BRANCH  10  11
HETATM   11  C   UNL     1     -10.094   9.231  66.794  1.00  0.00    -0.261 C  
BRANCH  11  12
HETATM   12  C   UNL     1      -8.803   9.923  66.354  1.00  0.00    -0.142 C  
BRANCH  12  13
HETATM   13  O   UNL     1      -9.131  11.253  65.945  1.00  0.00    -0.200 OA 
BRANCH  13  14
HETATM   14  C   UNL     1      -9.011  12.188  67.018  1.00  0.00    -0.201 C  
BRANCH  14  15
HETATM   15  N   UNL     1      -9.336  13.519  66.539  1.00  0.00    -0.245 NA 
HETATM   16  C   UNL     1      -8.642  14.664  66.861  1.00  0.00    -0.204 A  
HETATM   17  N   UNL     1      -9.133  15.731  66.256  1.00  0.00    -0.312 NA 
HETATM   18  C   UNL     1     -10.191  15.260  65.506  1.00  0.00    -0.388 A  
HETATM   19  C   UNL     1     -10.322  13.912  65.693  1.00  0.00    -0.325 A  
HETATM   20  N   UNL     1     -11.269  13.188  65.085  1.00  0.00    -0.289 NA 
HETATM   21  C   UNL     1     -12.081  13.852  64.206  1.00  0.00    -0.440 C  
HETATM   22  N   UNL     1     -12.966  13.039  63.575  1.00  0.00    -0.335 NA 
HETATM   23  N   UNL     1     -12.051  15.126  63.948  1.00  0.00    -0.957 N  
HETATM   24  H2  UNL     1     -13.021  12.033  63.739  1.00  0.00     0.000 HD 
HETATM   25  H1  UNL     1     -13.572  13.533  62.920  1.00  0.00     0.000 HD 
HETATM   26  C   UNL     1     -11.114  15.950  64.591  1.00  0.00    -0.354 C  
HETATM   27  H   UNL     1     -12.708  15.526  63.278  1.00  0.00     0.000 HD 
HETATM   28  O   UNL     1     -11.068  17.161  64.402  1.00  0.00    -1.100 OA 
ENDBRANCH  14  15
ENDBRANCH  13  14
ENDBRANCH  12  13
ENDBRANCH  11  12
ENDBRANCH  10  11
ENDBRANCH   8  10
ENDBRANCH   3   8
TORSDOF 7
ENDMDL
MODEL      187
REMARK 921   NORMALIZED FREE ENERGY PREDICTED BY IDOCK:   -4.71 KCAL/MOL
REMARK 922        TOTAL FREE ENERGY PREDICTED BY IDOCK:   -7.18 KCAL/MOL
REMARK 923 INTER-LIGAND FREE ENERGY PREDICTED BY IDOCK:   -6.75 KCAL/MOL
REMARK 924 INTRA-LIGAND FREE ENERGY PREDICTED BY IDOCK:   -0.44 KCAL/MOL
REMARK 927      BINDING AFFINITY PREDICTED BY RF-SCORE:    0.00 PKD
ROOT
HETATM    1  C   UNL     1     -10.680   4.765  73.337  1.00  0.00    -0.322 C  
HETATM    2  C   UNL     1     -10.391   4.262  71.919  1.00  0.00    -0.140 C  
HETATM    3  C   UNL     1      -9.761   5.346  71.008  1.00  0.00    -0.179 C  
HETATM    4  C   UNL     1      -9.517   3.003  71.987  1.00  0.00    -0.204 C  
HETATM    5  H1  UNL     1      -8.036   6.507  70.930  1.00  0.00     0.000 HD 
HETATM    6  N   UNL     1      -8.450   5.795  71.529  1.00  0.00    -0.127 NA 
HETATM    7  H2  UNL     1      -7.815   5.008  71.669  1.00  0.00     0.000 HD 
ENDROOT
BRANCH   3   8
HETATM    8  C   UNL     1     -10.686   6.569  70.810  1.00  0.00    -0.241 C  
HETATM    9  O   UNL     1     -11.906   6.555  70.929  1.00  0.00    -0.361 OA 
BRANCH   8  10
HETATM   10  O   UNL     1      -9.961   7.695  70.549  1.00  0.00    -0.184 OA 
BRANCH  10  11
HETATM   11  C   UNL     1     -10.313   8.840  71.351  1.00  0.00    -0.278 C  
BRANCH  11  12
HETATM   12  C   UNL     1     -10.876   9.958  70.472  1.00  0.00    -0.326 C  
BRANCH  12  13
HETATM   13  O   UNL     1     -10.656   9.599  69.106  1.00  0.00    -0.209 OA 
BRANCH  13  14
HETATM   14  C   UNL     1      -9.702  10.452  68.474  1.00  0.00    -0.168 C  
BRANCH  14  15
HETATM   15  N   UNL     1     -10.311  11.091  67.321  1.00  0.00    -0.202 NA 
HETATM   16  C   UNL     1     -10.326  10.569  66.047  1.00  0.00    -0.211 A  
HETATM   17  N   UNL     1     -10.980  11.342  65.200  1.00  0.00    -0.235 NA 
HETATM   18  C   UNL     1     -11.413  12.413  65.955  1.00  0.00    -0.382 A  
HETATM   19  C   UNL     1     -10.989  12.264  67.247  1.00  0.00    -0.256 A  
HETATM   20  N   UNL     1     -11.266  13.156  68.204  1.00  0.00    -0.256 NA 
HETATM   21  C   UNL     1     -12.054  14.217  67.848  1.00  0.00    -0.274 C  
HETATM   22  N   UNL     1     -12.352  15.037  68.887  1.00  0.00    -0.594 NA 
HETATM   23  N   UNL     1     -12.514  14.462  66.656  1.00  0.00    -0.500 N  
HETATM   24  H2  UNL     1     -12.021  14.880  69.839  1.00  0.00     0.000 HD 
HETATM   25  H1  UNL     1     -12.940  15.827  68.622  1.00  0.00     0.000 HD 
HETATM   26  C   UNL     1     -12.218  13.591  65.596  1.00  0.00    -0.458 C  
HETATM   27  H   UNL     1     -13.091  15.288  66.493  1.00  0.00     0.000 HD 
HETATM   28  O   UNL     1     -12.604  13.798  64.451  1.00  0.00    -0.638 OA 
ENDBRANCH  14  15
ENDBRANCH  13  14
ENDBRANCH  12  13
ENDBRANCH  11  12
ENDBRANCH  10  11
ENDBRANCH   8  10
ENDBRANCH   3   8
TORSDOF 7
ENDMDL
MODEL      188
REMARK 921   NORMALIZED FREE ENERGY PREDICTED BY IDOCK:   -4.70 KCAL/MOL
REMARK 922        TOTAL FREE ENERGY PREDICTED BY IDOCK:   -7.17 KCAL/MOL
REMARK 923 INTER-LIGAND FREE ENERGY PREDICTED BY IDOCK:   -6.60 KCAL/MOL
REMARK 924 INTRA-LIGAND FREE ENERGY PREDICTED BY IDOCK:   -0.57 KCAL/MOL
REMARK 927      BINDING AFFINITY PREDICTED BY RF-SCORE:    0.00 PKD
ROOT
HETATM    1  C   UNL     1      -9.160  13.082  67.074  1.00  0.00    -0.230 C  
HETATM    2  C   UNL     1     -10.316  13.307  66.093  1.00  0.00    -0.290 C  
HETATM    3  C   UNL     1     -11.189  12.043  65.887  1.00  0.00    -0.337 C  
HETATM    4  C   UNL     1     -11.156  14.506  66.553  1.00  0.00    -0.332 C  
HETATM    5  H1  UNL     1     -12.409  10.789  67.013  1.00  0.00     0.000 HD 
HETATM    6  N   UNL     1     -11.835  11.620  67.149  1.00  0.00    -0.607 NA 
HETATM    7  H2  UNL     1     -12.371  12.381  67.567  1.00  0.00     0.000 HD 
ENDROOT
BRANCH   3   8
HETATM    8  C   UNL     1     -10.392  10.860  65.290  1.00  0.00    -0.268 C  
HETATM    9  O   UNL     1      -9.897  10.838  64.169  1.00  0.00    -0.270 OA 
BRANCH   8  10
HETATM   10  O   UNL     1     -10.249   9.856  66.203  1.00  0.00    -0.250 OA 
BRANCH  10  11
HETATM   11  C   UNL     1      -9.437   8.749  65.761  1.00  0.00    -0.169 C  
BRANCH  11  12
HETATM   12  C   UNL     1      -9.033   7.873  66.948  1.00  0.00    -0.136 C  
BRANCH  12  13
HETATM   13  O   UNL     1      -9.795   6.664  66.884  1.00  0.00    -0.155 OA 
BRANCH  13  14
HETATM   14  C   UNL     1     -10.941   6.707  67.734  1.00  0.00    -0.281 C  
BRANCH  14  15
HETATM   15  N   UNL     1     -10.678   5.947  68.942  1.00  0.00    -0.289 NA 
HETATM   16  C   UNL     1      -9.922   4.797  69.001  1.00  0.00    -0.143 A  
HETATM   17  N   UNL     1      -9.816   4.334  70.233  1.00  0.00    -0.208 NA 
HETATM   18  C   UNL     1     -10.529   5.223  71.011  1.00  0.00    -0.203 A  
HETATM   19  C   UNL     1     -11.067   6.197  70.218  1.00  0.00    -0.366 A  
HETATM   20  N   UNL     1     -11.810   7.197  70.707  1.00  0.00    -0.333 NA 
HETATM   21  C   UNL     1     -11.966   7.240  72.066  1.00  0.00    -0.296 C  
HETATM   22  N   UNL     1     -12.668   8.321  72.492  1.00  0.00    -0.582 NA 
HETATM   23  N   UNL     1     -11.503   6.372  72.917  1.00  0.00    -0.470 N  
HETATM   24  H2  UNL     1     -13.042   9.031  71.862  1.00  0.00     0.000 HD 
HETATM   25  H1  UNL     1     -12.784   8.352  73.505  1.00  0.00     0.000 HD 
HETATM   26  C   UNL     1     -10.758   5.272  72.464  1.00  0.00    -0.236 C  
HETATM   27  H   UNL     1     -11.682   6.491  73.915  1.00  0.00     0.000 HD 
HETATM   28  O   UNL     1     -10.328   4.413  73.226  1.00  0.00    -0.152 OA 
ENDBRANCH  14  15
ENDBRANCH  13  14
ENDBRANCH  12  13
ENDBRANCH  11  12
ENDBRANCH  10  11
ENDBRANCH   8  10
ENDBRANCH   3   8
TORSDOF 7
ENDMDL
MODEL      189
REMARK 921   NORMALIZED FREE ENERGY PREDICTED BY IDOCK:   -4.70 KCAL/MOL
REMARK 922        TOTAL FREE ENERGY PREDICTED BY IDOCK:   -7.17 KCAL/MOL
REMARK 923 INTER-LIGAND FREE ENERGY PREDICTED BY IDOCK:   -6.82 KCAL/MOL
REMARK 924 INTRA-LIGAND FREE ENERGY PREDICTED BY IDOCK:   -0.34 KCAL/MOL
REMARK 927      BINDING AFFINITY PREDICTED BY RF-SCORE:    0.00 PKD
ROOT
HETATM    1  C   UNL     1     -11.048   6.160  69.438  1.00  0.00    -0.479 C  
HETATM    2  C   UNL     1      -9.843   6.989  69.898  1.00  0.00    -0.173 C  
HETATM    3  C   UNL     1      -9.663   6.994  71.437  1.00  0.00    -0.169 C  
HETATM    4  C   UNL     1      -8.577   6.499  69.182  1.00  0.00    -0.129 C  
HETATM    5  H1  UNL     1      -9.292   5.636  72.969  1.00  0.00     0.000 HD 
HETATM    6  N   UNL     1      -9.411   5.632  71.957  1.00  0.00    -0.150 NA 
HETATM    7  H2  UNL     1      -8.616   5.196  71.489  1.00  0.00     0.000 HD 
ENDROOT
BRANCH   3   8
HETATM    8  C   UNL     1     -10.872   7.615  72.175  1.00  0.00    -0.247 C  
HETATM    9  O   UNL     1     -11.460   7.100  73.119  1.00  0.00    -0.167 OA 
BRANCH   8  10
HETATM   10  O   UNL     1     -11.164   8.854  71.683  1.00  0.00    -0.294 OA 
BRANCH  10  11
HETATM   11  C   UNL     1     -12.568   9.180  71.663  1.00  0.00    -0.360 C  
BRANCH  11  12
HETATM   12  C   UNL     1     -12.766  10.696  71.614  1.00  0.00    -0.426 C  
BRANCH  12  13
HETATM   13  O   UNL     1     -11.814  11.236  70.694  1.00  0.00    -0.340 OA 
BRANCH  13  14
HETATM   14  C   UNL     1     -12.301  11.225  69.352  1.00  0.00    -0.149 C  
BRANCH  14  15
HETATM   15  N   UNL     1     -11.883  12.440  68.675  1.00  0.00    -0.317 NA 
HETATM   16  C   UNL     1     -11.547  12.524  67.342  1.00  0.00    -0.370 A  
HETATM   17  N   UNL     1     -11.239  13.757  66.983  1.00  0.00    -0.302 NA 
HETATM   18  C   UNL     1     -11.385  14.509  68.130  1.00  0.00    -0.298 A  
HETATM   19  C   UNL     1     -11.762  13.699  69.165  1.00  0.00    -0.329 A  
HETATM   20  N   UNL     1     -11.978  14.162  70.402  1.00  0.00    -0.317 NA 
HETATM   21  C   UNL     1     -11.860  15.514  70.582  1.00  0.00    -0.365 C  
HETATM   22  N   UNL     1     -12.165  15.916  71.842  1.00  0.00    -0.445 NA 
HETATM   23  N   UNL     1     -11.509  16.379  69.677  1.00  0.00    -0.322 N  
HETATM   24  H2  UNL     1     -12.454  15.275  72.581  1.00  0.00     0.000 HD 
HETATM   25  H1  UNL     1     -12.078  16.923  71.976  1.00  0.00     0.000 HD 
HETATM   26  C   UNL     1     -11.219  15.951  68.371  1.00  0.00    -0.368 C  
HETATM   27  H   UNL     1     -11.443  17.369  69.916  1.00  0.00     0.000 HD 
HETATM   28  O   UNL     1     -10.855  16.726  67.494  1.00  0.00    -0.307 OA 
ENDBRANCH  14  15
ENDBRANCH  13  14
ENDBRANCH  12  13
ENDBRANCH  11  12
ENDBRANCH  10  11
ENDBRANCH   8  10
ENDBRANCH   3   8
TORSDOF 7
ENDMDL
MODEL      190
REMARK 921   NORMALIZED FREE ENERGY PREDICTED BY IDOCK:   -4.70 KCAL/MOL
REMARK 922        TOTAL FREE ENERGY PREDICTED BY IDOCK:   -7.16 KCAL/MOL
REMARK 923 INTER-LIGAND FREE ENERGY PREDICTED BY IDOCK:   -6.25 KCAL/MOL
REMARK 924 INTRA-LIGAND FREE ENERGY PREDICTED BY IDOCK:   -0.91 KCAL/MOL
REMARK 927      BINDING AFFINITY PREDICTED BY RF-SCORE:    0.00 PKD
ROOT
HETATM    1  C   UNL     1     -11.292  15.914  68.150  1.00  0.00    -0.311 C  
HETATM    2  C   UNL     1     -10.877  14.717  67.289  1.00  0.00    -0.305 C  
HETATM    3  C   UNL     1      -9.817  13.817  67.973  1.00  0.00    -0.239 C  
HETATM    4  C   UNL     1     -12.122  13.916  66.884  1.00  0.00    -0.467 C  
HETATM    5  H1  UNL     1      -9.640  12.632  69.674  1.00  0.00     0.000 HD 
HETATM    6  N   UNL     1     -10.337  13.224  69.225  1.00  0.00    -0.407 NA 
HETATM    7  H2  UNL     1     -11.209  12.719  69.064  1.00  0.00     0.000 HD 
ENDROOT
BRANCH   3   8
HETATM    8  C   UNL     1      -8.497  14.568  68.264  1.00  0.00    -0.161 C  
HETATM    9  O   UNL     1      -8.336  15.384  69.165  1.00  0.00    -0.206 OA 
BRANCH   8  10
HETATM   10  O   UNL     1      -7.503  14.155  67.426  1.00  0.00    -0.175 OA 
BRANCH  10  11
HETATM   11  C   UNL     1      -6.480  13.354  68.052  1.00  0.00    -0.131 C  
BRANCH  11  12
HETATM   12  C   UNL     1      -6.826  11.867  67.948  1.00  0.00    -0.083 C  
BRANCH  12  13
HETATM   13  O   UNL     1      -7.457  11.474  69.170  1.00  0.00    -0.100 OA 
BRANCH  13  14
HETATM   14  C   UNL     1      -7.052  10.170  69.586  1.00  0.00    -0.115 C  
BRANCH  14  15
HETATM   15  N   UNL     1      -8.042   9.623  70.497  1.00  0.00    -0.239 NA 
HETATM   16  C   UNL     1      -7.754   8.967  71.673  1.00  0.00    -0.012 A  
HETATM   17  N   UNL     1      -8.846   8.607  72.322  1.00  0.00    -0.364 NA 
HETATM   18  C   UNL     1      -9.891   9.052  71.538  1.00  0.00    -0.310 A  
HETATM   19  C   UNL     1      -9.396   9.657  70.416  1.00  0.00    -0.211 A  
HETATM   20  N   UNL     1     -10.186  10.186  69.475  1.00  0.00    -0.223 NA 
HETATM   21  C   UNL     1     -11.534  10.148  69.709  1.00  0.00    -0.228 C  
HETATM   22  N   UNL     1     -12.264  10.767  68.747  1.00  0.00    -0.814 NA 
HETATM   23  N   UNL     1     -12.117   9.601  70.735  1.00  0.00    -0.376 N  
HETATM   24  H2  UNL     1     -11.850  11.217  67.930  1.00  0.00     0.000 HD 
HETATM   25  H1  UNL     1     -13.268  10.739  68.922  1.00  0.00     0.000 HD 
HETATM   26  C   UNL     1     -11.347   8.984  71.734  1.00  0.00    -0.377 C  
HETATM   27  H   UNL     1     -13.134   9.620  70.813  1.00  0.00     0.000 HD 
HETATM   28  O   UNL     1     -11.855   8.430  72.703  1.00  0.00    -0.393 OA 
ENDBRANCH  14  15
ENDBRANCH  13  14
ENDBRANCH  12  13
ENDBRANCH  11  12
ENDBRANCH  10  11
ENDBRANCH   8  10
ENDBRANCH   3   8
TORSDOF 7
ENDMDL
MODEL      191
REMARK 921   NORMALIZED FREE ENERGY PREDICTED BY IDOCK:   -4.68 KCAL/MOL
REMARK 922        TOTAL FREE ENERGY PREDICTED BY IDOCK:   -7.13 KCAL/MOL
REMARK 923 INTER-LIGAND FREE ENERGY PREDICTED BY IDOCK:   -6.73 KCAL/MOL
REMARK 924 INTRA-LIGAND FREE ENERGY PREDICTED BY IDOCK:   -0.40 KCAL/MOL
REMARK 927      BINDING AFFINITY PREDICTED BY RF-SCORE:    0.00 PKD
ROOT
HETATM    1  C   UNL     1      -9.898   6.855  73.838  1.00  0.00    -0.340 C  
HETATM    2  C   UNL     1     -10.547   7.303  72.524  1.00  0.00    -0.285 C  
HETATM    3  C   UNL     1      -9.608   7.151  71.302  1.00  0.00    -0.163 C  
HETATM    4  C   UNL     1     -11.869   6.550  72.319  1.00  0.00    -0.299 C  
HETATM    5  H1  UNL     1      -8.615   5.637  70.276  1.00  0.00     0.000 HD 
HETATM    6  N   UNL     1      -9.233   5.737  71.080  1.00  0.00    -0.152 NA 
HETATM    7  H2  UNL     1     -10.057   5.141  70.994  1.00  0.00     0.000 HD 
ENDROOT
BRANCH   3   8
HETATM    8  C   UNL     1      -8.329   8.013  71.423  1.00  0.00    -0.113 C  
HETATM    9  O   UNL     1      -7.199   7.574  71.606  1.00  0.00    -0.065 OA 
BRANCH   8  10
HETATM   10  O   UNL     1      -8.609   9.334  71.230  1.00  0.00    -0.310 OA 
BRANCH  10  11
HETATM   11  C   UNL     1      -9.599   9.599  70.216  1.00  0.00    -0.254 C  
BRANCH  11  12
HETATM   12  C   UNL     1      -9.022  10.505  69.127  1.00  0.00    -0.161 C  
BRANCH  12  13
HETATM   13  O   UNL     1      -9.929  11.593  68.929  1.00  0.00    -0.168 OA 
BRANCH  13  14
HETATM   14  C   UNL     1     -11.292  11.173  69.002  1.00  0.00    -0.276 C  
BRANCH  14  15
HETATM   15  N   UNL     1     -12.015  12.035  69.919  1.00  0.00    -0.328 NA 
HETATM   16  C   UNL     1     -12.702  11.602  71.032  1.00  0.00    -0.298 A  
HETATM   17  N   UNL     1     -13.237  12.603  71.707  1.00  0.00    -0.418 NA 
HETATM   18  C   UNL     1     -12.881  13.737  71.006  1.00  0.00    -0.305 A  
HETATM   19  C   UNL     1     -12.149  13.385  69.907  1.00  0.00    -0.322 A  
HETATM   20  N   UNL     1     -11.667  14.286  69.043  1.00  0.00    -0.297 NA 
HETATM   21  C   UNL     1     -11.891  15.603  69.339  1.00  0.00    -0.375 C  
HETATM   22  N   UNL     1     -11.310  16.458  68.458  1.00  0.00    -0.348 NA 
HETATM   23  N   UNL     1     -12.570  16.056  70.351  1.00  0.00    -0.531 N  
HETATM   24  H2  UNL     1     -10.762  16.149  67.655  1.00  0.00     0.000 HD 
HETATM   25  H1  UNL     1     -11.477  17.439  68.679  1.00  0.00     0.000 HD 
HETATM   26  C   UNL     1     -13.145  15.161  71.267  1.00  0.00    -0.441 C  
HETATM   27  H   UNL     1     -12.686  17.061  70.479  1.00  0.00     0.000 HD 
HETATM   28  O   UNL     1     -13.818  15.540  72.219  1.00  0.00    -0.484 OA 
ENDBRANCH  14  15
ENDBRANCH  13  14
ENDBRANCH  12  13
ENDBRANCH  11  12
ENDBRANCH  10  11
ENDBRANCH   8  10
ENDBRANCH   3   8
TORSDOF 7
ENDMDL
MODEL      192
REMARK 921   NORMALIZED FREE ENERGY PREDICTED BY IDOCK:   -4.67 KCAL/MOL
REMARK 922        TOTAL FREE ENERGY PREDICTED BY IDOCK:   -7.12 KCAL/MOL
REMARK 923 INTER-LIGAND FREE ENERGY PREDICTED BY IDOCK:   -6.71 KCAL/MOL
REMARK 924 INTRA-LIGAND FREE ENERGY PREDICTED BY IDOCK:   -0.41 KCAL/MOL
REMARK 927      BINDING AFFINITY PREDICTED BY RF-SCORE:    0.00 PKD
ROOT
HETATM    1  C   UNL     1     -10.467  16.527  69.206  1.00  0.00    -0.326 C  
HETATM    2  C   UNL     1     -10.359  15.010  69.390  1.00  0.00    -0.241 C  
HETATM    3  C   UNL     1     -11.734  14.296  69.362  1.00  0.00    -0.316 C  
HETATM    4  C   UNL     1      -9.399  14.431  68.341  1.00  0.00    -0.206 C  
HETATM    5  H1  UNL     1     -13.314  14.006  68.039  1.00  0.00     0.000 HD 
HETATM    6  N   UNL     1     -12.409  14.476  68.058  1.00  0.00    -0.594 NA 
HETATM    7  H2  UNL     1     -11.816  14.174  67.284  1.00  0.00     0.000 HD 
ENDROOT
BRANCH   3   8
HETATM    8  C   UNL     1     -12.671  14.764  70.500  1.00  0.00    -0.343 C  
HETATM    9  O   UNL     1     -13.308  15.811  70.501  1.00  0.00    -0.418 OA 
BRANCH   8  10
HETATM   10  O   UNL     1     -12.752  13.823  71.484  1.00  0.00    -0.343 OA 
BRANCH  10  11
HETATM   11  C   UNL     1     -12.550  12.466  71.041  1.00  0.00    -0.254 C  
BRANCH  11  12
HETATM   12  C   UNL     1     -13.406  11.500  71.862  1.00  0.00    -0.303 C  
BRANCH  12  13
HETATM   13  O   UNL     1     -13.064  10.167  71.473  1.00  0.00    -0.374 OA 
BRANCH  13  14
HETATM   14  C   UNL     1     -11.776  10.101  70.860  1.00  0.00    -0.378 C  
BRANCH  14  15
HETATM   15  N   UNL     1     -11.169   8.814  71.146  1.00  0.00    -0.260 NA 
HETATM   16  C   UNL     1     -10.683   8.427  72.375  1.00  0.00    -0.335 A  
HETATM   17  N   UNL     1     -10.218   7.191  72.360  1.00  0.00    -0.185 NA 
HETATM   18  C   UNL     1     -10.413   6.752  71.066  1.00  0.00    -0.212 A  
HETATM   19  C   UNL     1     -10.979   7.752  70.324  1.00  0.00    -0.247 A  
HETATM   20  N   UNL     1     -11.281   7.605  69.029  1.00  0.00     0.197 NA 
HETATM   21  C   UNL     1     -11.051   6.373  68.479  1.00  0.00    -0.300 C  
HETATM   22  N   UNL     1     -11.450   6.279  67.185  1.00  0.00    -0.648 NA 
HETATM   23  N   UNL     1     -10.519   5.352  69.084  1.00  0.00    -0.230 N  
HETATM   24  H2  UNL     1     -11.880   7.050  66.673  1.00  0.00     0.000 HD 
HETATM   25  H1  UNL     1     -11.279   5.361  66.775  1.00  0.00     0.000 HD 
HETATM   26  C   UNL     1     -10.133   5.456  70.430  1.00  0.00    -0.244 C  
HETATM   27  H   UNL     1     -10.383   4.475  68.580  1.00  0.00     0.000 HD 
HETATM   28  O   UNL     1      -9.601   4.530  71.032  1.00  0.00    -0.152 OA 
ENDBRANCH  14  15
ENDBRANCH  13  14
ENDBRANCH  12  13
ENDBRANCH  11  12
ENDBRANCH  10  11
ENDBRANCH   8  10
ENDBRANCH   3   8
TORSDOF 7
ENDMDL
MODEL      193
REMARK 921   NORMALIZED FREE ENERGY PREDICTED BY IDOCK:   -4.67 KCAL/MOL
REMARK 922        TOTAL FREE ENERGY PREDICTED BY IDOCK:   -7.12 KCAL/MOL
REMARK 923 INTER-LIGAND FREE ENERGY PREDICTED BY IDOCK:   -6.18 KCAL/MOL
REMARK 924 INTRA-LIGAND FREE ENERGY PREDICTED BY IDOCK:   -0.93 KCAL/MOL
REMARK 927      BINDING AFFINITY PREDICTED BY RF-SCORE:    0.00 PKD
ROOT
HETATM    1  C   UNL     1     -12.164  13.265  63.643  1.00  0.00    -0.522 C  
HETATM    2  C   UNL     1     -10.778  12.675  63.930  1.00  0.00    -0.465 C  
HETATM    3  C   UNL     1     -10.439  12.634  65.441  1.00  0.00    -0.283 C  
HETATM    4  C   UNL     1     -10.666  11.287  63.287  1.00  0.00    -0.278 C  
HETATM    5  H1  UNL     1     -11.160  11.742  67.178  1.00  0.00     0.000 HD 
HETATM    6  N   UNL     1     -11.383  11.770  66.184  1.00  0.00    -0.318 NA 
HETATM    7  H2  UNL     1     -11.425  10.832  65.784  1.00  0.00     0.000 HD 
ENDROOT
BRANCH   3   8
HETATM    8  C   UNL     1     -10.408  14.040  66.084  1.00  0.00    -0.297 C  
HETATM    9  O   UNL     1     -10.654  15.088  65.497  1.00  0.00    -0.312 OA 
BRANCH   8  10
HETATM   10  O   UNL     1     -10.135  13.963  67.418  1.00  0.00    -0.240 OA 
BRANCH  10  11
HETATM   11  C   UNL     1     -10.973  14.787  68.254  1.00  0.00    -0.258 C  
BRANCH  11  12
HETATM   12  C   UNL     1     -12.010  13.932  68.984  1.00  0.00    -0.364 C  
BRANCH  12  13
HETATM   13  O   UNL     1     -11.400  12.680  69.309  1.00  0.00    -0.260 OA 
BRANCH  13  14
HETATM   14  C   UNL     1     -12.366  11.690  69.664  1.00  0.00    -0.108 C  
BRANCH  14  15
HETATM   15  N   UNL     1     -11.690  10.443  69.974  1.00  0.00    -0.277 NA 
HETATM   16  C   UNL     1     -11.579   9.898  71.234  1.00  0.00    -0.379 A  
HETATM   17  N   UNL     1     -10.945   8.740  71.222  1.00  0.00    -0.254 NA 
HETATM   18  C   UNL     1     -10.633   8.518  69.896  1.00  0.00    -0.228 A  
HETATM   19  C   UNL     1     -11.075   9.567  69.139  1.00  0.00    -0.053 A  
HETATM   20  N   UNL     1     -10.909   9.619  67.813  1.00  0.00    -0.259 NA 
HETATM   21  C   UNL     1     -10.320   8.534  67.223  1.00  0.00    -0.302 C  
HETATM   22  N   UNL     1     -10.253   8.628  65.870  1.00  0.00    -0.253 NA 
HETATM   23  N   UNL     1      -9.861   7.484  67.838  1.00  0.00    -0.149 N  
HETATM   24  H2  UNL     1     -10.607   9.428  65.345  1.00  0.00     0.000 HD 
HETATM   25  H1  UNL     1      -9.814   7.820  65.431  1.00  0.00     0.000 HD 
HETATM   26  C   UNL     1      -9.958   7.390  69.235  1.00  0.00    -0.173 C  
HETATM   27  H   UNL     1      -9.430   6.729  67.304  1.00  0.00     0.000 HD 
HETATM   28  O   UNL     1      -9.513   6.433  69.860  1.00  0.00    -0.153 OA 
ENDBRANCH  14  15
ENDBRANCH  13  14
ENDBRANCH  12  13
ENDBRANCH  11  12
ENDBRANCH  10  11
ENDBRANCH   8  10
ENDBRANCH   3   8
TORSDOF 7
ENDMDL
MODEL      194
REMARK 921   NORMALIZED FREE ENERGY PREDICTED BY IDOCK:   -4.66 KCAL/MOL
REMARK 922        TOTAL FREE ENERGY PREDICTED BY IDOCK:   -7.11 KCAL/MOL
REMARK 923 INTER-LIGAND FREE ENERGY PREDICTED BY IDOCK:   -6.67 KCAL/MOL
REMARK 924 INTRA-LIGAND FREE ENERGY PREDICTED BY IDOCK:   -0.44 KCAL/MOL
REMARK 927      BINDING AFFINITY PREDICTED BY RF-SCORE:    0.00 PKD
ROOT
HETATM    1  C   UNL     1     -11.258   6.215  69.186  1.00  0.00    -0.409 C  
HETATM    2  C   UNL     1      -9.877   5.554  69.247  1.00  0.00    -0.233 C  
HETATM    3  C   UNL     1      -8.714   6.572  69.137  1.00  0.00    -0.129 C  
HETATM    4  C   UNL     1      -9.768   4.705  70.520  1.00  0.00    -0.284 C  
HETATM    5  H1  UNL     1      -7.962   8.201  70.190  1.00  0.00     0.000 HD 
HETATM    6  N   UNL     1      -8.727   7.532  70.262  1.00  0.00    -0.144 NA 
HETATM    7  H2  UNL     1      -8.721   7.052  71.163  1.00  0.00     0.000 HD 
ENDROOT
BRANCH   3   8
HETATM    8  C   UNL     1      -8.721   7.343  67.797  1.00  0.00    -0.126 C  
HETATM    9  O   UNL     1      -8.492   6.849  66.699  1.00  0.00    -0.114 OA 
BRANCH   8  10
HETATM   10  O   UNL     1      -9.086   8.645  67.983  1.00  0.00    -0.140 OA 
BRANCH  10  11
HETATM   11  C   UNL     1     -10.023   9.154  67.013  1.00  0.00    -0.230 C  
BRANCH  11  12
HETATM   12  C   UNL     1     -10.903  10.239  67.635  1.00  0.00    -0.307 C  
BRANCH  12  13
HETATM   13  O   UNL     1     -10.499  11.500  67.095  1.00  0.00    -0.209 OA 
BRANCH  13  14
HETATM   14  C   UNL     1     -11.612  12.365  66.865  1.00  0.00    -0.370 C  
BRANCH  14  15
HETATM   15  N   UNL     1     -11.137  13.638  66.354  1.00  0.00    -0.301 NA 
HETATM   16  C   UNL     1     -10.832  13.895  65.035  1.00  0.00    -0.382 A  
HETATM   17  N   UNL     1     -10.459  15.147  64.845  1.00  0.00    -0.377 NA 
HETATM   18  C   UNL     1     -10.527  15.733  66.093  1.00  0.00    -0.317 A  
HETATM   19  C   UNL     1     -10.926  14.805  67.014  1.00  0.00    -0.324 A  
HETATM   20  N   UNL     1     -11.080  15.096  68.311  1.00  0.00    -0.278 NA 
HETATM   21  C   UNL     1     -10.875  16.399  68.678  1.00  0.00    -0.331 C  
HETATM   22  N   UNL     1     -11.121  16.632  69.992  1.00  0.00    -0.435 NA 
HETATM   23  N   UNL     1     -10.494  17.364  67.893  1.00  0.00    -0.370 N  
HETATM   24  H2  UNL     1     -11.429  15.908  70.642  1.00  0.00     0.000 HD 
HETATM   25  H1  UNL     1     -10.968  17.602  70.266  1.00  0.00     0.000 HD 
HETATM   26  C   UNL     1     -10.266  17.113  66.531  1.00  0.00    -0.322 C  
HETATM   27  H   UNL     1     -10.362  18.303  68.269  1.00  0.00     0.000 HD 
HETATM   28  O   UNL     1      -9.879  17.985  65.761  1.00  0.00    -0.539 OA 
ENDBRANCH  14  15
ENDBRANCH  13  14
ENDBRANCH  12  13
ENDBRANCH  11  12
ENDBRANCH  10  11
ENDBRANCH   8  10
ENDBRANCH   3   8
TORSDOF 7
ENDMDL
MODEL      195
REMARK 921   NORMALIZED FREE ENERGY PREDICTED BY IDOCK:   -4.65 KCAL/MOL
REMARK 922        TOTAL FREE ENERGY PREDICTED BY IDOCK:   -7.09 KCAL/MOL
REMARK 923 INTER-LIGAND FREE ENERGY PREDICTED BY IDOCK:   -6.62 KCAL/MOL
REMARK 924 INTRA-LIGAND FREE ENERGY PREDICTED BY IDOCK:   -0.47 KCAL/MOL
REMARK 927      BINDING AFFINITY PREDICTED BY RF-SCORE:    0.00 PKD
ROOT
HETATM    1  C   UNL     1      -8.522   8.105  66.182  1.00  0.00    -0.143 C  
HETATM    2  C   UNL     1      -7.824   6.770  66.463  1.00  0.00    -0.104 C  
HETATM    3  C   UNL     1      -8.679   5.543  66.058  1.00  0.00    -0.141 C  
HETATM    4  C   UNL     1      -6.450   6.753  65.780  1.00  0.00    -0.050 C  
HETATM    5  H1  UNL     1      -9.517   4.725  64.337  1.00  0.00     0.000 HD 
HETATM    6  N   UNL     1      -8.954   5.532  64.604  1.00  0.00    -0.363 NA 
HETATM    7  H2  UNL     1      -8.092   5.583  64.060  1.00  0.00     0.000 HD 
ENDROOT
BRANCH   3   8
HETATM    8  C   UNL     1     -10.012   5.462  66.838  1.00  0.00    -0.184 C  
HETATM    9  O   UNL     1     -10.982   6.188  66.652  1.00  0.00    -0.301 OA 
BRANCH   8  10
HETATM   10  O   UNL     1      -9.998   4.425  67.725  1.00  0.00    -0.130 OA 
BRANCH  10  11
HETATM   11  C   UNL     1      -9.253   4.675  68.934  1.00  0.00    -0.129 C  
BRANCH  11  12
HETATM   12  C   UNL     1     -10.191   4.730  70.140  1.00  0.00    -0.189 C  
BRANCH  12  13
HETATM   13  O   UNL     1     -10.729   6.053  70.222  1.00  0.00    -0.249 OA 
BRANCH  13  14
HETATM   14  C   UNL     1      -9.815   6.966  70.830  1.00  0.00    -0.182 C  
BRANCH  14  15
HETATM   15  N   UNL     1     -10.278   8.326  70.620  1.00  0.00    -0.191 NA 
HETATM   16  C   UNL     1      -9.719   9.221  69.735  1.00  0.00    -0.189 A  
HETATM   17  N   UNL     1     -10.362  10.375  69.722  1.00  0.00    -0.233 NA 
HETATM   18  C   UNL     1     -11.386  10.224  70.635  1.00  0.00    -0.347 A  
HETATM   19  C   UNL     1     -11.321   8.977  71.193  1.00  0.00    -0.307 A  
HETATM   20  N   UNL     1     -12.195   8.553  72.113  1.00  0.00    -0.358 NA 
HETATM   21  C   UNL     1     -13.210   9.412  72.440  1.00  0.00    -0.403 C  
HETATM   22  N   UNL     1     -14.095   8.885  73.323  1.00  0.00    -1.248 NA 
HETATM   23  N   UNL     1     -13.372  10.616  71.977  1.00  0.00    -0.515 N  
HETATM   24  H2  UNL     1     -14.013   7.943  73.706  1.00  0.00     0.000 HD 
HETATM   25  H1  UNL     1     -14.852   9.524  73.567  1.00  0.00     0.000 HD 
HETATM   26  C   UNL     1     -12.461  11.139  71.045  1.00  0.00    -0.403 C  
HETATM   27  H   UNL     1     -14.162  11.181  72.291  1.00  0.00     0.000 HD 
HETATM   28  O   UNL     1     -12.557  12.279  70.605  1.00  0.00    -0.257 OA 
ENDBRANCH  14  15
ENDBRANCH  13  14
ENDBRANCH  12  13
ENDBRANCH  11  12
ENDBRANCH  10  11
ENDBRANCH   8  10
ENDBRANCH   3   8
TORSDOF 7
ENDMDL
MODEL      196
REMARK 921   NORMALIZED FREE ENERGY PREDICTED BY IDOCK:   -4.64 KCAL/MOL
REMARK 922        TOTAL FREE ENERGY PREDICTED BY IDOCK:   -7.08 KCAL/MOL
REMARK 923 INTER-LIGAND FREE ENERGY PREDICTED BY IDOCK:   -7.22 KCAL/MOL
REMARK 924 INTRA-LIGAND FREE ENERGY PREDICTED BY IDOCK:    0.13 KCAL/MOL
REMARK 927      BINDING AFFINITY PREDICTED BY RF-SCORE:    0.00 PKD
ROOT
HETATM    1  C   UNL     1      -8.225  19.709  66.707  1.00  0.00    -0.331 C  
HETATM    2  C   UNL     1      -9.612  19.070  66.580  1.00  0.00    -0.378 C  
HETATM    3  C   UNL     1     -10.168  18.555  67.932  1.00  0.00    -0.384 C  
HETATM    4  C   UNL     1     -10.577  20.060  65.913  1.00  0.00    -0.459 C  
HETATM    5  H1  UNL     1     -10.709  19.321  69.790  1.00  0.00     0.000 HD 
HETATM    6  N   UNL     1     -10.343  19.660  68.901  1.00  0.00    -0.585 NA 
HETATM    7  H2  UNL     1     -10.926  20.404  68.517  1.00  0.00     0.000 HD 
ENDROOT
BRANCH   3   8
HETATM    8  C   UNL     1      -9.282  17.452  68.558  1.00  0.00    -0.277 C  
HETATM    9  O   UNL     1      -8.090  17.570  68.818  1.00  0.00    -0.275 OA 
BRANCH   8  10
HETATM   10  O   UNL     1     -10.018  16.341  68.851  1.00  0.00    -0.225 OA 
BRANCH  10  11
HETATM   11  C   UNL     1     -10.901  15.907  67.796  1.00  0.00    -0.324 C  
BRANCH  11  12
HETATM   12  C   UNL     1     -10.111  15.206  66.690  1.00  0.00    -0.264 C  
BRANCH  12  13
HETATM   13  O   UNL     1     -10.869  14.073  66.256  1.00  0.00    -0.288 OA 
BRANCH  13  14
HETATM   14  C   UNL     1     -12.081  13.924  66.997  1.00  0.00    -0.415 C  
BRANCH  14  15
HETATM   15  N   UNL     1     -11.886  12.950  68.055  1.00  0.00    -0.355 NA 
HETATM   16  C   UNL     1     -12.250  13.131  69.371  1.00  0.00    -0.137 A  
HETATM   17  N   UNL     1     -11.989  12.069  70.110  1.00  0.00    -0.345 NA 
HETATM   18  C   UNL     1     -11.434  11.154  69.238  1.00  0.00    -0.294 A  
HETATM   19  C   UNL     1     -11.358  11.702  67.987  1.00  0.00    -0.296 A  
HETATM   20  N   UNL     1     -10.861  11.036  66.938  1.00  0.00    -0.276 NA 
HETATM   21  C   UNL     1     -10.477   9.741  67.157  1.00  0.00    -0.250 C  
HETATM   22  N   UNL     1     -10.054   9.109  66.032  1.00  0.00    -0.361 NA 
HETATM   23  N   UNL     1     -10.503   9.117  68.298  1.00  0.00    -0.252 N  
HETATM   24  H2  UNL     1     -10.024   9.556  65.115  1.00  0.00     0.000 HD 
HETATM   25  H1  UNL     1      -9.767   8.144  66.195  1.00  0.00     0.000 HD 
HETATM   26  C   UNL     1     -10.966   9.775  69.448  1.00  0.00    -0.212 C  
HETATM   27  H   UNL     1     -10.186   8.149  68.357  1.00  0.00     0.000 HD 
HETATM   28  O   UNL     1     -10.980   9.237  70.550  1.00  0.00    -0.233 OA 
ENDBRANCH  14  15
ENDBRANCH  13  14
ENDBRANCH  12  13
ENDBRANCH  11  12
ENDBRANCH  10  11
ENDBRANCH   8  10
ENDBRANCH   3   8
TORSDOF 7
ENDMDL
MODEL      197
REMARK 921   NORMALIZED FREE ENERGY PREDICTED BY IDOCK:   -4.63 KCAL/MOL
REMARK 922        TOTAL FREE ENERGY PREDICTED BY IDOCK:   -7.07 KCAL/MOL
REMARK 923 INTER-LIGAND FREE ENERGY PREDICTED BY IDOCK:   -6.71 KCAL/MOL
REMARK 924 INTRA-LIGAND FREE ENERGY PREDICTED BY IDOCK:   -0.36 KCAL/MOL
REMARK 927      BINDING AFFINITY PREDICTED BY RF-SCORE:    0.00 PKD
ROOT
HETATM    1  C   UNL     1     -11.035   9.550  71.079  1.00  0.00    -0.424 C  
HETATM    2  C   UNL     1     -10.675   9.193  69.633  1.00  0.00    -0.236 C  
HETATM    3  C   UNL     1     -10.386  10.438  68.756  1.00  0.00    -0.196 C  
HETATM    4  C   UNL     1      -9.498   8.208  69.622  1.00  0.00    -0.159 C  
HETATM    5  H1  UNL     1      -9.032  12.016  68.686  1.00  0.00     0.000 HD 
HETATM    6  N   UNL     1      -9.222  11.198  69.263  1.00  0.00    -0.399 NA 
HETATM    7  H2  UNL     1      -8.397  10.603  69.351  1.00  0.00     0.000 HD 
ENDROOT
BRANCH   3   8
HETATM    8  C   UNL     1     -11.607  11.379  68.637  1.00  0.00    -0.320 C  
HETATM    9  O   UNL     1     -12.779  11.025  68.715  1.00  0.00    -0.155 OA 
BRANCH   8  10
HETATM   10  O   UNL     1     -11.213  12.678  68.498  1.00  0.00    -0.242 OA 
BRANCH  10  11
HETATM   11  C   UNL     1     -11.270  13.184  67.149  1.00  0.00    -0.294 C  
BRANCH  11  12
HETATM   12  C   UNL     1     -11.734  14.642  67.143  1.00  0.00    -0.373 C  
BRANCH  12  13
HETATM   13  O   UNL     1     -10.585  15.473  67.327  1.00  0.00    -0.287 OA 
BRANCH  13  14
HETATM   14  C   UNL     1     -10.836  16.538  68.244  1.00  0.00    -0.352 C  
BRANCH  14  15
HETATM   15  N   UNL     1     -10.156  17.738  67.790  1.00  0.00    -0.327 NA 
HETATM   16  C   UNL     1     -10.741  18.746  67.056  1.00  0.00    -0.367 A  
HETATM   17  N   UNL     1      -9.901  19.735  66.811  1.00  0.00    -0.378 NA 
HETATM   18  C   UNL     1      -8.719  19.357  67.414  1.00  0.00    -0.301 A  
HETATM   19  C   UNL     1      -8.874  18.130  67.997  1.00  0.00    -0.279 A  
HETATM   20  N   UNL     1      -7.885  17.516  68.658  1.00  0.00    -0.272 NA 
HETATM   21  C   UNL     1      -6.707  18.202  68.779  1.00  0.00    -0.245 C  
HETATM   22  N   UNL     1      -5.779  17.547  69.524  1.00  0.00    -0.209 NA 
HETATM   23  N   UNL     1      -6.445  19.369  68.270  1.00  0.00    -0.235 N  
HETATM   24  H2  UNL     1      -5.944  16.635  69.950  1.00  0.00     0.000 HD 
HETATM   25  H1  UNL     1      -4.902  18.058  69.614  1.00  0.00     0.000 HD 
HETATM   26  C   UNL     1      -7.423  20.045  67.522  1.00  0.00    -0.287 C  
HETATM   27  H   UNL     1      -5.528  19.794  68.413  1.00  0.00     0.000 HD 
HETATM   28  O   UNL     1      -7.210  21.133  66.998  1.00  0.00    -0.368 OA 
ENDBRANCH  14  15
ENDBRANCH  13  14
ENDBRANCH  12  13
ENDBRANCH  11  12
ENDBRANCH  10  11
ENDBRANCH   8  10
ENDBRANCH   3   8
TORSDOF 7
ENDMDL
MODEL      198
REMARK 921   NORMALIZED FREE ENERGY PREDICTED BY IDOCK:   -4.62 KCAL/MOL
REMARK 922        TOTAL FREE ENERGY PREDICTED BY IDOCK:   -7.05 KCAL/MOL
REMARK 923 INTER-LIGAND FREE ENERGY PREDICTED BY IDOCK:   -6.56 KCAL/MOL
REMARK 924 INTRA-LIGAND FREE ENERGY PREDICTED BY IDOCK:   -0.49 KCAL/MOL
REMARK 927      BINDING AFFINITY PREDICTED BY RF-SCORE:    0.00 PKD
ROOT
HETATM    1  C   UNL     1     -12.583  11.970  63.221  1.00  0.00    -0.512 C  
HETATM    2  C   UNL     1     -11.203  12.203  63.846  1.00  0.00    -0.485 C  
HETATM    3  C   UNL     1     -11.256  13.089  65.116  1.00  0.00    -0.293 C  
HETATM    4  C   UNL     1     -10.530  10.853  64.126  1.00  0.00    -0.397 C  
HETATM    5  H1  UNL     1     -12.092  13.038  67.021  1.00  0.00     0.000 HD 
HETATM    6  N   UNL     1     -12.058  12.455  66.185  1.00  0.00    -0.641 NA 
HETATM    7  H2  UNL     1     -11.720  11.516  66.398  1.00  0.00     0.000 HD 
ENDROOT
BRANCH   3   8
HETATM    8  C   UNL     1     -11.802  14.508  64.831  1.00  0.00    -0.416 C  
HETATM    9  O   UNL     1     -12.820  14.755  64.193  1.00  0.00    -0.678 OA 
BRANCH   8  10
HETATM   10  O   UNL     1     -11.038  15.459  65.441  1.00  0.00    -0.343 OA 
BRANCH  10  11
HETATM   11  C   UNL     1      -9.674  15.065  65.696  1.00  0.00    -0.309 C  
BRANCH  11  12
HETATM   12  C   UNL     1      -9.214  15.581  67.060  1.00  0.00    -0.225 C  
BRANCH  12  13
HETATM   13  O   UNL     1      -8.790  14.459  67.838  1.00  0.00    -0.165 OA 
BRANCH  13  14
HETATM   14  C   UNL     1      -9.838  13.954  68.666  1.00  0.00    -0.175 C  
BRANCH  14  15
HETATM   15  N   UNL     1      -9.893  12.508  68.551  1.00  0.00    -0.190 NA 
HETATM   16  C   UNL     1     -10.850  11.706  69.133  1.00  0.00    -0.184 A  
HETATM   17  N   UNL     1     -10.680  10.431  68.834  1.00  0.00    -0.209 NA 
HETATM   18  C   UNL     1      -9.567  10.401  68.019  1.00  0.00    -0.143 A  
HETATM   19  C   UNL     1      -9.080  11.669  67.861  1.00  0.00    -0.171 A  
HETATM   20  N   UNL     1      -8.002  11.940  67.116  1.00  0.00    -0.166 NA 
HETATM   21  C   UNL     1      -7.428  10.885  66.459  1.00  0.00    -0.142 C  
HETATM   22  N   UNL     1      -6.387  11.249  65.667  1.00  0.00    -0.361 NA 
HETATM   23  N   UNL     1      -7.802   9.642  66.533  1.00  0.00    -0.107 N  
HETATM   24  H2  UNL     1      -6.064  12.212  65.572  1.00  0.00     0.000 HD 
HETATM   25  H1  UNL     1      -5.959  10.464  65.177  1.00  0.00     0.000 HD 
HETATM   26  C   UNL     1      -8.895   9.284  67.337  1.00  0.00    -0.117 C  
HETATM   27  H   UNL     1      -7.300   8.927  66.006  1.00  0.00     0.000 HD 
HETATM   28  O   UNL     1      -9.264   8.121  67.460  1.00  0.00    -0.135 OA 
ENDBRANCH  14  15
ENDBRANCH  13  14
ENDBRANCH  12  13
ENDBRANCH  11  12
ENDBRANCH  10  11
ENDBRANCH   8  10
ENDBRANCH   3   8
TORSDOF 7
ENDMDL
MODEL      199
REMARK 921   NORMALIZED FREE ENERGY PREDICTED BY IDOCK:   -4.59 KCAL/MOL
REMARK 922        TOTAL FREE ENERGY PREDICTED BY IDOCK:   -7.00 KCAL/MOL
REMARK 923 INTER-LIGAND FREE ENERGY PREDICTED BY IDOCK:   -6.03 KCAL/MOL
REMARK 924 INTRA-LIGAND FREE ENERGY PREDICTED BY IDOCK:   -0.98 KCAL/MOL
REMARK 927      BINDING AFFINITY PREDICTED BY RF-SCORE:    0.00 PKD
ROOT
HETATM    1  C   UNL     1      -8.654   8.616  65.264  1.00  0.00    -0.206 C  
HETATM    2  C   UNL     1      -7.931   7.591  66.143  1.00  0.00    -0.111 C  
HETATM    3  C   UNL     1      -8.803   6.354  66.474  1.00  0.00    -0.136 C  
HETATM    4  C   UNL     1      -6.606   7.188  65.482  1.00  0.00    -0.048 C  
HETATM    5  H1  UNL     1      -9.750   4.798  65.467  1.00  0.00     0.000 HD 
HETATM    6  N   UNL     1      -9.176   5.612  65.249  1.00  0.00    -0.361 NA 
HETATM    7  H2  UNL     1      -8.353   5.354  64.704  1.00  0.00     0.000 HD 
ENDROOT
BRANCH   3   8
HETATM    8  C   UNL     1     -10.080   6.720  67.267  1.00  0.00    -0.182 C  
HETATM    9  O   UNL     1     -11.224   6.639  66.834  1.00  0.00    -0.391 OA 
BRANCH   8  10
HETATM   10  O   UNL     1      -9.774   7.086  68.545  1.00  0.00    -0.139 OA 
BRANCH  10  11
HETATM   11  C   UNL     1      -9.006   6.114  69.283  1.00  0.00    -0.123 C  
BRANCH  11  12
HETATM   12  C   UNL     1      -7.907   6.803  70.094  1.00  0.00    -0.107 C  
BRANCH  12  13
HETATM   13  O   UNL     1      -8.145   8.213  70.051  1.00  0.00    -0.109 OA 
BRANCH  13  14
HETATM   14  C   UNL     1      -8.345   8.762  71.354  1.00  0.00    -0.168 C  
BRANCH  14  15
HETATM   15  N   UNL     1      -9.738   8.616  71.733  1.00  0.00    -0.265 NA 
HETATM   16  C   UNL     1     -10.201   7.796  72.738  1.00  0.00    -0.299 A  
HETATM   17  N   UNL     1     -11.510   7.886  72.891  1.00  0.00    -0.379 NA 
HETATM   18  C   UNL     1     -11.917   8.808  71.948  1.00  0.00    -0.365 A  
HETATM   19  C   UNL     1     -10.835   9.239  71.232  1.00  0.00    -0.347 A  
HETATM   20  N   UNL     1     -10.935  10.140  70.247  1.00  0.00    -0.299 NA 
HETATM   21  C   UNL     1     -12.177  10.666  70.018  1.00  0.00    -0.298 C  
HETATM   22  N   UNL     1     -12.185  11.625  69.057  1.00  0.00    -0.339 NA 
HETATM   23  N   UNL     1     -13.274  10.334  70.633  1.00  0.00    -0.521 N  
HETATM   24  H2  UNL     1     -11.348  11.923  68.555  1.00  0.00     0.000 HD 
HETATM   25  H1  UNL     1     -13.110  12.017  68.886  1.00  0.00     0.000 HD 
HETATM   26  C   UNL     1     -13.246   9.358  71.641  1.00  0.00    -0.397 C  
HETATM   27  H   UNL     1     -14.155  10.783  70.381  1.00  0.00     0.000 HD 
HETATM   28  O   UNL     1     -14.260   8.992  72.226  1.00  0.00    -0.436 OA 
ENDBRANCH  14  15
ENDBRANCH  13  14
ENDBRANCH  12  13
ENDBRANCH  11  12
ENDBRANCH  10  11
ENDBRANCH   8  10
ENDBRANCH   3   8
TORSDOF 7
ENDMDL
MODEL      200
REMARK 921   NORMALIZED FREE ENERGY PREDICTED BY IDOCK:   -4.57 KCAL/MOL
REMARK 922        TOTAL FREE ENERGY PREDICTED BY IDOCK:   -6.99 KCAL/MOL
REMARK 923 INTER-LIGAND FREE ENERGY PREDICTED BY IDOCK:   -6.48 KCAL/MOL
REMARK 924 INTRA-LIGAND FREE ENERGY PREDICTED BY IDOCK:   -0.50 KCAL/MOL
REMARK 927      BINDING AFFINITY PREDICTED BY RF-SCORE:    0.00 PKD
ROOT
HETATM    1  C   UNL     1     -11.840  14.700  67.170  1.00  0.00    -0.367 C  
HETATM    2  C   UNL     1     -11.028  14.168  65.984  1.00  0.00    -0.304 C  
HETATM    3  C   UNL     1     -11.511  12.779  65.494  1.00  0.00    -0.337 C  
HETATM    4  C   UNL     1     -11.034  15.201  64.850  1.00  0.00    -0.434 C  
HETATM    5  H1  UNL     1     -13.225  11.920  64.685  1.00  0.00     0.000 HD 
HETATM    6  N   UNL     1     -12.908  12.833  65.008  1.00  0.00    -0.821 NA 
HETATM    7  H2  UNL     1     -13.025  13.545  64.287  1.00  0.00     0.000 HD 
ENDROOT
BRANCH   3   8
HETATM    8  C   UNL     1     -11.382  11.686  66.581  1.00  0.00    -0.270 C  
HETATM    9  O   UNL     1     -12.122  11.568  67.551  1.00  0.00    -0.614 OA 
BRANCH   8  10
HETATM   10  O   UNL     1     -10.371  10.819  66.286  1.00  0.00    -0.241 OA 
BRANCH  10  11
HETATM   11  C   UNL     1      -9.074  11.216  66.774  1.00  0.00    -0.166 C  
BRANCH  11  12
HETATM   12  C   UNL     1      -8.070  10.073  66.619  1.00  0.00    -0.118 C  
BRANCH  12  13
HETATM   13  O   UNL     1      -8.386   9.072  67.591  1.00  0.00    -0.115 OA 
BRANCH  13  14
HETATM   14  C   UNL     1      -8.294   9.573  68.925  1.00  0.00    -0.121 C  
BRANCH  14  15
HETATM   15  N   UNL     1      -9.504   9.236  69.653  1.00  0.00    -0.170 NA 
HETATM   16  C   UNL     1     -10.484  10.134  70.013  1.00  0.00    -0.274 A  
HETATM   17  N   UNL     1     -11.491   9.550  70.636  1.00  0.00    -0.281 NA 
HETATM   18  C   UNL     1     -11.155   8.212  70.680  1.00  0.00    -0.254 A  
HETATM   19  C   UNL     1      -9.934   8.026  70.094  1.00  0.00    -0.191 A  
HETATM   20  N   UNL     1      -9.357   6.823  69.994  1.00  0.00    -0.158 NA 
HETATM   21  C   UNL     1     -10.076   5.756  70.459  1.00  0.00    -0.208 C  
HETATM   22  N   UNL     1      -9.460   4.563  70.256  1.00  0.00    -0.152 NA 
HETATM   23  N   UNL     1     -11.242   5.810  71.033  1.00  0.00    -0.204 N  
HETATM   24  H2  UNL     1      -8.550   4.472  69.803  1.00  0.00     0.000 HD 
HETATM   25  H1  UNL     1      -9.995   3.768  70.603  1.00  0.00     0.000 HD 
HETATM   26  C   UNL     1     -11.879   7.048  71.215  1.00  0.00    -0.330 C  
HETATM   27  H   UNL     1     -11.693   4.952  71.353  1.00  0.00     0.000 HD 
HETATM   28  O   UNL     1     -12.963   7.150  71.778  1.00  0.00    -0.352 OA 
ENDBRANCH  14  15
ENDBRANCH  13  14
ENDBRANCH  12  13
ENDBRANCH  11  12
ENDBRANCH  10  11
ENDBRANCH   8  10
ENDBRANCH   3   8
TORSDOF 7
ENDMDL
MODEL      201
REMARK 921   NORMALIZED FREE ENERGY PREDICTED BY IDOCK:   -4.57 KCAL/MOL
REMARK 922        TOTAL FREE ENERGY PREDICTED BY IDOCK:   -6.98 KCAL/MOL
REMARK 923 INTER-LIGAND FREE ENERGY PREDICTED BY IDOCK:   -7.06 KCAL/MOL
REMARK 924 INTRA-LIGAND FREE ENERGY PREDICTED BY IDOCK:    0.08 KCAL/MOL
REMARK 927      BINDING AFFINITY PREDICTED BY RF-SCORE:    0.00 PKD
ROOT
HETATM    1  C   UNL     1     -10.963  10.736  67.419  1.00  0.00    -0.361 C  
HETATM    2  C   UNL     1     -11.434  12.194  67.385  1.00  0.00    -0.415 C  
HETATM    3  C   UNL     1     -11.191  12.941  68.720  1.00  0.00    -0.279 C  
HETATM    4  C   UNL     1     -10.776  12.919  66.203  1.00  0.00    -0.290 C  
HETATM    5  H1  UNL     1      -9.589  13.504  69.924  1.00  0.00     0.000 HD 
HETATM    6  N   UNL     1      -9.749  13.012  69.045  1.00  0.00    -0.369 NA 
HETATM    7  H2  UNL     1      -9.214  13.428  68.282  1.00  0.00     0.000 HD 
ENDROOT
BRANCH   3   8
HETATM    8  C   UNL     1     -11.959  12.308  69.904  1.00  0.00    -0.306 C  
HETATM    9  O   UNL     1     -12.477  12.935  70.822  1.00  0.00    -0.349 OA 
BRANCH   8  10
HETATM   10  O   UNL     1     -12.045  10.954  69.765  1.00  0.00    -0.309 OA 
BRANCH  10  11
HETATM   11  C   UNL     1     -11.934  10.212  70.996  1.00  0.00    -0.378 C  
BRANCH  11  12
HETATM   12  C   UNL     1     -13.289   9.622  71.391  1.00  0.00    -0.368 C  
BRANCH  12  13
HETATM   13  O   UNL     1     -13.052   8.532  72.286  1.00  0.00    -0.350 OA 
BRANCH  13  14
HETATM   14  C   UNL     1     -13.310   7.269  71.673  1.00  0.00    -0.358 C  
BRANCH  14  15
HETATM   15  N   UNL     1     -12.058   6.560  71.478  1.00  0.00    -0.339 NA 
HETATM   16  C   UNL     1     -11.329   5.957  72.479  1.00  0.00    -0.304 A  
HETATM   17  N   UNL     1     -10.250   5.354  72.015  1.00  0.00    -0.197 NA 
HETATM   18  C   UNL     1     -10.279   5.570  70.652  1.00  0.00    -0.240 A  
HETATM   19  C   UNL     1     -11.376   6.320  70.330  1.00  0.00    -0.372 A  
HETATM   20  N   UNL     1     -11.659   6.682  69.073  1.00  0.00    -0.074 NA 
HETATM   21  C   UNL     1     -10.823   6.214  68.096  1.00  0.00    -0.306 C  
HETATM   22  N   UNL     1     -11.215   6.560  66.843  1.00  0.00    -0.776 NA 
HETATM   23  N   UNL     1      -9.754   5.496  68.281  1.00  0.00    -0.126 N  
HETATM   24  H2  UNL     1     -12.049   7.114  66.649  1.00  0.00     0.000 HD 
HETATM   25  H1  UNL     1     -10.592   6.211  66.115  1.00  0.00     0.000 HD 
HETATM   26  C   UNL     1      -9.374   5.125  69.581  1.00  0.00    -0.129 C  
HETATM   27  H   UNL     1      -9.192   5.202  67.482  1.00  0.00     0.000 HD 
HETATM   28  O   UNL     1      -8.359   4.475  69.806  1.00  0.00    -0.063 OA 
ENDBRANCH  14  15
ENDBRANCH  13  14
ENDBRANCH  12  13
ENDBRANCH  11  12
ENDBRANCH  10  11
ENDBRANCH   8  10
ENDBRANCH   3   8
TORSDOF 7
ENDMDL
MODEL      202
REMARK 921   NORMALIZED FREE ENERGY PREDICTED BY IDOCK:   -4.57 KCAL/MOL
REMARK 922        TOTAL FREE ENERGY PREDICTED BY IDOCK:   -6.98 KCAL/MOL
REMARK 923 INTER-LIGAND FREE ENERGY PREDICTED BY IDOCK:   -6.12 KCAL/MOL
REMARK 924 INTRA-LIGAND FREE ENERGY PREDICTED BY IDOCK:   -0.86 KCAL/MOL
REMARK 927      BINDING AFFINITY PREDICTED BY RF-SCORE:    0.00 PKD
ROOT
HETATM    1  C   UNL     1      -9.921  15.656  69.586  1.00  0.00    -0.290 C  
HETATM    2  C   UNL     1      -9.090  15.147  68.403  1.00  0.00    -0.185 C  
HETATM    3  C   UNL     1      -9.869  15.165  67.064  1.00  0.00    -0.230 C  
HETATM    4  C   UNL     1      -7.783  15.946  68.309  1.00  0.00    -0.137 C  
HETATM    5  H1  UNL     1     -10.777  16.553  65.806  1.00  0.00     0.000 HD 
HETATM    6  N   UNL     1     -10.265  16.541  66.688  1.00  0.00    -0.292 NA 
HETATM    7  H2  UNL     1      -9.460  17.167  66.661  1.00  0.00     0.000 HD 
ENDROOT
BRANCH   3   8
HETATM    8  C   UNL     1     -11.118  14.254  67.088  1.00  0.00    -0.311 C  
HETATM    9  O   UNL     1     -12.270  14.634  66.910  1.00  0.00    -0.311 OA 
BRANCH   8  10
HETATM   10  O   UNL     1     -10.768  12.948  67.269  1.00  0.00    -0.242 OA 
BRANCH  10  11
HETATM   11  C   UNL     1     -11.298  12.039  66.282  1.00  0.00    -0.357 C  
BRANCH  11  12
HETATM   12  C   UNL     1     -10.170  11.457  65.428  1.00  0.00    -0.270 C  
BRANCH  12  13
HETATM   13  O   UNL     1      -8.933  11.705  66.102  1.00  0.00    -0.209 OA 
BRANCH  13  14
HETATM   14  C   UNL     1      -8.256  10.494  66.441  1.00  0.00    -0.140 C  
BRANCH  14  15
HETATM   15  N   UNL     1      -8.814   9.955  67.668  1.00  0.00    -0.125 NA 
HETATM   16  C   UNL     1      -8.687  10.532  68.912  1.00  0.00    -0.154 A  
HETATM   17  N   UNL     1      -9.324   9.849  69.846  1.00  0.00    -0.227 NA 
HETATM   18  C   UNL     1      -9.894   8.782  69.180  1.00  0.00    -0.181 A  
HETATM   19  C   UNL     1      -9.567   8.842  67.854  1.00  0.00    -0.145 A  
HETATM   20  N   UNL     1      -9.985   7.932  66.967  1.00  0.00    -0.225 NA 
HETATM   21  C   UNL     1     -10.817   6.952  67.436  1.00  0.00    -0.326 C  
HETATM   22  N   UNL     1     -11.258   6.111  66.465  1.00  0.00    -0.744 NA 
HETATM   23  N   UNL     1     -11.194   6.795  68.671  1.00  0.00    -0.540 N  
HETATM   24  H2  UNL     1     -10.996   6.201  65.484  1.00  0.00     0.000 HD 
HETATM   25  H1  UNL     1     -11.878   5.381  66.815  1.00  0.00     0.000 HD 
HETATM   26  C   UNL     1     -10.750   7.686  69.660  1.00  0.00    -0.228 C  
HETATM   27  H   UNL     1     -11.814   6.023  68.920  1.00  0.00     0.000 HD 
HETATM   28  O   UNL     1     -11.055   7.559  70.841  1.00  0.00    -0.252 OA 
ENDBRANCH  14  15
ENDBRANCH  13  14
ENDBRANCH  12  13
ENDBRANCH  11  12
ENDBRANCH  10  11
ENDBRANCH   8  10
ENDBRANCH   3   8
TORSDOF 7
ENDMDL
MODEL      203
REMARK 921   NORMALIZED FREE ENERGY PREDICTED BY IDOCK:   -4.56 KCAL/MOL
REMARK 922        TOTAL FREE ENERGY PREDICTED BY IDOCK:   -6.96 KCAL/MOL
REMARK 923 INTER-LIGAND FREE ENERGY PREDICTED BY IDOCK:   -6.64 KCAL/MOL
REMARK 924 INTRA-LIGAND FREE ENERGY PREDICTED BY IDOCK:   -0.32 KCAL/MOL
REMARK 927      BINDING AFFINITY PREDICTED BY RF-SCORE:    0.00 PKD
ROOT
HETATM    1  C   UNL     1     -10.782   8.553  67.556  1.00  0.00    -0.211 C  
HETATM    2  C   UNL     1     -10.095   7.346  68.204  1.00  0.00    -0.210 C  
HETATM    3  C   UNL     1     -10.168   7.366  69.752  1.00  0.00    -0.209 C  
HETATM    4  C   UNL     1     -10.680   6.049  67.628  1.00  0.00    -0.377 C  
HETATM    5  H1  UNL     1     -11.616   7.324  71.246  1.00  0.00     0.000 HD 
HETATM    6  N   UNL     1     -11.568   7.311  70.228  1.00  0.00    -0.482 NA 
HETATM    7  H2  UNL     1     -12.063   6.507  69.841  1.00  0.00     0.000 HD 
ENDROOT
BRANCH   3   8
HETATM    8  C   UNL     1      -9.460   8.597  70.365  1.00  0.00    -0.170 C  
HETATM    9  O   UNL     1      -9.926   9.310  71.246  1.00  0.00    -0.296 OA 
BRANCH   8  10
HETATM   10  O   UNL     1      -8.209   8.752  69.844  1.00  0.00    -0.109 OA 
BRANCH  10  11
HETATM   11  C   UNL     1      -7.809  10.121  69.632  1.00  0.00    -0.175 C  
BRANCH  11  12
HETATM   12  C   UNL     1      -8.795  10.829  68.701  1.00  0.00    -0.152 C  
BRANCH  12  13
HETATM   13  O   UNL     1      -8.101  11.168  67.497  1.00  0.00    -0.114 OA 
BRANCH  13  14
HETATM   14  C   UNL     1      -7.930  12.578  67.356  1.00  0.00    -0.180 C  
BRANCH  14  15
HETATM   15  N   UNL     1      -9.193  13.184  66.975  1.00  0.00    -0.226 NA 
HETATM   16  C   UNL     1      -9.872  14.124  67.718  1.00  0.00    -0.231 A  
HETATM   17  N   UNL     1     -10.976  14.530  67.118  1.00  0.00    -0.296 NA 
HETATM   18  C   UNL     1     -11.017  13.827  65.931  1.00  0.00    -0.283 A  
HETATM   19  C   UNL     1      -9.935  12.994  65.855  1.00  0.00    -0.267 A  
HETATM   20  N   UNL     1      -9.716  12.190  64.808  1.00  0.00    -0.119 NA 
HETATM   21  C   UNL     1     -10.603  12.277  63.769  1.00  0.00    -0.451 C  
HETATM   22  N   UNL     1     -10.274  11.488  62.715  1.00  0.00    -0.621 NA 
HETATM   23  N   UNL     1     -11.663  13.029  63.729  1.00  0.00    -0.491 N  
HETATM   24  H2  UNL     1      -9.448  10.889  62.698  1.00  0.00     0.000 HD 
HETATM   25  H1  UNL     1     -10.935  11.553  61.941  1.00  0.00     0.000 HD 
HETATM   26  C   UNL     1     -11.978  13.858  64.817  1.00  0.00    -0.406 C  
HETATM   27  H   UNL     1     -12.267  13.016  62.907  1.00  0.00     0.000 HD 
HETATM   28  O   UNL     1     -12.982  14.561  64.836  1.00  0.00    -0.569 OA 
ENDBRANCH  14  15
ENDBRANCH  13  14
ENDBRANCH  12  13
ENDBRANCH  11  12
ENDBRANCH  10  11
ENDBRANCH   8  10
ENDBRANCH   3   8
TORSDOF 7
ENDMDL
MODEL      204
REMARK 921   NORMALIZED FREE ENERGY PREDICTED BY IDOCK:   -4.54 KCAL/MOL
REMARK 922        TOTAL FREE ENERGY PREDICTED BY IDOCK:   -6.94 KCAL/MOL
REMARK 923 INTER-LIGAND FREE ENERGY PREDICTED BY IDOCK:   -6.31 KCAL/MOL
REMARK 924 INTRA-LIGAND FREE ENERGY PREDICTED BY IDOCK:   -0.63 KCAL/MOL
REMARK 927      BINDING AFFINITY PREDICTED BY RF-SCORE:    0.00 PKD
ROOT
HETATM    1  C   UNL     1     -10.386  12.710  65.309  1.00  0.00    -0.309 C  
HETATM    2  C   UNL     1     -11.855  13.007  65.632  1.00  0.00    -0.445 C  
HETATM    3  C   UNL     1     -12.057  13.585  67.055  1.00  0.00    -0.354 C  
HETATM    4  C   UNL     1     -12.443  13.930  64.557  1.00  0.00    -0.336 C  
HETATM    5  H1  UNL     1     -11.495  15.262  68.151  1.00  0.00     0.000 HD 
HETATM    6  N   UNL     1     -11.361  14.882  67.215  1.00  0.00    -0.346 NA 
HETATM    7  H2  UNL     1     -11.644  15.549  66.497  1.00  0.00     0.000 HD 
ENDROOT
BRANCH   3   8
HETATM    8  C   UNL     1     -11.599  12.611  68.165  1.00  0.00    -0.338 C  
HETATM    9  O   UNL     1     -10.807  12.885  69.059  1.00  0.00    -0.223 OA 
BRANCH   8  10
HETATM   10  O   UNL     1     -12.246  11.414  68.063  1.00  0.00    -0.607 OA 
BRANCH  10  11
HETATM   11  C   UNL     1     -11.536  10.294  68.630  1.00  0.00    -0.112 C  
BRANCH  11  12
HETATM   12  C   UNL     1     -10.743   9.559  67.548  1.00  0.00    -0.245 C  
BRANCH  12  13
HETATM   13  O   UNL     1      -9.619   8.932  68.173  1.00  0.00    -0.142 OA 
BRANCH  13  14
HETATM   14  C   UNL     1     -10.014   7.875  69.049  1.00  0.00    -0.187 C  
BRANCH  14  15
HETATM   15  N   UNL     1      -9.279   6.669  68.713  1.00  0.00    -0.130 NA 
HETATM   16  C   UNL     1      -8.171   6.207  69.389  1.00  0.00    -0.113 A  
HETATM   17  N   UNL     1      -7.725   5.067  68.892  1.00  0.00    -0.076 NA 
HETATM   18  C   UNL     1      -8.581   4.772  67.851  1.00  0.00    -0.103 A  
HETATM   19  C   UNL     1      -9.519   5.760  67.735  1.00  0.00    -0.112 A  
HETATM   20  N   UNL     1     -10.482   5.734  66.806  1.00  0.00    -0.262 NA 
HETATM   21  C   UNL     1     -10.528   4.631  65.998  1.00  0.00    -0.264 C  
HETATM   22  N   UNL     1     -11.573   4.643  65.132  1.00  0.00    -1.055 NA 
HETATM   23  N   UNL     1      -9.693   3.634  66.016  1.00  0.00    -0.371 N  
HETATM   24  H2  UNL     1     -12.257   5.399  65.088  1.00  0.00     0.000 HD 
HETATM   25  H1  UNL     1     -11.608   3.821  64.529  1.00  0.00     0.000 HD 
HETATM   26  C   UNL     1      -8.631   3.624  66.933  1.00  0.00    -0.110 C  
HETATM   27  H   UNL     1      -9.811   2.858  65.363  1.00  0.00     0.000 HD 
HETATM   28  O   UNL     1      -7.803   2.720  66.966  1.00  0.00    -0.073 OA 
ENDBRANCH  14  15
ENDBRANCH  13  14
ENDBRANCH  12  13
ENDBRANCH  11  12
ENDBRANCH  10  11
ENDBRANCH   8  10
ENDBRANCH   3   8
TORSDOF 7
ENDMDL
MODEL      205
REMARK 921   NORMALIZED FREE ENERGY PREDICTED BY IDOCK:   -4.54 KCAL/MOL
REMARK 922        TOTAL FREE ENERGY PREDICTED BY IDOCK:   -6.94 KCAL/MOL
REMARK 923 INTER-LIGAND FREE ENERGY PREDICTED BY IDOCK:   -6.91 KCAL/MOL
REMARK 924 INTRA-LIGAND FREE ENERGY PREDICTED BY IDOCK:   -0.03 KCAL/MOL
REMARK 927      BINDING AFFINITY PREDICTED BY RF-SCORE:    0.00 PKD
ROOT
HETATM    1  C   UNL     1     -12.281  14.060  66.558  1.00  0.00    -0.485 C  
HETATM    2  C   UNL     1     -11.111  13.979  65.571  1.00  0.00    -0.309 C  
HETATM    3  C   UNL     1     -11.567  13.732  64.111  1.00  0.00    -0.331 C  
HETATM    4  C   UNL     1     -10.249  15.242  65.688  1.00  0.00    -0.398 C  
HETATM    5  H1  UNL     1     -12.710  14.679  62.652  1.00  0.00     0.000 HD 
HETATM    6  N   UNL     1     -12.411  14.841  63.613  1.00  0.00    -1.067 NA 
HETATM    7  H2  UNL     1     -11.940  15.741  63.711  1.00  0.00     0.000 HD 
ENDROOT
BRANCH   3   8
HETATM    8  C   UNL     1     -12.320  12.392  63.940  1.00  0.00    -0.508 C  
HETATM    9  O   UNL     1     -13.459  12.169  64.334  1.00  0.00    -0.675 OA 
BRANCH   8  10
HETATM   10  O   UNL     1     -11.574  11.499  63.228  1.00  0.00    -0.298 OA 
BRANCH  10  11
HETATM   11  C   UNL     1     -10.151  11.594  63.443  1.00  0.00    -0.440 C  
BRANCH  11  12
HETATM   12  C   UNL     1      -9.519  10.201  63.474  1.00  0.00    -0.260 C  
BRANCH  12  13
HETATM   13  O   UNL     1      -8.195  10.328  63.999  1.00  0.00    -0.159 OA 
BRANCH  13  14
HETATM   14  C   UNL     1      -8.193  10.445  65.422  1.00  0.00    -0.159 C  
BRANCH  14  15
HETATM   15  N   UNL     1      -8.929   9.336  66.001  1.00  0.00    -0.164 NA 
HETATM   16  C   UNL     1     -10.082   9.458  66.745  1.00  0.00    -0.256 A  
HETATM   17  N   UNL     1     -10.561   8.285  67.116  1.00  0.00    -0.313 NA 
HETATM   18  C   UNL     1      -9.685   7.358  66.589  1.00  0.00    -0.194 A  
HETATM   19  C   UNL     1      -8.681   8.005  65.922  1.00  0.00    -0.157 A  
HETATM   20  N   UNL     1      -7.687   7.353  65.307  1.00  0.00    -0.105 NA 
HETATM   21  C   UNL     1      -7.746   5.986  65.322  1.00  0.00    -0.093 C  
HETATM   22  N   UNL     1      -6.747   5.397  64.617  1.00  0.00    -0.046 NA 
HETATM   23  N   UNL     1      -8.648   5.265  65.921  1.00  0.00    -0.123 N  
HETATM   24  H2  UNL     1      -6.023   5.922  64.125  1.00  0.00     0.000 HD 
HETATM   25  H1  UNL     1      -6.791   4.379  64.628  1.00  0.00     0.000 HD 
HETATM   26  C   UNL     1      -9.690   5.888  66.627  1.00  0.00    -0.157 C  
HETATM   27  H   UNL     1      -8.598   4.247  65.878  1.00  0.00     0.000 HD 
HETATM   28  O   UNL     1     -10.545   5.249  67.231  1.00  0.00    -0.209 OA 
ENDBRANCH  14  15
ENDBRANCH  13  14
ENDBRANCH  12  13
ENDBRANCH  11  12
ENDBRANCH  10  11
ENDBRANCH   8  10
ENDBRANCH   3   8
TORSDOF 7
ENDMDL
MODEL      206
REMARK 921   NORMALIZED FREE ENERGY PREDICTED BY IDOCK:   -4.53 KCAL/MOL
REMARK 922        TOTAL FREE ENERGY PREDICTED BY IDOCK:   -6.93 KCAL/MOL
REMARK 923 INTER-LIGAND FREE ENERGY PREDICTED BY IDOCK:   -6.24 KCAL/MOL
REMARK 924 INTRA-LIGAND FREE ENERGY PREDICTED BY IDOCK:   -0.69 KCAL/MOL
REMARK 927      BINDING AFFINITY PREDICTED BY RF-SCORE:    0.00 PKD
ROOT
HETATM    1  C   UNL     1      -8.587   6.701  69.258  1.00  0.00    -0.131 C  
HETATM    2  C   UNL     1      -7.403   6.883  70.214  1.00  0.00    -0.084 C  
HETATM    3  C   UNL     1      -7.750   7.754  71.448  1.00  0.00    -0.082 C  
HETATM    4  C   UNL     1      -6.857   5.510  70.626  1.00  0.00    -0.052 C  
HETATM    5  H1  UNL     1      -9.039   7.702  73.081  1.00  0.00     0.000 HD 
HETATM    6  N   UNL     1      -8.811   7.130  72.269  1.00  0.00    -0.128 NA 
HETATM    7  H2  UNL     1      -8.562   6.178  72.541  1.00  0.00     0.000 HD 
ENDROOT
BRANCH   3   8
HETATM    8  C   UNL     1      -8.170   9.192  71.064  1.00  0.00    -0.137 C  
HETATM    9  O   UNL     1      -7.437  10.023  70.541  1.00  0.00    -0.269 OA 
BRANCH   8  10
HETATM   10  O   UNL     1      -9.493   9.401  71.322  1.00  0.00    -0.224 OA 
BRANCH  10  11
HETATM   11  C   UNL     1     -10.280   9.777  70.174  1.00  0.00    -0.275 C  
BRANCH  11  12
HETATM   12  C   UNL     1     -11.513  10.573  70.605  1.00  0.00    -0.327 C  
BRANCH  12  13
HETATM   13  O   UNL     1     -11.472  11.842  69.947  1.00  0.00    -0.272 OA 
BRANCH  13  14
HETATM   14  C   UNL     1     -10.525  11.861  68.879  1.00  0.00    -0.136 C  
BRANCH  14  15
HETATM   15  N   UNL     1     -11.157  12.383  67.681  1.00  0.00    -0.245 NA 
HETATM   16  C   UNL     1     -12.043  13.437  67.652  1.00  0.00    -0.269 A  
HETATM   17  N   UNL     1     -12.435  13.725  66.424  1.00  0.00    -0.401 NA 
HETATM   18  C   UNL     1     -11.773  12.822  65.617  1.00  0.00    -0.399 A  
HETATM   19  C   UNL     1     -11.006  11.994  66.390  1.00  0.00    -0.296 A  
HETATM   20  N   UNL     1     -10.252  11.018  65.871  1.00  0.00    -0.247 NA 
HETATM   21  C   UNL     1     -10.232  10.915  64.506  1.00  0.00    -0.356 C  
HETATM   22  N   UNL     1      -9.389   9.952  64.053  1.00  0.00    -0.352 NA 
HETATM   23  N   UNL     1     -10.917  11.643  63.674  1.00  0.00    -0.421 N  
HETATM   24  H2  UNL     1      -8.826   9.364  64.667  1.00  0.00     0.000 HD 
HETATM   25  H1  UNL     1      -9.374   9.876  63.036  1.00  0.00     0.000 HD 
HETATM   26  C   UNL     1     -11.766  12.651  64.156  1.00  0.00    -0.400 C  
HETATM   27  H   UNL     1     -10.836  11.480  62.669  1.00  0.00     0.000 HD 
HETATM   28  O   UNL     1     -12.453  13.341  63.411  1.00  0.00    -0.741 OA 
ENDBRANCH  14  15
ENDBRANCH  13  14
ENDBRANCH  12  13
ENDBRANCH  11  12
ENDBRANCH  10  11
ENDBRANCH   8  10
ENDBRANCH   3   8
TORSDOF 7
ENDMDL
MODEL      207
REMARK 921   NORMALIZED FREE ENERGY PREDICTED BY IDOCK:   -4.53 KCAL/MOL
REMARK 922        TOTAL FREE ENERGY PREDICTED BY IDOCK:   -6.93 KCAL/MOL
REMARK 923 INTER-LIGAND FREE ENERGY PREDICTED BY IDOCK:   -6.48 KCAL/MOL
REMARK 924 INTRA-LIGAND FREE ENERGY PREDICTED BY IDOCK:   -0.45 KCAL/MOL
REMARK 927      BINDING AFFINITY PREDICTED BY RF-SCORE:    0.00 PKD
ROOT
HETATM    1  C   UNL     1      -9.829  15.872  68.544  1.00  0.00    -0.210 C  
HETATM    2  C   UNL     1     -10.021  14.375  68.809  1.00  0.00    -0.223 C  
HETATM    3  C   UNL     1     -11.510  13.972  68.957  1.00  0.00    -0.296 C  
HETATM    4  C   UNL     1      -9.322  13.563  67.710  1.00  0.00    -0.213 C  
HETATM    5  H1  UNL     1     -13.248  13.976  67.812  1.00  0.00     0.000 HD 
HETATM    6  N   UNL     1     -12.269  14.241  67.715  1.00  0.00    -0.598 NA 
HETATM    7  H2  UNL     1     -11.838  13.789  66.908  1.00  0.00     0.000 HD 
ENDROOT
BRANCH   3   8
HETATM    8  C   UNL     1     -12.202  14.674  70.149  1.00  0.00    -0.335 C  
HETATM    9  O   UNL     1     -12.656  15.812  70.128  1.00  0.00    -0.347 OA 
BRANCH   8  10
HETATM   10  O   UNL     1     -12.304  13.835  71.219  1.00  0.00    -0.353 OA 
BRANCH  10  11
HETATM   11  C   UNL     1     -12.391  12.435  70.882  1.00  0.00    -0.262 C  
BRANCH  11  12
HETATM   12  C   UNL     1     -13.390  11.725  71.797  1.00  0.00    -0.240 C  
BRANCH  12  13
HETATM   13  O   UNL     1     -12.814  10.478  72.197  1.00  0.00    -0.386 OA 
BRANCH  13  14
HETATM   14  C   UNL     1     -12.028   9.894  71.159  1.00  0.00    -0.384 C  
BRANCH  14  15
HETATM   15  N   UNL     1     -11.585   8.574  71.570  1.00  0.00    -0.275 NA 
HETATM   16  C   UNL     1     -12.372   7.443  71.571  1.00  0.00    -0.353 A  
HETATM   17  N   UNL     1     -11.703   6.373  71.959  1.00  0.00    -0.318 NA 
HETATM   18  C   UNL     1     -10.425   6.824  72.219  1.00  0.00    -0.208 A  
HETATM   19  C   UNL     1     -10.361   8.172  71.996  1.00  0.00    -0.254 A  
HETATM   20  N   UNL     1      -9.238   8.878  72.167  1.00  0.00    -0.372 NA 
HETATM   21  C   UNL     1      -8.119   8.177  72.526  1.00  0.00    -0.150 C  
HETATM   22  N   UNL     1      -7.005   8.949  72.608  1.00  0.00    -0.325 NA 
HETATM   23  N   UNL     1      -8.059   6.900  72.764  1.00  0.00    -0.108 N  
HETATM   24  H2  UNL     1      -7.002   9.952  72.421  1.00  0.00     0.000 HD 
HETATM   25  H1  UNL     1      -6.171   8.427  72.875  1.00  0.00     0.000 HD 
HETATM   26  C   UNL     1      -9.214   6.110  72.652  1.00  0.00    -0.140 C  
HETATM   27  H   UNL     1      -7.173   6.472  73.034  1.00  0.00     0.000 HD 
HETATM   28  O   UNL     1      -9.212   4.908  72.896  1.00  0.00    -0.130 OA 
ENDBRANCH  14  15
ENDBRANCH  13  14
ENDBRANCH  12  13
ENDBRANCH  11  12
ENDBRANCH  10  11
ENDBRANCH   8  10
ENDBRANCH   3   8
TORSDOF 7
ENDMDL
MODEL      208
REMARK 921   NORMALIZED FREE ENERGY PREDICTED BY IDOCK:   -4.52 KCAL/MOL
REMARK 922        TOTAL FREE ENERGY PREDICTED BY IDOCK:   -6.91 KCAL/MOL
REMARK 923 INTER-LIGAND FREE ENERGY PREDICTED BY IDOCK:   -7.42 KCAL/MOL
REMARK 924 INTRA-LIGAND FREE ENERGY PREDICTED BY IDOCK:    0.51 KCAL/MOL
REMARK 927      BINDING AFFINITY PREDICTED BY RF-SCORE:    0.00 PKD
ROOT
HETATM    1  C   UNL     1      -8.054  18.331  66.475  1.00  0.00    -0.293 C  
HETATM    2  C   UNL     1      -9.442  18.975  66.562  1.00  0.00    -0.375 C  
HETATM    3  C   UNL     1     -10.537  17.992  67.044  1.00  0.00    -0.308 C  
HETATM    4  C   UNL     1      -9.375  20.226  67.448  1.00  0.00    -0.531 C  
HETATM    5  H1  UNL     1     -10.979  16.853  68.729  1.00  0.00     0.000 HD 
HETATM    6  N   UNL     1     -10.259  17.500  68.412  1.00  0.00    -0.350 NA 
HETATM    7  H2  UNL     1     -10.134  18.271  69.068  1.00  0.00     0.000 HD 
ENDROOT
BRANCH   3   8
HETATM    8  C   UNL     1     -10.721  16.790  66.088  1.00  0.00    -0.116 C  
HETATM    9  O   UNL     1     -10.799  16.867  64.867  1.00  0.00    -0.715 OA 
BRANCH   8  10
HETATM   10  O   UNL     1     -10.720  15.612  66.777  1.00  0.00    -0.308 OA 
BRANCH  10  11
HETATM   11  C   UNL     1     -11.614  14.608  66.256  1.00  0.00    -0.342 C  
BRANCH  11  12
HETATM   12  C   UNL     1     -11.508  14.535  64.731  1.00  0.00    -0.408 C  
BRANCH  12  13
HETATM   13  O   UNL     1     -11.267  13.172  64.370  1.00  0.00    -0.339 OA 
BRANCH  13  14
HETATM   14  C   UNL     1      -9.888  12.823  64.489  1.00  0.00    -0.026 C  
BRANCH  14  15
HETATM   15  N   UNL     1      -9.771  11.415  64.823  1.00  0.00    -0.246 NA 
HETATM   16  C   UNL     1      -9.046  10.491  64.105  1.00  0.00    -0.231 A  
HETATM   17  N   UNL     1      -9.084   9.291  64.655  1.00  0.00    -0.178 NA 
HETATM   18  C   UNL     1      -9.865   9.440  65.783  1.00  0.00    -0.275 A  
HETATM   19  C   UNL     1     -10.296  10.735  65.874  1.00  0.00    -0.238 A  
HETATM   20  N   UNL     1     -11.072  11.168  66.874  1.00  0.00    -0.280 NA 
HETATM   21  C   UNL     1     -11.377  10.261  67.853  1.00  0.00    -0.105 C  
HETATM   22  N   UNL     1     -12.105  10.792  68.868  1.00  0.00    -0.749 NA 
HETATM   23  N   UNL     1     -11.026   9.009  67.873  1.00  0.00    -0.497 N  
HETATM   24  H2  UNL     1     -12.396  11.770  68.899  1.00  0.00     0.000 HD 
HETATM   25  H1  UNL     1     -12.333  10.117  69.598  1.00  0.00     0.000 HD 
HETATM   26  C   UNL     1     -10.253   8.480  66.828  1.00  0.00    -0.300 C  
HETATM   27  H   UNL     1     -11.312   8.412  68.649  1.00  0.00     0.000 HD 
HETATM   28  O   UNL     1      -9.924   7.299  66.789  1.00  0.00    -0.209 OA 
ENDBRANCH  14  15
ENDBRANCH  13  14
ENDBRANCH  12  13
ENDBRANCH  11  12
ENDBRANCH  10  11
ENDBRANCH   8  10
ENDBRANCH   3   8
TORSDOF 7
ENDMDL
MODEL      209
REMARK 921   NORMALIZED FREE ENERGY PREDICTED BY IDOCK:   -4.52 KCAL/MOL
REMARK 922        TOTAL FREE ENERGY PREDICTED BY IDOCK:   -6.91 KCAL/MOL
REMARK 923 INTER-LIGAND FREE ENERGY PREDICTED BY IDOCK:   -5.79 KCAL/MOL
REMARK 924 INTRA-LIGAND FREE ENERGY PREDICTED BY IDOCK:   -1.12 KCAL/MOL
REMARK 927      BINDING AFFINITY PREDICTED BY RF-SCORE:    0.00 PKD
ROOT
HETATM    1  C   UNL     1     -11.221  14.797  67.278  1.00  0.00    -0.351 C  
HETATM    2  C   UNL     1     -10.517  13.939  66.222  1.00  0.00    -0.287 C  
HETATM    3  C   UNL     1     -11.213  12.574  65.989  1.00  0.00    -0.315 C  
HETATM    4  C   UNL     1     -10.383  14.735  64.917  1.00  0.00    -0.365 C  
HETATM    5  H1  UNL     1     -13.050  11.852  65.329  1.00  0.00     0.000 HD 
HETATM    6  N   UNL     1     -12.592  12.750  65.482  1.00  0.00    -0.610 NA 
HETATM    7  H2  UNL     1     -12.610  13.327  64.640  1.00  0.00     0.000 HD 
ENDROOT
BRANCH   3   8
HETATM    8  C   UNL     1     -11.237  11.693  67.259  1.00  0.00    -0.304 C  
HETATM    9  O   UNL     1     -12.225  11.486  67.955  1.00  0.00    -0.586 OA 
BRANCH   8  10
HETATM   10  O   UNL     1     -10.021  11.112  67.475  1.00  0.00    -0.178 OA 
BRANCH  10  11
HETATM   11  C   UNL     1      -9.598  10.196  66.445  1.00  0.00    -0.191 C  
BRANCH  11  12
HETATM   12  C   UNL     1      -8.081  10.007  66.485  1.00  0.00    -0.119 C  
BRANCH  12  13
HETATM   13  O   UNL     1      -7.790   8.958  67.412  1.00  0.00    -0.096 OA 
BRANCH  13  14
HETATM   14  C   UNL     1      -8.647   7.831  67.231  1.00  0.00    -0.128 C  
BRANCH  14  15
HETATM   15  N   UNL     1      -8.931   7.226  68.520  1.00  0.00    -0.131 NA 
HETATM   16  C   UNL     1      -8.256   6.149  69.051  1.00  0.00    -0.112 A  
HETATM   17  N   UNL     1      -8.698   5.829  70.254  1.00  0.00    -0.135 NA 
HETATM   18  C   UNL     1      -9.700   6.740  70.520  1.00  0.00    -0.176 A  
HETATM   19  C   UNL     1      -9.850   7.581  69.452  1.00  0.00    -0.166 A  
HETATM   20  N   UNL     1     -10.753   8.568  69.433  1.00  0.00    -0.198 NA 
HETATM   21  C   UNL     1     -11.497   8.744  70.569  1.00  0.00    -0.196 C  
HETATM   22  N   UNL     1     -12.337   9.808  70.501  1.00  0.00    -0.481 NA 
HETATM   23  N   UNL     1     -11.442   8.010  71.641  1.00  0.00    -0.257 N  
HETATM   24  H2  UNL     1     -12.407  10.416  69.685  1.00  0.00     0.000 HD 
HETATM   25  H1  UNL     1     -12.891   9.939  71.347  1.00  0.00     0.000 HD 
HETATM   26  C   UNL     1     -10.551   6.927  71.706  1.00  0.00    -0.212 C  
HETATM   27  H   UNL     1     -12.047   8.221  72.435  1.00  0.00     0.000 HD 
HETATM   28  O   UNL     1     -10.486   6.189  72.683  1.00  0.00    -0.194 OA 
ENDBRANCH  14  15
ENDBRANCH  13  14
ENDBRANCH  12  13
ENDBRANCH  11  12
ENDBRANCH  10  11
ENDBRANCH   8  10
ENDBRANCH   3   8
TORSDOF 7
ENDMDL
MODEL      210
REMARK 921   NORMALIZED FREE ENERGY PREDICTED BY IDOCK:   -4.52 KCAL/MOL
REMARK 922        TOTAL FREE ENERGY PREDICTED BY IDOCK:   -6.91 KCAL/MOL
REMARK 923 INTER-LIGAND FREE ENERGY PREDICTED BY IDOCK:   -6.47 KCAL/MOL
REMARK 924 INTRA-LIGAND FREE ENERGY PREDICTED BY IDOCK:   -0.44 KCAL/MOL
REMARK 927      BINDING AFFINITY PREDICTED BY RF-SCORE:    0.00 PKD
ROOT
HETATM    1  C   UNL     1     -11.092  15.344  67.116  1.00  0.00    -0.291 C  
HETATM    2  C   UNL     1     -10.022  15.292  66.021  1.00  0.00    -0.344 C  
HETATM    3  C   UNL     1     -10.602  15.489  64.598  1.00  0.00    -0.054 C  
HETATM    4  C   UNL     1      -8.919  16.314  66.329  1.00  0.00    -0.366 C  
HETATM    5  H1  UNL     1     -11.616  16.948  63.514  1.00  0.00     0.000 HD 
HETATM    6  N   UNL     1     -11.234  16.818  64.451  1.00  0.00    -1.271 NA 
HETATM    7  H2  UNL     1     -10.589  17.569  64.698  1.00  0.00     0.000 HD 
ENDROOT
BRANCH   3   8
HETATM    8  C   UNL     1     -11.615  14.387  64.209  1.00  0.00    -0.262 C  
HETATM    9  O   UNL     1     -12.770  14.587  63.852  1.00  0.00    -0.782 OA 
BRANCH   8  10
HETATM   10  O   UNL     1     -11.036  13.152  64.250  1.00  0.00    -0.368 OA 
BRANCH  10  11
HETATM   11  C   UNL     1     -11.810  12.145  64.933  1.00  0.00    -0.302 C  
BRANCH  11  12
HETATM   12  C   UNL     1     -11.055  11.628  66.159  1.00  0.00    -0.280 C  
BRANCH  12  13
HETATM   13  O   UNL     1     -11.964  11.607  67.262  1.00  0.00    -0.627 OA 
BRANCH  13  14
HETATM   14  C   UNL     1     -11.301  11.827  68.507  1.00  0.00    -0.273 C  
BRANCH  14  15
HETATM   15  N   UNL     1     -10.006  11.172  68.488  1.00  0.00    -0.193 NA 
HETATM   16  C   UNL     1      -9.811   9.809  68.487  1.00  0.00    -0.156 A  
HETATM   17  N   UNL     1      -8.531   9.488  68.431  1.00  0.00    -0.118 NA 
HETATM   18  C   UNL     1      -7.863  10.695  68.389  1.00  0.00    -0.113 A  
HETATM   19  C   UNL     1      -8.766  11.721  68.441  1.00  0.00    -0.155 A  
HETATM   20  N   UNL     1      -8.398  13.007  68.415  1.00  0.00    -0.147 NA 
HETATM   21  C   UNL     1      -7.060  13.262  68.275  1.00  0.00    -0.109 C  
HETATM   22  N   UNL     1      -6.772  14.585  68.183  1.00  0.00    -0.110 NA 
HETATM   23  N   UNL     1      -6.114  12.372  68.217  1.00  0.00    -0.052 N  
HETATM   24  H2  UNL     1      -7.482  15.317  68.216  1.00  0.00     0.000 HD 
HETATM   25  H1  UNL     1      -5.776  14.775  68.079  1.00  0.00     0.000 HD 
HETATM   26  C   UNL     1      -6.428  11.006  68.289  1.00  0.00    -0.057 C  
HETATM   27  H   UNL     1      -5.142  12.667  68.119  1.00  0.00     0.000 HD 
HETATM   28  O   UNL     1      -5.567  10.133  68.268  1.00  0.00    -0.042 OA 
ENDBRANCH  14  15
ENDBRANCH  13  14
ENDBRANCH  12  13
ENDBRANCH  11  12
ENDBRANCH  10  11
ENDBRANCH   8  10
ENDBRANCH   3   8
TORSDOF 7
ENDMDL
MODEL      211
REMARK 921   NORMALIZED FREE ENERGY PREDICTED BY IDOCK:   -4.51 KCAL/MOL
REMARK 922        TOTAL FREE ENERGY PREDICTED BY IDOCK:   -6.89 KCAL/MOL
REMARK 923 INTER-LIGAND FREE ENERGY PREDICTED BY IDOCK:   -7.19 KCAL/MOL
REMARK 924 INTRA-LIGAND FREE ENERGY PREDICTED BY IDOCK:    0.30 KCAL/MOL
REMARK 927      BINDING AFFINITY PREDICTED BY RF-SCORE:    0.00 PKD
ROOT
HETATM    1  C   UNL     1     -10.661  17.428  65.768  1.00  0.00    -0.120 C  
HETATM    2  C   UNL     1     -10.327  18.676  66.592  1.00  0.00    -0.456 C  
HETATM    3  C   UNL     1      -8.878  18.669  67.142  1.00  0.00    -0.274 C  
HETATM    4  C   UNL     1     -10.610  19.934  65.761  1.00  0.00    -0.490 C  
HETATM    5  H1  UNL     1      -6.931  18.653  66.407  1.00  0.00     0.000 HD 
HETATM    6  N   UNL     1      -7.884  18.657  66.045  1.00  0.00    -0.460 NA 
HETATM    7  H2  UNL     1      -8.034  19.431  65.397  1.00  0.00     0.000 HD 
ENDROOT
BRANCH   3   8
HETATM    8  C   UNL     1      -8.609  17.483  68.097  1.00  0.00    -0.258 C  
HETATM    9  O   UNL     1      -9.398  17.062  68.935  1.00  0.00    -0.265 OA 
BRANCH   8  10
HETATM   10  O   UNL     1      -7.395  16.914  67.843  1.00  0.00    -0.161 OA 
BRANCH  10  11
HETATM   11  C   UNL     1      -7.434  15.784  66.948  1.00  0.00    -0.169 C  
BRANCH  11  12
HETATM   12  C   UNL     1      -8.774  15.055  67.063  1.00  0.00    -0.237 C  
BRANCH  12  13
HETATM   13  O   UNL     1      -8.587  13.917  67.910  1.00  0.00    -0.159 OA 
BRANCH  13  14
HETATM   14  C   UNL     1      -9.640  12.964  67.766  1.00  0.00    -0.212 C  
BRANCH  14  15
HETATM   15  N   UNL     1      -9.375  12.118  66.617  1.00  0.00    -0.221 NA 
HETATM   16  C   UNL     1      -8.358  11.192  66.536  1.00  0.00    -0.166 A  
HETATM   17  N   UNL     1      -8.371  10.537  65.390  1.00  0.00    -0.166 NA 
HETATM   18  C   UNL     1      -9.445  11.055  64.695  1.00  0.00    -0.234 A  
HETATM   19  C   UNL     1     -10.046  12.032  65.440  1.00  0.00    -0.256 A  
HETATM   20  N   UNL     1     -11.118  12.708  65.013  1.00  0.00    -0.284 NA 
HETATM   21  C   UNL     1     -11.635  12.339  63.801  1.00  0.00    -0.471 C  
HETATM   22  N   UNL     1     -12.763  13.019  63.469  1.00  0.00    -0.693 NA 
HETATM   23  N   UNL     1     -11.152  11.430  63.007  1.00  0.00    -0.840 N  
HETATM   24  H2  UNL     1     -13.183  13.734  64.064  1.00  0.00     0.000 HD 
HETATM   25  H1  UNL     1     -13.149  12.744  62.566  1.00  0.00     0.000 HD 
HETATM   26  C   UNL     1      -9.999  10.718  63.374  1.00  0.00    -0.328 C  
HETATM   27  H   UNL     1     -11.611  11.233  62.117  1.00  0.00     0.000 HD 
HETATM   28  O   UNL     1      -9.491   9.873  62.645  1.00  0.00    -0.275 OA 
ENDBRANCH  14  15
ENDBRANCH  13  14
ENDBRANCH  12  13
ENDBRANCH  11  12
ENDBRANCH  10  11
ENDBRANCH   8  10
ENDBRANCH   3   8
TORSDOF 7
ENDMDL
MODEL      212
REMARK 921   NORMALIZED FREE ENERGY PREDICTED BY IDOCK:   -4.50 KCAL/MOL
REMARK 922        TOTAL FREE ENERGY PREDICTED BY IDOCK:   -6.88 KCAL/MOL
REMARK 923 INTER-LIGAND FREE ENERGY PREDICTED BY IDOCK:   -6.32 KCAL/MOL
REMARK 924 INTRA-LIGAND FREE ENERGY PREDICTED BY IDOCK:   -0.57 KCAL/MOL
REMARK 927      BINDING AFFINITY PREDICTED BY RF-SCORE:    0.00 PKD
ROOT
HETATM    1  C   UNL     1      -7.961  12.214  67.188  1.00  0.00    -0.170 C  
HETATM    2  C   UNL     1      -7.548  10.739  67.200  1.00  0.00    -0.105 C  
HETATM    3  C   UNL     1      -7.717  10.052  65.821  1.00  0.00    -0.122 C  
HETATM    4  C   UNL     1      -6.111  10.610  67.723  1.00  0.00    -0.047 C  
HETATM    5  H1  UNL     1      -6.968  10.229  63.887  1.00  0.00     0.000 HD 
HETATM    6  N   UNL     1      -6.857  10.681  64.794  1.00  0.00    -0.356 NA 
HETATM    7  H2  UNL     1      -5.879  10.699  65.086  1.00  0.00     0.000 HD 
ENDROOT
BRANCH   3   8
HETATM    8  C   UNL     1      -9.185  10.045  65.335  1.00  0.00    -0.210 C  
HETATM    9  O   UNL     1     -10.103   9.441  65.878  1.00  0.00    -0.296 OA 
BRANCH   8  10
HETATM   10  O   UNL     1      -9.346  10.857  64.251  1.00  0.00    -0.213 OA 
BRANCH  10  11
HETATM   11  C   UNL     1     -10.705  10.977  63.783  1.00  0.00    -0.224 C  
BRANCH  11  12
HETATM   12  C   UNL     1     -11.035  12.436  63.465  1.00  0.00    -0.450 C  
BRANCH  12  13
HETATM   13  O   UNL     1     -11.255  13.119  64.702  1.00  0.00    -0.314 OA 
BRANCH  13  14
HETATM   14  C   UNL     1     -10.912  14.502  64.619  1.00  0.00    -0.336 C  
BRANCH  14  15
HETATM   15  N   UNL     1     -10.805  15.057  65.956  1.00  0.00    -0.327 NA 
HETATM   16  C   UNL     1     -10.740  14.314  67.114  1.00  0.00    -0.282 A  
HETATM   17  N   UNL     1     -10.610  15.074  68.186  1.00  0.00    -0.244 NA 
HETATM   18  C   UNL     1     -10.584  16.368  67.706  1.00  0.00    -0.321 A  
HETATM   19  C   UNL     1     -10.720  16.354  66.345  1.00  0.00    -0.161 A  
HETATM   20  N   UNL     1     -10.727  17.471  65.610  1.00  0.00    -0.466 NA 
HETATM   21  C   UNL     1     -10.533  18.649  66.279  1.00  0.00    -0.424 C  
HETATM   22  N   UNL     1     -10.480  19.730  65.459  1.00  0.00    -0.430 NA 
HETATM   23  N   UNL     1     -10.394  18.785  67.565  1.00  0.00    -0.393 N  
HETATM   24  H2  UNL     1     -10.575  19.671  64.445  1.00  0.00     0.000 HD 
HETATM   25  H1  UNL     1     -10.335  20.608  65.958  1.00  0.00     0.000 HD 
HETATM   26  C   UNL     1     -10.427  17.656  68.398  1.00  0.00    -0.359 C  
HETATM   27  H   UNL     1     -10.261  19.713  67.968  1.00  0.00     0.000 HD 
HETATM   28  O   UNL     1     -10.331  17.739  69.618  1.00  0.00    -0.067 OA 
ENDBRANCH  14  15
ENDBRANCH  13  14
ENDBRANCH  12  13
ENDBRANCH  11  12
ENDBRANCH  10  11
ENDBRANCH   8  10
ENDBRANCH   3   8
TORSDOF 7
ENDMDL
MODEL      213
REMARK 921   NORMALIZED FREE ENERGY PREDICTED BY IDOCK:   -4.50 KCAL/MOL
REMARK 922        TOTAL FREE ENERGY PREDICTED BY IDOCK:   -6.88 KCAL/MOL
REMARK 923 INTER-LIGAND FREE ENERGY PREDICTED BY IDOCK:   -6.53 KCAL/MOL
REMARK 924 INTRA-LIGAND FREE ENERGY PREDICTED BY IDOCK:   -0.36 KCAL/MOL
REMARK 927      BINDING AFFINITY PREDICTED BY RF-SCORE:    0.00 PKD
ROOT
HETATM    1  C   UNL     1      -5.770   7.955  69.321  1.00  0.00    -0.030 C  
HETATM    2  C   UNL     1      -6.963   8.869  69.023  1.00  0.00    -0.064 C  
HETATM    3  C   UNL     1      -7.364   9.756  70.228  1.00  0.00    -0.158 C  
HETATM    4  C   UNL     1      -6.668   9.711  67.774  1.00  0.00    -0.066 C  
HETATM    5  H1  UNL     1      -6.531  11.256  71.406  1.00  0.00     0.000 HD 
HETATM    6  N   UNL     1      -6.268  10.673  70.613  1.00  0.00    -0.292 NA 
HETATM    7  H2  UNL     1      -5.957  11.236  69.821  1.00  0.00     0.000 HD 
ENDROOT
BRANCH   3   8
HETATM    8  C   UNL     1      -7.801   8.927  71.458  1.00  0.00    -0.058 C  
HETATM    9  O   UNL     1      -7.054   8.239  72.145  1.00  0.00    -0.080 OA 
BRANCH   8  10
HETATM   10  O   UNL     1      -9.126   9.111  71.727  1.00  0.00    -0.346 OA 
BRANCH  10  11
HETATM   11  C   UNL     1      -9.994   8.078  71.219  1.00  0.00    -0.174 C  
BRANCH  11  12
HETATM   12  C   UNL     1     -10.733   8.565  69.971  1.00  0.00    -0.232 C  
BRANCH  12  13
HETATM   13  O   UNL     1     -11.726   9.508  70.385  1.00  0.00    -0.247 OA 
BRANCH  13  14
HETATM   14  C   UNL     1     -11.462  10.818  69.883  1.00  0.00    -0.321 C  
BRANCH  14  15
HETATM   15  N   UNL     1     -12.253  11.788  70.619  1.00  0.00    -0.380 NA 
HETATM   16  C   UNL     1     -13.005  11.505  71.738  1.00  0.00    -0.394 A  
HETATM   17  N   UNL     1     -13.593  12.581  72.227  1.00  0.00    -0.476 NA 
HETATM   18  C   UNL     1     -13.205  13.610  71.393  1.00  0.00    -0.283 A  
HETATM   19  C   UNL     1     -12.400  13.119  70.403  1.00  0.00    -0.279 A  
HETATM   20  N   UNL     1     -11.873  13.896  69.450  1.00  0.00    -0.313 NA 
HETATM   21  C   UNL     1     -12.131  15.238  69.538  1.00  0.00    -0.290 C  
HETATM   22  N   UNL     1     -11.504  15.968  68.581  1.00  0.00    -0.387 NA 
HETATM   23  N   UNL     1     -12.879  15.817  70.430  1.00  0.00    -0.663 N  
HETATM   24  H2  UNL     1     -10.902  15.559  67.867  1.00  0.00     0.000 HD 
HETATM   25  H1  UNL     1     -11.696  16.968  68.646  1.00  0.00     0.000 HD 
HETATM   26  C   UNL     1     -13.501  15.051  71.429  1.00  0.00    -0.446 C  
HETATM   27  H   UNL     1     -13.014  16.828  70.404  1.00  0.00     0.000 HD 
HETATM   28  O   UNL     1     -14.239  15.549  72.272  1.00  0.00    -0.549 OA 
ENDBRANCH  14  15
ENDBRANCH  13  14
ENDBRANCH  12  13
ENDBRANCH  11  12
ENDBRANCH  10  11
ENDBRANCH   8  10
ENDBRANCH   3   8
TORSDOF 7
ENDMDL
MODEL      214
REMARK 921   NORMALIZED FREE ENERGY PREDICTED BY IDOCK:   -4.49 KCAL/MOL
REMARK 922        TOTAL FREE ENERGY PREDICTED BY IDOCK:   -6.87 KCAL/MOL
REMARK 923 INTER-LIGAND FREE ENERGY PREDICTED BY IDOCK:   -6.48 KCAL/MOL
REMARK 924 INTRA-LIGAND FREE ENERGY PREDICTED BY IDOCK:   -0.40 KCAL/MOL
REMARK 927      BINDING AFFINITY PREDICTED BY RF-SCORE:    0.00 PKD
ROOT
HETATM    1  C   UNL     1      -9.459   3.782  67.333  1.00  0.00    -0.239 C  
HETATM    2  C   UNL     1      -9.792   4.894  66.331  1.00  0.00    -0.226 C  
HETATM    3  C   UNL     1      -9.567   6.315  66.907  1.00  0.00    -0.147 C  
HETATM    4  C   UNL     1      -8.997   4.676  65.037  1.00  0.00    -0.152 C  
HETATM    5  H1  UNL     1      -8.000   7.469  67.643  1.00  0.00     0.000 HD 
HETATM    6  N   UNL     1      -8.148   6.535  67.265  1.00  0.00    -0.112 NA 
HETATM    7  H2  UNL     1      -7.530   6.350  66.474  1.00  0.00     0.000 HD 
ENDROOT
BRANCH   3   8
HETATM    8  C   UNL     1     -10.462   6.610  68.133  1.00  0.00    -0.214 C  
HETATM    9  O   UNL     1     -11.625   6.244  68.259  1.00  0.00     0.010 OA 
BRANCH   8  10
HETATM   10  O   UNL     1      -9.767   7.278  69.098  1.00  0.00    -0.158 OA 
BRANCH  10  11
HETATM   11  C   UNL     1     -10.522   8.291  69.793  1.00  0.00    -0.220 C  
BRANCH  11  12
HETATM   12  C   UNL     1      -9.833   9.651  69.673  1.00  0.00    -0.215 C  
BRANCH  12  13
HETATM   13  O   UNL     1     -10.541  10.580  70.498  1.00  0.00    -0.100 OA 
BRANCH  13  14
HETATM   14  C   UNL     1     -11.822  10.908  69.958  1.00  0.00    -0.347 C  
BRANCH  14  15
HETATM   15  N   UNL     1     -12.460  11.907  70.796  1.00  0.00    -0.335 NA 
HETATM   16  C   UNL     1     -13.267  11.630  71.877  1.00  0.00    -0.369 A  
HETATM   17  N   UNL     1     -13.684  12.728  72.481  1.00  0.00    -0.494 NA 
HETATM   18  C   UNL     1     -13.122  13.765  71.765  1.00  0.00    -0.379 A  
HETATM   19  C   UNL     1     -12.388  13.260  70.727  1.00  0.00    -0.344 A  
HETATM   20  N   UNL     1     -11.727  14.041  69.865  1.00  0.00    -0.296 NA 
HETATM   21  C   UNL     1     -11.768  15.389  70.099  1.00  0.00    -0.330 C  
HETATM   22  N   UNL     1     -11.016  16.108  69.227  1.00  0.00    -0.292 NA 
HETATM   23  N   UNL     1     -12.429  15.981  71.049  1.00  0.00    -0.533 N  
HETATM   24  H2  UNL     1     -10.474  15.686  68.473  1.00  0.00     0.000 HD 
HETATM   25  H1  UNL     1     -11.045  17.112  69.402  1.00  0.00     0.000 HD 
HETATM   26  C   UNL     1     -13.184  15.222  71.958  1.00  0.00    -0.407 C  
HETATM   27  H   UNL     1     -12.400  16.997  71.134  1.00  0.00     0.000 HD 
HETATM   28  O   UNL     1     -13.847  15.738  72.851  1.00  0.00    -0.575 OA 
ENDBRANCH  14  15
ENDBRANCH  13  14
ENDBRANCH  12  13
ENDBRANCH  11  12
ENDBRANCH  10  11
ENDBRANCH   8  10
ENDBRANCH   3   8
TORSDOF 7
ENDMDL
MODEL      215
REMARK 921   NORMALIZED FREE ENERGY PREDICTED BY IDOCK:   -4.49 KCAL/MOL
REMARK 922        TOTAL FREE ENERGY PREDICTED BY IDOCK:   -6.87 KCAL/MOL
REMARK 923 INTER-LIGAND FREE ENERGY PREDICTED BY IDOCK:   -6.93 KCAL/MOL
REMARK 924 INTRA-LIGAND FREE ENERGY PREDICTED BY IDOCK:    0.06 KCAL/MOL
REMARK 927      BINDING AFFINITY PREDICTED BY RF-SCORE:    0.00 PKD
ROOT
HETATM    1  C   UNL     1     -10.142  12.254  64.280  1.00  0.00    -0.311 C  
HETATM    2  C   UNL     1     -11.614  11.892  64.507  1.00  0.00    -0.344 C  
HETATM    3  C   UNL     1     -12.233  12.614  65.730  1.00  0.00    -0.361 C  
HETATM    4  C   UNL     1     -12.415  12.161  63.226  1.00  0.00    -0.528 C  
HETATM    5  H1  UNL     1     -12.632  14.557  66.358  1.00  0.00     0.000 HD 
HETATM    6  N   UNL     1     -12.224  14.083  65.553  1.00  0.00    -0.414 NA 
HETATM    7  H2  UNL     1     -12.685  14.357  64.684  1.00  0.00     0.000 HD 
ENDROOT
BRANCH   3   8
HETATM    8  C   UNL     1     -11.529  12.248  67.058  1.00  0.00    -0.354 C  
HETATM    9  O   UNL     1     -12.080  11.750  68.033  1.00  0.00    -0.572 OA 
BRANCH   8  10
HETATM   10  O   UNL     1     -10.188  12.489  66.984  1.00  0.00    -0.220 OA 
BRANCH  10  11
HETATM   11  C   UNL     1      -9.456  12.207  68.194  1.00  0.00    -0.205 C  
BRANCH  11  12
HETATM   12  C   UNL     1      -8.341  13.234  68.398  1.00  0.00    -0.131 C  
BRANCH  12  13
HETATM   13  O   UNL     1      -8.455  14.220  67.369  1.00  0.00    -0.179 OA 
BRANCH  13  14
HETATM   14  C   UNL     1      -8.620  15.534  67.903  1.00  0.00    -0.155 C  
BRANCH  14  15
HETATM   15  N   UNL     1      -7.626  16.421  67.324  1.00  0.00    -0.150 NA 
HETATM   16  C   UNL     1      -6.299  16.103  67.137  1.00  0.00    -0.125 A  
HETATM   17  N   UNL     1      -5.630  17.082  66.556  1.00  0.00    -0.323 NA 
HETATM   18  C   UNL     1      -6.562  18.080  66.353  1.00  0.00    -0.221 A  
HETATM   19  C   UNL     1      -7.776  17.679  66.837  1.00  0.00    -0.216 A  
HETATM   20  N   UNL     1      -8.868  18.449  66.773  1.00  0.00    -0.270 NA 
HETATM   21  C   UNL     1      -8.734  19.655  66.139  1.00  0.00    -0.333 C  
HETATM   22  N   UNL     1      -9.899  20.346  66.049  1.00  0.00    -0.643 NA 
HETATM   23  N   UNL     1      -7.635  20.140  65.642  1.00  0.00    -0.485 N  
HETATM   24  H2  UNL     1     -10.786  20.001  66.416  1.00  0.00     0.000 HD 
HETATM   25  H1  UNL     1      -9.800  21.244  65.577  1.00  0.00     0.000 HD 
HETATM   26  C   UNL     1      -6.443  19.404  65.722  1.00  0.00    -0.230 C  
HETATM   27  H   UNL     1      -7.640  21.057  65.194  1.00  0.00     0.000 HD 
HETATM   28  O   UNL     1      -5.377  19.834  65.294  1.00  0.00    -0.158 OA 
ENDBRANCH  14  15
ENDBRANCH  13  14
ENDBRANCH  12  13
ENDBRANCH  11  12
ENDBRANCH  10  11
ENDBRANCH   8  10
ENDBRANCH   3   8
TORSDOF 7
ENDMDL
MODEL      216
REMARK 921   NORMALIZED FREE ENERGY PREDICTED BY IDOCK:   -4.49 KCAL/MOL
REMARK 922        TOTAL FREE ENERGY PREDICTED BY IDOCK:   -6.87 KCAL/MOL
REMARK 923 INTER-LIGAND FREE ENERGY PREDICTED BY IDOCK:   -6.68 KCAL/MOL
REMARK 924 INTRA-LIGAND FREE ENERGY PREDICTED BY IDOCK:   -0.18 KCAL/MOL
REMARK 927      BINDING AFFINITY PREDICTED BY RF-SCORE:    0.00 PKD
ROOT
HETATM    1  C   UNL     1     -11.165  16.146  67.081  1.00  0.00     0.051 C  
HETATM    2  C   UNL     1     -10.094  15.700  66.080  1.00  0.00    -0.355 C  
HETATM    3  C   UNL     1     -10.684  15.281  64.709  1.00  0.00    -0.317 C  
HETATM    4  C   UNL     1      -9.038  16.803  65.928  1.00  0.00    -0.120 C  
HETATM    5  H1  UNL     1     -11.763  16.136  63.149  1.00  0.00     0.000 HD 
HETATM    6  N   UNL     1     -11.376  16.411  64.051  1.00  0.00    -1.539 NA 
HETATM    7  H2  UNL     1     -10.764  17.224  63.962  1.00  0.00     0.000 HD 
ENDROOT
BRANCH   3   8
HETATM    8  C   UNL     1     -11.647  14.076  64.818  1.00  0.00    -0.381 C  
HETATM    9  O   UNL     1     -12.754  14.010  64.295  1.00  0.00    -0.661 OA 
BRANCH   8  10
HETATM   10  O   UNL     1     -11.077  13.056  65.522  1.00  0.00    -0.274 OA 
BRANCH  10  11
HETATM   11  C   UNL     1     -12.007  12.245  66.269  1.00  0.00    -0.231 C  
BRANCH  11  12
HETATM   12  C   UNL     1     -11.260  11.194  67.092  1.00  0.00    -0.249 C  
BRANCH  12  13
HETATM   13  O   UNL     1     -12.081  10.843  68.209  1.00  0.00    -0.562 OA 
BRANCH  13  14
HETATM   14  C   UNL     1     -11.391  10.996  69.450  1.00  0.00    -0.284 C  
BRANCH  14  15
HETATM   15  N   UNL     1     -10.200  10.167  69.448  1.00  0.00    -0.214 NA 
HETATM   16  C   UNL     1      -8.934  10.607  69.128  1.00  0.00    -0.128 A  
HETATM   17  N   UNL     1      -8.031   9.650  69.244  1.00  0.00    -0.096 NA 
HETATM   18  C   UNL     1      -8.738   8.540  69.662  1.00  0.00    -0.133 A  
HETATM   19  C   UNL     1     -10.064   8.856  69.769  1.00  0.00    -0.199 A  
HETATM   20  N   UNL     1     -10.987   7.969  70.158  1.00  0.00    -0.246 NA 
HETATM   21  C   UNL     1     -10.536   6.724  70.506  1.00  0.00    -0.209 C  
HETATM   22  N   UNL     1     -11.518   5.904  70.959  1.00  0.00    -0.169 NA 
HETATM   23  N   UNL     1      -9.304   6.311  70.444  1.00  0.00    -0.161 N  
HETATM   24  H2  UNL     1     -12.496   6.187  71.033  1.00  0.00     0.000 HD 
HETATM   25  H1  UNL     1     -11.182   4.977  71.218  1.00  0.00     0.000 HD 
HETATM   26  C   UNL     1      -8.295   7.178  69.996  1.00  0.00    -0.138 C  
HETATM   27  H   UNL     1      -9.071   5.357  70.721  1.00  0.00     0.000 HD 
HETATM   28  O   UNL     1      -7.125   6.824  69.893  1.00  0.00    -0.067 OA 
ENDBRANCH  14  15
ENDBRANCH  13  14
ENDBRANCH  12  13
ENDBRANCH  11  12
ENDBRANCH  10  11
ENDBRANCH   8  10
ENDBRANCH   3   8
TORSDOF 7
ENDMDL
MODEL      217
REMARK 921   NORMALIZED FREE ENERGY PREDICTED BY IDOCK:   -4.48 KCAL/MOL
REMARK 922        TOTAL FREE ENERGY PREDICTED BY IDOCK:   -6.86 KCAL/MOL
REMARK 923 INTER-LIGAND FREE ENERGY PREDICTED BY IDOCK:   -6.34 KCAL/MOL
REMARK 924 INTRA-LIGAND FREE ENERGY PREDICTED BY IDOCK:   -0.52 KCAL/MOL
REMARK 927      BINDING AFFINITY PREDICTED BY RF-SCORE:    0.00 PKD
ROOT
HETATM    1  C   UNL     1      -8.756   3.788  67.181  1.00  0.00    -0.122 C  
HETATM    2  C   UNL     1      -9.893   4.520  66.459  1.00  0.00    -0.244 C  
HETATM    3  C   UNL     1      -9.725   6.060  66.471  1.00  0.00    -0.149 C  
HETATM    4  C   UNL     1     -10.030   3.977  65.030  1.00  0.00    -0.207 C  
HETATM    5  H1  UNL     1      -8.383   7.489  65.772  1.00  0.00     0.000 HD 
HETATM    6  N   UNL     1      -8.493   6.476  65.764  1.00  0.00    -0.146 NA 
HETATM    7  H2  UNL     1      -8.464   6.104  64.814  1.00  0.00     0.000 HD 
ENDROOT
BRANCH   3   8
HETATM    8  C   UNL     1      -9.725   6.648  67.902  1.00  0.00    -0.122 C  
HETATM    9  O   UNL     1     -10.586   6.437  68.749  1.00  0.00    -0.199 OA 
BRANCH   8  10
HETATM   10  O   UNL     1      -8.600   7.386  68.128  1.00  0.00    -0.123 OA 
BRANCH  10  11
HETATM   11  C   UNL     1      -8.832   8.796  68.320  1.00  0.00    -0.141 C  
BRANCH  11  12
HETATM   12  C   UNL     1      -8.115   9.609  67.241  1.00  0.00    -0.110 C  
BRANCH  12  13
HETATM   13  O   UNL     1      -8.997  10.651  66.814  1.00  0.00    -0.137 OA 
BRANCH  13  14
HETATM   14  C   UNL     1      -9.999  10.173  65.917  1.00  0.00    -0.267 C  
BRANCH  14  15
HETATM   15  N   UNL     1     -10.593  11.293  65.212  1.00  0.00    -0.275 NA 
HETATM   16  C   UNL     1     -10.659  11.417  63.841  1.00  0.00    -0.392 A  
HETATM   17  N   UNL     1     -11.285  12.519  63.471  1.00  0.00    -0.471 NA 
HETATM   18  C   UNL     1     -11.646  13.139  64.650  1.00  0.00    -0.345 A  
HETATM   19  C   UNL     1     -11.208  12.395  65.711  1.00  0.00    -0.333 A  
HETATM   20  N   UNL     1     -11.420  12.757  66.981  1.00  0.00    -0.321 NA 
HETATM   21  C   UNL     1     -12.156  13.893  67.183  1.00  0.00    -0.387 C  
HETATM   22  N   UNL     1     -12.391  14.155  68.494  1.00  0.00    -0.541 NA 
HETATM   23  N   UNL     1     -12.623  14.677  66.256  1.00  0.00    -0.252 N  
HETATM   24  H2  UNL     1     -12.052  13.564  69.254  1.00  0.00     0.000 HD 
HETATM   25  H1  UNL     1     -12.940  15.001  68.645  1.00  0.00     0.000 HD 
HETATM   26  C   UNL     1     -12.392  14.381  64.904  1.00  0.00    -0.405 C  
HETATM   27  H   UNL     1     -13.157  15.508  66.513  1.00  0.00     0.000 HD 
HETATM   28  O   UNL     1     -12.787  15.106  63.998  1.00  0.00    -0.651 OA 
ENDBRANCH  14  15
ENDBRANCH  13  14
ENDBRANCH  12  13
ENDBRANCH  11  12
ENDBRANCH  10  11
ENDBRANCH   8  10
ENDBRANCH   3   8
TORSDOF 7
ENDMDL
MODEL      218
REMARK 921   NORMALIZED FREE ENERGY PREDICTED BY IDOCK:   -4.48 KCAL/MOL
REMARK 922        TOTAL FREE ENERGY PREDICTED BY IDOCK:   -6.85 KCAL/MOL
REMARK 923 INTER-LIGAND FREE ENERGY PREDICTED BY IDOCK:   -6.01 KCAL/MOL
REMARK 924 INTRA-LIGAND FREE ENERGY PREDICTED BY IDOCK:   -0.84 KCAL/MOL
REMARK 927      BINDING AFFINITY PREDICTED BY RF-SCORE:    0.00 PKD
ROOT
HETATM    1  C   UNL     1      -8.532   9.851  69.480  1.00  0.00    -0.184 C  
HETATM    2  C   UNL     1      -8.231  10.667  68.219  1.00  0.00    -0.120 C  
HETATM    3  C   UNL     1      -9.468  11.432  67.684  1.00  0.00    -0.162 C  
HETATM    4  C   UNL     1      -7.053  11.614  68.486  1.00  0.00    -0.089 C  
HETATM    5  H1  UNL     1     -10.775  12.922  68.317  1.00  0.00     0.000 HD 
HETATM    6  N   UNL     1      -9.962  12.419  68.669  1.00  0.00    -0.382 NA 
HETATM    7  H2  UNL     1      -9.222  13.060  68.958  1.00  0.00     0.000 HD 
ENDROOT
BRANCH   3   8
HETATM    8  C   UNL     1     -10.621  10.487  67.274  1.00  0.00    -0.264 C  
HETATM    9  O   UNL     1     -11.791  10.613  67.620  1.00  0.00    -0.411 OA 
BRANCH   8  10
HETATM   10  O   UNL     1     -10.183   9.521  66.416  1.00  0.00    -0.264 OA 
BRANCH  10  11
HETATM   11  C   UNL     1     -10.642   8.189  66.721  1.00  0.00    -0.153 C  
BRANCH  11  12
HETATM   12  C   UNL     1      -9.505   7.179  66.557  1.00  0.00    -0.156 C  
BRANCH  12  13
HETATM   13  O   UNL     1      -9.737   6.100  67.466  1.00  0.00    -0.114 OA 
BRANCH  13  14
HETATM   14  C   UNL     1     -10.935   6.285  68.222  1.00  0.00    -0.321 C  
BRANCH  14  15
HETATM   15  N   UNL     1     -10.716   5.853  69.590  1.00  0.00    -0.313 NA 
HETATM   16  C   UNL     1     -10.027   4.719  69.959  1.00  0.00    -0.244 A  
HETATM   17  N   UNL     1      -9.949   4.588  71.271  1.00  0.00    -0.195 NA 
HETATM   18  C   UNL     1     -10.611   5.687  71.779  1.00  0.00    -0.238 A  
HETATM   19  C   UNL     1     -11.092   6.449  70.750  1.00  0.00    -0.307 A  
HETATM   20  N   UNL     1     -11.776   7.581  70.950  1.00  0.00    -0.291 NA 
HETATM   21  C   UNL     1     -11.931   7.985  72.249  1.00  0.00    -0.358 C  
HETATM   22  N   UNL     1     -12.571   9.176  72.367  1.00  0.00    -0.349 NA 
HETATM   23  N   UNL     1     -11.520   7.346  73.304  1.00  0.00    -0.569 N  
HETATM   24  H2  UNL     1     -12.904   9.717  71.568  1.00  0.00     0.000 HD 
HETATM   25  H1  UNL     1     -12.686   9.478  73.335  1.00  0.00     0.000 HD 
HETATM   26  C   UNL     1     -10.838   6.126  73.165  1.00  0.00    -0.254 C  
HETATM   27  H   UNL     1     -11.692   7.731  74.233  1.00  0.00     0.000 HD 
HETATM   28  O   UNL     1     -10.459   5.474  74.131  1.00  0.00    -0.268 OA 
ENDBRANCH  14  15
ENDBRANCH  13  14
ENDBRANCH  12  13
ENDBRANCH  11  12
ENDBRANCH  10  11
ENDBRANCH   8  10
ENDBRANCH   3   8
TORSDOF 7
ENDMDL
MODEL      219
REMARK 921   NORMALIZED FREE ENERGY PREDICTED BY IDOCK:   -4.47 KCAL/MOL
REMARK 922        TOTAL FREE ENERGY PREDICTED BY IDOCK:   -6.84 KCAL/MOL
REMARK 923 INTER-LIGAND FREE ENERGY PREDICTED BY IDOCK:   -6.48 KCAL/MOL
REMARK 924 INTRA-LIGAND FREE ENERGY PREDICTED BY IDOCK:   -0.36 KCAL/MOL
REMARK 927      BINDING AFFINITY PREDICTED BY RF-SCORE:    0.00 PKD
ROOT
HETATM    1  C   UNL     1      -8.235   6.068  65.592  1.00  0.00    -0.139 C  
HETATM    2  C   UNL     1      -7.535   7.017  64.612  1.00  0.00    -0.098 C  
HETATM    3  C   UNL     1      -7.379   8.454  65.168  1.00  0.00    -0.081 C  
HETATM    4  C   UNL     1      -6.184   6.421  64.195  1.00  0.00    -0.030 C  
HETATM    5  H1  UNL     1      -6.435   9.421  66.751  1.00  0.00     0.000 HD 
HETATM    6  N   UNL     1      -6.538   8.475  66.386  1.00  0.00    -0.058 NA 
HETATM    7  H2  UNL     1      -5.631   8.037  66.221  1.00  0.00     0.000 HD 
ENDROOT
BRANCH   3   8
HETATM    8  C   UNL     1      -8.738   9.129  65.465  1.00  0.00    -0.181 C  
HETATM    9  O   UNL     1      -9.440   9.695  64.634  1.00  0.00    -0.263 OA 
BRANCH   8  10
HETATM   10  O   UNL     1      -9.095   8.958  66.771  1.00  0.00    -0.134 OA 
BRANCH  10  11
HETATM   11  C   UNL     1      -9.539  10.157  67.438  1.00  0.00    -0.154 C  
BRANCH  11  12
HETATM   12  C   UNL     1     -11.053  10.122  67.652  1.00  0.00    -0.206 C  
BRANCH  12  13
HETATM   13  O   UNL     1     -11.540  11.464  67.584  1.00  0.00    -0.474 OA 
BRANCH  13  14
HETATM   14  C   UNL     1     -10.669  12.385  68.241  1.00  0.00    -0.230 C  
BRANCH  14  15
HETATM   15  N   UNL     1     -11.426  13.170  69.199  1.00  0.00    -0.289 NA 
HETATM   16  C   UNL     1     -11.596  14.536  69.139  1.00  0.00    -0.298 A  
HETATM   17  N   UNL     1     -12.361  14.985  70.118  1.00  0.00    -0.335 NA 
HETATM   18  C   UNL     1     -12.708  13.863  70.844  1.00  0.00    -0.340 A  
HETATM   19  C   UNL     1     -12.122  12.759  70.289  1.00  0.00    -0.297 A  
HETATM   20  N   UNL     1     -12.287  11.529  70.787  1.00  0.00    -0.391 NA 
HETATM   21  C   UNL     1     -13.126  11.407  71.861  1.00  0.00    -0.400 C  
HETATM   22  N   UNL     1     -13.301  10.122  72.263  1.00  0.00    -0.590 NA 
HETATM   23  N   UNL     1     -13.736  12.381  72.470  1.00  0.00    -0.502 N  
HETATM   24  H2  UNL     1     -12.850   9.326  71.810  1.00  0.00     0.000 HD 
HETATM   25  H1  UNL     1     -13.927  10.031  73.063  1.00  0.00     0.000 HD 
HETATM   26  C   UNL     1     -13.565  13.702  72.028  1.00  0.00    -0.495 C  
HETATM   27  H   UNL     1     -14.338  12.184  73.270  1.00  0.00     0.000 HD 
HETATM   28  O   UNL     1     -14.096  14.654  72.589  1.00  0.00    -0.491 OA 
ENDBRANCH  14  15
ENDBRANCH  13  14
ENDBRANCH  12  13
ENDBRANCH  11  12
ENDBRANCH  10  11
ENDBRANCH   8  10
ENDBRANCH   3   8
TORSDOF 7
ENDMDL
MODEL      220
REMARK 921   NORMALIZED FREE ENERGY PREDICTED BY IDOCK:   -4.44 KCAL/MOL
REMARK 922        TOTAL FREE ENERGY PREDICTED BY IDOCK:   -6.80 KCAL/MOL
REMARK 923 INTER-LIGAND FREE ENERGY PREDICTED BY IDOCK:   -6.38 KCAL/MOL
REMARK 924 INTRA-LIGAND FREE ENERGY PREDICTED BY IDOCK:   -0.42 KCAL/MOL
REMARK 927      BINDING AFFINITY PREDICTED BY RF-SCORE:    0.00 PKD
ROOT
HETATM    1  C   UNL     1     -11.018  16.685  67.456  1.00  0.00    -0.147 C  
HETATM    2  C   UNL     1      -9.803  16.547  66.533  1.00  0.00    -0.292 C  
HETATM    3  C   UNL     1     -10.156  15.933  65.154  1.00  0.00    -0.058 C  
HETATM    4  C   UNL     1      -9.110  17.908  66.385  1.00  0.00    -0.253 C  
HETATM    5  H1  UNL     1     -11.338  16.385  63.502  1.00  0.00     0.000 HD 
HETATM    6  N   UNL     1     -11.106  16.789  64.409  1.00  0.00    -1.260 NA 
HETATM    7  H2  UNL     1     -10.756  17.742  64.315  1.00  0.00     0.000 HD 
ENDROOT
BRANCH   3   8
HETATM    8  C   UNL     1     -10.727  14.501  65.268  1.00  0.00    -0.376 C  
HETATM    9  O   UNL     1     -10.602  13.769  66.243  1.00  0.00    -0.283 OA 
BRANCH   8  10
HETATM   10  O   UNL     1     -11.455  14.174  64.161  1.00  0.00    -0.304 OA 
BRANCH  10  11
HETATM   11  C   UNL     1     -11.955  12.821  64.146  1.00  0.00    -0.427 C  
BRANCH  11  12
HETATM   12  C   UNL     1     -11.033  11.919  63.324  1.00  0.00    -0.321 C  
BRANCH  12  13
HETATM   13  O   UNL     1     -10.772  10.739  64.090  1.00  0.00    -0.295 OA 
BRANCH  13  14
HETATM   14  C   UNL     1      -9.567  10.848  64.848  1.00  0.00    -0.248 C  
BRANCH  14  15
HETATM   15  N   UNL     1      -9.167   9.532  65.313  1.00  0.00    -0.234 NA 
HETATM   16  C   UNL     1      -8.283   8.701  64.661  1.00  0.00    -0.165 A  
HETATM   17  N   UNL     1      -8.072   7.579  65.326  1.00  0.00    -0.126 NA 
HETATM   18  C   UNL     1      -8.849   7.686  66.462  1.00  0.00    -0.147 A  
HETATM   19  C   UNL     1      -9.528   8.873  66.443  1.00  0.00    -0.220 A  
HETATM   20  N   UNL     1     -10.359   9.244  67.424  1.00  0.00    -0.246 NA 
HETATM   21  C   UNL     1     -10.461   8.399  68.496  1.00  0.00    -0.164 C  
HETATM   22  N   UNL     1     -11.264   8.877  69.481  1.00  0.00    -0.436 NA 
HETATM   23  N   UNL     1      -9.867   7.250  68.624  1.00  0.00    -0.157 N  
HETATM   24  H2  UNL     1     -11.743   9.776  69.427  1.00  0.00     0.000 HD 
HETATM   25  H1  UNL     1     -11.340   8.248  70.280  1.00  0.00     0.000 HD 
HETATM   26  C   UNL     1      -9.021   6.779  67.607  1.00  0.00    -0.115 C  
HETATM   27  H   UNL     1     -10.016   6.690  69.464  1.00  0.00     0.000 HD 
HETATM   28  O   UNL     1      -8.463   5.689  67.671  1.00  0.00    -0.104 OA 
ENDBRANCH  14  15
ENDBRANCH  13  14
ENDBRANCH  12  13
ENDBRANCH  11  12
ENDBRANCH  10  11
ENDBRANCH   8  10
ENDBRANCH   3   8
TORSDOF 7
ENDMDL
MODEL      221
REMARK 921   NORMALIZED FREE ENERGY PREDICTED BY IDOCK:   -4.41 KCAL/MOL
REMARK 922        TOTAL FREE ENERGY PREDICTED BY IDOCK:   -6.76 KCAL/MOL
REMARK 923 INTER-LIGAND FREE ENERGY PREDICTED BY IDOCK:   -5.83 KCAL/MOL
REMARK 924 INTRA-LIGAND FREE ENERGY PREDICTED BY IDOCK:   -0.94 KCAL/MOL
REMARK 927      BINDING AFFINITY PREDICTED BY RF-SCORE:    0.00 PKD
ROOT
HETATM    1  C   UNL     1     -12.429  12.033  64.443  1.00  0.00    -0.328 C  
HETATM    2  C   UNL     1     -11.192  12.520  63.680  1.00  0.00    -0.545 C  
HETATM    3  C   UNL     1     -10.203  13.311  64.573  1.00  0.00    -0.310 C  
HETATM    4  C   UNL     1     -10.508  11.329  62.995  1.00  0.00    -0.183 C  
HETATM    5  H1  UNL     1      -9.019  12.990  66.254  1.00  0.00     0.000 HD 
HETATM    6  N   UNL     1      -9.670  12.469  65.667  1.00  0.00    -0.401 NA 
HETATM    7  H2  UNL     1      -9.247  11.613  65.308  1.00  0.00     0.000 HD 
ENDROOT
BRANCH   3   8
HETATM    8  C   UNL     1     -10.830  14.595  65.164  1.00  0.00    -0.401 C  
HETATM    9  O   UNL     1     -11.644  15.309  64.590  1.00  0.00    -0.404 OA 
BRANCH   8  10
HETATM   10  O   UNL     1     -10.409  14.799  66.446  1.00  0.00    -0.278 OA 
BRANCH  10  11
HETATM   11  C   UNL     1     -11.459  15.123  67.381  1.00  0.00    -0.277 C  
BRANCH  11  12
HETATM   12  C   UNL     1     -12.085  13.848  67.947  1.00  0.00    -0.283 C  
BRANCH  12  13
HETATM   13  O   UNL     1     -11.036  13.052  68.506  1.00  0.00    -0.240 OA 
BRANCH  13  14
HETATM   14  C   UNL     1     -11.385  11.668  68.560  1.00  0.00    -0.274 C  
BRANCH  14  15
HETATM   15  N   UNL     1     -10.191  10.877  68.795  1.00  0.00    -0.188 NA 
HETATM   16  C   UNL     1      -8.908  11.377  68.832  1.00  0.00    -0.001 A  
HETATM   17  N   UNL     1      -8.016  10.440  69.101  1.00  0.00    -0.130 NA 
HETATM   18  C   UNL     1      -8.750   9.281  69.249  1.00  0.00    -0.141 A  
HETATM   19  C   UNL     1     -10.076   9.548  69.046  1.00  0.00    -0.193 A  
HETATM   20  N   UNL     1     -11.022   8.606  69.129  1.00  0.00    -0.025 NA 
HETATM   21  C   UNL     1     -10.611   7.351  69.488  1.00  0.00    -0.237 C  
HETATM   22  N   UNL     1     -11.635   6.469  69.623  1.00  0.00    -0.629 NA 
HETATM   23  N   UNL     1      -9.384   6.980  69.705  1.00  0.00    -0.149 N  
HETATM   24  H2  UNL     1     -12.613   6.717  69.471  1.00  0.00     0.000 HD 
HETATM   25  H1  UNL     1     -11.329   5.534  69.890  1.00  0.00     0.000 HD 
HETATM   26  C   UNL     1      -8.338   7.909  69.585  1.00  0.00    -0.131 C  
HETATM   27  H   UNL     1      -9.181   6.014  69.962  1.00  0.00     0.000 HD 
HETATM   28  O   UNL     1      -7.164   7.598  69.751  1.00  0.00    -0.074 OA 
ENDBRANCH  14  15
ENDBRANCH  13  14
ENDBRANCH  12  13
ENDBRANCH  11  12
ENDBRANCH  10  11
ENDBRANCH   8  10
ENDBRANCH   3   8
TORSDOF 7
ENDMDL
MODEL      222
REMARK 921   NORMALIZED FREE ENERGY PREDICTED BY IDOCK:   -4.41 KCAL/MOL
REMARK 922        TOTAL FREE ENERGY PREDICTED BY IDOCK:   -6.75 KCAL/MOL
REMARK 923 INTER-LIGAND FREE ENERGY PREDICTED BY IDOCK:   -6.32 KCAL/MOL
REMARK 924 INTRA-LIGAND FREE ENERGY PREDICTED BY IDOCK:   -0.44 KCAL/MOL
REMARK 927      BINDING AFFINITY PREDICTED BY RF-SCORE:    0.00 PKD
ROOT
HETATM    1  C   UNL     1     -10.252  16.409  68.989  1.00  0.00    -0.269 C  
HETATM    2  C   UNL     1     -10.194  14.879  69.050  1.00  0.00    -0.243 C  
HETATM    3  C   UNL     1     -11.597  14.222  69.109  1.00  0.00    -0.305 C  
HETATM    4  C   UNL     1      -9.369  14.346  67.871  1.00  0.00    -0.203 C  
HETATM    5  H1  UNL     1     -13.310  14.095  67.934  1.00  0.00     0.000 HD 
HETATM    6  N   UNL     1     -12.387  14.527  67.896  1.00  0.00    -0.599 NA 
HETATM    7  H2  UNL     1     -11.886  14.263  67.047  1.00  0.00     0.000 HD 
ENDROOT
BRANCH   3   8
HETATM    8  C   UNL     1     -12.396  14.636  70.366  1.00  0.00    -0.339 C  
HETATM    9  O   UNL     1     -12.943  15.722  70.526  1.00  0.00    -0.454 OA 
BRANCH   8  10
HETATM   10  O   UNL     1     -12.475  13.607  71.258  1.00  0.00    -0.352 OA 
BRANCH  10  11
HETATM   11  C   UNL     1     -12.235  12.301  70.694  1.00  0.00    -0.287 C  
BRANCH  11  12
HETATM   12  C   UNL     1     -12.875  11.217  71.563  1.00  0.00    -0.437 C  
BRANCH  12  13
HETATM   13  O   UNL     1     -12.256   9.969  71.240  1.00  0.00    -0.342 OA 
BRANCH  13  14
HETATM   14  C   UNL     1     -10.980  10.148  70.625  1.00  0.00    -0.285 C  
BRANCH  14  15
HETATM   15  N   UNL     1     -10.882   9.295  69.454  1.00  0.00    -0.205 NA 
HETATM   16  C   UNL     1     -10.922   9.738  68.150  1.00  0.00    -0.175 A  
HETATM   17  N   UNL     1     -10.775   8.751  67.285  1.00  0.00    -0.228 NA 
HETATM   18  C   UNL     1     -10.630   7.617  68.058  1.00  0.00    -0.151 A  
HETATM   19  C   UNL     1     -10.712   7.951  69.382  1.00  0.00    -0.168 A  
HETATM   20  N   UNL     1     -10.603   7.046  70.362  1.00  0.00    -0.217 NA 
HETATM   21  C   UNL     1     -10.345   5.757  69.983  1.00  0.00    -0.259 C  
HETATM   22  N   UNL     1     -10.175   4.913  71.033  1.00  0.00    -0.213 NA 
HETATM   23  N   UNL     1     -10.246   5.323  68.761  1.00  0.00    -0.179 N  
HETATM   24  H2  UNL     1     -10.235   5.210  72.007  1.00  0.00     0.000 HD 
HETATM   25  H1  UNL     1      -9.982   3.952  70.751  1.00  0.00     0.000 HD 
HETATM   26  C   UNL     1     -10.400   6.212  67.686  1.00  0.00    -0.201 C  
HETATM   27  H   UNL     1     -10.057   4.336  68.584  1.00  0.00     0.000 HD 
HETATM   28  O   UNL     1     -10.345   5.843  66.518  1.00  0.00    -0.204 OA 
ENDBRANCH  14  15
ENDBRANCH  13  14
ENDBRANCH  12  13
ENDBRANCH  11  12
ENDBRANCH  10  11
ENDBRANCH   8  10
ENDBRANCH   3   8
TORSDOF 7
ENDMDL
MODEL      223
REMARK 921   NORMALIZED FREE ENERGY PREDICTED BY IDOCK:   -4.41 KCAL/MOL
REMARK 922        TOTAL FREE ENERGY PREDICTED BY IDOCK:   -6.75 KCAL/MOL
REMARK 923 INTER-LIGAND FREE ENERGY PREDICTED BY IDOCK:   -5.92 KCAL/MOL
REMARK 924 INTRA-LIGAND FREE ENERGY PREDICTED BY IDOCK:   -0.83 KCAL/MOL
REMARK 927      BINDING AFFINITY PREDICTED BY RF-SCORE:    0.00 PKD
ROOT
HETATM    1  C   UNL     1      -6.753  10.033  63.966  1.00  0.00    -0.128 C  
HETATM    2  C   UNL     1      -7.591   8.807  64.345  1.00  0.00    -0.116 C  
HETATM    3  C   UNL     1      -8.829   9.163  65.206  1.00  0.00    -0.199 C  
HETATM    4  C   UNL     1      -7.986   8.041  63.076  1.00  0.00    -0.148 C  
HETATM    5  H1  UNL     1     -10.574  10.285  65.042  1.00  0.00     0.000 HD 
HETATM    6  N   UNL     1      -9.760  10.051  64.475  1.00  0.00    -0.376 NA 
HETATM    7  H2  UNL     1     -10.032   9.649  63.577  1.00  0.00     0.000 HD 
ENDROOT
BRANCH   3   8
HETATM    8  C   UNL     1      -8.448   9.811  66.558  1.00  0.00    -0.124 C  
HETATM    9  O   UNL     1      -7.917   9.225  67.494  1.00  0.00    -0.099 OA 
BRANCH   8  10
HETATM   10  O   UNL     1      -8.720  11.148  66.554  1.00  0.00    -0.162 OA 
BRANCH  10  11
HETATM   11  C   UNL     1      -9.201  11.670  67.809  1.00  0.00    -0.178 C  
BRANCH  11  12
HETATM   12  C   UNL     1     -10.719  11.513  67.909  1.00  0.00    -0.200 C  
BRANCH  12  13
HETATM   13  O   UNL     1     -11.303  12.125  66.755  1.00  0.00    -0.302 OA 
BRANCH  13  14
HETATM   14  C   UNL     1     -12.157  13.215  67.102  1.00  0.00    -0.286 C  
BRANCH  14  15
HETATM   15  N   UNL     1     -11.416  14.460  67.008  1.00  0.00    -0.346 NA 
HETATM   16  C   UNL     1     -10.842  14.951  65.856  1.00  0.00    -0.334 A  
HETATM   17  N   UNL     1     -10.260  16.121  66.050  1.00  0.00    -0.336 NA 
HETATM   18  C   UNL     1     -10.467  16.406  67.385  1.00  0.00    -0.309 A  
HETATM   19  C   UNL     1     -11.159  15.382  67.970  1.00  0.00    -0.312 A  
HETATM   20  N   UNL     1     -11.501  15.389  69.264  1.00  0.00    -0.309 NA 
HETATM   21  C   UNL     1     -11.176  16.510  69.979  1.00  0.00    -0.148 C  
HETATM   22  N   UNL     1     -11.620  16.475  71.262  1.00  0.00    -0.586 NA 
HETATM   23  N   UNL     1     -10.522  17.541  69.532  1.00  0.00    -0.299 N  
HETATM   24  H2  UNL     1     -12.143  15.692  71.653  1.00  0.00     0.000 HD 
HETATM   25  H1  UNL     1     -11.377  17.309  71.795  1.00  0.00     0.000 HD 
HETATM   26  C   UNL     1     -10.090  17.573  68.197  1.00  0.00    -0.341 C  
HETATM   27  H   UNL     1     -10.323  18.326  70.152  1.00  0.00     0.000 HD 
HETATM   28  O   UNL     1      -9.445  18.510  67.740  1.00  0.00    -0.281 OA 
ENDBRANCH  14  15
ENDBRANCH  13  14
ENDBRANCH  12  13
ENDBRANCH  11  12
ENDBRANCH  10  11
ENDBRANCH   8  10
ENDBRANCH   3   8
TORSDOF 7
ENDMDL
MODEL      224
REMARK 921   NORMALIZED FREE ENERGY PREDICTED BY IDOCK:   -4.36 KCAL/MOL
REMARK 922        TOTAL FREE ENERGY PREDICTED BY IDOCK:   -6.68 KCAL/MOL
REMARK 923 INTER-LIGAND FREE ENERGY PREDICTED BY IDOCK:   -6.48 KCAL/MOL
REMARK 924 INTRA-LIGAND FREE ENERGY PREDICTED BY IDOCK:   -0.20 KCAL/MOL
REMARK 927      BINDING AFFINITY PREDICTED BY RF-SCORE:    0.00 PKD
ROOT
HETATM    1  C   UNL     1     -11.738   8.369  72.270  1.00  0.00    -0.453 C  
HETATM    2  C   UNL     1     -10.646   7.294  72.269  1.00  0.00    -0.257 C  
HETATM    3  C   UNL     1      -9.341   7.758  71.574  1.00  0.00    -0.137 C  
HETATM    4  C   UNL     1     -10.385   6.823  73.706  1.00  0.00    -0.397 C  
HETATM    5  H1  UNL     1      -7.879   9.219  71.816  1.00  0.00     0.000 HD 
HETATM    6  N   UNL     1      -8.738   8.915  72.273  1.00  0.00    -0.375 NA 
HETATM    7  H2  UNL     1      -8.585   8.715  73.262  1.00  0.00     0.000 HD 
ENDROOT
BRANCH   3   8
HETATM    8  C   UNL     1      -9.551   8.106  70.082  1.00  0.00    -0.168 C  
HETATM    9  O   UNL     1      -9.823   7.297  69.202  1.00  0.00    -0.162 OA 
BRANCH   8  10
HETATM   10  O   UNL     1      -9.462   9.452  69.876  1.00  0.00    -0.183 OA 
BRANCH  10  11
HETATM   11  C   UNL     1     -10.169   9.932  68.714  1.00  0.00    -0.189 C  
BRANCH  11  12
HETATM   12  C   UNL     1     -11.623  10.251  69.065  1.00  0.00    -0.081 C  
BRANCH  12  13
HETATM   13  O   UNL     1     -11.828  11.652  68.870  1.00  0.00    -0.303 OA 
BRANCH  13  14
HETATM   14  C   UNL     1     -12.122  12.326  70.094  1.00  0.00    -0.287 C  
BRANCH  14  15
HETATM   15  N   UNL     1     -11.863  13.746  69.939  1.00  0.00    -0.316 NA 
HETATM   16  C   UNL     1     -12.249  14.720  70.833  1.00  0.00    -0.318 A  
HETATM   17  N   UNL     1     -11.851  15.923  70.462  1.00  0.00    -0.361 NA 
HETATM   18  C   UNL     1     -11.173  15.724  69.276  1.00  0.00    -0.324 A  
HETATM   19  C   UNL     1     -11.197  14.396  68.952  1.00  0.00    -0.262 A  
HETATM   20  N   UNL     1     -10.613  13.913  67.850  1.00  0.00    -0.242 NA 
HETATM   21  C   UNL     1      -9.929  14.808  67.072  1.00  0.00    -0.238 C  
HETATM   22  N   UNL     1      -9.303  14.232  66.014  1.00  0.00    -0.521 NA 
HETATM   23  N   UNL     1      -9.838  16.088  67.279  1.00  0.00    -0.233 N  
HETATM   24  H2  UNL     1      -9.340  13.231  65.817  1.00  0.00     0.000 HD 
HETATM   25  H1  UNL     1      -8.794  14.899  65.435  1.00  0.00     0.000 HD 
HETATM   26  C   UNL     1     -10.470  16.667  68.391  1.00  0.00    -0.323 C  
HETATM   27  H   UNL     1      -9.307  16.673  66.633  1.00  0.00     0.000 HD 
HETATM   28  O   UNL     1     -10.437  17.873  68.610  1.00  0.00    -0.349 OA 
ENDBRANCH  14  15
ENDBRANCH  13  14
ENDBRANCH  12  13
ENDBRANCH  11  12
ENDBRANCH  10  11
ENDBRANCH   8  10
ENDBRANCH   3   8
TORSDOF 7
ENDMDL
MODEL      225
REMARK 921   NORMALIZED FREE ENERGY PREDICTED BY IDOCK:   -4.34 KCAL/MOL
REMARK 922        TOTAL FREE ENERGY PREDICTED BY IDOCK:   -6.66 KCAL/MOL
REMARK 923 INTER-LIGAND FREE ENERGY PREDICTED BY IDOCK:   -5.67 KCAL/MOL
REMARK 924 INTRA-LIGAND FREE ENERGY PREDICTED BY IDOCK:   -0.99 KCAL/MOL
REMARK 927      BINDING AFFINITY PREDICTED BY RF-SCORE:    0.00 PKD
ROOT
HETATM    1  C   UNL     1      -6.966   9.398  64.193  1.00  0.00    -0.099 C  
HETATM    2  C   UNL     1      -7.360   8.063  64.832  1.00  0.00    -0.084 C  
HETATM    3  C   UNL     1      -8.308   8.229  66.046  1.00  0.00    -0.128 C  
HETATM    4  C   UNL     1      -7.962   7.138  63.766  1.00  0.00    -0.072 C  
HETATM    5  H1  UNL     1     -10.213   8.964  66.449  1.00  0.00     0.000 HD 
HETATM    6  N   UNL     1      -9.589   8.855  65.650  1.00  0.00    -0.453 NA 
HETATM    7  H2  UNL     1     -10.038   8.340  64.893  1.00  0.00     0.000 HD 
ENDROOT
BRANCH   3   8
HETATM    8  C   UNL     1      -7.667   9.042  67.196  1.00  0.00    -0.099 C  
HETATM    9  O   UNL     1      -6.673   8.704  67.827  1.00  0.00    -0.064 OA 
BRANCH   8  10
HETATM   10  O   UNL     1      -8.316  10.228  67.377  1.00  0.00    -0.117 OA 
BRANCH  10  11
HETATM   11  C   UNL     1      -8.502  10.610  68.756  1.00  0.00    -0.149 C  
BRANCH  11  12
HETATM   12  C   UNL     1      -9.920  10.273  69.218  1.00  0.00    -0.227 C  
BRANCH  12  13
HETATM   13  O   UNL     1     -10.816  10.561  68.141  1.00  0.00    -0.214 OA 
BRANCH  13  14
HETATM   14  C   UNL     1     -12.027  11.164  68.598  1.00  0.00    -0.219 C  
BRANCH  14  15
HETATM   15  N   UNL     1     -11.833  12.596  68.738  1.00  0.00    -0.311 NA 
HETATM   16  C   UNL     1     -11.864  13.283  69.931  1.00  0.00    -0.310 A  
HETATM   17  N   UNL     1     -11.620  14.571  69.770  1.00  0.00    -0.280 NA 
HETATM   18  C   UNL     1     -11.417  14.729  68.414  1.00  0.00    -0.314 A  
HETATM   19  C   UNL     1     -11.564  13.524  67.786  1.00  0.00    -0.339 A  
HETATM   20  N   UNL     1     -11.420  13.379  66.463  1.00  0.00    -0.327 NA 
HETATM   21  C   UNL     1     -11.058  14.494  65.757  1.00  0.00    -0.324 C  
HETATM   22  N   UNL     1     -10.860  14.252  64.436  1.00  0.00    -0.612 NA 
HETATM   23  N   UNL     1     -10.891  15.688  66.245  1.00  0.00    -0.297 N  
HETATM   24  H2  UNL     1     -10.971  13.331  64.011  1.00  0.00     0.000 HD 
HETATM   25  H1  UNL     1     -10.590  15.083  63.910  1.00  0.00     0.000 HD 
HETATM   26  C   UNL     1     -11.075  15.918  67.618  1.00  0.00    -0.266 C  
HETATM   27  H   UNL     1     -10.626  16.457  65.630  1.00  0.00     0.000 HD 
HETATM   28  O   UNL     1     -10.959  17.032  68.116  1.00  0.00    -0.367 OA 
ENDBRANCH  14  15
ENDBRANCH  13  14
ENDBRANCH  12  13
ENDBRANCH  11  12
ENDBRANCH  10  11
ENDBRANCH   8  10
ENDBRANCH   3   8
TORSDOF 7
ENDMDL
MODEL      226
REMARK 921   NORMALIZED FREE ENERGY PREDICTED BY IDOCK:   -4.31 KCAL/MOL
REMARK 922        TOTAL FREE ENERGY PREDICTED BY IDOCK:   -6.61 KCAL/MOL
REMARK 923 INTER-LIGAND FREE ENERGY PREDICTED BY IDOCK:   -6.36 KCAL/MOL
REMARK 924 INTRA-LIGAND FREE ENERGY PREDICTED BY IDOCK:   -0.26 KCAL/MOL
REMARK 927      BINDING AFFINITY PREDICTED BY RF-SCORE:    0.00 PKD
ROOT
HETATM    1  C   UNL     1      -7.425   7.888  73.054  1.00  0.00    -0.146 C  
HETATM    2  C   UNL     1      -8.839   7.638  72.521  1.00  0.00    -0.183 C  
HETATM    3  C   UNL     1      -8.981   7.955  71.010  1.00  0.00    -0.142 C  
HETATM    4  C   UNL     1      -9.264   6.199  72.839  1.00  0.00    -0.134 C  
HETATM    5  H1  UNL     1      -8.199   7.295  69.198  1.00  0.00     0.000 HD 
HETATM    6  N   UNL     1      -8.105   7.087  70.192  1.00  0.00    -0.128 NA 
HETATM    7  H2  UNL     1      -8.273   6.099  70.384  1.00  0.00     0.000 HD 
ENDROOT
BRANCH   3   8
HETATM    8  C   UNL     1      -8.694   9.438  70.683  1.00  0.00    -0.211 C  
HETATM    9  O   UNL     1      -7.587   9.965  70.716  1.00  0.00    -0.305 OA 
BRANCH   8  10
HETATM   10  O   UNL     1      -9.829  10.081  70.283  1.00  0.00    -0.227 OA 
BRANCH  10  11
HETATM   11  C   UNL     1     -10.614   9.366  69.306  1.00  0.00    -0.225 C  
BRANCH  11  12
HETATM   12  C   UNL     1     -11.093  10.314  68.206  1.00  0.00    -0.254 C  
BRANCH  12  13
HETATM   13  O   UNL     1     -10.705  11.643  68.567  1.00  0.00    -0.199 OA 
BRANCH  13  14
HETATM   14  C   UNL     1     -11.549  12.628  67.970  1.00  0.00    -0.343 C  
BRANCH  14  15
HETATM   15  N   UNL     1     -10.933  13.936  68.100  1.00  0.00    -0.243 NA 
HETATM   16  C   UNL     1     -10.230  14.371  69.202  1.00  0.00    -0.127 A  
HETATM   17  N   UNL     1      -9.747  15.589  69.036  1.00  0.00    -0.221 NA 
HETATM   18  C   UNL     1     -10.150  15.962  67.770  1.00  0.00    -0.244 A  
HETATM   19  C   UNL     1     -10.887  14.957  67.208  1.00  0.00    -0.306 A  
HETATM   20  N   UNL     1     -11.406  15.045  65.978  1.00  0.00    -0.313 NA 
HETATM   21  C   UNL     1     -11.118  16.179  65.268  1.00  0.00    -0.181 C  
HETATM   22  N   UNL     1     -11.617  16.163  64.006  1.00  0.00    -1.417 NA 
HETATM   23  N   UNL     1     -10.431  17.197  65.697  1.00  0.00    -0.277 N  
HETATM   24  H2  UNL     1     -12.154  15.384  63.624  1.00  0.00     0.000 HD 
HETATM   25  H1  UNL     1     -11.402  17.008  63.476  1.00  0.00     0.000 HD 
HETATM   26  C   UNL     1      -9.901  17.189  66.996  1.00  0.00    -0.276 C  
HETATM   27  H   UNL     1     -10.278  18.001  65.088  1.00  0.00     0.000 HD 
HETATM   28  O   UNL     1      -9.273  18.138  67.453  1.00  0.00    -0.254 OA 
ENDBRANCH  14  15
ENDBRANCH  13  14
ENDBRANCH  12  13
ENDBRANCH  11  12
ENDBRANCH  10  11
ENDBRANCH   8  10
ENDBRANCH   3   8
TORSDOF 7
ENDMDL
MODEL      227
REMARK 921   NORMALIZED FREE ENERGY PREDICTED BY IDOCK:   -4.31 KCAL/MOL
REMARK 922        TOTAL FREE ENERGY PREDICTED BY IDOCK:   -6.61 KCAL/MOL
REMARK 923 INTER-LIGAND FREE ENERGY PREDICTED BY IDOCK:   -6.10 KCAL/MOL
REMARK 924 INTRA-LIGAND FREE ENERGY PREDICTED BY IDOCK:   -0.51 KCAL/MOL
REMARK 927      BINDING AFFINITY PREDICTED BY RF-SCORE:    0.00 PKD
ROOT
HETATM    1  C   UNL     1      -7.913  11.484  66.704  1.00  0.00    -0.127 C  
HETATM    2  C   UNL     1      -8.543  10.097  66.536  1.00  0.00    -0.132 C  
HETATM    3  C   UNL     1      -9.815  10.114  65.651  1.00  0.00    -0.280 C  
HETATM    4  C   UNL     1      -7.493   9.115  65.999  1.00  0.00    -0.095 C  
HETATM    5  H1  UNL     1     -10.347  10.575  63.692  1.00  0.00     0.000 HD 
HETATM    6  N   UNL     1      -9.510  10.564  64.274  1.00  0.00    -0.259 NA 
HETATM    7  H2  UNL     1      -8.769  10.004  63.853  1.00  0.00     0.000 HD 
ENDROOT
BRANCH   3   8
HETATM    8  C   UNL     1     -10.943  10.989  66.245  1.00  0.00    -0.117 C  
HETATM    9  O   UNL     1     -11.442  10.836  67.354  1.00  0.00    -0.467 OA 
BRANCH   8  10
HETATM   10  O   UNL     1     -11.273  12.005  65.397  1.00  0.00    -0.316 OA 
BRANCH  10  11
HETATM   11  C   UNL     1     -11.958  13.112  66.018  1.00  0.00    -0.433 C  
BRANCH  11  12
HETATM   12  C   UNL     1     -10.957  14.176  66.471  1.00  0.00    -0.309 C  
BRANCH  12  13
HETATM   13  O   UNL     1     -11.351  15.426  65.900  1.00  0.00    -0.249 OA 
BRANCH  13  14
HETATM   14  C   UNL     1     -10.237  16.155  65.385  1.00  0.00    -0.264 C  
BRANCH  14  15
HETATM   15  N   UNL     1      -9.726  17.047  66.411  1.00  0.00    -0.280 NA 
HETATM   16  C   UNL     1     -10.434  17.465  67.516  1.00  0.00    -0.354 A  
HETATM   17  N   UNL     1      -9.714  18.244  68.303  1.00  0.00    -0.318 NA 
HETATM   18  C   UNL     1      -8.482  18.333  67.686  1.00  0.00    -0.255 A  
HETATM   19  C   UNL     1      -8.499  17.614  66.523  1.00  0.00    -0.264 A  
HETATM   20  N   UNL     1      -7.434  17.521  65.718  1.00  0.00    -0.473 NA 
HETATM   21  C   UNL     1      -6.288  18.139  66.139  1.00  0.00    -0.225 C  
HETATM   22  N   UNL     1      -5.234  17.940  65.307  1.00  0.00    -0.098 NA 
HETATM   23  N   UNL     1      -6.154  18.848  67.221  1.00  0.00    -0.168 N  
HETATM   24  H2  UNL     1      -5.290  17.385  64.453  1.00  0.00     0.000 HD 
HETATM   25  H1  UNL     1      -4.380  18.400  65.621  1.00  0.00     0.000 HD 
HETATM   26  C   UNL     1      -7.247  19.026  68.084  1.00  0.00    -0.260 C  
HETATM   27  H   UNL     1      -5.254  19.275  67.442  1.00  0.00     0.000 HD 
HETATM   28  O   UNL     1      -7.175  19.710  69.099  1.00  0.00    -0.354 OA 
ENDBRANCH  14  15
ENDBRANCH  13  14
ENDBRANCH  12  13
ENDBRANCH  11  12
ENDBRANCH  10  11
ENDBRANCH   8  10
ENDBRANCH   3   8
TORSDOF 7
ENDMDL
MODEL      228
REMARK 921   NORMALIZED FREE ENERGY PREDICTED BY IDOCK:   -4.31 KCAL/MOL
REMARK 922        TOTAL FREE ENERGY PREDICTED BY IDOCK:   -6.61 KCAL/MOL
REMARK 923 INTER-LIGAND FREE ENERGY PREDICTED BY IDOCK:   -5.80 KCAL/MOL
REMARK 924 INTRA-LIGAND FREE ENERGY PREDICTED BY IDOCK:   -0.81 KCAL/MOL
REMARK 927      BINDING AFFINITY PREDICTED BY RF-SCORE:    0.00 PKD
ROOT
HETATM    1  C   UNL     1      -8.596   8.799  65.437  1.00  0.00    -0.203 C  
HETATM    2  C   UNL     1      -7.927   7.761  66.345  1.00  0.00    -0.099 C  
HETATM    3  C   UNL     1      -8.909   6.670  66.842  1.00  0.00    -0.118 C  
HETATM    4  C   UNL     1      -6.718   7.149  65.625  1.00  0.00    -0.052 C  
HETATM    5  H1  UNL     1     -10.111   5.171  66.042  1.00  0.00     0.000 HD 
HETATM    6  N   UNL     1      -9.466   5.889  65.715  1.00  0.00    -0.363 NA 
HETATM    7  H2  UNL     1      -8.726   5.491  65.135  1.00  0.00     0.000 HD 
ENDROOT
BRANCH   3   8
HETATM    8  C   UNL     1     -10.064   7.250  67.691  1.00  0.00    -0.181 C  
HETATM    9  O   UNL     1     -10.906   8.043  67.286  1.00  0.00    -0.261 OA 
BRANCH   8  10
HETATM   10  O   UNL     1     -10.068   6.711  68.945  1.00  0.00    -0.155 OA 
BRANCH  10  11
HETATM   11  C   UNL     1     -11.359   6.261  69.403  1.00  0.00    -0.378 C  
BRANCH  11  12
HETATM   12  C   UNL     1     -11.432   6.309  70.931  1.00  0.00    -0.312 C  
BRANCH  12  13
HETATM   13  O   UNL     1     -10.384   7.163  71.397  1.00  0.00    -0.198 OA 
BRANCH  13  14
HETATM   14  C   UNL     1     -10.863   8.149  72.311  1.00  0.00    -0.320 C  
BRANCH  14  15
HETATM   15  N   UNL     1     -11.413   9.270  71.571  1.00  0.00    -0.358 NA 
HETATM   16  C   UNL     1     -12.665   9.808  71.769  1.00  0.00    -0.426 A  
HETATM   17  N   UNL     1     -12.892  10.844  70.983  1.00  0.00    -0.380 NA 
HETATM   18  C   UNL     1     -11.737  10.990  70.242  1.00  0.00    -0.355 A  
HETATM   19  C   UNL     1     -10.842  10.017  70.592  1.00  0.00    -0.297 A  
HETATM   20  N   UNL     1      -9.631   9.917  70.034  1.00  0.00    -0.236 NA 
HETATM   21  C   UNL     1      -9.292  10.878  69.121  1.00  0.00    -0.078 C  
HETATM   22  N   UNL     1      -8.024  10.753  68.653  1.00  0.00    -0.124 NA 
HETATM   23  N   UNL     1     -10.057  11.847  68.710  1.00  0.00    -0.369 N  
HETATM   24  H2  UNL     1      -7.386  10.015  68.953  1.00  0.00     0.000 HD 
HETATM   25  H1  UNL     1      -7.772  11.469  67.973  1.00  0.00     0.000 HD 
HETATM   26  C   UNL     1     -11.359  11.979  69.220  1.00  0.00    -0.268 C  
HETATM   27  H   UNL     1      -9.711  12.511  68.017  1.00  0.00     0.000 HD 
HETATM   28  O   UNL     1     -12.125  12.857  68.841  1.00  0.00    -0.270 OA 
ENDBRANCH  14  15
ENDBRANCH  13  14
ENDBRANCH  12  13
ENDBRANCH  11  12
ENDBRANCH  10  11
ENDBRANCH   8  10
ENDBRANCH   3   8
TORSDOF 7
ENDMDL
MODEL      229
REMARK 921   NORMALIZED FREE ENERGY PREDICTED BY IDOCK:   -4.29 KCAL/MOL
REMARK 922        TOTAL FREE ENERGY PREDICTED BY IDOCK:   -6.59 KCAL/MOL
REMARK 923 INTER-LIGAND FREE ENERGY PREDICTED BY IDOCK:   -6.12 KCAL/MOL
REMARK 924 INTRA-LIGAND FREE ENERGY PREDICTED BY IDOCK:   -0.47 KCAL/MOL
REMARK 927      BINDING AFFINITY PREDICTED BY RF-SCORE:    0.00 PKD
ROOT
HETATM    1  C   UNL     1      -9.897   4.259  66.549  1.00  0.00    -0.238 C  
HETATM    2  C   UNL     1      -9.064   4.708  67.754  1.00  0.00    -0.136 C  
HETATM    3  C   UNL     1      -9.523   6.069  68.334  1.00  0.00    -0.119 C  
HETATM    4  C   UNL     1      -9.068   3.607  68.823  1.00  0.00    -0.200 C  
HETATM    5  H1  UNL     1     -11.216   6.897  69.217  1.00  0.00     0.000 HD 
HETATM    6  N   UNL     1     -10.914   6.002  68.835  1.00  0.00    -0.338 NA 
HETATM    7  H2  UNL     1     -11.031   5.248  69.513  1.00  0.00     0.000 HD 
ENDROOT
BRANCH   3   8
HETATM    8  C   UNL     1      -9.395   7.225  67.315  1.00  0.00    -0.132 C  
HETATM    9  O   UNL     1      -8.490   7.345  66.497  1.00  0.00    -0.117 OA 
BRANCH   8  10
HETATM   10  O   UNL     1     -10.463   8.071  67.396  1.00  0.00    -0.258 OA 
BRANCH  10  11
HETATM   11  C   UNL     1     -10.177   9.346  68.005  1.00  0.00    -0.204 C  
BRANCH  11  12
HETATM   12  C   UNL     1     -10.879   9.463  69.359  1.00  0.00    -0.189 C  
BRANCH  12  13
HETATM   13  O   UNL     1     -10.993  10.852  69.679  1.00  0.00    -0.251 OA 
BRANCH  13  14
HETATM   14  C   UNL     1     -12.029  11.491  68.932  1.00  0.00    -0.299 C  
BRANCH  14  15
HETATM   15  N   UNL     1     -11.580  12.804  68.505  1.00  0.00    -0.299 NA 
HETATM   16  C   UNL     1     -11.209  13.131  67.220  1.00  0.00    -0.287 A  
HETATM   17  N   UNL     1     -10.879  14.404  67.106  1.00  0.00    -0.288 NA 
HETATM   18  C   UNL     1     -11.045  14.931  68.370  1.00  0.00    -0.273 A  
HETATM   19  C   UNL     1     -11.458  13.947  69.226  1.00  0.00    -0.297 A  
HETATM   20  N   UNL     1     -11.701  14.174  70.522  1.00  0.00    -0.256 NA 
HETATM   21  C   UNL     1     -11.572  15.466  70.955  1.00  0.00    -0.367 C  
HETATM   22  N   UNL     1     -11.905  15.629  72.261  1.00  0.00    -0.436 NA 
HETATM   23  N   UNL     1     -11.188  16.479  70.237  1.00  0.00    -0.469 N  
HETATM   24  H2  UNL     1     -12.220  14.866  72.860  1.00  0.00     0.000 HD 
HETATM   25  H1  UNL     1     -11.810  16.592  72.584  1.00  0.00     0.000 HD 
HETATM   26  C   UNL     1     -10.870  16.299  68.881  1.00  0.00    -0.317 C  
HETATM   27  H   UNL     1     -11.118  17.406  70.659  1.00  0.00     0.000 HD 
HETATM   28  O   UNL     1     -10.475  17.219  68.174  1.00  0.00    -0.345 OA 
ENDBRANCH  14  15
ENDBRANCH  13  14
ENDBRANCH  12  13
ENDBRANCH  11  12
ENDBRANCH  10  11
ENDBRANCH   8  10
ENDBRANCH   3   8
TORSDOF 7
ENDMDL
MODEL      230
REMARK 921   NORMALIZED FREE ENERGY PREDICTED BY IDOCK:   -4.29 KCAL/MOL
REMARK 922        TOTAL FREE ENERGY PREDICTED BY IDOCK:   -6.59 KCAL/MOL
REMARK 923 INTER-LIGAND FREE ENERGY PREDICTED BY IDOCK:   -5.53 KCAL/MOL
REMARK 924 INTRA-LIGAND FREE ENERGY PREDICTED BY IDOCK:   -1.06 KCAL/MOL
REMARK 927      BINDING AFFINITY PREDICTED BY RF-SCORE:    0.00 PKD
ROOT
HETATM    1  C   UNL     1      -7.089  11.658  67.505  1.00  0.00    -0.111 C  
HETATM    2  C   UNL     1      -6.972  11.654  69.033  1.00  0.00    -0.111 C  
HETATM    3  C   UNL     1      -6.961  10.227  69.636  1.00  0.00    -0.114 C  
HETATM    4  C   UNL     1      -5.736  12.458  69.458  1.00  0.00    -0.096 C  
HETATM    5  H1  UNL     1      -5.788   8.510  69.559  1.00  0.00     0.000 HD 
HETATM    6  N   UNL     1      -5.795   9.449  69.162  1.00  0.00    -0.035 NA 
HETATM    7  H2  UNL     1      -4.919   9.939  69.346  1.00  0.00     0.000 HD 
ENDROOT
BRANCH   3   8
HETATM    8  C   UNL     1      -8.262   9.445  69.340  1.00  0.00    -0.119 C  
HETATM    9  O   UNL     1      -9.394   9.835  69.604  1.00  0.00    -0.191 OA 
BRANCH   8  10
HETATM   10  O   UNL     1      -7.994   8.282  68.678  1.00  0.00    -0.117 OA 
BRANCH  10  11
HETATM   11  C   UNL     1      -8.790   8.064  67.495  1.00  0.00    -0.128 C  
BRANCH  11  12
HETATM   12  C   UNL     1      -7.962   8.328  66.236  1.00  0.00    -0.100 C  
BRANCH  12  13
HETATM   13  O   UNL     1      -8.752   9.122  65.347  1.00  0.00    -0.163 OA 
BRANCH  13  14
HETATM   14  C   UNL     1     -10.007   9.484  65.923  1.00  0.00    -0.272 C  
BRANCH  14  15
HETATM   15  N   UNL     1     -10.478  10.719  65.323  1.00  0.00    -0.248 NA 
HETATM   16  C   UNL     1     -10.519  10.972  63.969  1.00  0.00    -0.366 A  
HETATM   17  N   UNL     1     -11.026  12.161  63.700  1.00  0.00    -0.424 NA 
HETATM   18  C   UNL     1     -11.333  12.705  64.931  1.00  0.00    -0.311 A  
HETATM   19  C   UNL     1     -10.982  11.828  65.920  1.00  0.00    -0.304 A  
HETATM   20  N   UNL     1     -11.168  12.093  67.218  1.00  0.00    -0.286 NA 
HETATM   21  C   UNL     1     -11.787  13.275  67.522  1.00  0.00    -0.358 C  
HETATM   22  N   UNL     1     -12.006  13.440  68.852  1.00  0.00    -0.338 NA 
HETATM   23  N   UNL     1     -12.163  14.183  66.671  1.00  0.00    -0.483 N  
HETATM   24  H2  UNL     1     -11.735  12.752  69.554  1.00  0.00     0.000 HD 
HETATM   25  H1  UNL     1     -12.467  14.321  69.078  1.00  0.00     0.000 HD 
HETATM   26  C   UNL     1     -11.952  13.988  65.297  1.00  0.00    -0.379 C  
HETATM   27  H   UNL     1     -12.612  15.038  67.002  1.00  0.00     0.000 HD 
HETATM   28  O   UNL     1     -12.263  14.829  64.460  1.00  0.00    -0.473 OA 
ENDBRANCH  14  15
ENDBRANCH  13  14
ENDBRANCH  12  13
ENDBRANCH  11  12
ENDBRANCH  10  11
ENDBRANCH   8  10
ENDBRANCH   3   8
TORSDOF 7
ENDMDL
MODEL      231
REMARK 921   NORMALIZED FREE ENERGY PREDICTED BY IDOCK:   -4.28 KCAL/MOL
REMARK 922        TOTAL FREE ENERGY PREDICTED BY IDOCK:   -6.57 KCAL/MOL
REMARK 923 INTER-LIGAND FREE ENERGY PREDICTED BY IDOCK:   -7.00 KCAL/MOL
REMARK 924 INTRA-LIGAND FREE ENERGY PREDICTED BY IDOCK:    0.42 KCAL/MOL
REMARK 927      BINDING AFFINITY PREDICTED BY RF-SCORE:    0.00 PKD
ROOT
HETATM    1  C   UNL     1     -10.506   7.455  70.536  1.00  0.00    -0.227 C  
HETATM    2  C   UNL     1     -10.668   8.549  71.597  1.00  0.00    -0.351 C  
HETATM    3  C   UNL     1     -11.329   9.836  71.043  1.00  0.00    -0.387 C  
HETATM    4  C   UNL     1     -11.439   7.990  72.800  1.00  0.00    -0.420 C  
HETATM    5  H1  UNL     1     -13.135  10.419  70.189  1.00  0.00     0.000 HD 
HETATM    6  N   UNL     1     -12.700   9.573  70.553  1.00  0.00    -0.497 NA 
HETATM    7  H2  UNL     1     -13.277   9.137  71.274  1.00  0.00     0.000 HD 
ENDROOT
BRANCH   3   8
HETATM    8  C   UNL     1     -10.496  10.498  69.920  1.00  0.00    -0.164 C  
HETATM    9  O   UNL     1      -9.298  10.316  69.732  1.00  0.00    -0.188 OA 
BRANCH   8  10
HETATM   10  O   UNL     1     -11.284  11.266  69.113  1.00  0.00    -0.230 OA 
BRANCH  10  11
HETATM   11  C   UNL     1     -11.028  12.683  69.193  1.00  0.00    -0.142 C  
BRANCH  11  12
HETATM   12  C   UNL     1     -11.056  13.312  67.799  1.00  0.00    -0.265 C  
BRANCH  12  13
HETATM   13  O   UNL     1      -9.724  13.716  67.471  1.00  0.00    -0.218 OA 
BRANCH  13  14
HETATM   14  C   UNL     1      -9.136  14.511  68.501  1.00  0.00    -0.190 C  
BRANCH  14  15
HETATM   15  N   UNL     1      -9.277  15.917  68.169  1.00  0.00    -0.189 NA 
HETATM   16  C   UNL     1      -8.759  16.958  68.907  1.00  0.00    -0.212 A  
HETATM   17  N   UNL     1      -9.006  18.131  68.355  1.00  0.00    -0.289 NA 
HETATM   18  C   UNL     1      -9.712  17.843  67.204  1.00  0.00    -0.289 A  
HETATM   19  C   UNL     1      -9.889  16.491  67.103  1.00  0.00    -0.255 A  
HETATM   20  N   UNL     1     -10.541  15.924  66.081  1.00  0.00    -0.312 NA 
HETATM   21  C   UNL     1     -10.983  16.762  65.093  1.00  0.00    -0.100 C  
HETATM   22  N   UNL     1     -11.568  16.108  64.057  1.00  0.00    -1.417 NA 
HETATM   23  N   UNL     1     -10.873  18.058  65.081  1.00  0.00     0.215 N  
HETATM   24  H2  UNL     1     -11.669  15.094  64.018  1.00  0.00     0.000 HD 
HETATM   25  H1  UNL     1     -11.897  16.732  63.320  1.00  0.00     0.000 HD 
HETATM   26  C   UNL     1     -10.244  18.718  66.148  1.00  0.00    -0.421 C  
HETATM   27  H   UNL     1     -11.244  18.594  64.297  1.00  0.00     0.000 HD 
HETATM   28  O   UNL     1     -10.144  19.939  66.195  1.00  0.00    -0.448 OA 
ENDBRANCH  14  15
ENDBRANCH  13  14
ENDBRANCH  12  13
ENDBRANCH  11  12
ENDBRANCH  10  11
ENDBRANCH   8  10
ENDBRANCH   3   8
TORSDOF 7
ENDMDL
MODEL      232
REMARK 921   NORMALIZED FREE ENERGY PREDICTED BY IDOCK:   -4.28 KCAL/MOL
REMARK 922        TOTAL FREE ENERGY PREDICTED BY IDOCK:   -6.57 KCAL/MOL
REMARK 923 INTER-LIGAND FREE ENERGY PREDICTED BY IDOCK:   -6.08 KCAL/MOL
REMARK 924 INTRA-LIGAND FREE ENERGY PREDICTED BY IDOCK:   -0.49 KCAL/MOL
REMARK 927      BINDING AFFINITY PREDICTED BY RF-SCORE:    0.00 PKD
ROOT
HETATM    1  C   UNL     1     -11.000   4.503  65.528  1.00  0.00     0.049 C  
HETATM    2  C   UNL     1      -9.523   4.371  65.912  1.00  0.00    -0.174 C  
HETATM    3  C   UNL     1      -9.075   5.415  66.966  1.00  0.00    -0.112 C  
HETATM    4  C   UNL     1      -9.238   2.938  66.380  1.00  0.00    -0.113 C  
HETATM    5  H1  UNL     1      -9.521   5.940  68.930  1.00  0.00     0.000 HD 
HETATM    6  N   UNL     1      -9.816   5.254  68.237  1.00  0.00    -0.147 NA 
HETATM    7  H2  UNL     1      -9.737   4.302  68.596  1.00  0.00     0.000 HD 
ENDROOT
BRANCH   3   8
HETATM    8  C   UNL     1      -9.221   6.870  66.462  1.00  0.00    -0.163 C  
HETATM    9  O   UNL     1      -8.554   7.376  65.567  1.00  0.00    -0.139 OA 
BRANCH   8  10
HETATM   10  O   UNL     1     -10.244   7.509  67.101  1.00  0.00    -0.222 OA 
BRANCH  10  11
HETATM   11  C   UNL     1     -10.594   8.793  66.545  1.00  0.00     0.052 C  
BRANCH  11  12
HETATM   12  C   UNL     1     -10.763   9.830  67.657  1.00  0.00    -0.274 C  
BRANCH  12  13
HETATM   13  O   UNL     1     -10.976  11.104  67.044  1.00  0.00    -0.275 OA 
BRANCH  13  14
HETATM   14  C   UNL     1     -10.478  11.145  65.707  1.00  0.00    -0.246 C  
BRANCH  14  15
HETATM   15  N   UNL     1     -10.922  12.368  65.062  1.00  0.00    -0.289 NA 
HETATM   16  C   UNL     1     -11.880  12.435  64.074  1.00  0.00    -0.439 A  
HETATM   17  N   UNL     1     -12.114  13.678  63.693  1.00  0.00    -0.551 NA 
HETATM   18  C   UNL     1     -11.276  14.454  64.468  1.00  0.00    -0.306 A  
HETATM   19  C   UNL     1     -10.538  13.649  65.291  1.00  0.00    -0.346 A  
HETATM   20  N   UNL     1      -9.640  14.133  66.157  1.00  0.00    -0.281 NA 
HETATM   21  C   UNL     1      -9.527  15.495  66.229  1.00  0.00    -0.323 C  
HETATM   22  N   UNL     1      -8.651  15.912  67.179  1.00  0.00    -0.182 NA 
HETATM   23  N   UNL     1     -10.173  16.356  65.499  1.00  0.00    -0.313 N  
HETATM   24  H2  UNL     1      -8.129  15.273  67.780  1.00  0.00     0.000 HD 
HETATM   25  H1  UNL     1      -8.567  16.926  67.233  1.00  0.00     0.000 HD 
HETATM   26  C   UNL     1     -11.093  15.912  64.537  1.00  0.00    -0.269 C  
HETATM   27  H   UNL     1     -10.011  17.356  65.627  1.00  0.00     0.000 HD 
HETATM   28  O   UNL     1     -11.702  16.685  63.807  1.00  0.00    -1.015 OA 
ENDBRANCH  14  15
ENDBRANCH  13  14
ENDBRANCH  12  13
ENDBRANCH  11  12
ENDBRANCH  10  11
ENDBRANCH   8  10
ENDBRANCH   3   8
TORSDOF 7
ENDMDL
MODEL      233
REMARK 921   NORMALIZED FREE ENERGY PREDICTED BY IDOCK:   -4.27 KCAL/MOL
REMARK 922        TOTAL FREE ENERGY PREDICTED BY IDOCK:   -6.56 KCAL/MOL
REMARK 923 INTER-LIGAND FREE ENERGY PREDICTED BY IDOCK:   -5.86 KCAL/MOL
REMARK 924 INTRA-LIGAND FREE ENERGY PREDICTED BY IDOCK:   -0.70 KCAL/MOL
REMARK 927      BINDING AFFINITY PREDICTED BY RF-SCORE:    0.00 PKD
ROOT
HETATM    1  C   UNL     1      -8.394   7.006  65.452  1.00  0.00    -0.121 C  
HETATM    2  C   UNL     1      -7.032   7.709  65.452  1.00  0.00    -0.059 C  
HETATM    3  C   UNL     1      -7.137   9.232  65.715  1.00  0.00    -0.086 C  
HETATM    4  C   UNL     1      -6.098   7.024  66.458  1.00  0.00    -0.035 C  
HETATM    5  H1  UNL     1      -7.780  10.514  67.224  1.00  0.00     0.000 HD 
HETATM    6  N   UNL     1      -7.711   9.512  67.050  1.00  0.00    -0.091 NA 
HETATM    7  H2  UNL     1      -7.188   9.040  67.788  1.00  0.00     0.000 HD 
ENDROOT
BRANCH   3   8
HETATM    8  C   UNL     1      -7.961   9.969  64.633  1.00  0.00    -0.145 C  
HETATM    9  O   UNL     1      -7.698   9.981  63.436  1.00  0.00    -0.140 OA 
BRANCH   8  10
HETATM   10  O   UNL     1      -9.067  10.556  65.174  1.00  0.00    -0.177 OA 
BRANCH  10  11
HETATM   11  C   UNL     1     -10.265  10.430  64.381  1.00  0.00    -0.175 C  
BRANCH  11  12
HETATM   12  C   UNL     1     -10.782  11.809  63.968  1.00  0.00    -0.378 C  
BRANCH  12  13
HETATM   13  O   UNL     1     -10.278  12.768  64.902  1.00  0.00    -0.295 OA 
BRANCH  13  14
HETATM   14  C   UNL     1     -11.158  13.882  65.053  1.00  0.00    -0.353 C  
BRANCH  14  15
HETATM   15  N   UNL     1     -11.162  14.312  66.440  1.00  0.00    -0.329 NA 
HETATM   16  C   UNL     1     -10.978  15.609  66.864  1.00  0.00    -0.243 A  
HETATM   17  N   UNL     1     -11.066  15.721  68.177  1.00  0.00    -0.328 NA 
HETATM   18  C   UNL     1     -11.322  14.442  68.628  1.00  0.00    -0.273 A  
HETATM   19  C   UNL     1     -11.364  13.582  67.566  1.00  0.00    -0.308 A  
HETATM   20  N   UNL     1     -11.598  12.272  67.708  1.00  0.00    -0.335 NA 
HETATM   21  C   UNL     1     -11.855  11.827  68.976  1.00  0.00    -0.317 C  
HETATM   22  N   UNL     1     -12.155  10.504  69.031  1.00  0.00    -0.713 NA 
HETATM   23  N   UNL     1     -11.842  12.549  70.058  1.00  0.00    -0.478 N  
HETATM   24  H2  UNL     1     -12.185   9.901  68.208  1.00  0.00     0.000 HD 
HETATM   25  H1  UNL     1     -12.347  10.172  69.976  1.00  0.00     0.000 HD 
HETATM   26  C   UNL     1     -11.554  13.921  69.984  1.00  0.00    -0.212 C  
HETATM   27  H   UNL     1     -12.042  12.117  70.961  1.00  0.00     0.000 HD 
HETATM   28  O   UNL     1     -11.501  14.634  70.980  1.00  0.00    -0.266 OA 
ENDBRANCH  14  15
ENDBRANCH  13  14
ENDBRANCH  12  13
ENDBRANCH  11  12
ENDBRANCH  10  11
ENDBRANCH   8  10
ENDBRANCH   3   8
TORSDOF 7
ENDMDL
MODEL      234
REMARK 921   NORMALIZED FREE ENERGY PREDICTED BY IDOCK:   -4.25 KCAL/MOL
REMARK 922        TOTAL FREE ENERGY PREDICTED BY IDOCK:   -6.53 KCAL/MOL
REMARK 923 INTER-LIGAND FREE ENERGY PREDICTED BY IDOCK:   -5.63 KCAL/MOL
REMARK 924 INTRA-LIGAND FREE ENERGY PREDICTED BY IDOCK:   -0.90 KCAL/MOL
REMARK 927      BINDING AFFINITY PREDICTED BY RF-SCORE:    0.00 PKD
ROOT
HETATM    1  C   UNL     1     -10.571  11.224  65.176  1.00  0.00    -0.343 C  
HETATM    2  C   UNL     1      -9.140  10.786  64.847  1.00  0.00    -0.221 C  
HETATM    3  C   UNL     1      -8.453  10.037  66.016  1.00  0.00    -0.131 C  
HETATM    4  C   UNL     1      -9.141   9.948  63.561  1.00  0.00    -0.289 C  
HETATM    5  H1  UNL     1      -8.715   8.294  67.122  1.00  0.00     0.000 HD 
HETATM    6  N   UNL     1      -9.168   8.786  66.353  1.00  0.00    -0.174 NA 
HETATM    7  H2  UNL     1      -9.274   8.185  65.535  1.00  0.00     0.000 HD 
ENDROOT
BRANCH   3   8
HETATM    8  C   UNL     1      -8.314  10.912  67.284  1.00  0.00    -0.123 C  
HETATM    9  O   UNL     1      -8.008  10.497  68.396  1.00  0.00    -0.107 OA 
BRANCH   8  10
HETATM   10  O   UNL     1      -8.512  12.231  66.993  1.00  0.00    -0.180 OA 
BRANCH  10  11
HETATM   11  C   UNL     1      -8.899  13.045  68.119  1.00  0.00    -0.194 C  
BRANCH  11  12
HETATM   12  C   UNL     1     -10.160  13.847  67.792  1.00  0.00    -0.241 C  
BRANCH  12  13
HETATM   13  O   UNL     1     -11.195  13.425  68.684  1.00  0.00    -0.240 OA 
BRANCH  13  14
HETATM   14  C   UNL     1     -11.668  12.114  68.373  1.00  0.00    -0.332 C  
BRANCH  14  15
HETATM   15  N   UNL     1     -11.859  11.365  69.602  1.00  0.00    -0.331 NA 
HETATM   16  C   UNL     1     -12.519  11.832  70.717  1.00  0.00    -0.312 A  
HETATM   17  N   UNL     1     -12.577  10.928  71.677  1.00  0.00    -0.364 NA 
HETATM   18  C   UNL     1     -11.929   9.822  71.165  1.00  0.00    -0.376 A  
HETATM   19  C   UNL     1     -11.478  10.098  69.904  1.00  0.00    -0.254 A  
HETATM   20  N   UNL     1     -10.812   9.203  69.165  1.00  0.00    -0.165 NA 
HETATM   21  C   UNL     1     -10.647   7.958  69.707  1.00  0.00    -0.242 C  
HETATM   22  N   UNL     1     -10.029   7.086  68.871  1.00  0.00    -0.157 NA 
HETATM   23  N   UNL     1     -11.030   7.582  70.892  1.00  0.00    -0.249 N  
HETATM   24  H2  UNL     1      -9.719   7.333  67.931  1.00  0.00     0.000 HD 
HETATM   25  H1  UNL     1      -9.905   6.157  69.275  1.00  0.00     0.000 HD 
HETATM   26  C   UNL     1     -11.690   8.488  71.737  1.00  0.00    -0.327 C  
HETATM   27  H   UNL     1     -10.852   6.627  71.206  1.00  0.00     0.000 HD 
HETATM   28  O   UNL     1     -12.042   8.187  72.872  1.00  0.00    -0.278 OA 
ENDBRANCH  14  15
ENDBRANCH  13  14
ENDBRANCH  12  13
ENDBRANCH  11  12
ENDBRANCH  10  11
ENDBRANCH   8  10
ENDBRANCH   3   8
TORSDOF 7
ENDMDL
MODEL      235
REMARK 921   NORMALIZED FREE ENERGY PREDICTED BY IDOCK:   -4.23 KCAL/MOL
REMARK 922        TOTAL FREE ENERGY PREDICTED BY IDOCK:   -6.50 KCAL/MOL
REMARK 923 INTER-LIGAND FREE ENERGY PREDICTED BY IDOCK:   -5.07 KCAL/MOL
REMARK 924 INTRA-LIGAND FREE ENERGY PREDICTED BY IDOCK:   -1.43 KCAL/MOL
REMARK 927      BINDING AFFINITY PREDICTED BY RF-SCORE:    0.00 PKD
ROOT
HETATM    1  C   UNL     1      -9.885   4.416  66.788  1.00  0.00    -0.241 C  
HETATM    2  C   UNL     1      -9.385   5.239  67.981  1.00  0.00    -0.135 C  
HETATM    3  C   UNL     1      -9.371   6.763  67.702  1.00  0.00    -0.120 C  
HETATM    4  C   UNL     1     -10.217   4.899  69.225  1.00  0.00    -0.205 C  
HETATM    5  H1  UNL     1     -10.722   8.278  67.244  1.00  0.00     0.000 HD 
HETATM    6  N   UNL     1     -10.732   7.275  67.427  1.00  0.00    -0.412 NA 
HETATM    7  H2  UNL     1     -11.379   7.039  68.180  1.00  0.00     0.000 HD 
ENDROOT
BRANCH   3   8
HETATM    8  C   UNL     1      -8.428   7.146  66.538  1.00  0.00    -0.125 C  
HETATM    9  O   UNL     1      -7.267   6.770  66.419  1.00  0.00    -0.069 OA 
BRANCH   8  10
HETATM   10  O   UNL     1      -9.077   7.912  65.614  1.00  0.00    -0.095 OA 
BRANCH  10  11
HETATM   11  C   UNL     1      -8.608   9.273  65.522  1.00  0.00    -0.152 C  
BRANCH  11  12
HETATM   12  C   UNL     1      -9.787  10.247  65.523  1.00  0.00    -0.282 C  
BRANCH  12  13
HETATM   13  O   UNL     1     -10.475  10.106  66.769  1.00  0.00    -0.232 OA 
BRANCH  13  14
HETATM   14  C   UNL     1     -10.075  11.096  67.717  1.00  0.00    -0.178 C  
BRANCH  14  15
HETATM   15  N   UNL     1      -9.519  10.447  68.890  1.00  0.00    -0.177 NA 
HETATM   16  C   UNL     1      -8.184  10.445  69.232  1.00  0.00    -0.158 A  
HETATM   17  N   UNL     1      -7.963   9.809  70.368  1.00  0.00    -0.215 NA 
HETATM   18  C   UNL     1      -9.207   9.383  70.787  1.00  0.00    -0.213 A  
HETATM   19  C   UNL     1     -10.152   9.760  69.874  1.00  0.00    -0.251 A  
HETATM   20  N   UNL     1     -11.452   9.480  70.024  1.00  0.00    -0.166 NA 
HETATM   21  C   UNL     1     -11.813   8.838  71.178  1.00  0.00    -0.295 C  
HETATM   22  N   UNL     1     -13.154   8.655  71.292  1.00  0.00    -0.505 NA 
HETATM   23  N   UNL     1     -11.006   8.432  72.113  1.00  0.00    -0.317 N  
HETATM   24  H2  UNL     1     -13.824   8.964  70.588  1.00  0.00     0.000 HD 
HETATM   25  H1  UNL     1     -13.423   8.177  72.152  1.00  0.00     0.000 HD 
HETATM   26  C   UNL     1      -9.625   8.651  71.993  1.00  0.00    -0.314 C  
HETATM   27  H   UNL     1     -11.378   7.955  72.935  1.00  0.00     0.000 HD 
HETATM   28  O   UNL     1      -8.824   8.259  72.834  1.00  0.00    -0.211 OA 
ENDBRANCH  14  15
ENDBRANCH  13  14
ENDBRANCH  12  13
ENDBRANCH  11  12
ENDBRANCH  10  11
ENDBRANCH   8  10
ENDBRANCH   3   8
TORSDOF 7
ENDMDL
MODEL      236
REMARK 921   NORMALIZED FREE ENERGY PREDICTED BY IDOCK:   -4.22 KCAL/MOL
REMARK 922        TOTAL FREE ENERGY PREDICTED BY IDOCK:   -6.49 KCAL/MOL
REMARK 923 INTER-LIGAND FREE ENERGY PREDICTED BY IDOCK:   -5.65 KCAL/MOL
REMARK 924 INTRA-LIGAND FREE ENERGY PREDICTED BY IDOCK:   -0.84 KCAL/MOL
REMARK 927      BINDING AFFINITY PREDICTED BY RF-SCORE:    0.00 PKD
ROOT
HETATM    1  C   UNL     1     -10.098   6.203  71.058  1.00  0.00    -0.231 C  
HETATM    2  C   UNL     1      -9.361   7.242  71.908  1.00  0.00    -0.152 C  
HETATM    3  C   UNL     1     -10.259   7.883  72.996  1.00  0.00    -0.327 C  
HETATM    4  C   UNL     1      -8.100   6.611  72.515  1.00  0.00    -0.102 C  
HETATM    5  H1  UNL     1     -11.332   7.294  74.678  1.00  0.00     0.000 HD 
HETATM    6  N   UNL     1     -10.742   6.872  73.963  1.00  0.00    -0.458 NA 
HETATM    7  H2  UNL     1      -9.968   6.351  74.376  1.00  0.00     0.000 HD 
ENDROOT
BRANCH   3   8
HETATM    8  C   UNL     1     -11.464   8.647  72.399  1.00  0.00    -0.299 C  
HETATM    9  O   UNL     1     -12.630   8.505  72.748  1.00  0.00    -0.307 OA 
BRANCH   8  10
HETATM   10  O   UNL     1     -11.054   9.559  71.471  1.00  0.00    -0.367 OA 
BRANCH  10  11
HETATM   11  C   UNL     1     -11.948   9.722  70.351  1.00  0.00    -0.148 C  
BRANCH  11  12
HETATM   12  C   UNL     1     -12.509  11.144  70.315  1.00  0.00    -0.274 C  
BRANCH  12  13
HETATM   13  O   UNL     1     -11.495  12.007  69.794  1.00  0.00    -0.271 OA 
BRANCH  13  14
HETATM   14  C   UNL     1     -11.730  12.346  68.427  1.00  0.00    -0.336 C  
BRANCH  14  15
HETATM   15  N   UNL     1     -10.517  12.132  67.659  1.00  0.00    -0.203 NA 
HETATM   16  C   UNL     1      -9.565  13.095  67.404  1.00  0.00    -0.219 A  
HETATM   17  N   UNL     1      -8.547  12.617  66.712  1.00  0.00    -0.149 NA 
HETATM   18  C   UNL     1      -8.845  11.285  66.512  1.00  0.00    -0.179 A  
HETATM   19  C   UNL     1     -10.056  10.996  67.078  1.00  0.00    -0.196 A  
HETATM   20  N   UNL     1     -10.597   9.773  67.038  1.00  0.00    -0.225 NA 
HETATM   21  C   UNL     1      -9.851   8.789  66.448  1.00  0.00    -0.282 C  
HETATM   22  N   UNL     1     -10.432   7.564  66.511  1.00  0.00    -0.494 NA 
HETATM   23  N   UNL     1      -8.692   8.944  65.879  1.00  0.00    -0.159 N  
HETATM   24  H2  UNL     1     -11.335   7.393  66.955  1.00  0.00     0.000 HD 
HETATM   25  H1  UNL     1      -9.877   6.830  66.072  1.00  0.00     0.000 HD 
HETATM   26  C   UNL     1      -8.092  10.213  65.842  1.00  0.00    -0.136 C  
HETATM   27  H   UNL     1      -8.219   8.144  65.459  1.00  0.00     0.000 HD 
HETATM   28  O   UNL     1      -7.016  10.412  65.290  1.00  0.00    -0.136 OA 
ENDBRANCH  14  15
ENDBRANCH  13  14
ENDBRANCH  12  13
ENDBRANCH  11  12
ENDBRANCH  10  11
ENDBRANCH   8  10
ENDBRANCH   3   8
TORSDOF 7
ENDMDL
MODEL      237
REMARK 921   NORMALIZED FREE ENERGY PREDICTED BY IDOCK:   -4.20 KCAL/MOL
REMARK 922        TOTAL FREE ENERGY PREDICTED BY IDOCK:   -6.46 KCAL/MOL
REMARK 923 INTER-LIGAND FREE ENERGY PREDICTED BY IDOCK:   -5.93 KCAL/MOL
REMARK 924 INTRA-LIGAND FREE ENERGY PREDICTED BY IDOCK:   -0.53 KCAL/MOL
REMARK 927      BINDING AFFINITY PREDICTED BY RF-SCORE:    0.00 PKD
ROOT
HETATM    1  C   UNL     1     -11.763  15.522  72.259  1.00  0.00    -0.578 C  
HETATM    2  C   UNL     1     -13.055  15.344  71.454  1.00  0.00    -0.563 C  
HETATM    3  C   UNL     1     -13.008  14.129  70.495  1.00  0.00    -0.167 C  
HETATM    4  C   UNL     1     -14.252  15.263  72.412  1.00  0.00    -0.579 C  
HETATM    5  H1  UNL     1     -12.812  12.060  70.606  1.00  0.00     0.000 HD 
HETATM    6  N   UNL     1     -12.843  12.860  71.237  1.00  0.00    -0.329 NA 
HETATM    7  H2  UNL     1     -13.565  12.746  71.949  1.00  0.00     0.000 HD 
ENDROOT
BRANCH   3   8
HETATM    8  C   UNL     1     -11.895  14.254  69.428  1.00  0.00    -0.326 C  
HETATM    9  O   UNL     1     -11.074  15.163  69.372  1.00  0.00    -0.247 OA 
BRANCH   8  10
HETATM   10  O   UNL     1     -11.899  13.180  68.587  1.00  0.00    -0.308 OA 
BRANCH  10  11
HETATM   11  C   UNL     1     -11.883  13.513  67.184  1.00  0.00    -0.387 C  
BRANCH  11  12
HETATM   12  C   UNL     1     -10.666  12.888  66.499  1.00  0.00    -0.269 C  
BRANCH  12  13
HETATM   13  O   UNL     1      -9.539  13.054  67.363  1.00  0.00    -0.201 OA 
BRANCH  13  14
HETATM   14  C   UNL     1      -8.425  13.634  66.685  1.00  0.00     0.164 C  
BRANCH  14  15
HETATM   15  N   UNL     1      -8.307  15.033  67.055  1.00  0.00    -0.215 NA 
HETATM   16  C   UNL     1      -9.006  16.065  66.470  1.00  0.00    -0.292 A  
HETATM   17  N   UNL     1      -8.732  17.231  67.026  1.00  0.00    -0.224 NA 
HETATM   18  C   UNL     1      -7.818  16.946  68.020  1.00  0.00    -0.179 A  
HETATM   19  C   UNL     1      -7.549  15.605  68.024  1.00  0.00    -0.124 A  
HETATM   20  N   UNL     1      -6.695  15.044  68.888  1.00  0.00    -0.095 NA 
HETATM   21  C   UNL     1      -6.133  15.870  69.823  1.00  0.00    -0.169 C  
HETATM   22  N   UNL     1      -5.337  15.217  70.708  1.00  0.00    -0.137 NA 
HETATM   23  N   UNL     1      -6.313  17.155  69.916  1.00  0.00    -0.148 N  
HETATM   24  H2  UNL     1      -5.173  14.211  70.679  1.00  0.00     0.000 HD 
HETATM   25  H1  UNL     1      -4.918  15.833  71.404  1.00  0.00     0.000 HD 
HETATM   26  C   UNL     1      -7.158  17.813  69.008  1.00  0.00    -0.229 C  
HETATM   27  H   UNL     1      -5.839  17.684  70.648  1.00  0.00     0.000 HD 
HETATM   28  O   UNL     1      -7.334  19.026  69.039  1.00  0.00    -0.329 OA 
ENDBRANCH  14  15
ENDBRANCH  13  14
ENDBRANCH  12  13
ENDBRANCH  11  12
ENDBRANCH  10  11
ENDBRANCH   8  10
ENDBRANCH   3   8
TORSDOF 7
ENDMDL
MODEL      238
REMARK 921   NORMALIZED FREE ENERGY PREDICTED BY IDOCK:   -4.20 KCAL/MOL
REMARK 922        TOTAL FREE ENERGY PREDICTED BY IDOCK:   -6.46 KCAL/MOL
REMARK 923 INTER-LIGAND FREE ENERGY PREDICTED BY IDOCK:   -5.93 KCAL/MOL
REMARK 924 INTRA-LIGAND FREE ENERGY PREDICTED BY IDOCK:   -0.53 KCAL/MOL
REMARK 927      BINDING AFFINITY PREDICTED BY RF-SCORE:    0.00 PKD
ROOT
HETATM    1  C   UNL     1     -10.949   6.342  66.981  1.00  0.00    -0.463 C  
HETATM    2  C   UNL     1      -9.666   5.534  67.203  1.00  0.00    -0.155 C  
HETATM    3  C   UNL     1      -8.393   6.417  67.241  1.00  0.00    -0.112 C  
HETATM    4  C   UNL     1      -9.804   4.686  68.475  1.00  0.00    -0.181 C  
HETATM    5  H1  UNL     1      -7.599   7.961  68.388  1.00  0.00     0.000 HD 
HETATM    6  N   UNL     1      -8.436   7.381  68.363  1.00  0.00    -0.125 NA 
HETATM    7  H2  UNL     1      -8.591   6.909  69.255  1.00  0.00     0.000 HD 
ENDROOT
BRANCH   3   8
HETATM    8  C   UNL     1      -8.155   7.176  65.915  1.00  0.00    -0.122 C  
HETATM    9  O   UNL     1      -7.979   6.648  64.823  1.00  0.00    -0.114 OA 
BRANCH   8  10
HETATM   10  O   UNL     1      -8.232   8.526  66.102  1.00  0.00    -0.107 OA 
BRANCH  10  11
HETATM   11  C   UNL     1      -8.432   9.292  64.897  1.00  0.00    -0.168 C  
BRANCH  11  12
HETATM   12  C   UNL     1      -9.851   9.862  64.853  1.00  0.00    -0.212 C  
BRANCH  12  13
HETATM   13  O   UNL     1      -9.856  11.091  65.584  1.00  0.00    -0.215 OA 
BRANCH  13  14
HETATM   14  C   UNL     1     -11.078  11.809  65.416  1.00  0.00    -0.279 C  
BRANCH  14  15
HETATM   15  N   UNL     1     -11.332  12.617  66.595  1.00  0.00    -0.308 NA 
HETATM   16  C   UNL     1     -11.804  12.133  67.796  1.00  0.00    -0.257 A  
HETATM   17  N   UNL     1     -11.907  13.082  68.708  1.00  0.00    -0.318 NA 
HETATM   18  C   UNL     1     -11.481  14.233  68.077  1.00  0.00    -0.314 A  
HETATM   19  C   UNL     1     -11.146  13.948  66.782  1.00  0.00    -0.303 A  
HETATM   20  N   UNL     1     -10.696  14.878  65.932  1.00  0.00    -0.310 NA 
HETATM   21  C   UNL     1     -10.527  16.140  66.434  1.00  0.00    -0.301 C  
HETATM   22  N   UNL     1     -10.000  17.009  65.535  1.00  0.00    -0.572 NA 
HETATM   23  N   UNL     1     -10.811  16.527  67.643  1.00  0.00    -0.306 N  
HETATM   24  H2  UNL     1      -9.754  16.749  64.579  1.00  0.00     0.000 HD 
HETATM   25  H1  UNL     1      -9.874  17.950  65.908  1.00  0.00     0.000 HD 
HETATM   26  C   UNL     1     -11.333  15.611  68.569  1.00  0.00    -0.360 C  
HETATM   27  H   UNL     1     -10.654  17.497  67.917  1.00  0.00     0.000 HD 
HETATM   28  O   UNL     1     -11.643  15.938  69.709  1.00  0.00    -0.326 OA 
ENDBRANCH  14  15
ENDBRANCH  13  14
ENDBRANCH  12  13
ENDBRANCH  11  12
ENDBRANCH  10  11
ENDBRANCH   8  10
ENDBRANCH   3   8
TORSDOF 7
ENDMDL
MODEL      239
REMARK 921   NORMALIZED FREE ENERGY PREDICTED BY IDOCK:   -4.19 KCAL/MOL
REMARK 922        TOTAL FREE ENERGY PREDICTED BY IDOCK:   -6.45 KCAL/MOL
REMARK 923 INTER-LIGAND FREE ENERGY PREDICTED BY IDOCK:   -5.93 KCAL/MOL
REMARK 924 INTRA-LIGAND FREE ENERGY PREDICTED BY IDOCK:   -0.52 KCAL/MOL
REMARK 927      BINDING AFFINITY PREDICTED BY RF-SCORE:    0.00 PKD
ROOT
HETATM    1  C   UNL     1      -6.790   9.847  63.715  1.00  0.00    -0.125 C  
HETATM    2  C   UNL     1      -6.770   8.356  64.070  1.00  0.00    -0.075 C  
HETATM    3  C   UNL     1      -7.815   7.976  65.149  1.00  0.00    -0.116 C  
HETATM    4  C   UNL     1      -6.944   7.520  62.794  1.00  0.00    -0.072 C  
HETATM    5  H1  UNL     1      -9.881   7.988  65.391  1.00  0.00     0.000 HD 
HETATM    6  N   UNL     1      -9.194   8.239  64.682  1.00  0.00     0.035 NA 
HETATM    7  H2  UNL     1      -9.384   7.770  63.796  1.00  0.00     0.000 HD 
ENDROOT
BRANCH   3   8
HETATM    8  C   UNL     1      -7.575   8.703  66.492  1.00  0.00    -0.088 C  
HETATM    9  O   UNL     1      -6.503   8.750  67.085  1.00  0.00    -0.059 OA 
BRANCH   8  10
HETATM   10  O   UNL     1      -8.703   9.348  66.908  1.00  0.00    -0.126 OA 
BRANCH  10  11
HETATM   11  C   UNL     1      -8.683  10.778  66.721  1.00  0.00    -0.143 C  
BRANCH  11  12
HETATM   12  C   UNL     1      -9.563  11.468  67.765  1.00  0.00    -0.175 C  
BRANCH  12  13
HETATM   13  O   UNL     1     -10.919  11.088  67.520  1.00  0.00    -0.242 OA 
BRANCH  13  14
HETATM   14  C   UNL     1     -11.829  12.161  67.766  1.00  0.00    -0.257 C  
BRANCH  14  15
HETATM   15  N   UNL     1     -11.860  13.043  66.614  1.00  0.00    -0.386 NA 
HETATM   16  C   UNL     1     -12.426  12.731  65.397  1.00  0.00    -0.416 A  
HETATM   17  N   UNL     1     -12.345  13.732  64.539  1.00  0.00    -0.579 NA 
HETATM   18  C   UNL     1     -11.702  14.741  65.228  1.00  0.00    -0.311 A  
HETATM   19  C   UNL     1     -11.394  14.311  66.489  1.00  0.00    -0.346 A  
HETATM   20  N   UNL     1     -10.766  15.086  67.381  1.00  0.00    -0.282 NA 
HETATM   21  C   UNL     1     -10.490  16.369  66.995  1.00  0.00    -0.291 C  
HETATM   22  N   UNL     1      -9.920  17.114  67.976  1.00  0.00    -0.282 NA 
HETATM   23  N   UNL     1     -10.735  16.887  65.827  1.00  0.00    -0.237 N  
HETATM   24  H2  UNL     1      -9.718  16.753  68.909  1.00  0.00     0.000 HD 
HETATM   25  H1  UNL     1      -9.714  18.071  67.689  1.00  0.00     0.000 HD 
HETATM   26  C   UNL     1     -11.346  16.111  64.829  1.00  0.00    -0.249 C  
HETATM   27  H   UNL     1     -10.482  17.857  65.636  1.00  0.00     0.000 HD 
HETATM   28  O   UNL     1     -11.569  16.548  63.705  1.00  0.00    -1.109 OA 
ENDBRANCH  14  15
ENDBRANCH  13  14
ENDBRANCH  12  13
ENDBRANCH  11  12
ENDBRANCH  10  11
ENDBRANCH   8  10
ENDBRANCH   3   8
TORSDOF 7
ENDMDL
MODEL      240
REMARK 921   NORMALIZED FREE ENERGY PREDICTED BY IDOCK:   -4.18 KCAL/MOL
REMARK 922        TOTAL FREE ENERGY PREDICTED BY IDOCK:   -6.43 KCAL/MOL
REMARK 923 INTER-LIGAND FREE ENERGY PREDICTED BY IDOCK:   -5.13 KCAL/MOL
REMARK 924 INTRA-LIGAND FREE ENERGY PREDICTED BY IDOCK:   -1.30 KCAL/MOL
REMARK 927      BINDING AFFINITY PREDICTED BY RF-SCORE:    0.00 PKD
ROOT
HETATM    1  C   UNL     1     -10.706  13.053  68.008  1.00  0.00    -0.248 C  
HETATM    2  C   UNL     1     -10.799  11.818  67.106  1.00  0.00    -0.303 C  
HETATM    3  C   UNL     1     -10.929  10.495  67.903  1.00  0.00    -0.295 C  
HETATM    4  C   UNL     1     -11.952  11.993  66.109  1.00  0.00    -0.105 C  
HETATM    5  H1  UNL     1     -12.252   9.601  69.236  1.00  0.00     0.000 HD 
HETATM    6  N   UNL     1     -12.167  10.471  68.712  1.00  0.00    -0.780 NA 
HETATM    7  H2  UNL     1     -12.992  10.644  68.138  1.00  0.00     0.000 HD 
ENDROOT
BRANCH   3   8
HETATM    8  C   UNL     1      -9.708  10.226  68.813  1.00  0.00    -0.177 C  
HETATM    9  O   UNL     1      -9.652  10.486  70.010  1.00  0.00     0.036 OA 
BRANCH   8  10
HETATM   10  O   UNL     1      -8.714   9.594  68.126  1.00  0.00    -0.119 OA 
BRANCH  10  11
HETATM   11  C   UNL     1      -7.378  10.007  68.481  1.00  0.00    -0.077 C  
BRANCH  11  12
HETATM   12  C   UNL     1      -6.561   8.811  68.974  1.00  0.00    -0.048 C  
BRANCH  12  13
HETATM   13  O   UNL     1      -6.721   8.722  70.393  1.00  0.00    -0.038 OA 
BRANCH  13  14
HETATM   14  C   UNL     1      -7.133   7.418  70.804  1.00  0.00    -0.063 C  
BRANCH  14  15
HETATM   15  N   UNL     1      -8.490   7.478  71.316  1.00  0.00    -0.115 NA 
HETATM   16  C   UNL     1      -8.842   7.937  72.566  1.00  0.00    -0.164 A  
HETATM   17  N   UNL     1     -10.149   7.914  72.755  1.00  0.00    -0.273 NA 
HETATM   18  C   UNL     1     -10.672   7.424  71.575  1.00  0.00    -0.222 A  
HETATM   19  C   UNL     1      -9.655   7.143  70.705  1.00  0.00    -0.168 A  
HETATM   20  N   UNL     1      -9.870   6.654  69.479  1.00  0.00    -0.152 NA 
HETATM   21  C   UNL     1     -11.175   6.495  69.100  1.00  0.00    -0.303 C  
HETATM   22  N   UNL     1     -11.314   6.065  67.819  1.00  0.00    -0.326 NA 
HETATM   23  N   UNL     1     -12.220   6.727  69.838  1.00  0.00    -0.521 N  
HETATM   24  H2  UNL     1     -10.524   5.879  67.201  1.00  0.00     0.000 HD 
HETATM   25  H1  UNL     1     -12.287   5.947  67.537  1.00  0.00     0.000 HD 
HETATM   26  C   UNL     1     -12.062   7.194  71.153  1.00  0.00    -0.358 C  
HETATM   27  H   UNL     1     -13.156   6.569  69.462  1.00  0.00     0.000 HD 
HETATM   28  O   UNL     1     -13.016   7.398  71.895  1.00  0.00    -0.314 OA 
ENDBRANCH  14  15
ENDBRANCH  13  14
ENDBRANCH  12  13
ENDBRANCH  11  12
ENDBRANCH  10  11
ENDBRANCH   8  10
ENDBRANCH   3   8
TORSDOF 7
ENDMDL
MODEL      241
REMARK 921   NORMALIZED FREE ENERGY PREDICTED BY IDOCK:   -4.18 KCAL/MOL
REMARK 922        TOTAL FREE ENERGY PREDICTED BY IDOCK:   -6.43 KCAL/MOL
REMARK 923 INTER-LIGAND FREE ENERGY PREDICTED BY IDOCK:   -5.19 KCAL/MOL
REMARK 924 INTRA-LIGAND FREE ENERGY PREDICTED BY IDOCK:   -1.24 KCAL/MOL
REMARK 927      BINDING AFFINITY PREDICTED BY RF-SCORE:    0.00 PKD
ROOT
HETATM    1  C   UNL     1      -9.287   9.910  68.937  1.00  0.00    -0.170 C  
HETATM    2  C   UNL     1      -9.988  10.032  67.580  1.00  0.00    -0.214 C  
HETATM    3  C   UNL     1     -10.139   8.673  66.852  1.00  0.00    -0.285 C  
HETATM    4  C   UNL     1     -11.343  10.730  67.760  1.00  0.00    -0.354 C  
HETATM    5  H1  UNL     1     -11.073   6.838  67.152  1.00  0.00     0.000 HD 
HETATM    6  N   UNL     1     -10.974   7.732  67.631  1.00  0.00    -0.517 NA 
HETATM    7  H2  UNL     1     -11.883   8.138  67.856  1.00  0.00     0.000 HD 
ENDROOT
BRANCH   3   8
HETATM    8  C   UNL     1      -8.776   8.014  66.533  1.00  0.00    -0.146 C  
HETATM    9  O   UNL     1      -8.048   8.322  65.597  1.00  0.00    -0.109 OA 
BRANCH   8  10
HETATM   10  O   UNL     1      -8.451   7.080  67.473  1.00  0.00    -0.121 OA 
BRANCH  10  11
HETATM   11  C   UNL     1      -7.964   5.832  66.941  1.00  0.00    -0.102 C  
BRANCH  11  12
HETATM   12  C   UNL     1      -7.399   4.956  68.061  1.00  0.00    -0.070 C  
BRANCH  12  13
HETATM   13  O   UNL     1      -8.163   3.748  68.105  1.00  0.00    -0.082 OA 
BRANCH  13  14
HETATM   14  C   UNL     1      -9.551   3.999  68.327  1.00  0.00    -0.125 C  
BRANCH  14  15
HETATM   15  N   UNL     1      -9.812   4.042  69.755  1.00  0.00    -0.182 NA 
HETATM   16  C   UNL     1      -9.389   3.097  70.662  1.00  0.00    -0.155 A  
HETATM   17  N   UNL     1      -9.736   3.404  71.899  1.00  0.00    -0.157 NA 
HETATM   18  C   UNL     1     -10.411   4.603  71.793  1.00  0.00    -0.138 A  
HETATM   19  C   UNL     1     -10.469   4.982  70.480  1.00  0.00    -0.160 A  
HETATM   20  N   UNL     1     -11.066   6.111  70.082  1.00  0.00    -0.355 NA 
HETATM   21  C   UNL     1     -11.576   6.917  71.063  1.00  0.00    -0.328 C  
HETATM   22  N   UNL     1     -12.099   8.076  70.588  1.00  0.00    -0.495 NA 
HETATM   23  N   UNL     1     -11.579   6.662  72.338  1.00  0.00    -0.373 N  
HETATM   24  H2  UNL     1     -12.111   8.322  69.598  1.00  0.00     0.000 HD 
HETATM   25  H1  UNL     1     -12.479   8.677  71.319  1.00  0.00     0.000 HD 
HETATM   26  C   UNL     1     -11.013   5.470  72.818  1.00  0.00    -0.278 C  
HETATM   27  H   UNL     1     -11.993   7.329  72.990  1.00  0.00     0.000 HD 
HETATM   28  O   UNL     1     -11.020   5.174  74.007  1.00  0.00    -0.270 OA 
ENDBRANCH  14  15
ENDBRANCH  13  14
ENDBRANCH  12  13
ENDBRANCH  11  12
ENDBRANCH  10  11
ENDBRANCH   8  10
ENDBRANCH   3   8
TORSDOF 7
ENDMDL
MODEL      242
REMARK 921   NORMALIZED FREE ENERGY PREDICTED BY IDOCK:   -4.18 KCAL/MOL
REMARK 922        TOTAL FREE ENERGY PREDICTED BY IDOCK:   -6.42 KCAL/MOL
REMARK 923 INTER-LIGAND FREE ENERGY PREDICTED BY IDOCK:   -6.02 KCAL/MOL
REMARK 924 INTRA-LIGAND FREE ENERGY PREDICTED BY IDOCK:   -0.40 KCAL/MOL
REMARK 927      BINDING AFFINITY PREDICTED BY RF-SCORE:    0.00 PKD
ROOT
HETATM    1  C   UNL     1      -7.908   5.138  74.163  1.00  0.00    -0.097 C  
HETATM    2  C   UNL     1      -8.170   5.281  72.660  1.00  0.00    -0.113 C  
HETATM    3  C   UNL     1      -7.881   6.707  72.128  1.00  0.00    -0.097 C  
HETATM    4  C   UNL     1      -7.370   4.219  71.894  1.00  0.00    -0.068 C  
HETATM    5  H1  UNL     1      -6.267   8.010  71.954  1.00  0.00     0.000 HD 
HETATM    6  N   UNL     1      -6.457   7.072  72.304  1.00  0.00    -0.052 NA 
HETATM    7  H2  UNL     1      -5.839   6.381  71.877  1.00  0.00     0.000 HD 
ENDROOT
BRANCH   3   8
HETATM    8  C   UNL     1      -8.777   7.782  72.787  1.00  0.00    -0.156 C  
HETATM    9  O   UNL     1      -8.429   8.930  73.038  1.00  0.00    -0.334 OA 
BRANCH   8  10
HETATM   10  O   UNL     1     -10.038   7.306  72.996  1.00  0.00    -0.200 OA 
BRANCH  10  11
HETATM   11  C   UNL     1     -11.093   8.161  72.510  1.00  0.00    -0.377 C  
BRANCH  11  12
HETATM   12  C   UNL     1     -11.121   8.160  70.980  1.00  0.00    -0.253 C  
BRANCH  12  13
HETATM   13  O   UNL     1     -12.291   8.866  70.559  1.00  0.00     0.012 OA 
BRANCH  13  14
HETATM   14  C   UNL     1     -12.540  10.019  71.364  1.00  0.00    -0.415 C  
BRANCH  14  15
HETATM   15  N   UNL     1     -12.249  11.217  70.597  1.00  0.00    -0.370 NA 
HETATM   16  C   UNL     1     -11.712  11.230  69.329  1.00  0.00    -0.334 A  
HETATM   17  N   UNL     1     -11.586  12.456  68.855  1.00  0.00    -0.293 NA 
HETATM   18  C   UNL     1     -12.065  13.277  69.855  1.00  0.00    -0.308 A  
HETATM   19  C   UNL     1     -12.454  12.518  70.924  1.00  0.00    -0.269 A  
HETATM   20  N   UNL     1     -12.962  13.051  72.041  1.00  0.00    -0.320 NA 
HETATM   21  C   UNL     1     -13.134  14.409  72.051  1.00  0.00    -0.361 C  
HETATM   22  N   UNL     1     -13.721  14.867  73.186  1.00  0.00    -0.555 NA 
HETATM   23  N   UNL     1     -12.803  15.230  71.098  1.00  0.00    -0.391 N  
HETATM   24  H2  UNL     1     -14.006  14.260  73.955  1.00  0.00     0.000 HD 
HETATM   25  H1  UNL     1     -13.850  15.879  73.194  1.00  0.00     0.000 HD 
HETATM   26  C   UNL     1     -12.219  14.739  69.920  1.00  0.00    -0.311 C  
HETATM   27  H   UNL     1     -12.968  16.231  71.207  1.00  0.00     0.000 HD 
HETATM   28  O   UNL     1     -11.863  15.477  69.008  1.00  0.00    -0.361 OA 
ENDBRANCH  14  15
ENDBRANCH  13  14
ENDBRANCH  12  13
ENDBRANCH  11  12
ENDBRANCH  10  11
ENDBRANCH   8  10
ENDBRANCH   3   8
TORSDOF 7
ENDMDL
MODEL      243
REMARK 921   NORMALIZED FREE ENERGY PREDICTED BY IDOCK:   -4.16 KCAL/MOL
REMARK 922        TOTAL FREE ENERGY PREDICTED BY IDOCK:   -6.40 KCAL/MOL
REMARK 923 INTER-LIGAND FREE ENERGY PREDICTED BY IDOCK:   -6.07 KCAL/MOL
REMARK 924 INTRA-LIGAND FREE ENERGY PREDICTED BY IDOCK:   -0.33 KCAL/MOL
REMARK 927      BINDING AFFINITY PREDICTED BY RF-SCORE:    0.00 PKD
ROOT
HETATM    1  C   UNL     1     -10.734  19.594  65.973  1.00  0.00    -0.527 C  
HETATM    2  C   UNL     1     -10.028  18.908  67.147  1.00  0.00    -0.382 C  
HETATM    3  C   UNL     1      -9.329  17.585  66.744  1.00  0.00    -0.265 C  
HETATM    4  C   UNL     1      -9.048  19.889  67.805  1.00  0.00    -0.418 C  
HETATM    5  H1  UNL     1      -7.804  16.950  65.478  1.00  0.00     0.000 HD 
HETATM    6  N   UNL     1      -8.264  17.820  65.743  1.00  0.00    -0.521 NA 
HETATM    7  H2  UNL     1      -7.592  18.515  66.069  1.00  0.00     0.000 HD 
ENDROOT
BRANCH   3   8
HETATM    8  C   UNL     1     -10.320  16.526  66.208  1.00  0.00    -0.320 C  
HETATM    9  O   UNL     1     -10.736  16.471  65.056  1.00  0.00    -0.662 OA 
BRANCH   8  10
HETATM   10  O   UNL     1     -10.626  15.610  67.171  1.00  0.00    -0.299 OA 
BRANCH  10  11
HETATM   11  C   UNL     1      -9.529  14.761  67.567  1.00  0.00    -0.197 C  
BRANCH  11  12
HETATM   12  C   UNL     1      -9.749  13.333  67.064  1.00  0.00    -0.238 C  
BRANCH  12  13
HETATM   13  O   UNL     1      -8.855  12.473  67.775  1.00  0.00    -0.160 OA 
BRANCH  13  14
HETATM   14  C   UNL     1      -8.886  11.136  67.274  1.00  0.00    -0.144 C  
BRANCH  14  15
HETATM   15  N   UNL     1      -8.327  10.234  68.265  1.00  0.00    -0.114 NA 
HETATM   16  C   UNL     1      -7.055   9.707  68.222  1.00  0.00    -0.078 A  
HETATM   17  N   UNL     1      -6.796   8.946  69.270  1.00  0.00    -0.049 NA 
HETATM   18  C   UNL     1      -7.948   8.981  70.030  1.00  0.00    -0.113 A  
HETATM   19  C   UNL     1      -8.885   9.756  69.405  1.00  0.00    -0.182 A  
HETATM   20  N   UNL     1     -10.102   9.969  69.919  1.00  0.00    -0.247 NA 
HETATM   21  C   UNL     1     -10.358   9.419  71.145  1.00  0.00    -0.307 C  
HETATM   22  N   UNL     1     -11.584   9.740  71.633  1.00  0.00    -0.351 NA 
HETATM   23  N   UNL     1      -9.548   8.668  71.831  1.00  0.00    -0.283 N  
HETATM   24  H2  UNL     1     -12.248  10.332  71.135  1.00  0.00     0.000 HD 
HETATM   25  H1  UNL     1     -11.774   9.330  72.547  1.00  0.00     0.000 HD 
HETATM   26  C   UNL     1      -8.274   8.364  71.325  1.00  0.00    -0.134 C  
HETATM   27  H   UNL     1      -9.838   8.299  72.737  1.00  0.00     0.000 HD 
HETATM   28  O   UNL     1      -7.489   7.636  71.922  1.00  0.00    -0.076 OA 
ENDBRANCH  14  15
ENDBRANCH  13  14
ENDBRANCH  12  13
ENDBRANCH  11  12
ENDBRANCH  10  11
ENDBRANCH   8  10
ENDBRANCH   3   8
TORSDOF 7
ENDMDL
MODEL      244
REMARK 921   NORMALIZED FREE ENERGY PREDICTED BY IDOCK:   -4.16 KCAL/MOL
REMARK 922        TOTAL FREE ENERGY PREDICTED BY IDOCK:   -6.40 KCAL/MOL
REMARK 923 INTER-LIGAND FREE ENERGY PREDICTED BY IDOCK:   -5.71 KCAL/MOL
REMARK 924 INTRA-LIGAND FREE ENERGY PREDICTED BY IDOCK:   -0.69 KCAL/MOL
REMARK 927      BINDING AFFINITY PREDICTED BY RF-SCORE:    0.00 PKD
ROOT
HETATM    1  C   UNL     1      -9.562   4.206  64.647  1.00  0.00    -0.173 C  
HETATM    2  C   UNL     1      -8.404   4.327  65.643  1.00  0.00    -0.110 C  
HETATM    3  C   UNL     1      -8.675   5.361  66.764  1.00  0.00    -0.113 C  
HETATM    4  C   UNL     1      -8.073   2.943  66.218  1.00  0.00    -0.083 C  
HETATM    5  H1  UNL     1     -10.023   5.657  68.322  1.00  0.00     0.000 HD 
HETATM    6  N   UNL     1      -9.845   4.977  67.584  1.00  0.00    -0.157 NA 
HETATM    7  H2  UNL     1      -9.743   4.034  67.962  1.00  0.00     0.000 HD 
ENDROOT
BRANCH   3   8
HETATM    8  C   UNL     1      -8.874   6.794  66.217  1.00  0.00    -0.147 C  
HETATM    9  O   UNL     1      -9.851   7.501  66.435  1.00  0.00    -0.176 OA 
BRANCH   8  10
HETATM   10  O   UNL     1      -7.782   7.204  65.509  1.00  0.00    -0.095 OA 
BRANCH  10  11
HETATM   11  C   UNL     1      -8.085   7.885  64.275  1.00  0.00    -0.093 C  
BRANCH  11  12
HETATM   12  C   UNL     1      -7.198   9.121  64.113  1.00  0.00    -0.096 C  
BRANCH  12  13
HETATM   13  O   UNL     1      -8.049  10.258  63.946  1.00  0.00    -0.155 OA 
BRANCH  13  14
HETATM   14  C   UNL     1      -8.591  10.708  65.188  1.00  0.00    -0.167 C  
BRANCH  14  15
HETATM   15  N   UNL     1      -9.767  11.520  64.938  1.00  0.00    -0.247 NA 
HETATM   16  C   UNL     1     -10.464  11.554  63.750  1.00  0.00    -0.405 A  
HETATM   17  N   UNL     1     -11.514  12.352  63.811  1.00  0.00    -0.426 NA 
HETATM   18  C   UNL     1     -11.505  12.857  65.096  1.00  0.00    -0.313 A  
HETATM   19  C   UNL     1     -10.427  12.359  65.775  1.00  0.00    -0.259 A  
HETATM   20  N   UNL     1     -10.168  12.679  67.048  1.00  0.00    -0.225 NA 
HETATM   21  C   UNL     1     -11.071  13.495  67.674  1.00  0.00    -0.269 C  
HETATM   22  N   UNL     1     -10.779  13.715  68.982  1.00  0.00    -0.377 NA 
HETATM   23  N   UNL     1     -12.126  14.027  67.132  1.00  0.00    -0.481 N  
HETATM   24  H2  UNL     1      -9.968  13.313  69.451  1.00  0.00     0.000 HD 
HETATM   25  H1  UNL     1     -11.452  14.323  69.448  1.00  0.00     0.000 HD 
HETATM   26  C   UNL     1     -12.428  13.771  65.785  1.00  0.00    -0.485 C  
HETATM   27  H   UNL     1     -12.735  14.630  67.686  1.00  0.00     0.000 HD 
HETATM   28  O   UNL     1     -13.395  14.274  65.224  1.00  0.00    -0.660 OA 
ENDBRANCH  14  15
ENDBRANCH  13  14
ENDBRANCH  12  13
ENDBRANCH  11  12
ENDBRANCH  10  11
ENDBRANCH   8  10
ENDBRANCH   3   8
TORSDOF 7
ENDMDL
MODEL      245
REMARK 921   NORMALIZED FREE ENERGY PREDICTED BY IDOCK:   -4.15 KCAL/MOL
REMARK 922        TOTAL FREE ENERGY PREDICTED BY IDOCK:   -6.39 KCAL/MOL
REMARK 923 INTER-LIGAND FREE ENERGY PREDICTED BY IDOCK:   -5.91 KCAL/MOL
REMARK 924 INTRA-LIGAND FREE ENERGY PREDICTED BY IDOCK:   -0.49 KCAL/MOL
REMARK 927      BINDING AFFINITY PREDICTED BY RF-SCORE:    0.00 PKD
ROOT
HETATM    1  C   UNL     1      -7.109  18.107  66.032  1.00  0.00    -0.318 C  
HETATM    2  C   UNL     1      -7.977  19.368  66.080  1.00  0.00    -0.320 C  
HETATM    3  C   UNL     1      -9.168  19.246  67.064  1.00  0.00    -0.307 C  
HETATM    4  C   UNL     1      -7.100  20.586  66.402  1.00  0.00    -0.276 C  
HETATM    5  H1  UNL     1      -9.485  18.969  69.102  1.00  0.00     0.000 HD 
HETATM    6  N   UNL     1      -8.702  19.049  68.455  1.00  0.00    -0.335 NA 
HETATM    7  H2  UNL     1      -8.055  19.785  68.740  1.00  0.00     0.000 HD 
ENDROOT
BRANCH   3   8
HETATM    8  C   UNL     1     -10.145  18.111  66.679  1.00  0.00    -0.373 C  
HETATM    9  O   UNL     1     -10.603  17.928  65.557  1.00  0.00    -0.638 OA 
BRANCH   8  10
HETATM   10  O   UNL     1     -10.385  17.290  67.741  1.00  0.00    -0.326 OA 
BRANCH  10  11
HETATM   11  C   UNL     1     -11.072  16.065  67.414  1.00  0.00    -0.167 C  
BRANCH  11  12
HETATM   12  C   UNL     1     -10.549  14.911  68.272  1.00  0.00    -0.240 C  
BRANCH  12  13
HETATM   13  O   UNL     1     -10.937  13.685  67.647  1.00  0.00    -0.259 OA 
BRANCH  13  14
HETATM   14  C   UNL     1      -9.947  13.214  66.731  1.00  0.00    -0.250 C  
BRANCH  14  15
HETATM   15  N   UNL     1      -9.876  11.766  66.797  1.00  0.00    -0.196 NA 
HETATM   16  C   UNL     1     -10.472  10.906  65.901  1.00  0.00    -0.221 A  
HETATM   17  N   UNL     1     -10.215   9.641  66.179  1.00  0.00    -0.245 NA 
HETATM   18  C   UNL     1      -9.413   9.678  67.302  1.00  0.00    -0.143 A  
HETATM   19  C   UNL     1      -9.222  10.976  67.686  1.00  0.00    -0.149 A  
HETATM   20  N   UNL     1      -8.481  11.313  68.748  1.00  0.00    -0.142 NA 
HETATM   21  C   UNL     1      -7.863  10.290  69.416  1.00  0.00    -0.157 C  
HETATM   22  N   UNL     1      -7.072  10.715  70.434  1.00  0.00    -0.475 NA 
HETATM   23  N   UNL     1      -7.971   9.023  69.144  1.00  0.00    -0.099 N  
HETATM   24  H2  UNL     1      -6.951  11.698  70.678  1.00  0.00     0.000 HD 
HETATM   25  H1  UNL     1      -6.611   9.953  70.931  1.00  0.00     0.000 HD 
HETATM   26  C   UNL     1      -8.774   8.600  68.073  1.00  0.00    -0.141 C  
HETATM   27  H   UNL     1      -7.472   8.336  69.710  1.00  0.00     0.000 HD 
HETATM   28  O   UNL     1      -8.929   7.415  67.799  1.00  0.00    -0.128 OA 
ENDBRANCH  14  15
ENDBRANCH  13  14
ENDBRANCH  12  13
ENDBRANCH  11  12
ENDBRANCH  10  11
ENDBRANCH   8  10
ENDBRANCH   3   8
TORSDOF 7
ENDMDL
MODEL      246
REMARK 921   NORMALIZED FREE ENERGY PREDICTED BY IDOCK:   -4.15 KCAL/MOL
REMARK 922        TOTAL FREE ENERGY PREDICTED BY IDOCK:   -6.39 KCAL/MOL
REMARK 923 INTER-LIGAND FREE ENERGY PREDICTED BY IDOCK:   -4.90 KCAL/MOL
REMARK 924 INTRA-LIGAND FREE ENERGY PREDICTED BY IDOCK:   -1.49 KCAL/MOL
REMARK 927      BINDING AFFINITY PREDICTED BY RF-SCORE:    0.00 PKD
ROOT
HETATM    1  C   UNL     1     -11.914  13.559  67.886  1.00  0.00    -0.372 C  
HETATM    2  C   UNL     1     -11.251  12.912  66.666  1.00  0.00    -0.342 C  
HETATM    3  C   UNL     1     -10.668  11.508  66.967  1.00  0.00    -0.259 C  
HETATM    4  C   UNL     1     -12.245  12.873  65.498  1.00  0.00    -0.527 C  
HETATM    5  H1  UNL     1     -11.345   9.635  67.572  1.00  0.00     0.000 HD 
HETATM    6  N   UNL     1     -11.728  10.559  67.374  1.00  0.00    -0.374 NA 
HETATM    7  H2  UNL     1     -12.475  10.513  66.680  1.00  0.00     0.000 HD 
ENDROOT
BRANCH   3   8
HETATM    8  C   UNL     1      -9.560  11.541  68.046  1.00  0.00    -0.180 C  
HETATM    9  O   UNL     1      -9.689  11.147  69.199  1.00  0.00    -0.149 OA 
BRANCH   8  10
HETATM   10  O   UNL     1      -8.387  12.008  67.529  1.00  0.00    -0.148 OA 
BRANCH  10  11
HETATM   11  C   UNL     1      -7.362  12.278  68.506  1.00  0.00    -0.105 C  
BRANCH  11  12
HETATM   12  C   UNL     1      -6.199  11.297  68.347  1.00  0.00    -0.045 C  
BRANCH  12  13
HETATM   13  O   UNL     1      -6.245  10.375  69.439  1.00  0.00    -0.044 OA 
BRANCH  13  14
HETATM   14  C   UNL     1      -5.993   9.034  69.018  1.00  0.00    -0.043 C  
BRANCH  14  15
HETATM   15  N   UNL     1      -7.239   8.288  69.007  1.00  0.00    -0.071 NA 
HETATM   16  C   UNL     1      -7.747   7.585  70.077  1.00  0.00    -0.094 A  
HETATM   17  N   UNL     1      -8.913   7.031  69.800  1.00  0.00    -0.142 NA 
HETATM   18  C   UNL     1      -9.178   7.392  68.494  1.00  0.00    -0.142 A  
HETATM   19  C   UNL     1      -8.146   8.145  68.008  1.00  0.00    -0.128 A  
HETATM   20  N   UNL     1      -8.136   8.636  66.763  1.00  0.00    -0.100 NA 
HETATM   21  C   UNL     1      -9.245   8.397  65.999  1.00  0.00    -0.187 C  
HETATM   22  N   UNL     1      -9.192   8.987  64.777  1.00  0.00    -0.440 NA 
HETATM   23  N   UNL     1     -10.282   7.697  66.352  1.00  0.00    -0.485 N  
HETATM   24  H2  UNL     1      -8.404   9.551  64.460  1.00  0.00     0.000 HD 
HETATM   25  H1  UNL     1     -10.019   8.809  64.207  1.00  0.00     0.000 HD 
HETATM   26  C   UNL     1     -10.334   7.113  67.628  1.00  0.00    -0.215 C  
HETATM   27  H   UNL     1     -11.059   7.572  65.702  1.00  0.00     0.000 HD 
HETATM   28  O   UNL     1     -11.277   6.420  67.993  1.00  0.00    -0.311 OA 
ENDBRANCH  14  15
ENDBRANCH  13  14
ENDBRANCH  12  13
ENDBRANCH  11  12
ENDBRANCH  10  11
ENDBRANCH   8  10
ENDBRANCH   3   8
TORSDOF 7
ENDMDL
MODEL      247
REMARK 921   NORMALIZED FREE ENERGY PREDICTED BY IDOCK:   -4.14 KCAL/MOL
REMARK 922        TOTAL FREE ENERGY PREDICTED BY IDOCK:   -6.38 KCAL/MOL
REMARK 923 INTER-LIGAND FREE ENERGY PREDICTED BY IDOCK:   -5.88 KCAL/MOL
REMARK 924 INTRA-LIGAND FREE ENERGY PREDICTED BY IDOCK:   -0.50 KCAL/MOL
REMARK 927      BINDING AFFINITY PREDICTED BY RF-SCORE:    0.00 PKD
ROOT
HETATM    1  C   UNL     1      -5.895   8.215  69.458  1.00  0.00    -0.026 C  
HETATM    2  C   UNL     1      -6.983   9.095  68.834  1.00  0.00    -0.064 C  
HETATM    3  C   UNL     1      -7.722   9.973  69.874  1.00  0.00    -0.175 C  
HETATM    4  C   UNL     1      -6.377   9.942  67.707  1.00  0.00    -0.055 C  
HETATM    5  H1  UNL     1      -7.285  11.498  71.221  1.00  0.00     0.000 HD 
HETATM    6  N   UNL     1      -6.799  10.920  70.537  1.00  0.00    -0.472 NA 
HETATM    7  H2  UNL     1      -6.296  11.490  69.856  1.00  0.00     0.000 HD 
ENDROOT
BRANCH   3   8
HETATM    8  C   UNL     1      -8.461   9.135  70.944  1.00  0.00    -0.201 C  
HETATM    9  O   UNL     1      -8.003   8.832  72.040  1.00  0.00    -0.311 OA 
BRANCH   8  10
HETATM   10  O   UNL     1      -9.726   8.827  70.537  1.00  0.00    -0.171 OA 
BRANCH  10  11
HETATM   11  C   UNL     1      -9.911   7.458  70.123  1.00  0.00    -0.180 C  
BRANCH  11  12
HETATM   12  C   UNL     1      -9.825   7.343  68.600  1.00  0.00    -0.163 C  
BRANCH  12  13
HETATM   13  O   UNL     1     -10.926   8.064  68.040  1.00  0.00    -0.012 OA 
BRANCH  13  14
HETATM   14  C   UNL     1     -10.496   9.071  67.124  1.00  0.00    -0.263 C  
BRANCH  14  15
HETATM   15  N   UNL     1     -10.950  10.371  67.584  1.00  0.00    -0.307 NA 
HETATM   16  C   UNL     1     -11.468  10.628  68.834  1.00  0.00    -0.265 A  
HETATM   17  N   UNL     1     -11.767  11.904  68.997  1.00  0.00    -0.309 NA 
HETATM   18  C   UNL     1     -11.426  12.505  67.802  1.00  0.00    -0.321 A  
HETATM   19  C   UNL     1     -10.942  11.563  66.937  1.00  0.00    -0.296 A  
HETATM   20  N   UNL     1     -10.532  11.864  65.699  1.00  0.00    -0.252 NA 
HETATM   21  C   UNL     1     -10.562  13.186  65.346  1.00  0.00    -0.299 C  
HETATM   22  N   UNL     1     -10.063  13.421  64.105  1.00  0.00    -0.779 NA 
HETATM   23  N   UNL     1     -10.998  14.166  66.081  1.00  0.00    -0.305 N  
HETATM   24  H2  UNL     1      -9.702  12.686  63.497  1.00  0.00     0.000 HD 
HETATM   25  H1  UNL     1     -10.085  14.406  63.842  1.00  0.00     0.000 HD 
HETATM   26  C   UNL     1     -11.490  13.910  67.371  1.00  0.00    -0.348 C  
HETATM   27  H   UNL     1     -10.984  15.120  65.720  1.00  0.00     0.000 HD 
HETATM   28  O   UNL     1     -11.939  14.797  68.089  1.00  0.00    -0.310 OA 
ENDBRANCH  14  15
ENDBRANCH  13  14
ENDBRANCH  12  13
ENDBRANCH  11  12
ENDBRANCH  10  11
ENDBRANCH   8  10
ENDBRANCH   3   8
TORSDOF 7
ENDMDL
MODEL      248
REMARK 921   NORMALIZED FREE ENERGY PREDICTED BY IDOCK:   -4.14 KCAL/MOL
REMARK 922        TOTAL FREE ENERGY PREDICTED BY IDOCK:   -6.38 KCAL/MOL
REMARK 923 INTER-LIGAND FREE ENERGY PREDICTED BY IDOCK:   -5.80 KCAL/MOL
REMARK 924 INTRA-LIGAND FREE ENERGY PREDICTED BY IDOCK:   -0.58 KCAL/MOL
REMARK 927      BINDING AFFINITY PREDICTED BY RF-SCORE:    0.00 PKD
ROOT
HETATM    1  C   UNL     1     -12.474  12.830  65.138  1.00  0.00    -0.565 C  
HETATM    2  C   UNL     1     -11.123  13.256  64.554  1.00  0.00    -0.392 C  
HETATM    3  C   UNL     1      -9.951  13.089  65.555  1.00  0.00    -0.214 C  
HETATM    4  C   UNL     1     -10.863  12.495  63.248  1.00  0.00    -0.205 C  
HETATM    5  H1  UNL     1      -8.999  11.564  66.602  1.00  0.00     0.000 HD 
HETATM    6  N   UNL     1      -9.770  11.674  65.944  1.00  0.00    -0.229 NA 
HETATM    7  H2  UNL     1      -9.652  11.073  65.128  1.00  0.00     0.000 HD 
ENDROOT
BRANCH   3   8
HETATM    8  C   UNL     1     -10.122  13.958  66.823  1.00  0.00    -0.265 C  
HETATM    9  O   UNL     1     -10.301  15.171  66.826  1.00  0.00    -0.263 OA 
BRANCH   8  10
HETATM   10  O   UNL     1     -10.116  13.188  67.949  1.00  0.00    -0.220 OA 
BRANCH  10  11
HETATM   11  C   UNL     1     -11.320  13.264  68.738  1.00  0.00    -0.290 C  
BRANCH  11  12
HETATM   12  C   UNL     1     -12.145  11.985  68.584  1.00  0.00    -0.088 C  
BRANCH  12  13
HETATM   13  O   UNL     1     -12.033  11.238  69.798  1.00  0.00    -0.306 OA 
BRANCH  13  14
HETATM   14  C   UNL     1     -11.240  10.062  69.632  1.00  0.00    -0.239 C  
BRANCH  14  15
HETATM   15  N   UNL     1     -11.204   9.322  70.881  1.00  0.00    -0.280 NA 
HETATM   16  C   UNL     1     -12.254   9.216  71.765  1.00  0.00    -0.372 A  
HETATM   17  N   UNL     1     -11.957   8.453  72.801  1.00  0.00    -0.285 NA 
HETATM   18  C   UNL     1     -10.658   8.042  72.581  1.00  0.00    -0.350 A  
HETATM   19  C   UNL     1     -10.196   8.587  71.416  1.00  0.00    -0.235 A  
HETATM   20  N   UNL     1      -8.963   8.357  70.951  1.00  0.00    -0.149 NA 
HETATM   21  C   UNL     1      -8.186   7.491  71.672  1.00  0.00    -0.103 C  
HETATM   22  N   UNL     1      -6.978   7.251  71.101  1.00  0.00    -0.059 NA 
HETATM   23  N   UNL     1      -8.516   6.915  72.790  1.00  0.00    -0.116 N  
HETATM   24  H2  UNL     1      -6.679   7.674  70.222  1.00  0.00     0.000 HD 
HETATM   25  H1  UNL     1      -6.399   6.606  71.638  1.00  0.00     0.000 HD 
HETATM   26  C   UNL     1      -9.778   7.154  73.357  1.00  0.00    -0.232 C  
HETATM   27  H   UNL     1      -7.859   6.289  73.255  1.00  0.00     0.000 HD 
HETATM   28  O   UNL     1     -10.122   6.657  74.424  1.00  0.00    -0.343 OA 
ENDBRANCH  14  15
ENDBRANCH  13  14
ENDBRANCH  12  13
ENDBRANCH  11  12
ENDBRANCH  10  11
ENDBRANCH   8  10
ENDBRANCH   3   8
TORSDOF 7
ENDMDL
MODEL      249
REMARK 921   NORMALIZED FREE ENERGY PREDICTED BY IDOCK:   -4.12 KCAL/MOL
REMARK 922        TOTAL FREE ENERGY PREDICTED BY IDOCK:   -6.35 KCAL/MOL
REMARK 923 INTER-LIGAND FREE ENERGY PREDICTED BY IDOCK:   -5.36 KCAL/MOL
REMARK 924 INTRA-LIGAND FREE ENERGY PREDICTED BY IDOCK:   -0.99 KCAL/MOL
REMARK 927      BINDING AFFINITY PREDICTED BY RF-SCORE:    0.00 PKD
ROOT
HETATM    1  C   UNL     1      -7.835  11.064  68.421  1.00  0.00    -0.127 C  
HETATM    2  C   UNL     1      -8.079  10.253  69.698  1.00  0.00    -0.157 C  
HETATM    3  C   UNL     1      -8.640   8.837  69.418  1.00  0.00    -0.133 C  
HETATM    4  C   UNL     1      -6.789  10.197  70.528  1.00  0.00    -0.084 C  
HETATM    5  H1  UNL     1      -8.058   7.093  68.442  1.00  0.00     0.000 HD 
HETATM    6  N   UNL     1      -7.689   8.025  68.626  1.00  0.00    -0.104 NA 
HETATM    7  H2  UNL     1      -6.772   7.983  69.073  1.00  0.00     0.000 HD 
ENDROOT
BRANCH   3   8
HETATM    8  C   UNL     1     -10.012   8.869  68.705  1.00  0.00    -0.184 C  
HETATM    9  O   UNL     1     -11.036   9.356  69.171  1.00  0.00    -0.192 OA 
BRANCH   8  10
HETATM   10  O   UNL     1      -9.924   8.342  67.450  1.00  0.00    -0.177 OA 
BRANCH  10  11
HETATM   11  C   UNL     1     -10.501   9.159  66.411  1.00  0.00    -0.071 C  
BRANCH  11  12
HETATM   12  C   UNL     1      -9.430   9.581  65.404  1.00  0.00    -0.269 C  
BRANCH  12  13
HETATM   13  O   UNL     1      -9.449  11.007  65.310  1.00  0.00    -0.207 OA 
BRANCH  13  14
HETATM   14  C   UNL     1     -10.604  11.570  65.932  1.00  0.00    -0.268 C  
BRANCH  14  15
HETATM   15  N   UNL     1     -10.564  13.016  65.811  1.00  0.00    -0.273 NA 
HETATM   16  C   UNL     1     -10.723  13.713  64.634  1.00  0.00    -0.421 A  
HETATM   17  N   UNL     1     -10.677  15.020  64.820  1.00  0.00    -0.384 NA 
HETATM   18  C   UNL     1     -10.484  15.181  66.177  1.00  0.00    -0.312 A  
HETATM   19  C   UNL     1     -10.400  13.955  66.776  1.00  0.00    -0.272 A  
HETATM   20  N   UNL     1     -10.214  13.808  68.093  1.00  0.00    -0.246 NA 
HETATM   21  C   UNL     1     -10.169  14.954  68.840  1.00  0.00    -0.238 C  
HETATM   22  N   UNL     1     -10.053  14.722  70.173  1.00  0.00    -0.388 NA 
HETATM   23  N   UNL     1     -10.238  16.169  68.382  1.00  0.00    -0.233 N  
HETATM   24  H2  UNL     1     -10.004  13.787  70.577  1.00  0.00     0.000 HD 
HETATM   25  H1  UNL     1     -10.019  15.576  70.729  1.00  0.00     0.000 HD 
HETATM   26  C   UNL     1     -10.382  16.394  67.004  1.00  0.00    -0.293 C  
HETATM   27  H   UNL     1     -10.187  16.960  69.025  1.00  0.00     0.000 HD 
HETATM   28  O   UNL     1     -10.421  17.521  66.524  1.00  0.00    -0.326 OA 
ENDBRANCH  14  15
ENDBRANCH  13  14
ENDBRANCH  12  13
ENDBRANCH  11  12
ENDBRANCH  10  11
ENDBRANCH   8  10
ENDBRANCH   3   8
TORSDOF 7
ENDMDL
MODEL      250
REMARK 921   NORMALIZED FREE ENERGY PREDICTED BY IDOCK:   -4.10 KCAL/MOL
REMARK 922        TOTAL FREE ENERGY PREDICTED BY IDOCK:   -6.32 KCAL/MOL
REMARK 923 INTER-LIGAND FREE ENERGY PREDICTED BY IDOCK:   -5.35 KCAL/MOL
REMARK 924 INTRA-LIGAND FREE ENERGY PREDICTED BY IDOCK:   -0.97 KCAL/MOL
REMARK 927      BINDING AFFINITY PREDICTED BY RF-SCORE:    0.00 PKD
ROOT
HETATM    1  C   UNL     1      -6.959   9.383  64.186  1.00  0.00    -0.099 C  
HETATM    2  C   UNL     1      -7.416   8.044  64.775  1.00  0.00    -0.091 C  
HETATM    3  C   UNL     1      -8.398   8.209  65.962  1.00  0.00    -0.131 C  
HETATM    4  C   UNL     1      -8.012   7.168  63.665  1.00  0.00    -0.070 C  
HETATM    5  H1  UNL     1     -10.291   8.994  66.323  1.00  0.00     0.000 HD 
HETATM    6  N   UNL     1      -9.645   8.886  65.542  1.00  0.00    -0.459 NA 
HETATM    7  H2  UNL     1     -10.085   8.406  64.757  1.00  0.00     0.000 HD 
ENDROOT
BRANCH   3   8
HETATM    8  C   UNL     1      -7.771   8.969  67.154  1.00  0.00    -0.099 C  
HETATM    9  O   UNL     1      -6.846   8.557  67.843  1.00  0.00    -0.065 OA 
BRANCH   8  10
HETATM   10  O   UNL     1      -8.339  10.201  67.302  1.00  0.00    -0.121 OA 
BRANCH  10  11
HETATM   11  C   UNL     1      -8.630  10.571  68.665  1.00  0.00    -0.139 C  
BRANCH  11  12
HETATM   12  C   UNL     1     -10.121  10.397  68.961  1.00  0.00    -0.213 C  
BRANCH  12  13
HETATM   13  O   UNL     1     -10.850  10.772  67.789  1.00  0.00    -0.226 OA 
BRANCH  13  14
HETATM   14  C   UNL     1     -11.986  11.579  68.101  1.00  0.00    -0.135 C  
BRANCH  14  15
HETATM   15  N   UNL     1     -11.563  12.953  68.305  1.00  0.00    -0.313 NA 
HETATM   16  C   UNL     1     -10.946  13.737  67.356  1.00  0.00    -0.284 A  
HETATM   17  N   UNL     1     -10.704  14.957  67.800  1.00  0.00    -0.266 NA 
HETATM   18  C   UNL     1     -11.188  14.970  69.092  1.00  0.00    -0.281 A  
HETATM   19  C   UNL     1     -11.698  13.739  69.403  1.00  0.00    -0.325 A  
HETATM   20  N   UNL     1     -12.238  13.463  70.595  1.00  0.00    -0.366 NA 
HETATM   21  C   UNL     1     -12.315  14.495  71.490  1.00  0.00    -0.361 C  
HETATM   22  N   UNL     1     -12.940  14.157  72.647  1.00  0.00    -0.425 NA 
HETATM   23  N   UNL     1     -11.866  15.702  71.307  1.00  0.00    -0.376 N  
HETATM   24  H2  UNL     1     -13.315  13.226  72.831  1.00  0.00     0.000 HD 
HETATM   25  H1  UNL     1     -12.998  14.926  73.314  1.00  0.00     0.000 HD 
HETATM   26  C   UNL     1     -11.243  16.043  70.097  1.00  0.00    -0.373 C  
HETATM   27  H   UNL     1     -11.967  16.400  72.044  1.00  0.00     0.000 HD 
HETATM   28  O   UNL     1     -10.778  17.159  69.891  1.00  0.00    -0.135 OA 
ENDBRANCH  14  15
ENDBRANCH  13  14
ENDBRANCH  12  13
ENDBRANCH  11  12
ENDBRANCH  10  11
ENDBRANCH   8  10
ENDBRANCH   3   8
TORSDOF 7
ENDMDL
MODEL      251
REMARK 921   NORMALIZED FREE ENERGY PREDICTED BY IDOCK:   -4.10 KCAL/MOL
REMARK 922        TOTAL FREE ENERGY PREDICTED BY IDOCK:   -6.31 KCAL/MOL
REMARK 923 INTER-LIGAND FREE ENERGY PREDICTED BY IDOCK:   -5.75 KCAL/MOL
REMARK 924 INTRA-LIGAND FREE ENERGY PREDICTED BY IDOCK:   -0.56 KCAL/MOL
REMARK 927      BINDING AFFINITY PREDICTED BY RF-SCORE:    0.00 PKD
ROOT
HETATM    1  C   UNL     1     -11.505  15.714  68.225  1.00  0.00    -0.353 C  
HETATM    2  C   UNL     1     -11.000  14.652  67.242  1.00  0.00    -0.317 C  
HETATM    3  C   UNL     1     -10.012  13.649  67.890  1.00  0.00    -0.244 C  
HETATM    4  C   UNL     1     -12.195  13.934  66.600  1.00  0.00    -0.465 C  
HETATM    5  H1  UNL     1     -10.006  12.225  69.408  1.00  0.00     0.000 HD 
HETATM    6  N   UNL     1     -10.656  12.885  68.982  1.00  0.00    -0.428 NA 
HETATM    7  H2  UNL     1     -11.505  12.419  68.661  1.00  0.00     0.000 HD 
ENDROOT
BRANCH   3   8
HETATM    8  C   UNL     1      -8.731  14.334  68.421  1.00  0.00    -0.181 C  
HETATM    9  O   UNL     1      -8.703  15.195  69.293  1.00  0.00    -0.219 OA 
BRANCH   8  10
HETATM   10  O   UNL     1      -7.616  13.805  67.839  1.00  0.00    -0.123 OA 
BRANCH  10  11
HETATM   11  C   UNL     1      -6.798  13.006  68.718  1.00  0.00    -0.102 C  
BRANCH  11  12
HETATM   12  C   UNL     1      -7.091  11.518  68.517  1.00  0.00    -0.087 C  
BRANCH  12  13
HETATM   13  O   UNL     1      -8.165  11.157  69.389  1.00  0.00     0.003 OA 
BRANCH  13  14
HETATM   14  C   UNL     1      -8.006   9.841  69.920  1.00  0.00    -0.175 C  
BRANCH  14  15
HETATM   15  N   UNL     1      -9.311   9.254  70.159  1.00  0.00    -0.209 NA 
HETATM   16  C   UNL     1     -10.332   9.198  69.236  1.00  0.00    -0.216 A  
HETATM   17  N   UNL     1     -11.397   8.576  69.708  1.00  0.00     0.029 NA 
HETATM   18  C   UNL     1     -11.054   8.207  70.993  1.00  0.00    -0.253 A  
HETATM   19  C   UNL     1      -9.786   8.637  71.270  1.00  0.00    -0.238 A  
HETATM   20  N   UNL     1      -9.192   8.416  72.448  1.00  0.00    -0.257 NA 
HETATM   21  C   UNL     1      -9.894   7.680  73.364  1.00  0.00    -0.303 C  
HETATM   22  N   UNL     1      -9.198   7.435  74.504  1.00  0.00    -0.427 NA 
HETATM   23  N   UNL     1     -11.101   7.221  73.213  1.00  0.00    -0.569 N  
HETATM   24  H2  UNL     1      -8.247   7.768  74.663  1.00  0.00     0.000 HD 
HETATM   25  H1  UNL     1      -9.721   6.887  75.185  1.00  0.00     0.000 HD 
HETATM   26  C   UNL     1     -11.799   7.461  72.019  1.00  0.00    -0.298 C  
HETATM   27  H   UNL     1     -11.541   6.686  73.962  1.00  0.00     0.000 HD 
HETATM   28  O   UNL     1     -12.949   7.073  71.843  1.00  0.00    -0.320 OA 
ENDBRANCH  14  15
ENDBRANCH  13  14
ENDBRANCH  12  13
ENDBRANCH  11  12
ENDBRANCH  10  11
ENDBRANCH   8  10
ENDBRANCH   3   8
TORSDOF 7
ENDMDL
MODEL      252
REMARK 921   NORMALIZED FREE ENERGY PREDICTED BY IDOCK:   -4.09 KCAL/MOL
REMARK 922        TOTAL FREE ENERGY PREDICTED BY IDOCK:   -6.30 KCAL/MOL
REMARK 923 INTER-LIGAND FREE ENERGY PREDICTED BY IDOCK:   -5.74 KCAL/MOL
REMARK 924 INTRA-LIGAND FREE ENERGY PREDICTED BY IDOCK:   -0.56 KCAL/MOL
REMARK 927      BINDING AFFINITY PREDICTED BY RF-SCORE:    0.00 PKD
ROOT
HETATM    1  C   UNL     1     -11.014  16.314  67.546  1.00  0.00    -0.207 C  
HETATM    2  C   UNL     1      -9.885  16.527  66.532  1.00  0.00    -0.292 C  
HETATM    3  C   UNL     1     -10.108  15.757  65.206  1.00  0.00    -0.222 C  
HETATM    4  C   UNL     1      -9.687  18.029  66.287  1.00  0.00    -0.276 C  
HETATM    5  H1  UNL     1     -11.480  15.709  63.642  1.00  0.00     0.000 HD 
HETATM    6  N   UNL     1     -11.333  16.215  64.514  1.00  0.00    -0.737 NA 
HETATM    7  H2  UNL     1     -11.322  17.224  64.363  1.00  0.00     0.000 HD 
ENDROOT
BRANCH   3   8
HETATM    8  C   UNL     1     -10.170  14.225  65.410  1.00  0.00    -0.371 C  
HETATM    9  O   UNL     1      -9.657  13.618  66.343  1.00  0.00    -0.277 OA 
BRANCH   8  10
HETATM   10  O   UNL     1     -10.933  13.633  64.446  1.00  0.00    -0.386 OA 
BRANCH  10  11
HETATM   11  C   UNL     1     -11.391  12.305  64.770  1.00  0.00    -0.323 C  
BRANCH  11  12
HETATM   12  C   UNL     1     -10.592  11.258  63.992  1.00  0.00    -0.386 C  
BRANCH  12  13
HETATM   13  O   UNL     1      -9.929  10.415  64.937  1.00  0.00    -0.306 OA 
BRANCH  13  14
HETATM   14  C   UNL     1     -10.639  10.334  66.174  1.00  0.00    -0.054 C  
BRANCH  14  15
HETATM   15  N   UNL     1     -10.102   9.247  66.971  1.00  0.00    -0.227 NA 
HETATM   16  C   UNL     1     -10.366   7.911  66.762  1.00  0.00    -0.287 A  
HETATM   17  N   UNL     1      -9.717   7.137  67.613  1.00  0.00    -0.139 NA 
HETATM   18  C   UNL     1      -8.996   8.005  68.408  1.00  0.00    -0.133 A  
HETATM   19  C   UNL     1      -9.247   9.293  68.023  1.00  0.00    -0.130 A  
HETATM   20  N   UNL     1      -8.680  10.347  68.621  1.00  0.00    -0.130 NA 
HETATM   21  C   UNL     1      -7.777  10.079  69.615  1.00  0.00    -0.156 C  
HETATM   22  N   UNL     1      -7.190  11.193  70.122  1.00  0.00    -0.415 NA 
HETATM   23  N   UNL     1      -7.461   8.900  70.064  1.00  0.00    -0.053 N  
HETATM   24  H2  UNL     1      -7.401  12.136  69.796  1.00  0.00     0.000 HD 
HETATM   25  H1  UNL     1      -6.518  10.993  70.862  1.00  0.00     0.000 HD 
HETATM   26  C   UNL     1      -8.058   7.755  69.513  1.00  0.00    -0.126 C  
HETATM   27  H   UNL     1      -6.778   8.807  70.816  1.00  0.00     0.000 HD 
HETATM   28  O   UNL     1      -7.813   6.626  69.924  1.00  0.00    -0.110 OA 
ENDBRANCH  14  15
ENDBRANCH  13  14
ENDBRANCH  12  13
ENDBRANCH  11  12
ENDBRANCH  10  11
ENDBRANCH   8  10
ENDBRANCH   3   8
TORSDOF 7
ENDMDL
MODEL      253
REMARK 921   NORMALIZED FREE ENERGY PREDICTED BY IDOCK:   -4.08 KCAL/MOL
REMARK 922        TOTAL FREE ENERGY PREDICTED BY IDOCK:   -6.29 KCAL/MOL
REMARK 923 INTER-LIGAND FREE ENERGY PREDICTED BY IDOCK:   -5.59 KCAL/MOL
REMARK 924 INTRA-LIGAND FREE ENERGY PREDICTED BY IDOCK:   -0.71 KCAL/MOL
REMARK 927      BINDING AFFINITY PREDICTED BY RF-SCORE:    0.00 PKD
ROOT
HETATM    1  C   UNL     1     -10.035   9.930  65.565  1.00  0.00    -0.363 C  
HETATM    2  C   UNL     1      -8.699   9.421  66.116  1.00  0.00    -0.165 C  
HETATM    3  C   UNL     1      -8.631   7.876  66.208  1.00  0.00    -0.149 C  
HETATM    4  C   UNL     1      -7.546   9.989  65.277  1.00  0.00    -0.137 C  
HETATM    5  H1  UNL     1      -8.714   6.232  64.936  1.00  0.00     0.000 HD 
HETATM    6  N   UNL     1      -8.758   7.248  64.875  1.00  0.00    -0.347 NA 
HETATM    7  H2  UNL     1      -8.065   7.614  64.222  1.00  0.00     0.000 HD 
ENDROOT
BRANCH   3   8
HETATM    8  C   UNL     1      -9.698   7.289  67.162  1.00  0.00    -0.168 C  
HETATM    9  O   UNL     1     -10.865   7.659  67.225  1.00  0.00    -0.293 OA 
BRANCH   8  10
HETATM   10  O   UNL     1      -9.190   6.251  67.886  1.00  0.00    -0.119 OA 
BRANCH  10  11
HETATM   11  C   UNL     1     -10.125   5.185  68.151  1.00  0.00    -0.129 C  
BRANCH  11  12
HETATM   12  C   UNL     1      -9.828   4.536  69.504  1.00  0.00    -0.207 C  
BRANCH  12  13
HETATM   13  O   UNL     1      -8.948   5.401  70.226  1.00  0.00    -0.130 OA 
BRANCH  13  14
HETATM   14  C   UNL     1      -9.432   5.682  71.540  1.00  0.00    -0.150 C  
BRANCH  14  15
HETATM   15  N   UNL     1     -10.528   6.631  71.460  1.00  0.00    -0.214 NA 
HETATM   16  C   UNL     1     -11.811   6.393  71.902  1.00  0.00    -0.329 A  
HETATM   17  N   UNL     1     -12.596   7.442  71.739  1.00  0.00    -0.332 NA 
HETATM   18  C   UNL     1     -11.789   8.407  71.170  1.00  0.00    -0.282 A  
HETATM   19  C   UNL     1     -10.532   7.902  70.986  1.00  0.00    -0.203 A  
HETATM   20  N   UNL     1      -9.538   8.621  70.452  1.00  0.00    -0.168 NA 
HETATM   21  C   UNL     1      -9.818   9.924  70.142  1.00  0.00    -0.219 C  
HETATM   22  N   UNL     1      -8.743  10.608  69.674  1.00  0.00    -0.389 NA 
HETATM   23  N   UNL     1     -10.972  10.511  70.272  1.00  0.00    -0.421 N  
HETATM   24  H2  UNL     1      -7.818  10.192  69.563  1.00  0.00     0.000 HD 
HETATM   25  H1  UNL     1      -8.952  11.579  69.443  1.00  0.00     0.000 HD 
HETATM   26  C   UNL     1     -12.069   9.798  70.780  1.00  0.00    -0.279 C  
HETATM   27  H   UNL     1     -11.079  11.490  70.004  1.00  0.00     0.000 HD 
HETATM   28  O   UNL     1     -13.181  10.300  70.892  1.00  0.00    -0.395 OA 
ENDBRANCH  14  15
ENDBRANCH  13  14
ENDBRANCH  12  13
ENDBRANCH  11  12
ENDBRANCH  10  11
ENDBRANCH   8  10
ENDBRANCH   3   8
TORSDOF 7
ENDMDL
MODEL      254
REMARK 921   NORMALIZED FREE ENERGY PREDICTED BY IDOCK:   -4.08 KCAL/MOL
REMARK 922        TOTAL FREE ENERGY PREDICTED BY IDOCK:   -6.29 KCAL/MOL
REMARK 923 INTER-LIGAND FREE ENERGY PREDICTED BY IDOCK:   -5.87 KCAL/MOL
REMARK 924 INTRA-LIGAND FREE ENERGY PREDICTED BY IDOCK:   -0.42 KCAL/MOL
REMARK 927      BINDING AFFINITY PREDICTED BY RF-SCORE:    0.00 PKD
ROOT
HETATM    1  C   UNL     1     -11.792  15.031  67.013  1.00  0.00    -0.124 C  
HETATM    2  C   UNL     1     -10.670  14.995  65.971  1.00  0.00    -0.329 C  
HETATM    3  C   UNL     1     -11.085  14.284  64.658  1.00  0.00    -0.363 C  
HETATM    4  C   UNL     1     -10.164  16.420  65.707  1.00  0.00    -0.370 C  
HETATM    5  H1  UNL     1     -12.475  14.522  63.128  1.00  0.00     0.000 HD 
HETATM    6  N   UNL     1     -12.202  14.989  63.992  1.00  0.00    -0.965 NA 
HETATM    7  H2  UNL     1     -11.981  15.972  63.831  1.00  0.00     0.000 HD 
ENDROOT
BRANCH   3   8
HETATM    8  C   UNL     1     -11.465  12.801  64.878  1.00  0.00    -0.320 C  
HETATM    9  O   UNL     1     -12.389  12.221  64.318  1.00  0.00    -0.431 OA 
BRANCH   8  10
HETATM   10  O   UNL     1     -10.593  12.193  65.732  1.00  0.00    -0.245 OA 
BRANCH  10  11
HETATM   11  C   UNL     1      -9.705  11.242  65.111  1.00  0.00    -0.244 C  
BRANCH  11  12
HETATM   12  C   UNL     1      -8.697  10.705  66.130  1.00  0.00    -0.170 C  
BRANCH  12  13
HETATM   13  O   UNL     1      -9.417   9.944  67.104  1.00  0.00    -0.153 OA 
BRANCH  13  14
HETATM   14  C   UNL     1     -10.038   8.793  66.532  1.00  0.00    -0.279 C  
BRANCH  14  15
HETATM   15  N   UNL     1      -9.637   7.609  67.271  1.00  0.00    -0.148 NA 
HETATM   16  C   UNL     1      -9.068   7.617  68.525  1.00  0.00    -0.131 A  
HETATM   17  N   UNL     1      -8.837   6.397  68.975  1.00  0.00    -0.129 NA 
HETATM   18  C   UNL     1      -9.278   5.558  67.973  1.00  0.00    -0.108 A  
HETATM   19  C   UNL     1      -9.751   6.301  66.927  1.00  0.00    -0.151 A  
HETATM   20  N   UNL     1     -10.246   5.748  65.814  1.00  0.00     0.237 NA 
HETATM   21  C   UNL     1     -10.315   4.381  65.785  1.00  0.00    -0.217 C  
HETATM   22  N   UNL     1     -10.895   3.897  64.657  1.00  0.00    -0.580 NA 
HETATM   23  N   UNL     1      -9.897   3.574  66.715  1.00  0.00    -0.384 N  
HETATM   24  H2  UNL     1     -11.244   4.492  63.906  1.00  0.00     0.000 HD 
HETATM   25  H1  UNL     1     -10.946   2.878  64.635  1.00  0.00     0.000 HD 
HETATM   26  C   UNL     1      -9.322   4.090  67.887  1.00  0.00    -0.171 C  
HETATM   27  H   UNL     1      -9.988   2.565  66.593  1.00  0.00     0.000 HD 
HETATM   28  O   UNL     1      -8.887   3.367  68.776  1.00  0.00    -0.093 OA 
ENDBRANCH  14  15
ENDBRANCH  13  14
ENDBRANCH  12  13
ENDBRANCH  11  12
ENDBRANCH  10  11
ENDBRANCH   8  10
ENDBRANCH   3   8
TORSDOF 7
ENDMDL
MODEL      255
REMARK 921   NORMALIZED FREE ENERGY PREDICTED BY IDOCK:   -4.07 KCAL/MOL
REMARK 922        TOTAL FREE ENERGY PREDICTED BY IDOCK:   -6.27 KCAL/MOL
REMARK 923 INTER-LIGAND FREE ENERGY PREDICTED BY IDOCK:   -6.47 KCAL/MOL
REMARK 924 INTRA-LIGAND FREE ENERGY PREDICTED BY IDOCK:    0.20 KCAL/MOL
REMARK 927      BINDING AFFINITY PREDICTED BY RF-SCORE:    0.00 PKD
ROOT
HETATM    1  C   UNL     1      -7.683  14.677  68.974  1.00  0.00    -0.134 C  
HETATM    2  C   UNL     1      -7.293  15.555  67.779  1.00  0.00    -0.174 C  
HETATM    3  C   UNL     1      -8.378  16.600  67.416  1.00  0.00    -0.173 C  
HETATM    4  C   UNL     1      -5.936  16.219  68.048  1.00  0.00    -0.127 C  
HETATM    5  H1  UNL     1      -9.322  18.236  68.289  1.00  0.00     0.000 HD 
HETATM    6  N   UNL     1      -8.608  17.549  68.528  1.00  0.00    -0.275 NA 
HETATM    7  H2  UNL     1      -7.740  17.998  68.822  1.00  0.00     0.000 HD 
ENDROOT
BRANCH   3   8
HETATM    8  C   UNL     1      -9.718  15.949  67.004  1.00  0.00    -0.228 C  
HETATM    9  O   UNL     1     -10.711  15.870  67.719  1.00  0.00    -0.304 OA 
BRANCH   8  10
HETATM   10  O   UNL     1      -9.680  15.526  65.708  1.00  0.00    -0.329 OA 
BRANCH  10  11
HETATM   11  C   UNL     1     -10.289  14.240  65.474  1.00  0.00    -0.355 C  
BRANCH  11  12
HETATM   12  C   UNL     1      -9.776  13.212  66.483  1.00  0.00    -0.268 C  
BRANCH  12  13
HETATM   13  O   UNL     1     -10.815  12.969  67.434  1.00  0.00    -0.245 OA 
BRANCH  13  14
HETATM   14  C   UNL     1     -10.510  11.869  68.292  1.00  0.00    -0.205 C  
BRANCH  14  15
HETATM   15  N   UNL     1     -11.379  11.905  69.454  1.00  0.00    -0.268 NA 
HETATM   16  C   UNL     1     -11.698  10.816  70.235  1.00  0.00    -0.352 A  
HETATM   17  N   UNL     1     -12.479  11.142  71.249  1.00  0.00    -0.377 NA 
HETATM   18  C   UNL     1     -12.674  12.503  71.126  1.00  0.00    -0.245 A  
HETATM   19  C   UNL     1     -12.014  12.963  70.021  1.00  0.00    -0.309 A  
HETATM   20  N   UNL     1     -12.027  14.250  69.657  1.00  0.00    -0.317 NA 
HETATM   21  C   UNL     1     -12.692  15.116  70.482  1.00  0.00    -0.368 C  
HETATM   22  N   UNL     1     -12.599  16.412  70.087  1.00  0.00    -0.101 NA 
HETATM   23  N   UNL     1     -13.353  14.796  71.555  1.00  0.00    -0.350 N  
HETATM   24  H2  UNL     1     -12.085  16.710  69.258  1.00  0.00     0.000 HD 
HETATM   25  H1  UNL     1     -13.094  17.057  70.702  1.00  0.00     0.000 HD 
HETATM   26  C   UNL     1     -13.420  13.454  71.964  1.00  0.00    -0.494 C  
HETATM   27  H   UNL     1     -13.822  15.520  72.099  1.00  0.00     0.000 HD 
HETATM   28  O   UNL     1     -14.056  13.102  72.951  1.00  0.00    -0.475 OA 
ENDBRANCH  14  15
ENDBRANCH  13  14
ENDBRANCH  12  13
ENDBRANCH  11  12
ENDBRANCH  10  11
ENDBRANCH   8  10
ENDBRANCH   3   8
TORSDOF 7
ENDMDL
MODEL      256
REMARK 921   NORMALIZED FREE ENERGY PREDICTED BY IDOCK:   -4.07 KCAL/MOL
REMARK 922        TOTAL FREE ENERGY PREDICTED BY IDOCK:   -6.27 KCAL/MOL
REMARK 923 INTER-LIGAND FREE ENERGY PREDICTED BY IDOCK:   -6.02 KCAL/MOL
REMARK 924 INTRA-LIGAND FREE ENERGY PREDICTED BY IDOCK:   -0.25 KCAL/MOL
REMARK 927      BINDING AFFINITY PREDICTED BY RF-SCORE:    0.00 PKD
ROOT
HETATM    1  C   UNL     1      -6.350   4.660  68.670  1.00  0.00    -0.036 C  
HETATM    2  C   UNL     1      -7.519   3.796  69.156  1.00  0.00    -0.053 C  
HETATM    3  C   UNL     1      -8.279   3.100  67.999  1.00  0.00    -0.078 C  
HETATM    4  C   UNL     1      -7.016   2.783  70.193  1.00  0.00    -0.034 C  
HETATM    5  H1  UNL     1      -7.900   1.711  66.496  1.00  0.00     0.000 HD 
HETATM    6  N   UNL     1      -7.400   2.169  67.257  1.00  0.00    -0.055 NA 
HETATM    7  H2  UNL     1      -6.964   1.489  67.881  1.00  0.00     0.000 HD 
ENDROOT
BRANCH   3   8
HETATM    8  C   UNL     1      -8.917   4.107  67.014  1.00  0.00    -0.127 C  
HETATM    9  O   UNL     1      -8.562   4.276  65.853  1.00  0.00    -0.113 OA 
BRANCH   8  10
HETATM   10  O   UNL     1      -9.981   4.743  67.584  1.00  0.00    -0.162 OA 
BRANCH  10  11
HETATM   11  C   UNL     1     -10.451   5.899  66.861  1.00  0.00    -0.286 C  
BRANCH  11  12
HETATM   12  C   UNL     1     -11.055   6.924  67.822  1.00  0.00    -0.146 C  
BRANCH  12  13
HETATM   13  O   UNL     1     -11.092   6.338  69.126  1.00  0.00    -0.337 OA 
BRANCH  13  14
HETATM   14  C   UNL     1     -10.221   7.008  70.039  1.00  0.00    -0.194 C  
BRANCH  14  15
HETATM   15  N   UNL     1     -10.602   8.405  70.135  1.00  0.00    -0.229 NA 
HETATM   16  C   UNL     1     -10.006   9.435  69.441  1.00  0.00    -0.183 A  
HETATM   17  N   UNL     1     -10.576  10.600  69.692  1.00  0.00    -0.238 NA 
HETATM   18  C   UNL     1     -11.589  10.316  70.585  1.00  0.00    -0.347 A  
HETATM   19  C   UNL     1     -11.592   8.978  70.866  1.00  0.00    -0.290 A  
HETATM   20  N   UNL     1     -12.472   8.419  71.704  1.00  0.00    -0.316 NA 
HETATM   21  C   UNL     1     -13.425   9.244  72.237  1.00  0.00    -0.482 C  
HETATM   22  N   UNL     1     -14.324   8.593  73.017  1.00  0.00    -1.094 NA 
HETATM   23  N   UNL     1     -13.521  10.527  72.044  1.00  0.00    -0.457 N  
HETATM   24  H2  UNL     1     -14.293   7.588  73.190  1.00  0.00     0.000 HD 
HETATM   25  H1  UNL     1     -15.034   9.208  73.414  1.00  0.00     0.000 HD 
HETATM   26  C   UNL     1     -12.598  11.183  71.215  1.00  0.00    -0.398 C  
HETATM   27  H   UNL     1     -14.267  11.056  72.495  1.00  0.00     0.000 HD 
HETATM   28  O   UNL     1     -12.631  12.394  71.027  1.00  0.00    -0.360 OA 
ENDBRANCH  14  15
ENDBRANCH  13  14
ENDBRANCH  12  13
ENDBRANCH  11  12
ENDBRANCH  10  11
ENDBRANCH   8  10
ENDBRANCH   3   8
TORSDOF 7
ENDMDL
MODEL      257
REMARK 921   NORMALIZED FREE ENERGY PREDICTED BY IDOCK:   -4.06 KCAL/MOL
REMARK 922        TOTAL FREE ENERGY PREDICTED BY IDOCK:   -6.26 KCAL/MOL
REMARK 923 INTER-LIGAND FREE ENERGY PREDICTED BY IDOCK:   -5.74 KCAL/MOL
REMARK 924 INTRA-LIGAND FREE ENERGY PREDICTED BY IDOCK:   -0.52 KCAL/MOL
REMARK 927      BINDING AFFINITY PREDICTED BY RF-SCORE:    0.00 PKD
ROOT
HETATM    1  C   UNL     1     -10.457  11.711  64.199  1.00  0.00    -0.402 C  
HETATM    2  C   UNL     1     -11.840  12.260  64.564  1.00  0.00    -0.441 C  
HETATM    3  C   UNL     1     -11.793  13.716  65.092  1.00  0.00    -0.348 C  
HETATM    4  C   UNL     1     -12.783  12.124  63.362  1.00  0.00    -0.508 C  
HETATM    5  H1  UNL     1     -11.242  15.604  64.413  1.00  0.00     0.000 HD 
HETATM    6  N   UNL     1     -11.272  14.646  64.066  1.00  0.00    -0.403 NA 
HETATM    7  H2  UNL     1     -11.803  14.580  63.197  1.00  0.00     0.000 HD 
ENDROOT
BRANCH   3   8
HETATM    8  C   UNL     1     -10.961  13.854  66.388  1.00  0.00    -0.303 C  
HETATM    9  O   UNL     1      -9.989  14.588  66.525  1.00  0.00    -0.262 OA 
BRANCH   8  10
HETATM   10  O   UNL     1     -11.489  13.096  67.392  1.00  0.00    -0.295 OA 
BRANCH  10  11
HETATM   11  C   UNL     1     -10.515  12.437  68.227  1.00  0.00    -0.225 C  
BRANCH  11  12
HETATM   12  C   UNL     1     -11.208  11.546  69.259  1.00  0.00    -0.272 C  
BRANCH  12  13
HETATM   13  O   UNL     1     -10.869  10.187  68.968  1.00  0.00    -0.206 OA 
BRANCH  13  14
HETATM   14  C   UNL     1     -11.121   9.853  67.603  1.00  0.00    -0.101 C  
BRANCH  14  15
HETATM   15  N   UNL     1     -10.367   8.664  67.248  1.00  0.00    -0.274 NA 
HETATM   16  C   UNL     1      -9.546   8.549  66.148  1.00  0.00    -0.206 A  
HETATM   17  N   UNL     1      -8.955   7.370  66.089  1.00  0.00    -0.164 NA 
HETATM   18  C   UNL     1      -9.408   6.687  67.200  1.00  0.00    -0.134 A  
HETATM   19  C   UNL     1     -10.282   7.475  67.897  1.00  0.00    -0.194 A  
HETATM   20  N   UNL     1     -10.878   7.068  69.024  1.00  0.00    -0.209 NA 
HETATM   21  C   UNL     1     -10.528   5.831  69.493  1.00  0.00    -0.293 C  
HETATM   22  N   UNL     1     -11.116   5.519  70.676  1.00  0.00    -0.131 NA 
HETATM   23  N   UNL     1      -9.712   4.997  68.918  1.00  0.00    -0.154 N  
HETATM   24  H2  UNL     1     -11.756   6.145  71.167  1.00  0.00     0.000 HD 
HETATM   25  H1  UNL     1     -10.856   4.598  71.026  1.00  0.00     0.000 HD 
HETATM   26  C   UNL     1      -9.092   5.343  67.707  1.00  0.00    -0.108 C  
HETATM   27  H   UNL     1      -9.522   4.092  69.348  1.00  0.00     0.000 HD 
HETATM   28  O   UNL     1      -8.340   4.578  67.114  1.00  0.00    -0.105 OA 
ENDBRANCH  14  15
ENDBRANCH  13  14
ENDBRANCH  12  13
ENDBRANCH  11  12
ENDBRANCH  10  11
ENDBRANCH   8  10
ENDBRANCH   3   8
TORSDOF 7
ENDMDL
MODEL      258
REMARK 921   NORMALIZED FREE ENERGY PREDICTED BY IDOCK:   -4.05 KCAL/MOL
REMARK 922        TOTAL FREE ENERGY PREDICTED BY IDOCK:   -6.24 KCAL/MOL
REMARK 923 INTER-LIGAND FREE ENERGY PREDICTED BY IDOCK:   -6.04 KCAL/MOL
REMARK 924 INTRA-LIGAND FREE ENERGY PREDICTED BY IDOCK:   -0.20 KCAL/MOL
REMARK 927      BINDING AFFINITY PREDICTED BY RF-SCORE:    0.00 PKD
ROOT
HETATM    1  C   UNL     1      -9.919  11.938  64.707  1.00  0.00    -0.262 C  
HETATM    2  C   UNL     1     -11.437  11.891  64.916  1.00  0.00    -0.315 C  
HETATM    3  C   UNL     1     -11.869  12.358  66.328  1.00  0.00    -0.364 C  
HETATM    4  C   UNL     1     -12.133  12.702  63.815  1.00  0.00    -0.604 C  
HETATM    5  H1  UNL     1     -11.778  14.076  67.500  1.00  0.00     0.000 HD 
HETATM    6  N   UNL     1     -11.493  13.769  66.570  1.00  0.00    -0.334 NA 
HETATM    7  H2  UNL     1     -11.863  14.383  65.844  1.00  0.00     0.000 HD 
ENDROOT
BRANCH   3   8
HETATM    8  C   UNL     1     -11.290  11.468  67.453  1.00  0.00    -0.298 C  
HETATM    9  O   UNL     1     -10.907  11.873  68.544  1.00  0.00    -0.201 OA 
BRANCH   8  10
HETATM   10  O   UNL     1     -11.322  10.150  67.100  1.00  0.00    -0.172 OA 
BRANCH  10  11
HETATM   11  C   UNL     1     -10.373   9.316  67.795  1.00  0.00    -0.237 C  
BRANCH  11  12
HETATM   12  C   UNL     1      -8.957   9.875  67.644  1.00  0.00    -0.128 C  
BRANCH  12  13
HETATM   13  O   UNL     1      -8.106   9.175  68.555  1.00  0.00    -0.101 OA 
BRANCH  13  14
HETATM   14  C   UNL     1      -8.328   9.572  69.908  1.00  0.00    -0.170 C  
BRANCH  14  15
HETATM   15  N   UNL     1      -8.984   8.496  70.628  1.00  0.00    -0.150 NA 
HETATM   16  C   UNL     1      -8.445   7.246  70.841  1.00  0.00    -0.128 A  
HETATM   17  N   UNL     1      -9.242   6.475  71.556  1.00  0.00    -0.144 NA 
HETATM   18  C   UNL     1     -10.348   7.256  71.825  1.00  0.00    -0.196 A  
HETATM   19  C   UNL     1     -10.193   8.484  71.243  1.00  0.00    -0.223 A  
HETATM   20  N   UNL     1     -11.115   9.449  71.342  1.00  0.00    -0.361 NA 
HETATM   21  C   UNL     1     -12.213   9.175  72.110  1.00  0.00    -0.338 C  
HETATM   22  N   UNL     1     -13.066  10.226  72.222  1.00  0.00    -0.518 NA 
HETATM   23  N   UNL     1     -12.467   8.049  72.709  1.00  0.00    -0.597 N  
HETATM   24  H2  UNL     1     -12.904  11.130  71.778  1.00  0.00     0.000 HD 
HETATM   25  H1  UNL     1     -13.884  10.022  72.795  1.00  0.00     0.000 HD 
HETATM   26  C   UNL     1     -11.565   6.979  72.604  1.00  0.00    -0.162 C  
HETATM   27  H   UNL     1     -13.323   7.944  73.255  1.00  0.00     0.000 HD 
HETATM   28  O   UNL     1     -11.777   5.890  73.126  1.00  0.00    -0.041 OA 
ENDBRANCH  14  15
ENDBRANCH  13  14
ENDBRANCH  12  13
ENDBRANCH  11  12
ENDBRANCH  10  11
ENDBRANCH   8  10
ENDBRANCH   3   8
TORSDOF 7
ENDMDL
MODEL      259
REMARK 921   NORMALIZED FREE ENERGY PREDICTED BY IDOCK:   -4.03 KCAL/MOL
REMARK 922        TOTAL FREE ENERGY PREDICTED BY IDOCK:   -6.22 KCAL/MOL
REMARK 923 INTER-LIGAND FREE ENERGY PREDICTED BY IDOCK:   -5.92 KCAL/MOL
REMARK 924 INTRA-LIGAND FREE ENERGY PREDICTED BY IDOCK:   -0.30 KCAL/MOL
REMARK 927      BINDING AFFINITY PREDICTED BY RF-SCORE:    0.00 PKD
ROOT
HETATM    1  C   UNL     1      -9.102   2.606  66.941  1.00  0.00    -0.161 C  
HETATM    2  C   UNL     1      -8.292   3.477  65.974  1.00  0.00    -0.106 C  
HETATM    3  C   UNL     1      -7.658   4.713  66.659  1.00  0.00    -0.087 C  
HETATM    4  C   UNL     1      -7.235   2.617  65.268  1.00  0.00    -0.062 C  
HETATM    5  H1  UNL     1      -6.279   5.129  68.162  1.00  0.00     0.000 HD 
HETATM    6  N   UNL     1      -6.696   4.315  67.711  1.00  0.00    -0.050 NA 
HETATM    7  H2  UNL     1      -5.983   3.683  67.345  1.00  0.00     0.000 HD 
ENDROOT
BRANCH   3   8
HETATM    8  C   UNL     1      -8.715   5.670  67.259  1.00  0.00    -0.107 C  
HETATM    9  O   UNL     1      -9.923   5.588  67.074  1.00  0.00    -0.141 OA 
BRANCH   8  10
HETATM   10  O   UNL     1      -8.132   6.589  68.083  1.00  0.00    -0.111 OA 
BRANCH  10  11
HETATM   11  C   UNL     1      -9.045   7.544  68.661  1.00  0.00    -0.134 C  
BRANCH  11  12
HETATM   12  C   UNL     1      -8.852   8.922  68.027  1.00  0.00    -0.133 C  
BRANCH  12  13
HETATM   13  O   UNL     1      -9.947   9.750  68.427  1.00  0.00    -0.149 OA 
BRANCH  13  14
HETATM   14  C   UNL     1      -9.665  11.138  68.240  1.00  0.00    -0.188 C  
BRANCH  14  15
HETATM   15  N   UNL     1     -10.581  11.690  67.259  1.00  0.00    -0.219 NA 
HETATM   16  C   UNL     1     -11.599  12.574  67.540  1.00  0.00    -0.361 A  
HETATM   17  N   UNL     1     -12.253  12.942  66.453  1.00  0.00    -0.482 NA 
HETATM   18  C   UNL     1     -11.633  12.271  65.419  1.00  0.00    -0.363 A  
HETATM   19  C   UNL     1     -10.622  11.496  65.916  1.00  0.00    -0.268 A  
HETATM   20  N   UNL     1      -9.847  10.734  65.136  1.00  0.00    -0.254 NA 
HETATM   21  C   UNL     1     -10.071  10.807  63.788  1.00  0.00    -0.327 C  
HETATM   22  N   UNL     1      -9.199  10.065  63.058  1.00  0.00    -0.278 NA 
HETATM   23  N   UNL     1     -10.998  11.505  63.202  1.00  0.00    -0.782 N  
HETATM   24  H2  UNL     1      -8.451   9.508  63.473  1.00  0.00     0.000 HD 
HETATM   25  H1  UNL     1      -9.365  10.119  62.054  1.00  0.00     0.000 HD 
HETATM   26  C   UNL     1     -11.878  12.287  63.968  1.00  0.00    -0.444 C  
HETATM   27  H   UNL     1     -11.086  11.485  62.186  1.00  0.00     0.000 HD 
HETATM   28  O   UNL     1     -12.785  12.938  63.462  1.00  0.00    -0.709 OA 
ENDBRANCH  14  15
ENDBRANCH  13  14
ENDBRANCH  12  13
ENDBRANCH  11  12
ENDBRANCH  10  11
ENDBRANCH   8  10
ENDBRANCH   3   8
TORSDOF 7
ENDMDL
MODEL      260
REMARK 921   NORMALIZED FREE ENERGY PREDICTED BY IDOCK:   -4.02 KCAL/MOL
REMARK 922        TOTAL FREE ENERGY PREDICTED BY IDOCK:   -6.21 KCAL/MOL
REMARK 923 INTER-LIGAND FREE ENERGY PREDICTED BY IDOCK:   -5.46 KCAL/MOL
REMARK 924 INTRA-LIGAND FREE ENERGY PREDICTED BY IDOCK:   -0.75 KCAL/MOL
REMARK 927      BINDING AFFINITY PREDICTED BY RF-SCORE:    0.00 PKD
ROOT
HETATM    1  C   UNL     1      -7.481  12.479  68.005  1.00  0.00    -0.117 C  
HETATM    2  C   UNL     1      -6.304  13.325  67.508  1.00  0.00    -0.130 C  
HETATM    3  C   UNL     1      -5.855  14.397  68.532  1.00  0.00    -0.095 C  
HETATM    4  C   UNL     1      -5.143  12.406  67.105  1.00  0.00    -0.000 C  
HETATM    5  H1  UNL     1      -5.081  14.485  70.462  1.00  0.00     0.000 HD 
HETATM    6  N   UNL     1      -5.377  13.779  69.788  1.00  0.00    -0.086 NA 
HETATM    7  H2  UNL     1      -4.638  13.098  69.612  1.00  0.00     0.000 HD 
ENDROOT
BRANCH   3   8
HETATM    8  C   UNL     1      -6.969  15.422  68.849  1.00  0.00    -0.127 C  
HETATM    9  O   UNL     1      -7.884  15.243  69.645  1.00  0.00    -0.220 OA 
BRANCH   8  10
HETATM   10  O   UNL     1      -6.766  16.591  68.175  1.00  0.00    -0.133 OA 
BRANCH  10  11
HETATM   11  C   UNL     1      -6.840  16.480  66.740  1.00  0.00    -0.190 C  
BRANCH  11  12
HETATM   12  C   UNL     1      -8.298  16.478  66.277  1.00  0.00    -0.329 C  
BRANCH  12  13
HETATM   13  O   UNL     1      -9.017  17.417  67.080  1.00  0.00    -0.230 OA 
BRANCH  13  14
HETATM   14  C   UNL     1     -10.426  17.185  67.043  1.00  0.00    -0.282 C  
BRANCH  14  15
HETATM   15  N   UNL     1     -10.816  16.394  68.196  1.00  0.00    -0.337 NA 
HETATM   16  C   UNL     1     -10.877  16.863  69.490  1.00  0.00    -0.144 A  
HETATM   17  N   UNL     1     -11.298  15.939  70.335  1.00  0.00    -0.356 NA 
HETATM   18  C   UNL     1     -11.525  14.821  69.558  1.00  0.00    -0.298 A  
HETATM   19  C   UNL     1     -11.215  15.098  68.255  1.00  0.00    -0.308 A  
HETATM   20  N   UNL     1     -11.341  14.195  67.276  1.00  0.00    -0.316 NA 
HETATM   21  C   UNL     1     -11.857  12.976  67.626  1.00  0.00    -0.351 C  
HETATM   22  N   UNL     1     -12.023  12.140  66.570  1.00  0.00    -0.631 NA 
HETATM   23  N   UNL     1     -12.186  12.601  68.827  1.00  0.00    -0.076 N  
HETATM   24  H2  UNL     1     -11.787  12.395  65.610  1.00  0.00     0.000 HD 
HETATM   25  H1  UNL     1     -12.408  11.233  66.830  1.00  0.00     0.000 HD 
HETATM   26  C   UNL     1     -12.031  13.485  69.907  1.00  0.00    -0.348 C  
HETATM   27  H   UNL     1     -12.557  11.663  68.984  1.00  0.00     0.000 HD 
HETATM   28  O   UNL     1     -12.299  13.164  71.059  1.00  0.00    -0.358 OA 
ENDBRANCH  14  15
ENDBRANCH  13  14
ENDBRANCH  12  13
ENDBRANCH  11  12
ENDBRANCH  10  11
ENDBRANCH   8  10
ENDBRANCH   3   8
TORSDOF 7
ENDMDL
MODEL      261
REMARK 921   NORMALIZED FREE ENERGY PREDICTED BY IDOCK:   -4.02 KCAL/MOL
REMARK 922        TOTAL FREE ENERGY PREDICTED BY IDOCK:   -6.21 KCAL/MOL
REMARK 923 INTER-LIGAND FREE ENERGY PREDICTED BY IDOCK:   -5.38 KCAL/MOL
REMARK 924 INTRA-LIGAND FREE ENERGY PREDICTED BY IDOCK:   -0.83 KCAL/MOL
REMARK 927      BINDING AFFINITY PREDICTED BY RF-SCORE:    0.00 PKD
ROOT
HETATM    1  C   UNL     1      -7.819  13.333  68.294  1.00  0.00    -0.143 C  
HETATM    2  C   UNL     1      -6.861  12.203  68.685  1.00  0.00    -0.089 C  
HETATM    3  C   UNL     1      -6.611  11.196  67.533  1.00  0.00    -0.070 C  
HETATM    4  C   UNL     1      -5.548  12.798  69.211  1.00  0.00    -0.076 C  
HETATM    5  H1  UNL     1      -5.809  11.191  65.613  1.00  0.00     0.000 HD 
HETATM    6  N   UNL     1      -5.974  11.853  66.370  1.00  0.00    -0.496 NA 
HETATM    7  H2  UNL     1      -5.116  12.335  66.638  1.00  0.00     0.000 HD 
ENDROOT
BRANCH   3   8
HETATM    8  C   UNL     1      -7.903  10.478  67.079  1.00  0.00    -0.114 C  
HETATM    9  O   UNL     1      -8.491  10.687  66.024  1.00  0.00    -0.153 OA 
BRANCH   8  10
HETATM   10  O   UNL     1      -8.275   9.523  67.980  1.00  0.00    -0.112 OA 
BRANCH  10  11
HETATM   11  C   UNL     1      -9.379   9.893  68.831  1.00  0.00    -0.170 C  
BRANCH  11  12
HETATM   12  C   UNL     1     -10.672   9.234  68.348  1.00  0.00    -0.145 C  
BRANCH  12  13
HETATM   13  O   UNL     1     -11.378  10.183  67.544  1.00  0.00    -0.275 OA 
BRANCH  13  14
HETATM   14  C   UNL     1     -12.117  11.113  68.337  1.00  0.00     0.001 C  
BRANCH  14  15
HETATM   15  N   UNL     1     -11.921  12.455  67.819  1.00  0.00    -0.461 NA 
HETATM   16  C   UNL     1     -12.017  12.809  66.491  1.00  0.00    -0.358 A  
HETATM   17  N   UNL     1     -11.827  14.102  66.305  1.00  0.00    -0.394 NA 
HETATM   18  C   UNL     1     -11.602  14.615  67.567  1.00  0.00    -0.375 A  
HETATM   19  C   UNL     1     -11.644  13.603  68.486  1.00  0.00    -0.335 A  
HETATM   20  N   UNL     1     -11.460  13.811  69.795  1.00  0.00    -0.233 NA 
HETATM   21  C   UNL     1     -11.281  15.108  70.194  1.00  0.00    -0.273 C  
HETATM   22  N   UNL     1     -11.176  15.246  71.540  1.00  0.00    -0.509 NA 
HETATM   23  N   UNL     1     -11.223  16.147  69.414  1.00  0.00    -0.331 N  
HETATM   24  H2  UNL     1     -11.224  14.462  72.190  1.00  0.00     0.000 HD 
HETATM   25  H1  UNL     1     -11.043  16.213  71.837  1.00  0.00     0.000 HD 
HETATM   26  C   UNL     1     -11.358  15.991  68.025  1.00  0.00    -0.266 C  
HETATM   27  H   UNL     1     -11.079  17.075  69.812  1.00  0.00     0.000 HD 
HETATM   28  O   UNL     1     -11.280  16.937  67.249  1.00  0.00    -0.001 OA 
ENDBRANCH  14  15
ENDBRANCH  13  14
ENDBRANCH  12  13
ENDBRANCH  11  12
ENDBRANCH  10  11
ENDBRANCH   8  10
ENDBRANCH   3   8
TORSDOF 7
ENDMDL
MODEL      262
REMARK 921   NORMALIZED FREE ENERGY PREDICTED BY IDOCK:   -4.02 KCAL/MOL
REMARK 922        TOTAL FREE ENERGY PREDICTED BY IDOCK:   -6.21 KCAL/MOL
REMARK 923 INTER-LIGAND FREE ENERGY PREDICTED BY IDOCK:   -5.83 KCAL/MOL
REMARK 924 INTRA-LIGAND FREE ENERGY PREDICTED BY IDOCK:   -0.37 KCAL/MOL
REMARK 927      BINDING AFFINITY PREDICTED BY RF-SCORE:    0.00 PKD
ROOT
HETATM    1  C   UNL     1      -7.788  12.625  68.460  1.00  0.00    -0.104 C  
HETATM    2  C   UNL     1      -7.036  13.794  67.815  1.00  0.00    -0.178 C  
HETATM    3  C   UNL     1      -7.240  15.134  68.565  1.00  0.00    -0.118 C  
HETATM    4  C   UNL     1      -5.548  13.440  67.685  1.00  0.00    -0.050 C  
HETATM    5  H1  UNL     1      -6.857  15.945  70.442  1.00  0.00     0.000 HD 
HETATM    6  N   UNL     1      -6.722  15.064  69.949  1.00  0.00    -0.177 NA 
HETATM    7  H2  UNL     1      -5.745  14.770  69.968  1.00  0.00     0.000 HD 
ENDROOT
BRANCH   3   8
HETATM    8  C   UNL     1      -8.720  15.584  68.588  1.00  0.00    -0.188 C  
HETATM    9  O   UNL     1      -9.523  15.316  69.473  1.00  0.00    -0.239 OA 
BRANCH   8  10
HETATM   10  O   UNL     1      -9.005  16.383  67.519  1.00  0.00    -0.190 OA 
BRANCH  10  11
HETATM   11  C   UNL     1      -8.713  15.797  66.234  1.00  0.00    -0.323 C  
BRANCH  11  12
HETATM   12  C   UNL     1      -9.790  14.781  65.850  1.00  0.00    -0.334 C  
BRANCH  12  13
HETATM   13  O   UNL     1     -11.051  15.282  66.302  1.00  0.00    -0.330 OA 
BRANCH  13  14
HETATM   14  C   UNL     1     -12.051  14.263  66.335  1.00  0.00    -0.419 C  
BRANCH  14  15
HETATM   15  N   UNL     1     -11.938  13.514  67.573  1.00  0.00    -0.362 NA 
HETATM   16  C   UNL     1     -12.250  14.003  68.822  1.00  0.00    -0.202 A  
HETATM   17  N   UNL     1     -12.088  13.095  69.767  1.00  0.00    -0.298 NA 
HETATM   18  C   UNL     1     -11.656  11.964  69.105  1.00  0.00    -0.312 A  
HETATM   19  C   UNL     1     -11.549  12.228  67.768  1.00  0.00    -0.351 A  
HETATM   20  N   UNL     1     -11.151  11.309  66.881  1.00  0.00    -0.293 NA 
HETATM   21  C   UNL     1     -10.904  10.053  67.365  1.00  0.00    -0.249 C  
HETATM   22  N   UNL     1     -10.576   9.160  66.396  1.00  0.00    -0.069 NA 
HETATM   23  N   UNL     1     -10.971   9.686  68.610  1.00  0.00    -0.421 N  
HETATM   24  H2  UNL     1     -10.520   9.400  65.407  1.00  0.00     0.000 HD 
HETATM   25  H1  UNL     1     -10.392   8.224  66.757  1.00  0.00     0.000 HD 
HETATM   26  C   UNL     1     -11.334  10.615  69.598  1.00  0.00    -0.294 C  
HETATM   27  H   UNL     1     -10.759   8.722  68.870  1.00  0.00     0.000 HD 
HETATM   28  O   UNL     1     -11.381  10.322  70.787  1.00  0.00    -0.328 OA 
ENDBRANCH  14  15
ENDBRANCH  13  14
ENDBRANCH  12  13
ENDBRANCH  11  12
ENDBRANCH  10  11
ENDBRANCH   8  10
ENDBRANCH   3   8
TORSDOF 7
ENDMDL
MODEL      263
REMARK 921   NORMALIZED FREE ENERGY PREDICTED BY IDOCK:   -4.02 KCAL/MOL
REMARK 922        TOTAL FREE ENERGY PREDICTED BY IDOCK:   -6.20 KCAL/MOL
REMARK 923 INTER-LIGAND FREE ENERGY PREDICTED BY IDOCK:   -5.35 KCAL/MOL
REMARK 924 INTRA-LIGAND FREE ENERGY PREDICTED BY IDOCK:   -0.86 KCAL/MOL
REMARK 927      BINDING AFFINITY PREDICTED BY RF-SCORE:    0.00 PKD
ROOT
HETATM    1  C   UNL     1      -8.134  13.324  68.014  1.00  0.00    -0.157 C  
HETATM    2  C   UNL     1      -6.847  12.935  68.749  1.00  0.00    -0.099 C  
HETATM    3  C   UNL     1      -6.023  11.859  67.998  1.00  0.00    -0.055 C  
HETATM    4  C   UNL     1      -6.012  14.193  69.028  1.00  0.00    -0.091 C  
HETATM    5  H1  UNL     1      -5.033  11.637  66.181  1.00  0.00     0.000 HD 
HETATM    6  N   UNL     1      -5.575  12.345  66.674  1.00  0.00    -0.441 NA 
HETATM    7  H2  UNL     1      -5.060  13.223  66.754  1.00  0.00     0.000 HD 
ENDROOT
BRANCH   3   8
HETATM    8  C   UNL     1      -6.795  10.530  67.828  1.00  0.00    -0.073 C  
HETATM    9  O   UNL     1      -7.219  10.093  66.763  1.00  0.00    -0.089 OA 
BRANCH   8  10
HETATM   10  O   UNL     1      -6.889   9.862  69.014  1.00  0.00    -0.052 OA 
BRANCH  10  11
HETATM   11  C   UNL     1      -8.160   9.995  69.682  1.00  0.00    -0.172 C  
BRANCH  11  12
HETATM   12  C   UNL     1      -8.938   8.680  69.620  1.00  0.00    -0.145 C  
BRANCH  12  13
HETATM   13  O   UNL     1      -9.784   8.721  68.468  1.00  0.00    -0.156 OA 
BRANCH  13  14
HETATM   14  C   UNL     1     -10.926   9.553  68.671  1.00  0.00    -0.072 C  
BRANCH  14  15
HETATM   15  N   UNL     1     -10.964  10.582  67.648  1.00  0.00    -0.300 NA 
HETATM   16  C   UNL     1     -10.647  10.388  66.321  1.00  0.00    -0.109 A  
HETATM   17  N   UNL     1     -10.802  11.487  65.606  1.00  0.00    -0.272 NA 
HETATM   18  C   UNL     1     -11.243  12.438  66.504  1.00  0.00    -0.319 A  
HETATM   19  C   UNL     1     -11.325  11.886  67.752  1.00  0.00    -0.292 A  
HETATM   20  N   UNL     1     -11.728  12.581  68.822  1.00  0.00    -0.312 NA 
HETATM   21  C   UNL     1     -12.118  13.875  68.605  1.00  0.00    -0.302 C  
HETATM   22  N   UNL     1     -12.582  14.490  69.722  1.00  0.00    -0.548 NA 
HETATM   23  N   UNL     1     -12.084  14.503  67.467  1.00  0.00    -0.591 N  
HETATM   24  H2  UNL     1     -12.636  14.034  70.633  1.00  0.00     0.000 HD 
HETATM   25  H1  UNL     1     -12.873  15.454  69.560  1.00  0.00     0.000 HD 
HETATM   26  C   UNL     1     -11.623  13.846  66.315  1.00  0.00    -0.365 C  
HETATM   27  H   UNL     1     -12.391  15.475  67.412  1.00  0.00     0.000 HD 
HETATM   28  O   UNL     1     -11.545  14.408  65.228  1.00  0.00    -0.333 OA 
ENDBRANCH  14  15
ENDBRANCH  13  14
ENDBRANCH  12  13
ENDBRANCH  11  12
ENDBRANCH  10  11
ENDBRANCH   8  10
ENDBRANCH   3   8
TORSDOF 7
ENDMDL
MODEL      264
REMARK 921   NORMALIZED FREE ENERGY PREDICTED BY IDOCK:   -4.01 KCAL/MOL
REMARK 922        TOTAL FREE ENERGY PREDICTED BY IDOCK:   -6.20 KCAL/MOL
REMARK 923 INTER-LIGAND FREE ENERGY PREDICTED BY IDOCK:   -5.43 KCAL/MOL
REMARK 924 INTRA-LIGAND FREE ENERGY PREDICTED BY IDOCK:   -0.76 KCAL/MOL
REMARK 927      BINDING AFFINITY PREDICTED BY RF-SCORE:    0.00 PKD
ROOT
HETATM    1  C   UNL     1      -7.106   5.042  67.678  1.00  0.00    -0.066 C  
HETATM    2  C   UNL     1      -8.180   4.326  68.504  1.00  0.00    -0.087 C  
HETATM    3  C   UNL     1      -9.118   3.443  67.643  1.00  0.00    -0.169 C  
HETATM    4  C   UNL     1      -7.514   3.517  69.625  1.00  0.00    -0.045 C  
HETATM    5  H1  UNL     1      -8.988   1.778  66.401  1.00  0.00     0.000 HD 
HETATM    6  N   UNL     1      -8.371   2.359  66.967  1.00  0.00    -0.083 NA 
HETATM    7  H2  UNL     1      -7.839   1.800  67.634  1.00  0.00     0.000 HD 
ENDROOT
BRANCH   3   8
HETATM    8  C   UNL     1      -9.909   4.260  66.595  1.00  0.00    -0.214 C  
HETATM    9  O   UNL     1      -9.822   4.117  65.380  1.00  0.00    -0.184 OA 
BRANCH   8  10
HETATM   10  O   UNL     1     -10.775   5.123  67.199  1.00  0.00    -0.170 OA 
BRANCH  10  11
HETATM   11  C   UNL     1     -10.770   6.460  66.657  1.00  0.00    -0.200 C  
BRANCH  11  12
HETATM   12  C   UNL     1     -10.421   7.477  67.744  1.00  0.00    -0.223 C  
BRANCH  12  13
HETATM   13  O   UNL     1     -10.876   6.959  68.997  1.00  0.00    -0.227 OA 
BRANCH  13  14
HETATM   14  C   UNL     1     -10.246   7.605  70.104  1.00  0.00    -0.204 C  
BRANCH  14  15
HETATM   15  N   UNL     1     -11.175   8.541  70.712  1.00  0.00    -0.255 NA 
HETATM   16  C   UNL     1     -12.067   8.228  71.714  1.00  0.00    -0.319 A  
HETATM   17  N   UNL     1     -12.765   9.278  72.105  1.00  0.00    -0.389 NA 
HETATM   18  C   UNL     1     -12.306  10.322  71.327  1.00  0.00    -0.403 A  
HETATM   19  C   UNL     1     -11.346   9.864  70.466  1.00  0.00    -0.327 A  
HETATM   20  N   UNL     1     -10.723  10.662  69.592  1.00  0.00    -0.252 NA 
HETATM   21  C   UNL     1     -11.047  11.991  69.631  1.00  0.00    -0.006 C  
HETATM   22  N   UNL     1     -10.322  12.746  68.767  1.00  0.00    -0.398 NA 
HETATM   23  N   UNL     1     -11.940  12.538  70.402  1.00  0.00    -0.519 N  
HETATM   24  H2  UNL     1      -9.606  12.362  68.150  1.00  0.00     0.000 HD 
HETATM   25  H1  UNL     1     -10.563  13.736  68.796  1.00  0.00     0.000 HD 
HETATM   26  C   UNL     1     -12.665  11.748  71.307  1.00  0.00    -0.316 C  
HETATM   27  H   UNL     1     -12.112  13.542  70.349  1.00  0.00     0.000 HD 
HETATM   28  O   UNL     1     -13.537  12.215  72.032  1.00  0.00    -0.377 OA 
ENDBRANCH  14  15
ENDBRANCH  13  14
ENDBRANCH  12  13
ENDBRANCH  11  12
ENDBRANCH  10  11
ENDBRANCH   8  10
ENDBRANCH   3   8
TORSDOF 7
ENDMDL
MODEL      265
REMARK 921   NORMALIZED FREE ENERGY PREDICTED BY IDOCK:   -4.01 KCAL/MOL
REMARK 922        TOTAL FREE ENERGY PREDICTED BY IDOCK:   -6.19 KCAL/MOL
REMARK 923 INTER-LIGAND FREE ENERGY PREDICTED BY IDOCK:   -5.70 KCAL/MOL
REMARK 924 INTRA-LIGAND FREE ENERGY PREDICTED BY IDOCK:   -0.50 KCAL/MOL
REMARK 927      BINDING AFFINITY PREDICTED BY RF-SCORE:    0.00 PKD
ROOT
HETATM    1  C   UNL     1      -8.203  19.804  66.417  1.00  0.00    -0.371 C  
HETATM    2  C   UNL     1      -9.521  19.022  66.416  1.00  0.00    -0.375 C  
HETATM    3  C   UNL     1      -9.946  18.549  67.829  1.00  0.00    -0.343 C  
HETATM    4  C   UNL     1     -10.617  19.861  65.747  1.00  0.00    -0.490 C  
HETATM    5  H1  UNL     1     -10.463  19.385  69.664  1.00  0.00     0.000 HD 
HETATM    6  N   UNL     1     -10.183  19.696  68.734  1.00  0.00    -0.559 NA 
HETATM    7  H2  UNL     1     -10.859  20.349  68.340  1.00  0.00     0.000 HD 
ENDROOT
BRANCH   3   8
HETATM    8  C   UNL     1      -8.918  17.587  68.470  1.00  0.00    -0.279 C  
HETATM    9  O   UNL     1      -7.856  17.928  68.978  1.00  0.00    -0.212 OA 
BRANCH   8  10
HETATM   10  O   UNL     1      -9.377  16.302  68.458  1.00  0.00    -0.199 OA 
BRANCH  10  11
HETATM   11  C   UNL     1     -10.800  16.168  68.650  1.00  0.00    -0.311 C  
BRANCH  11  12
HETATM   12  C   UNL     1     -11.456  15.579  67.399  1.00  0.00    -0.140 C  
BRANCH  12  13
HETATM   13  O   UNL     1     -12.258  14.466  67.804  1.00  0.00    -0.314 OA 
BRANCH  13  14
HETATM   14  C   UNL     1     -11.603  13.664  68.787  1.00  0.00    -0.324 C  
BRANCH  14  15
HETATM   15  N   UNL     1     -10.976  12.524  68.143  1.00  0.00    -0.217 NA 
HETATM   16  C   UNL     1     -11.654  11.494  67.529  1.00  0.00    -0.246 A  
HETATM   17  N   UNL     1     -10.834  10.608  66.994  1.00  0.00    -0.261 NA 
HETATM   18  C   UNL     1      -9.567  11.082  67.268  1.00  0.00    -0.165 A  
HETATM   19  C   UNL     1      -9.658  12.244  67.984  1.00  0.00    -0.206 A  
HETATM   20  N   UNL     1      -8.582  12.928  68.387  1.00  0.00    -0.156 NA 
HETATM   21  C   UNL     1      -7.363  12.442  68.000  1.00  0.00    -0.108 C  
HETATM   22  N   UNL     1      -6.324  13.228  68.383  1.00  0.00    -0.078 NA 
HETATM   23  N   UNL     1      -7.154  11.352  67.322  1.00  0.00    -0.110 N  
HETATM   24  H2  UNL     1      -6.441  14.095  68.908  1.00  0.00     0.000 HD 
HETATM   25  H1  UNL     1      -5.416  12.866  68.094  1.00  0.00     0.000 HD 
HETATM   26  C   UNL     1      -8.239  10.561  66.911  1.00  0.00    -0.123 C  
HETATM   27  H   UNL     1      -6.201  11.072  67.088  1.00  0.00     0.000 HD 
HETATM   28  O   UNL     1      -8.088   9.511  66.297  1.00  0.00    -0.110 OA 
ENDBRANCH  14  15
ENDBRANCH  13  14
ENDBRANCH  12  13
ENDBRANCH  11  12
ENDBRANCH  10  11
ENDBRANCH   8  10
ENDBRANCH   3   8
TORSDOF 7
ENDMDL
MODEL      266
REMARK 921   NORMALIZED FREE ENERGY PREDICTED BY IDOCK:   -4.00 KCAL/MOL
REMARK 922        TOTAL FREE ENERGY PREDICTED BY IDOCK:   -6.18 KCAL/MOL
REMARK 923 INTER-LIGAND FREE ENERGY PREDICTED BY IDOCK:   -5.51 KCAL/MOL
REMARK 924 INTRA-LIGAND FREE ENERGY PREDICTED BY IDOCK:   -0.67 KCAL/MOL
REMARK 927      BINDING AFFINITY PREDICTED BY RF-SCORE:    0.00 PKD
ROOT
HETATM    1  C   UNL     1     -11.687   8.335  72.209  1.00  0.00    -0.453 C  
HETATM    2  C   UNL     1     -10.595   7.273  72.375  1.00  0.00    -0.273 C  
HETATM    3  C   UNL     1      -9.297   7.611  71.600  1.00  0.00    -0.138 C  
HETATM    4  C   UNL     1     -10.320   7.046  73.868  1.00  0.00    -0.386 C  
HETATM    5  H1  UNL     1      -7.833   9.090  71.581  1.00  0.00     0.000 HD 
HETATM    6  N   UNL     1      -8.687   8.867  72.091  1.00  0.00    -0.382 NA 
HETATM    7  H2  UNL     1      -8.523   8.834  73.097  1.00  0.00     0.000 HD 
ENDROOT
BRANCH   3   8
HETATM    8  C   UNL     1      -9.523   7.707  70.073  1.00  0.00    -0.161 C  
HETATM    9  O   UNL     1      -9.813   6.765  69.344  1.00  0.00    -0.155 OA 
BRANCH   8  10
HETATM   10  O   UNL     1      -9.423   8.998  69.643  1.00  0.00    -0.162 OA 
BRANCH  10  11
HETATM   11  C   UNL     1     -10.045   9.259  68.368  1.00  0.00    -0.191 C  
BRANCH  11  12
HETATM   12  C   UNL     1     -11.480   9.751  68.563  1.00  0.00     0.213 C  
BRANCH  12  13
HETATM   13  O   UNL     1     -11.719  10.801  67.622  1.00  0.00    -0.538 OA 
BRANCH  13  14
HETATM   14  C   UNL     1     -12.037  12.035  68.266  1.00  0.00     0.005 C  
BRANCH  14  15
HETATM   15  N   UNL     1     -11.397  13.129  67.560  1.00  0.00    -0.283 NA 
HETATM   16  C   UNL     1     -11.993  13.891  66.579  1.00  0.00    -0.439 A  
HETATM   17  N   UNL     1     -11.193  14.842  66.133  1.00  0.00    -0.336 NA 
HETATM   18  C   UNL     1     -10.027  14.697  66.856  1.00  0.00    -0.253 A  
HETATM   19  C   UNL     1     -10.149  13.640  67.715  1.00  0.00    -0.242 A  
HETATM   20  N   UNL     1      -9.167  13.267  68.543  1.00  0.00    -0.129 NA 
HETATM   21  C   UNL     1      -8.034  14.034  68.539  1.00  0.00    -0.141 C  
HETATM   22  N   UNL     1      -7.115  13.639  69.457  1.00  0.00    -0.323 NA 
HETATM   23  N   UNL     1      -7.806  15.058  67.770  1.00  0.00    -0.135 N  
HETATM   24  H2  UNL     1      -7.254  12.848  70.086  1.00  0.00     0.000 HD 
HETATM   25  H1  UNL     1      -6.271  14.211  69.454  1.00  0.00     0.000 HD 
HETATM   26  C   UNL     1      -8.775  15.470  66.843  1.00  0.00    -0.250 C  
HETATM   27  H   UNL     1      -6.921  15.561  67.841  1.00  0.00     0.000 HD 
HETATM   28  O   UNL     1      -8.592  16.410  66.077  1.00  0.00    -0.358 OA 
ENDBRANCH  14  15
ENDBRANCH  13  14
ENDBRANCH  12  13
ENDBRANCH  11  12
ENDBRANCH  10  11
ENDBRANCH   8  10
ENDBRANCH   3   8
TORSDOF 7
ENDMDL
MODEL      267
REMARK 921   NORMALIZED FREE ENERGY PREDICTED BY IDOCK:   -4.00 KCAL/MOL
REMARK 922        TOTAL FREE ENERGY PREDICTED BY IDOCK:   -6.18 KCAL/MOL
REMARK 923 INTER-LIGAND FREE ENERGY PREDICTED BY IDOCK:   -5.42 KCAL/MOL
REMARK 924 INTRA-LIGAND FREE ENERGY PREDICTED BY IDOCK:   -0.76 KCAL/MOL
REMARK 927      BINDING AFFINITY PREDICTED BY RF-SCORE:    0.00 PKD
ROOT
HETATM    1  C   UNL     1      -9.103   4.040  66.427  1.00  0.00    -0.140 C  
HETATM    2  C   UNL     1      -9.078   5.002  67.619  1.00  0.00    -0.121 C  
HETATM    3  C   UNL     1      -9.345   6.474  67.214  1.00  0.00    -0.121 C  
HETATM    4  C   UNL     1     -10.066   4.522  68.690  1.00  0.00    -0.024 C  
HETATM    5  H1  UNL     1     -10.867   7.604  66.355  1.00  0.00     0.000 HD 
HETATM    6  N   UNL     1     -10.691   6.636  66.621  1.00  0.00    -0.531 NA 
HETATM    7  H2  UNL     1     -11.419   6.281  67.242  1.00  0.00     0.000 HD 
ENDROOT
BRANCH   3   8
HETATM    8  C   UNL     1      -8.279   7.027  66.240  1.00  0.00    -0.120 C  
HETATM    9  O   UNL     1      -7.074   6.821  66.325  1.00  0.00    -0.064 OA 
BRANCH   8  10
HETATM   10  O   UNL     1      -8.861   7.727  65.224  1.00  0.00    -0.044 OA 
BRANCH  10  11
HETATM   11  C   UNL     1      -8.394   9.084  65.081  1.00  0.00    -0.158 C  
BRANCH  11  12
HETATM   12  C   UNL     1      -9.554  10.016  64.726  1.00  0.00    -0.308 C  
BRANCH  12  13
HETATM   13  O   UNL     1     -10.381  10.152  65.884  1.00  0.00    -0.229 OA 
BRANCH  13  14
HETATM   14  C   UNL     1      -9.740  10.903  66.916  1.00  0.00    -0.181 C  
BRANCH  14  15
HETATM   15  N   UNL     1     -10.497  10.778  68.148  1.00  0.00    -0.175 NA 
HETATM   16  C   UNL     1     -10.597   9.627  68.898  1.00  0.00    -0.217 A  
HETATM   17  N   UNL     1     -11.319   9.806  69.990  1.00  0.00    -0.239 NA 
HETATM   18  C   UNL     1     -11.702  11.131  69.951  1.00  0.00    -0.355 A  
HETATM   19  C   UNL     1     -11.211  11.717  68.817  1.00  0.00    -0.245 A  
HETATM   20  N   UNL     1     -11.427  13.003  68.520  1.00  0.00    -0.281 NA 
HETATM   21  C   UNL     1     -12.123  13.740  69.440  1.00  0.00    -0.328 C  
HETATM   22  N   UNL     1     -12.238  15.050  69.103  1.00  0.00    -0.564 NA 
HETATM   23  N   UNL     1     -12.636  13.293  70.548  1.00  0.00    -0.238 N  
HETATM   24  H2  UNL     1     -11.846  15.446  68.249  1.00  0.00     0.000 HD 
HETATM   25  H1  UNL     1     -12.757  15.598  69.789  1.00  0.00     0.000 HD 
HETATM   26  C   UNL     1     -12.488  11.940  70.895  1.00  0.00    -0.300 C  
HETATM   27  H   UNL     1     -13.145  13.925  71.166  1.00  0.00     0.000 HD 
HETATM   28  O   UNL     1     -12.980  11.468  71.914  1.00  0.00    -0.440 OA 
ENDBRANCH  14  15
ENDBRANCH  13  14
ENDBRANCH  12  13
ENDBRANCH  11  12
ENDBRANCH  10  11
ENDBRANCH   8  10
ENDBRANCH   3   8
TORSDOF 7
ENDMDL
MODEL      268
REMARK 921   NORMALIZED FREE ENERGY PREDICTED BY IDOCK:   -4.00 KCAL/MOL
REMARK 922        TOTAL FREE ENERGY PREDICTED BY IDOCK:   -6.18 KCAL/MOL
REMARK 923 INTER-LIGAND FREE ENERGY PREDICTED BY IDOCK:   -5.39 KCAL/MOL
REMARK 924 INTRA-LIGAND FREE ENERGY PREDICTED BY IDOCK:   -0.79 KCAL/MOL
REMARK 927      BINDING AFFINITY PREDICTED BY RF-SCORE:    0.00 PKD
ROOT
HETATM    1  C   UNL     1     -11.711  13.295  67.773  1.00  0.00    -0.398 C  
HETATM    2  C   UNL     1     -10.295  13.570  67.255  1.00  0.00    -0.241 C  
HETATM    3  C   UNL     1     -10.258  14.641  66.136  1.00  0.00    -0.301 C  
HETATM    4  C   UNL     1      -9.380  13.946  68.428  1.00  0.00    -0.201 C  
HETATM    5  H1  UNL     1     -10.722  16.654  65.886  1.00  0.00     0.000 HD 
HETATM    6  N   UNL     1     -10.747  15.949  66.622  1.00  0.00    -0.303 NA 
HETATM    7  H2  UNL     1     -10.235  16.256  67.450  1.00  0.00     0.000 HD 
ENDROOT
BRANCH   3   8
HETATM    8  C   UNL     1     -11.060  14.221  64.882  1.00  0.00    -0.390 C  
HETATM    9  O   UNL     1     -12.172  14.642  64.584  1.00  0.00    -0.453 OA 
BRANCH   8  10
HETATM   10  O   UNL     1     -10.340  13.361  64.105  1.00  0.00    -0.380 OA 
BRANCH  10  11
HETATM   11  C   UNL     1     -11.101  12.270  63.547  1.00  0.00    -0.464 C  
BRANCH  11  12
HETATM   12  C   UNL     1     -10.346  10.950  63.715  1.00  0.00    -0.317 C  
BRANCH  12  13
HETATM   13  O   UNL     1     -10.469  10.541  65.079  1.00  0.00    -0.286 OA 
BRANCH  13  14
HETATM   14  C   UNL     1      -9.196  10.351  65.698  1.00  0.00    -0.182 C  
BRANCH  14  15
HETATM   15  N   UNL     1      -9.355   9.545  66.896  1.00  0.00    -0.142 NA 
HETATM   16  C   UNL     1      -9.901   9.991  68.079  1.00  0.00    -0.142 A  
HETATM   17  N   UNL     1      -9.957   9.038  68.992  1.00  0.00    -0.180 NA 
HETATM   18  C   UNL     1      -9.428   7.922  68.375  1.00  0.00    -0.148 A  
HETATM   19  C   UNL     1      -9.047   8.240  67.101  1.00  0.00    -0.139 A  
HETATM   20  N   UNL     1      -8.501   7.347  66.268  1.00  0.00    -0.130 NA 
HETATM   21  C   UNL     1      -8.389   6.063  66.730  1.00  0.00    -0.106 C  
HETATM   22  N   UNL     1      -7.895   5.201  65.805  1.00  0.00    -0.094 NA 
HETATM   23  N   UNL     1      -8.716   5.646  67.917  1.00  0.00    -0.108 N  
HETATM   24  H2  UNL     1      -7.633   5.482  64.859  1.00  0.00     0.000 HD 
HETATM   25  H1  UNL     1      -7.811   4.245  66.148  1.00  0.00     0.000 HD 
HETATM   26  C   UNL     1      -9.247   6.544  68.856  1.00  0.00    -0.129 C  
HETATM   27  H   UNL     1      -8.585   4.665  68.166  1.00  0.00     0.000 HD 
HETATM   28  O   UNL     1      -9.542   6.202  69.996  1.00  0.00    -0.158 OA 
ENDBRANCH  14  15
ENDBRANCH  13  14
ENDBRANCH  12  13
ENDBRANCH  11  12
ENDBRANCH  10  11
ENDBRANCH   8  10
ENDBRANCH   3   8
TORSDOF 7
ENDMDL
MODEL      269
REMARK 921   NORMALIZED FREE ENERGY PREDICTED BY IDOCK:   -3.99 KCAL/MOL
REMARK 922        TOTAL FREE ENERGY PREDICTED BY IDOCK:   -6.17 KCAL/MOL
REMARK 923 INTER-LIGAND FREE ENERGY PREDICTED BY IDOCK:   -5.64 KCAL/MOL
REMARK 924 INTRA-LIGAND FREE ENERGY PREDICTED BY IDOCK:   -0.53 KCAL/MOL
REMARK 927      BINDING AFFINITY PREDICTED BY RF-SCORE:    0.00 PKD
ROOT
HETATM    1  C   UNL     1      -7.722   6.048  70.869  1.00  0.00    -0.098 C  
HETATM    2  C   UNL     1      -7.282   7.464  70.481  1.00  0.00    -0.065 C  
HETATM    3  C   UNL     1      -8.463   8.463  70.399  1.00  0.00    -0.130 C  
HETATM    4  C   UNL     1      -6.196   7.950  71.449  1.00  0.00    -0.035 C  
HETATM    5  H1  UNL     1      -9.910   9.275  71.655  1.00  0.00     0.000 HD 
HETATM    6  N   UNL     1      -9.133   8.617  71.709  1.00  0.00    -0.230 NA 
HETATM    7  H2  UNL     1      -8.471   8.880  72.439  1.00  0.00     0.000 HD 
ENDROOT
BRANCH   3   8
HETATM    8  C   UNL     1      -9.505   8.068  69.327  1.00  0.00    -0.155 C  
HETATM    9  O   UNL     1     -10.568   7.501  69.554  1.00  0.00    -0.233 OA 
BRANCH   8  10
HETATM   10  O   UNL     1      -9.120   8.492  68.089  1.00  0.00    -0.138 OA 
BRANCH  10  11
HETATM   11  C   UNL     1     -10.195   8.962  67.250  1.00  0.00    -0.258 C  
BRANCH  11  12
HETATM   12  C   UNL     1     -10.219  10.491  67.216  1.00  0.00    -0.215 C  
BRANCH  12  13
HETATM   13  O   UNL     1     -10.852  10.950  68.414  1.00  0.00    -0.190 OA 
BRANCH  13  14
HETATM   14  C   UNL     1     -12.009  11.739  68.139  1.00  0.00    -0.143 C  
BRANCH  14  15
HETATM   15  N   UNL     1     -11.750  13.122  68.499  1.00  0.00    -0.331 NA 
HETATM   16  C   UNL     1     -11.764  13.617  69.784  1.00  0.00    -0.297 A  
HETATM   17  N   UNL     1     -11.457  14.901  69.826  1.00  0.00    -0.278 NA 
HETATM   18  C   UNL     1     -11.230  15.257  68.511  1.00  0.00    -0.303 A  
HETATM   19  C   UNL     1     -11.425  14.171  67.703  1.00  0.00    -0.338 A  
HETATM   20  N   UNL     1     -11.273  14.225  66.375  1.00  0.00    -0.329 NA 
HETATM   21  C   UNL     1     -10.849  15.416  65.852  1.00  0.00    -0.325 C  
HETATM   22  N   UNL     1     -10.647  15.372  64.510  1.00  0.00    -0.605 NA 
HETATM   23  N   UNL     1     -10.633  16.511  66.519  1.00  0.00    -0.262 N  
HETATM   24  H2  UNL     1     -10.795  14.534  63.948  1.00  0.00     0.000 HD 
HETATM   25  H1  UNL     1     -10.331  16.260  64.120  1.00  0.00     0.000 HD 
HETATM   26  C   UNL     1     -10.823  16.536  67.910  1.00  0.00    -0.326 C  
HETATM   27  H   UNL     1     -10.324  17.353  66.031  1.00  0.00     0.000 HD 
HETATM   28  O   UNL     1     -10.660  17.553  68.575  1.00  0.00    -0.357 OA 
ENDBRANCH  14  15
ENDBRANCH  13  14
ENDBRANCH  12  13
ENDBRANCH  11  12
ENDBRANCH  10  11
ENDBRANCH   8  10
ENDBRANCH   3   8
TORSDOF 7
ENDMDL
MODEL      270
REMARK 921   NORMALIZED FREE ENERGY PREDICTED BY IDOCK:   -3.99 KCAL/MOL
REMARK 922        TOTAL FREE ENERGY PREDICTED BY IDOCK:   -6.16 KCAL/MOL
REMARK 923 INTER-LIGAND FREE ENERGY PREDICTED BY IDOCK:   -5.54 KCAL/MOL
REMARK 924 INTRA-LIGAND FREE ENERGY PREDICTED BY IDOCK:   -0.62 KCAL/MOL
REMARK 927      BINDING AFFINITY PREDICTED BY RF-SCORE:    0.00 PKD
ROOT
HETATM    1  C   UNL     1      -7.214   7.989  65.871  1.00  0.00    -0.065 C  
HETATM    2  C   UNL     1      -7.971   6.794  66.460  1.00  0.00    -0.105 C  
HETATM    3  C   UNL     1      -9.184   7.214  67.328  1.00  0.00    -0.130 C  
HETATM    4  C   UNL     1      -8.385   5.840  65.332  1.00  0.00    -0.142 C  
HETATM    5  H1  UNL     1     -10.990   8.224  67.101  1.00  0.00     0.000 HD 
HETATM    6  N   UNL     1     -10.191   7.948  66.530  1.00  0.00    -0.478 NA 
HETATM    7  H2  UNL     1     -10.484   7.412  65.713  1.00  0.00     0.000 HD 
ENDROOT
BRANCH   3   8
HETATM    8  C   UNL     1      -8.775   8.062  68.554  1.00  0.00    -0.131 C  
HETATM    9  O   UNL     1      -8.207   7.631  69.551  1.00  0.00    -0.125 OA 
BRANCH   8  10
HETATM   10  O   UNL     1      -9.067   9.380  68.357  1.00  0.00    -0.128 OA 
BRANCH  10  11
HETATM   11  C   UNL     1      -9.914   9.968  69.366  1.00  0.00    -0.223 C  
BRANCH  11  12
HETATM   12  C   UNL     1     -11.314  10.227  68.807  1.00  0.00    -0.167 C  
BRANCH  12  13
HETATM   13  O   UNL     1     -11.170  10.862  67.534  1.00  0.00    -0.304 OA 
BRANCH  13  14
HETATM   14  C   UNL     1     -11.839  12.123  67.486  1.00  0.00    -0.237 C  
BRANCH  14  15
HETATM   15  N   UNL     1     -10.860  13.186  67.351  1.00  0.00    -0.253 NA 
HETATM   16  C   UNL     1      -9.674  13.258  68.048  1.00  0.00    -0.223 A  
HETATM   17  N   UNL     1      -8.957  14.313  67.703  1.00  0.00    -0.185 NA 
HETATM   18  C   UNL     1      -9.707  14.953  66.737  1.00  0.00    -0.251 A  
HETATM   19  C   UNL     1     -10.875  14.271  66.537  1.00  0.00    -0.304 A  
HETATM   20  N   UNL     1     -11.798  14.666  65.652  1.00  0.00    -0.314 NA 
HETATM   21  C   UNL     1     -11.496  15.768  64.899  1.00  0.00    -0.193 C  
HETATM   22  N   UNL     1     -12.446  16.063  63.974  1.00  0.00    -0.784 NA 
HETATM   23  N   UNL     1     -10.422  16.494  65.000  1.00  0.00    -0.149 N  
HETATM   24  H2  UNL     1     -13.299  15.518  63.853  1.00  0.00     0.000 HD 
HETATM   25  H1  UNL     1     -12.221  16.884  63.413  1.00  0.00     0.000 HD 
HETATM   26  C   UNL     1      -9.437  16.163  65.945  1.00  0.00    -0.302 C  
HETATM   27  H   UNL     1     -10.295  17.305  64.393  1.00  0.00     0.000 HD 
HETATM   28  O   UNL     1      -8.423  16.835  66.096  1.00  0.00    -0.352 OA 
ENDBRANCH  14  15
ENDBRANCH  13  14
ENDBRANCH  12  13
ENDBRANCH  11  12
ENDBRANCH  10  11
ENDBRANCH   8  10
ENDBRANCH   3   8
TORSDOF 7
ENDMDL
MODEL      271
REMARK 921   NORMALIZED FREE ENERGY PREDICTED BY IDOCK:   -3.98 KCAL/MOL
REMARK 922        TOTAL FREE ENERGY PREDICTED BY IDOCK:   -6.16 KCAL/MOL
REMARK 923 INTER-LIGAND FREE ENERGY PREDICTED BY IDOCK:   -5.95 KCAL/MOL
REMARK 924 INTRA-LIGAND FREE ENERGY PREDICTED BY IDOCK:   -0.20 KCAL/MOL
REMARK 927      BINDING AFFINITY PREDICTED BY RF-SCORE:    0.00 PKD
ROOT
HETATM    1  C   UNL     1      -9.037   6.992  71.207  1.00  0.00    -0.152 C  
HETATM    2  C   UNL     1      -9.682   8.270  71.753  1.00  0.00    -0.278 C  
HETATM    3  C   UNL     1     -10.616   8.962  70.728  1.00  0.00    -0.226 C  
HETATM    4  C   UNL     1     -10.415   7.958  73.064  1.00  0.00    -0.410 C  
HETATM    5  H1  UNL     1     -12.365   8.545  69.681  1.00  0.00     0.000 HD 
HETATM    6  N   UNL     1     -11.751   8.090  70.355  1.00  0.00    -0.469 NA 
HETATM    7  H2  UNL     1     -12.267   7.776  71.178  1.00  0.00     0.000 HD 
ENDROOT
BRANCH   3   8
HETATM    8  C   UNL     1      -9.868   9.413  69.451  1.00  0.00    -0.178 C  
HETATM    9  O   UNL     1      -9.610   8.691  68.494  1.00  0.00    -0.151 OA 
BRANCH   8  10
HETATM   10  O   UNL     1      -9.586  10.747  69.494  1.00  0.00    -0.110 OA 
BRANCH  10  11
HETATM   11  C   UNL     1      -9.840  11.457  68.265  1.00  0.00    -0.200 C  
BRANCH  11  12
HETATM   12  C   UNL     1     -10.291  12.890  68.556  1.00  0.00    -0.229 C  
BRANCH  12  13
HETATM   13  O   UNL     1      -9.405  13.780  67.872  1.00  0.00    -0.195 OA 
BRANCH  13  14
HETATM   14  C   UNL     1      -8.856  14.766  68.747  1.00  0.00    -0.179 C  
BRANCH  14  15
HETATM   15  N   UNL     1      -9.244  16.088  68.290  1.00  0.00    -0.189 NA 
HETATM   16  C   UNL     1     -10.428  16.386  67.652  1.00  0.00    -0.302 A  
HETATM   17  N   UNL     1     -10.536  17.674  67.381  1.00  0.00    -0.346 NA 
HETATM   18  C   UNL     1      -9.375  18.241  67.867  1.00  0.00    -0.276 A  
HETATM   19  C   UNL     1      -8.582  17.267  68.407  1.00  0.00    -0.251 A  
HETATM   20  N   UNL     1      -7.390  17.530  68.956  1.00  0.00    -0.233 NA 
HETATM   21  C   UNL     1      -7.014  18.845  69.009  1.00  0.00    -0.311 C  
HETATM   22  N   UNL     1      -5.830  19.039  69.644  1.00  0.00    -0.245 NA 
HETATM   23  N   UNL     1      -7.683  19.852  68.530  1.00  0.00    -0.276 N  
HETATM   24  H2  UNL     1      -5.276  18.281  70.043  1.00  0.00     0.000 HD 
HETATM   25  H1  UNL     1      -5.550  20.019  69.684  1.00  0.00     0.000 HD 
HETATM   26  C   UNL     1      -8.917  19.638  67.896  1.00  0.00    -0.324 C  
HETATM   27  H   UNL     1      -7.310  20.798  68.615  1.00  0.00     0.000 HD 
HETATM   28  O   UNL     1      -9.568  20.553  67.404  1.00  0.00    -0.425 OA 
ENDBRANCH  14  15
ENDBRANCH  13  14
ENDBRANCH  12  13
ENDBRANCH  11  12
ENDBRANCH  10  11
ENDBRANCH   8  10
ENDBRANCH   3   8
TORSDOF 7
ENDMDL
MODEL      272
REMARK 921   NORMALIZED FREE ENERGY PREDICTED BY IDOCK:   -3.98 KCAL/MOL
REMARK 922        TOTAL FREE ENERGY PREDICTED BY IDOCK:   -6.15 KCAL/MOL
REMARK 923 INTER-LIGAND FREE ENERGY PREDICTED BY IDOCK:   -5.62 KCAL/MOL
REMARK 924 INTRA-LIGAND FREE ENERGY PREDICTED BY IDOCK:   -0.54 KCAL/MOL
REMARK 927      BINDING AFFINITY PREDICTED BY RF-SCORE:    0.00 PKD
ROOT
HETATM    1  C   UNL     1     -11.152  15.372  65.290  1.00  0.00    -0.367 C  
HETATM    2  C   UNL     1     -11.617  13.934  65.547  1.00  0.00    -0.332 C  
HETATM    3  C   UNL     1     -11.293  13.441  66.980  1.00  0.00    -0.317 C  
HETATM    4  C   UNL     1     -13.113  13.812  65.232  1.00  0.00    -0.193 C  
HETATM    5  H1  UNL     1     -11.773  13.930  68.944  1.00  0.00     0.000 HD 
HETATM    6  N   UNL     1     -11.986  14.255  68.002  1.00  0.00    -0.497 NA 
HETATM    7  H2  UNL     1     -12.993  14.285  67.836  1.00  0.00     0.000 HD 
ENDROOT
BRANCH   3   8
HETATM    8  C   UNL     1      -9.775  13.422  67.274  1.00  0.00    -0.232 C  
HETATM    9  O   UNL     1      -9.205  14.152  68.078  1.00  0.00    -0.181 OA 
BRANCH   8  10
HETATM   10  O   UNL     1      -9.151  12.435  66.568  1.00  0.00    -0.217 OA 
BRANCH  10  11
HETATM   11  C   UNL     1      -9.055  11.171  67.255  1.00  0.00    -0.150 C  
BRANCH  11  12
HETATM   12  C   UNL     1      -9.426  10.022  66.315  1.00  0.00    -0.191 C  
BRANCH  12  13
HETATM   13  O   UNL     1     -10.060   9.003  67.092  1.00  0.00    -0.202 OA 
BRANCH  13  14
HETATM   14  C   UNL     1      -9.139   8.335  67.955  1.00  0.00    -0.137 C  
BRANCH  14  15
HETATM   15  N   UNL     1      -9.870   7.639  68.998  1.00  0.00    -0.164 NA 
HETATM   16  C   UNL     1     -10.910   6.762  68.781  1.00  0.00    -0.231 A  
HETATM   17  N   UNL     1     -11.368   6.245  69.907  1.00  0.00    -0.427 NA 
HETATM   18  C   UNL     1     -10.590   6.805  70.900  1.00  0.00    -0.220 A  
HETATM   19  C   UNL     1      -9.687   7.668  70.343  1.00  0.00    -0.179 A  
HETATM   20  N   UNL     1      -8.800   8.354  71.073  1.00  0.00    -0.148 NA 
HETATM   21  C   UNL     1      -8.793   8.111  72.420  1.00  0.00    -0.197 C  
HETATM   22  N   UNL     1      -7.820   8.787  73.082  1.00  0.00    -0.387 NA 
HETATM   23  N   UNL     1      -9.601   7.317  73.059  1.00  0.00    -0.160 N  
HETATM   24  H2  UNL     1      -7.159   9.414  72.621  1.00  0.00     0.000 HD 
HETATM   25  H1  UNL     1      -7.814   8.607  74.085  1.00  0.00     0.000 HD 
HETATM   26  C   UNL     1     -10.587   6.606  72.357  1.00  0.00    -0.214 C  
HETATM   27  H   UNL     1      -9.517   7.211  74.070  1.00  0.00     0.000 HD 
HETATM   28  O   UNL     1     -11.389   5.869  72.921  1.00  0.00    -0.272 OA 
ENDBRANCH  14  15
ENDBRANCH  13  14
ENDBRANCH  12  13
ENDBRANCH  11  12
ENDBRANCH  10  11
ENDBRANCH   8  10
ENDBRANCH   3   8
TORSDOF 7
ENDMDL
MODEL      273
REMARK 921   NORMALIZED FREE ENERGY PREDICTED BY IDOCK:   -3.96 KCAL/MOL
REMARK 922        TOTAL FREE ENERGY PREDICTED BY IDOCK:   -6.13 KCAL/MOL
REMARK 923 INTER-LIGAND FREE ENERGY PREDICTED BY IDOCK:   -4.88 KCAL/MOL
REMARK 924 INTRA-LIGAND FREE ENERGY PREDICTED BY IDOCK:   -1.24 KCAL/MOL
REMARK 927      BINDING AFFINITY PREDICTED BY RF-SCORE:    0.00 PKD
ROOT
HETATM    1  C   UNL     1     -11.419  13.985  67.292  1.00  0.00    -0.372 C  
HETATM    2  C   UNL     1     -11.230  12.914  66.212  1.00  0.00    -0.337 C  
HETATM    3  C   UNL     1     -10.831  11.533  66.791  1.00  0.00    -0.282 C  
HETATM    4  C   UNL     1     -12.496  12.822  65.350  1.00  0.00    -0.478 C  
HETATM    5  H1  UNL     1     -11.622  10.088  68.062  1.00  0.00     0.000 HD 
HETATM    6  N   UNL     1     -11.884  10.996  67.681  1.00  0.00    -0.623 NA 
HETATM    7  H2  UNL     1     -12.788  10.957  67.209  1.00  0.00     0.000 HD 
ENDROOT
BRANCH   3   8
HETATM    8  C   UNL     1      -9.483  11.571  67.547  1.00  0.00    -0.169 C  
HETATM    9  O   UNL     1      -9.337  11.324  68.738  1.00  0.00    -0.182 OA 
BRANCH   8  10
HETATM   10  O   UNL     1      -8.453  11.852  66.697  1.00  0.00    -0.185 OA 
BRANCH  10  11
HETATM   11  C   UNL     1      -7.142  11.790  67.296  1.00  0.00    -0.140 C  
BRANCH  11  12
HETATM   12  C   UNL     1      -6.425  10.503  66.885  1.00  0.00    -0.080 C  
BRANCH  12  13
HETATM   13  O   UNL     1      -6.582   9.553  67.941  1.00  0.00    -0.061 OA 
BRANCH  13  14
HETATM   14  C   UNL     1      -7.018   8.282  67.458  1.00  0.00    -0.075 C  
BRANCH  14  15
HETATM   15  N   UNL     1      -8.363   8.017  67.935  1.00  0.00    -0.128 NA 
HETATM   16  C   UNL     1      -9.495   8.034  67.151  1.00  0.00    -0.162 A  
HETATM   17  N   UNL     1     -10.580   7.721  67.836  1.00  0.00    -0.190 NA 
HETATM   18  C   UNL     1     -10.135   7.487  69.121  1.00  0.00    -0.192 A  
HETATM   19  C   UNL     1      -8.783   7.684  69.181  1.00  0.00    -0.139 A  
HETATM   20  N   UNL     1      -8.081   7.526  70.309  1.00  0.00    -0.110 NA 
HETATM   21  C   UNL     1      -8.772   7.094  71.409  1.00  0.00    -0.124 C  
HETATM   22  N   UNL     1      -7.982   6.887  72.493  1.00  0.00    -0.099 NA 
HETATM   23  N   UNL     1     -10.053   6.875  71.471  1.00  0.00    -0.185 N  
HETATM   24  H2  UNL     1      -6.973   7.037  72.488  1.00  0.00     0.000 HD 
HETATM   25  H1  UNL     1      -8.496   6.565  73.312  1.00  0.00     0.000 HD 
HETATM   26  C   UNL     1     -10.855   7.071  70.335  1.00  0.00    -0.254 C  
HETATM   27  H   UNL     1     -10.474   6.560  72.345  1.00  0.00     0.000 HD 
HETATM   28  O   UNL     1     -12.069   6.906  70.355  1.00  0.00    -0.318 OA 
ENDBRANCH  14  15
ENDBRANCH  13  14
ENDBRANCH  12  13
ENDBRANCH  11  12
ENDBRANCH  10  11
ENDBRANCH   8  10
ENDBRANCH   3   8
TORSDOF 7
ENDMDL
MODEL      274
REMARK 921   NORMALIZED FREE ENERGY PREDICTED BY IDOCK:   -3.96 KCAL/MOL
REMARK 922        TOTAL FREE ENERGY PREDICTED BY IDOCK:   -6.12 KCAL/MOL
REMARK 923 INTER-LIGAND FREE ENERGY PREDICTED BY IDOCK:   -5.52 KCAL/MOL
REMARK 924 INTRA-LIGAND FREE ENERGY PREDICTED BY IDOCK:   -0.59 KCAL/MOL
REMARK 927      BINDING AFFINITY PREDICTED BY RF-SCORE:    0.00 PKD
ROOT
HETATM    1  C   UNL     1      -9.862   5.851  71.934  1.00  0.00    -0.188 C  
HETATM    2  C   UNL     1     -10.223   7.301  71.592  1.00  0.00    -0.207 C  
HETATM    3  C   UNL     1     -11.095   7.423  70.317  1.00  0.00    -0.258 C  
HETATM    4  C   UNL     1     -10.893   7.964  72.802  1.00  0.00    -0.451 C  
HETATM    5  H1  UNL     1     -12.969   6.816  69.645  1.00  0.00     0.000 HD 
HETATM    6  N   UNL     1     -12.395   6.735  70.483  1.00  0.00    -0.555 NA 
HETATM    7  H2  UNL     1     -12.891   7.069  71.310  1.00  0.00     0.000 HD 
ENDROOT
BRANCH   3   8
HETATM    8  C   UNL     1     -10.383   6.887  69.054  1.00  0.00    -0.192 C  
HETATM    9  O   UNL     1     -10.688   5.862  68.455  1.00  0.00    -0.242 OA 
BRANCH   8  10
HETATM   10  O   UNL     1      -9.402   7.743  68.645  1.00  0.00    -0.148 OA 
BRANCH  10  11
HETATM   11  C   UNL     1      -9.405   8.033  67.232  1.00  0.00    -0.144 C  
BRANCH  11  12
HETATM   12  C   UNL     1     -10.486   9.062  66.899  1.00  0.00    -0.223 C  
BRANCH  12  13
HETATM   13  O   UNL     1     -10.100   9.736  65.698  1.00  0.00    -0.296 OA 
BRANCH  13  14
HETATM   14  C   UNL     1      -9.110  10.736  65.939  1.00  0.00    -0.188 C  
BRANCH  14  15
HETATM   15  N   UNL     1      -9.745  11.926  66.476  1.00  0.00    -0.205 NA 
HETATM   16  C   UNL     1     -11.003  12.371  66.135  1.00  0.00    -0.286 A  
HETATM   17  N   UNL     1     -11.345  13.458  66.803  1.00  0.00    -0.314 NA 
HETATM   18  C   UNL     1     -10.265  13.731  67.617  1.00  0.00    -0.242 A  
HETATM   19  C   UNL     1      -9.283  12.803  67.403  1.00  0.00    -0.193 A  
HETATM   20  N   UNL     1      -8.118  12.822  68.060  1.00  0.00    -0.151 NA 
HETATM   21  C   UNL     1      -7.965  13.791  69.014  1.00  0.00     0.136 C  
HETATM   22  N   UNL     1      -6.789  13.701  69.687  1.00  0.00    -0.323 NA 
HETATM   23  N   UNL     1      -8.824  14.723  69.303  1.00  0.00    -0.390 N  
HETATM   24  H2  UNL     1      -6.089  12.983  69.500  1.00  0.00     0.000 HD 
HETATM   25  H1  UNL     1      -6.675  14.423  70.397  1.00  0.00     0.000 HD 
HETATM   26  C   UNL     1     -10.046  14.789  68.615  1.00  0.00    -0.238 C  
HETATM   27  H   UNL     1      -8.610  15.406  70.030  1.00  0.00     0.000 HD 
HETATM   28  O   UNL     1     -10.874  15.667  68.833  1.00  0.00    -0.228 OA 
ENDBRANCH  14  15
ENDBRANCH  13  14
ENDBRANCH  12  13
ENDBRANCH  11  12
ENDBRANCH  10  11
ENDBRANCH   8  10
ENDBRANCH   3   8
TORSDOF 7
ENDMDL
MODEL      275
REMARK 921   NORMALIZED FREE ENERGY PREDICTED BY IDOCK:   -3.95 KCAL/MOL
REMARK 922        TOTAL FREE ENERGY PREDICTED BY IDOCK:   -6.11 KCAL/MOL
REMARK 923 INTER-LIGAND FREE ENERGY PREDICTED BY IDOCK:   -5.59 KCAL/MOL
REMARK 924 INTRA-LIGAND FREE ENERGY PREDICTED BY IDOCK:   -0.51 KCAL/MOL
REMARK 927      BINDING AFFINITY PREDICTED BY RF-SCORE:    0.00 PKD
ROOT
HETATM    1  C   UNL     1      -6.891   4.148  66.614  1.00  0.00    -0.055 C  
HETATM    2  C   UNL     1      -8.289   4.769  66.509  1.00  0.00    -0.107 C  
HETATM    3  C   UNL     1      -8.717   5.053  65.048  1.00  0.00    -0.151 C  
HETATM    4  C   UNL     1      -9.305   3.875  67.233  1.00  0.00    -0.220 C  
HETATM    5  H1  UNL     1      -9.074   3.993  63.292  1.00  0.00     0.000 HD 
HETATM    6  N   UNL     1      -8.792   3.806  64.254  1.00  0.00    -0.116 NA 
HETATM    7  H2  UNL     1      -9.403   3.118  64.696  1.00  0.00     0.000 HD 
ENDROOT
BRANCH   3   8
HETATM    8  C   UNL     1      -7.785   6.063  64.339  1.00  0.00    -0.104 C  
HETATM    9  O   UNL     1      -7.132   5.829  63.328  1.00  0.00    -0.042 OA 
BRANCH   8  10
HETATM   10  O   UNL     1      -7.830   7.283  64.949  1.00  0.00    -0.113 OA 
BRANCH  10  11
HETATM   11  C   UNL     1      -8.084   8.391  64.062  1.00  0.00    -0.142 C  
BRANCH  11  12
HETATM   12  C   UNL     1      -7.761   9.716  64.754  1.00  0.00    -0.122 C  
BRANCH  12  13
HETATM   13  O   UNL     1      -8.953  10.506  64.775  1.00  0.00    -0.187 OA 
BRANCH  13  14
HETATM   14  C   UNL     1      -9.987   9.895  65.547  1.00  0.00    -0.292 C  
BRANCH  14  15
HETATM   15  N   UNL     1     -10.393  10.796  66.610  1.00  0.00    -0.233 NA 
HETATM   16  C   UNL     1     -10.071  10.642  67.941  1.00  0.00    -0.168 A  
HETATM   17  N   UNL     1     -10.541  11.627  68.684  1.00  0.00    -0.203 NA 
HETATM   18  C   UNL     1     -11.195  12.461  67.800  1.00  0.00    -0.275 A  
HETATM   19  C   UNL     1     -11.116  11.942  66.537  1.00  0.00    -0.306 A  
HETATM   20  N   UNL     1     -11.663  12.544  65.475  1.00  0.00    -0.390 NA 
HETATM   21  C   UNL     1     -12.267  13.752  65.696  1.00  0.00    -0.454 C  
HETATM   22  N   UNL     1     -12.732  14.335  64.562  1.00  0.00    -0.653 NA 
HETATM   23  N   UNL     1     -12.402  14.341  66.847  1.00  0.00    -0.571 N  
HETATM   24  H2  UNL     1     -12.641  13.915  63.637  1.00  0.00     0.000 HD 
HETATM   25  H1  UNL     1     -13.182  15.236  64.726  1.00  0.00     0.000 HD 
HETATM   26  C   UNL     1     -11.895  13.738  68.009  1.00  0.00    -0.373 C  
HETATM   27  H   UNL     1     -12.877  15.243  66.906  1.00  0.00     0.000 HD 
HETATM   28  O   UNL     1     -12.025  14.242  69.119  1.00  0.00    -0.319 OA 
ENDBRANCH  14  15
ENDBRANCH  13  14
ENDBRANCH  12  13
ENDBRANCH  11  12
ENDBRANCH  10  11
ENDBRANCH   8  10
ENDBRANCH   3   8
TORSDOF 7
ENDMDL
MODEL      276
REMARK 921   NORMALIZED FREE ENERGY PREDICTED BY IDOCK:   -3.94 KCAL/MOL
REMARK 922        TOTAL FREE ENERGY PREDICTED BY IDOCK:   -6.10 KCAL/MOL
REMARK 923 INTER-LIGAND FREE ENERGY PREDICTED BY IDOCK:   -5.33 KCAL/MOL
REMARK 924 INTRA-LIGAND FREE ENERGY PREDICTED BY IDOCK:   -0.76 KCAL/MOL
REMARK 927      BINDING AFFINITY PREDICTED BY RF-SCORE:    0.00 PKD
ROOT
HETATM    1  C   UNL     1      -7.294   8.027  65.044  1.00  0.00    -0.079 C  
HETATM    2  C   UNL     1      -7.910   6.915  65.900  1.00  0.00    -0.106 C  
HETATM    3  C   UNL     1      -9.007   7.431  66.865  1.00  0.00    -0.135 C  
HETATM    4  C   UNL     1      -8.438   5.797  64.991  1.00  0.00    -0.124 C  
HETATM    5  H1  UNL     1     -10.867   8.359  66.761  1.00  0.00     0.000 HD 
HETATM    6  N   UNL     1     -10.145   8.020  66.126  1.00  0.00    -0.442 NA 
HETATM    7  H2  UNL     1     -10.527   7.363  65.444  1.00  0.00     0.000 HD 
ENDROOT
BRANCH   3   8
HETATM    8  C   UNL     1      -8.466   8.459  67.886  1.00  0.00    -0.131 C  
HETATM    9  O   UNL     1      -7.796   8.183  68.876  1.00  0.00    -0.108 OA 
BRANCH   8  10
HETATM   10  O   UNL     1      -8.773   9.733  67.509  1.00  0.00    -0.125 OA 
BRANCH  10  11
HETATM   11  C   UNL     1      -9.559  10.473  68.465  1.00  0.00    -0.163 C  
BRANCH  11  12
HETATM   12  C   UNL     1     -11.015  10.567  68.004  1.00  0.00    -0.290 C  
BRANCH  12  13
HETATM   13  O   UNL     1     -11.019  10.955  66.628  1.00  0.00    -0.235 OA 
BRANCH  13  14
HETATM   14  C   UNL     1     -11.851  12.091  66.394  1.00  0.00    -0.153 C  
BRANCH  14  15
HETATM   15  N   UNL     1     -11.025  13.231  66.038  1.00  0.00    -0.278 NA 
HETATM   16  C   UNL     1     -10.830  13.694  64.755  1.00  0.00    -0.394 A  
HETATM   17  N   UNL     1     -10.062  14.767  64.725  1.00  0.00    -0.205 NA 
HETATM   18  C   UNL     1      -9.746  15.018  66.045  1.00  0.00    -0.328 A  
HETATM   19  C   UNL     1     -10.323  14.068  66.842  1.00  0.00    -0.269 A  
HETATM   20  N   UNL     1     -10.186  14.064  68.173  1.00  0.00    -0.237 NA 
HETATM   21  C   UNL     1      -9.479  15.100  68.722  1.00  0.00    -0.209 C  
HETATM   22  N   UNL     1      -9.446  15.067  70.079  1.00  0.00    -0.432 NA 
HETATM   23  N   UNL     1      -8.888  16.055  68.068  1.00  0.00    -0.175 N  
HETATM   24  H2  UNL     1      -9.901  14.343  70.634  1.00  0.00     0.000 HD 
HETATM   25  H1  UNL     1      -8.919  15.839  70.488  1.00  0.00     0.000 HD 
HETATM   26  C   UNL     1      -8.951  16.089  66.666  1.00  0.00    -0.260 C  
HETATM   27  H   UNL     1      -8.378  16.780  68.573  1.00  0.00     0.000 HD 
HETATM   28  O   UNL     1      -8.385  16.953  66.005  1.00  0.00    -0.453 OA 
ENDBRANCH  14  15
ENDBRANCH  13  14
ENDBRANCH  12  13
ENDBRANCH  11  12
ENDBRANCH  10  11
ENDBRANCH   8  10
ENDBRANCH   3   8
TORSDOF 7
ENDMDL
MODEL      277
REMARK 921   NORMALIZED FREE ENERGY PREDICTED BY IDOCK:   -3.94 KCAL/MOL
REMARK 922        TOTAL FREE ENERGY PREDICTED BY IDOCK:   -6.09 KCAL/MOL
REMARK 923 INTER-LIGAND FREE ENERGY PREDICTED BY IDOCK:   -5.43 KCAL/MOL
REMARK 924 INTRA-LIGAND FREE ENERGY PREDICTED BY IDOCK:   -0.66 KCAL/MOL
REMARK 927      BINDING AFFINITY PREDICTED BY RF-SCORE:    0.00 PKD
ROOT
HETATM    1  C   UNL     1      -7.355   9.063  68.516  1.00  0.00    -0.077 C  
HETATM    2  C   UNL     1      -8.139   8.712  69.785  1.00  0.00    -0.114 C  
HETATM    3  C   UNL     1      -9.664   8.592  69.541  1.00  0.00    -0.179 C  
HETATM    4  C   UNL     1      -7.564   7.434  70.410  1.00  0.00    -0.091 C  
HETATM    5  H1  UNL     1     -10.979   7.426  68.427  1.00  0.00     0.000 HD 
HETATM    6  N   UNL     1      -9.975   7.505  68.587  1.00  0.00    -0.167 NA 
HETATM    7  H2  UNL     1      -9.574   6.616  68.890  1.00  0.00     0.000 HD 
ENDROOT
BRANCH   3   8
HETATM    8  C   UNL     1     -10.293   9.914  69.043  1.00  0.00    -0.209 C  
HETATM    9  O   UNL     1     -10.388  10.942  69.704  1.00  0.00    -0.170 OA 
BRANCH   8  10
HETATM   10  O   UNL     1     -10.675   9.814  67.737  1.00  0.00    -0.255 OA 
BRANCH  10  11
HETATM   11  C   UNL     1     -10.777  11.072  67.039  1.00  0.00    -0.270 C  
BRANCH  11  12
HETATM   12  C   UNL     1      -9.475  11.381  66.298  1.00  0.00    -0.209 C  
BRANCH  12  13
HETATM   13  O   UNL     1      -9.387  12.798  66.132  1.00  0.00    -0.210 OA 
BRANCH  13  14
HETATM   14  C   UNL     1     -10.453  13.482  66.792  1.00  0.00    -0.273 C  
BRANCH  14  15
HETATM   15  N   UNL     1     -10.589  14.817  66.237  1.00  0.00    -0.297 NA 
HETATM   16  C   UNL     1     -11.249  15.121  65.067  1.00  0.00    -0.409 A  
HETATM   17  N   UNL     1     -11.250  16.418  64.818  1.00  0.00    -0.513 NA 
HETATM   18  C   UNL     1     -10.565  16.984  65.874  1.00  0.00    -0.216 A  
HETATM   19  C   UNL     1     -10.150  16.002  66.730  1.00  0.00    -0.268 A  
HETATM   20  N   UNL     1      -9.460  16.263  67.847  1.00  0.00    -0.217 NA 
HETATM   21  C   UNL     1      -9.232  17.582  68.135  1.00  0.00    -0.277 C  
HETATM   22  N   UNL     1      -8.593  17.770  69.318  1.00  0.00     0.160 NA 
HETATM   23  N   UNL     1      -9.578  18.597  67.399  1.00  0.00    -0.292 N  
HETATM   24  H2  UNL     1      -8.311  17.005  69.931  1.00  0.00     0.000 HD 
HETATM   25  H1  UNL     1      -8.423  18.752  69.533  1.00  0.00     0.000 HD 
HETATM   26  C   UNL     1     -10.260  18.388  66.190  1.00  0.00    -0.389 C  
HETATM   27  H   UNL     1      -9.354  19.545  67.701  1.00  0.00     0.000 HD 
HETATM   28  O   UNL     1     -10.579  19.312  65.450  1.00  0.00    -0.492 OA 
ENDBRANCH  14  15
ENDBRANCH  13  14
ENDBRANCH  12  13
ENDBRANCH  11  12
ENDBRANCH  10  11
ENDBRANCH   8  10
ENDBRANCH   3   8
TORSDOF 7
ENDMDL
MODEL      278
REMARK 921   NORMALIZED FREE ENERGY PREDICTED BY IDOCK:   -3.94 KCAL/MOL
REMARK 922        TOTAL FREE ENERGY PREDICTED BY IDOCK:   -6.09 KCAL/MOL
REMARK 923 INTER-LIGAND FREE ENERGY PREDICTED BY IDOCK:   -5.82 KCAL/MOL
REMARK 924 INTRA-LIGAND FREE ENERGY PREDICTED BY IDOCK:   -0.27 KCAL/MOL
REMARK 927      BINDING AFFINITY PREDICTED BY RF-SCORE:    0.00 PKD
ROOT
HETATM    1  C   UNL     1      -9.546  13.765  67.695  1.00  0.00    -0.219 C  
HETATM    2  C   UNL     1     -10.853  14.256  67.064  1.00  0.00    -0.297 C  
HETATM    3  C   UNL     1     -11.630  13.134  66.330  1.00  0.00    -0.356 C  
HETATM    4  C   UNL     1     -11.718  14.936  68.134  1.00  0.00    -0.344 C  
HETATM    5  H1  UNL     1     -12.547  11.321  66.778  1.00  0.00     0.000 HD 
HETATM    6  N   UNL     1     -12.036  12.058  67.261  1.00  0.00    -0.590 NA 
HETATM    7  H2  UNL     1     -12.569  12.428  68.049  1.00  0.00     0.000 HD 
ENDROOT
BRANCH   3   8
HETATM    8  C   UNL     1     -10.830  12.527  65.154  1.00  0.00    -0.288 C  
HETATM    9  O   UNL     1     -10.468  13.142  64.157  1.00  0.00    -0.421 OA 
BRANCH   8  10
HETATM   10  O   UNL     1     -10.516  11.222  65.397  1.00  0.00    -0.259 OA 
BRANCH  10  11
HETATM   11  C   UNL     1      -9.796  10.566  64.334  1.00  0.00    -0.341 C  
BRANCH  11  12
HETATM   12  C   UNL     1      -8.532   9.896  64.876  1.00  0.00    -0.161 C  
BRANCH  12  13
HETATM   13  O   UNL     1      -8.875   8.568  65.280  1.00  0.00    -0.172 OA 
BRANCH  13  14
HETATM   14  C   UNL     1      -9.732   8.560  66.422  1.00  0.00    -0.258 C  
BRANCH  14  15
HETATM   15  N   UNL     1      -9.155   7.719  67.456  1.00  0.00    -0.129 NA 
HETATM   16  C   UNL     1      -7.827   7.364  67.532  1.00  0.00    -0.112 A  
HETATM   17  N   UNL     1      -7.570   6.622  68.595  1.00  0.00    -0.099 NA 
HETATM   18  C   UNL     1      -8.783   6.492  69.240  1.00  0.00    -0.130 A  
HETATM   19  C   UNL     1      -9.752   7.149  68.533  1.00  0.00    -0.143 A  
HETATM   20  N   UNL     1     -11.029   7.191  68.928  1.00  0.00    -0.126 NA 
HETATM   21  C   UNL     1     -11.325   6.587  70.119  1.00  0.00    -0.402 C  
HETATM   22  N   UNL     1     -12.623   6.735  70.488  1.00  0.00    -0.478 NA 
HETATM   23  N   UNL     1     -10.492   5.935  70.875  1.00  0.00    -0.232 N  
HETATM   24  H2  UNL     1     -13.310   7.245  69.933  1.00  0.00     0.000 HD 
HETATM   25  H1  UNL     1     -12.844   6.285  71.376  1.00  0.00     0.000 HD 
HETATM   26  C   UNL     1      -9.147   5.811  70.492  1.00  0.00    -0.147 C  
HETATM   27  H   UNL     1     -10.815   5.513  71.746  1.00  0.00     0.000 HD 
HETATM   28  O   UNL     1      -8.332   5.180  71.157  1.00  0.00    -0.116 OA 
ENDBRANCH  14  15
ENDBRANCH  13  14
ENDBRANCH  12  13
ENDBRANCH  11  12
ENDBRANCH  10  11
ENDBRANCH   8  10
ENDBRANCH   3   8
TORSDOF 7
ENDMDL
MODEL      279
REMARK 921   NORMALIZED FREE ENERGY PREDICTED BY IDOCK:   -3.93 KCAL/MOL
REMARK 922        TOTAL FREE ENERGY PREDICTED BY IDOCK:   -6.08 KCAL/MOL
REMARK 923 INTER-LIGAND FREE ENERGY PREDICTED BY IDOCK:   -5.74 KCAL/MOL
REMARK 924 INTRA-LIGAND FREE ENERGY PREDICTED BY IDOCK:   -0.33 KCAL/MOL
REMARK 927      BINDING AFFINITY PREDICTED BY RF-SCORE:    0.00 PKD
ROOT
HETATM    1  C   UNL     1     -10.439  12.487  63.627  1.00  0.00    -0.418 C  
HETATM    2  C   UNL     1     -11.814  12.597  64.294  1.00  0.00    -0.462 C  
HETATM    3  C   UNL     1     -12.077  13.992  64.915  1.00  0.00    -0.420 C  
HETATM    4  C   UNL     1     -12.907  12.210  63.289  1.00  0.00    -0.312 C  
HETATM    5  H1  UNL     1     -12.240  15.971  64.292  1.00  0.00     0.000 HD 
HETATM    6  N   UNL     1     -12.067  15.053  63.883  1.00  0.00    -0.942 NA 
HETATM    7  H2  UNL     1     -12.726  14.849  63.131  1.00  0.00     0.000 HD 
ENDROOT
BRANCH   3   8
HETATM    8  C   UNL     1     -11.068  14.346  66.032  1.00  0.00    -0.324 C  
HETATM    9  O   UNL     1     -10.746  15.484  66.354  1.00  0.00    -0.305 OA 
BRANCH   8  10
HETATM   10  O   UNL     1     -10.627  13.222  66.668  1.00  0.00    -0.277 OA 
BRANCH  10  11
HETATM   11  C   UNL     1     -11.070  13.089  68.034  1.00  0.00    -0.260 C  
BRANCH  11  12
HETATM   12  C   UNL     1     -11.727  11.725  68.254  1.00  0.00    -0.310 C  
BRANCH  12  13
HETATM   13  O   UNL     1     -10.742  10.841  68.795  1.00  0.00    -0.181 OA 
BRANCH  13  14
HETATM   14  C   UNL     1     -11.309   9.601  69.217  1.00  0.00     0.038 C  
BRANCH  14  15
HETATM   15  N   UNL     1     -10.363   8.527  68.971  1.00  0.00    -0.215 NA 
HETATM   16  C   UNL     1     -10.307   7.775  67.818  1.00  0.00    -0.221 A  
HETATM   17  N   UNL     1      -9.326   6.891  67.848  1.00  0.00    -0.120 NA 
HETATM   18  C   UNL     1      -8.714   7.078  69.071  1.00  0.00    -0.128 A  
HETATM   19  C   UNL     1      -9.360   8.067  69.760  1.00  0.00    -0.159 A  
HETATM   20  N   UNL     1      -8.980   8.462  70.981  1.00  0.00    -0.152 NA 
HETATM   21  C   UNL     1      -7.863   7.865  71.500  1.00  0.00    -0.095 C  
HETATM   22  N   UNL     1      -7.497   8.369  72.706  1.00  0.00    -0.259 NA 
HETATM   23  N   UNL     1      -7.170   6.918  70.939  1.00  0.00    -0.071 N  
HETATM   24  H2  UNL     1      -8.004   9.117  73.179  1.00  0.00     0.000 HD 
HETATM   25  H1  UNL     1      -6.665   7.925  73.093  1.00  0.00     0.000 HD 
HETATM   26  C   UNL     1      -7.546   6.424  69.680  1.00  0.00    -0.094 C  
HETATM   27  H   UNL     1      -6.353   6.534  71.415  1.00  0.00     0.000 HD 
HETATM   28  O   UNL     1      -6.941   5.512  69.128  1.00  0.00    -0.059 OA 
ENDBRANCH  14  15
ENDBRANCH  13  14
ENDBRANCH  12  13
ENDBRANCH  11  12
ENDBRANCH  10  11
ENDBRANCH   8  10
ENDBRANCH   3   8
TORSDOF 7
ENDMDL
MODEL      280
REMARK 921   NORMALIZED FREE ENERGY PREDICTED BY IDOCK:   -3.93 KCAL/MOL
REMARK 922        TOTAL FREE ENERGY PREDICTED BY IDOCK:   -6.07 KCAL/MOL
REMARK 923 INTER-LIGAND FREE ENERGY PREDICTED BY IDOCK:   -5.89 KCAL/MOL
REMARK 924 INTRA-LIGAND FREE ENERGY PREDICTED BY IDOCK:   -0.18 KCAL/MOL
REMARK 927      BINDING AFFINITY PREDICTED BY RF-SCORE:    0.00 PKD
ROOT
HETATM    1  C   UNL     1      -7.572  10.110  63.940  1.00  0.00    -0.128 C  
HETATM    2  C   UNL     1      -7.518   9.286  65.231  1.00  0.00    -0.098 C  
HETATM    3  C   UNL     1      -8.635   9.663  66.237  1.00  0.00    -0.127 C  
HETATM    4  C   UNL     1      -7.546   7.790  64.890  1.00  0.00    -0.102 C  
HETATM    5  H1  UNL     1     -10.713   9.652  66.337  1.00  0.00     0.000 HD 
HETATM    6  N   UNL     1      -9.979   9.404  65.675  1.00  0.00    -0.410 NA 
HETATM    7  H2  UNL     1     -10.072   8.439  65.358  1.00  0.00     0.000 HD 
ENDROOT
BRANCH   3   8
HETATM    8  C   UNL     1      -8.543  11.134  66.705  1.00  0.00    -0.157 C  
HETATM    9  O   UNL     1      -7.864  11.533  67.645  1.00  0.00    -0.114 OA 
BRANCH   8  10
HETATM   10  O   UNL     1      -9.269  11.953  65.891  1.00  0.00    -0.217 OA 
BRANCH  10  11
HETATM   11  C   UNL     1     -10.315  12.691  66.556  1.00  0.00    -0.242 C  
BRANCH  11  12
HETATM   12  C   UNL     1     -11.067  13.573  65.557  1.00  0.00    -0.294 C  
BRANCH  12  13
HETATM   13  O   UNL     1     -11.125  14.897  66.093  1.00  0.00    -0.331 OA 
BRANCH  13  14
HETATM   14  C   UNL     1     -11.196  14.895  67.520  1.00  0.00    -0.328 C  
BRANCH  14  15
HETATM   15  N   UNL     1     -10.121  15.709  68.059  1.00  0.00    -0.223 NA 
HETATM   16  C   UNL     1      -9.195  15.280  68.984  1.00  0.00    -0.223 A  
HETATM   17  N   UNL     1      -8.309  16.216  69.272  1.00  0.00    -0.224 NA 
HETATM   18  C   UNL     1      -8.671  17.300  68.498  1.00  0.00    -0.273 A  
HETATM   19  C   UNL     1      -9.787  16.992  67.771  1.00  0.00    -0.271 A  
HETATM   20  N   UNL     1     -10.361  17.860  66.929  1.00  0.00    -0.354 NA 
HETATM   21  C   UNL     1      -9.742  19.071  66.777  1.00  0.00    -0.330 C  
HETATM   22  N   UNL     1     -10.340  19.867  65.854  1.00  0.00    -0.498 NA 
HETATM   23  N   UNL     1      -8.681  19.473  67.413  1.00  0.00    -0.299 N  
HETATM   24  H2  UNL     1     -11.168  19.590  65.326  1.00  0.00     0.000 HD 
HETATM   25  H1  UNL     1      -9.879  20.769  65.741  1.00  0.00     0.000 HD 
HETATM   26  C   UNL     1      -8.060  18.630  68.347  1.00  0.00    -0.333 C  
HETATM   27  H   UNL     1      -8.300  20.403  67.231  1.00  0.00     0.000 HD 
HETATM   28  O   UNL     1      -7.076  18.978  68.991  1.00  0.00    -0.318 OA 
ENDBRANCH  14  15
ENDBRANCH  13  14
ENDBRANCH  12  13
ENDBRANCH  11  12
ENDBRANCH  10  11
ENDBRANCH   8  10
ENDBRANCH   3   8
TORSDOF 7
ENDMDL
MODEL      281
REMARK 921   NORMALIZED FREE ENERGY PREDICTED BY IDOCK:   -3.91 KCAL/MOL
REMARK 922        TOTAL FREE ENERGY PREDICTED BY IDOCK:   -6.05 KCAL/MOL
REMARK 923 INTER-LIGAND FREE ENERGY PREDICTED BY IDOCK:   -5.73 KCAL/MOL
REMARK 924 INTRA-LIGAND FREE ENERGY PREDICTED BY IDOCK:   -0.32 KCAL/MOL
REMARK 927      BINDING AFFINITY PREDICTED BY RF-SCORE:    0.00 PKD
ROOT
HETATM    1  C   UNL     1     -10.880   6.482  67.007  1.00  0.00    -0.465 C  
HETATM    2  C   UNL     1     -10.140   7.119  68.188  1.00  0.00    -0.195 C  
HETATM    3  C   UNL     1      -9.839   8.624  67.974  1.00  0.00    -0.169 C  
HETATM    4  C   UNL     1     -10.930   6.879  69.481  1.00  0.00    -0.289 C  
HETATM    5  H1  UNL     1     -10.886  10.400  67.694  1.00  0.00     0.000 HD 
HETATM    6  N   UNL     1     -11.084   9.410  67.835  1.00  0.00    -0.503 NA 
HETATM    7  H2  UNL     1     -11.709   9.264  68.628  1.00  0.00     0.000 HD 
ENDROOT
BRANCH   3   8
HETATM    8  C   UNL     1      -8.925   8.880  66.753  1.00  0.00    -0.130 C  
HETATM    9  O   UNL     1      -8.292   8.018  66.154  1.00  0.00    -0.112 OA 
BRANCH   8  10
HETATM   10  O   UNL     1      -8.963  10.192  66.379  1.00  0.00    -0.142 OA 
BRANCH  10  11
HETATM   11  C   UNL     1      -7.779  10.947  66.707  1.00  0.00    -0.141 C  
BRANCH  11  12
HETATM   12  C   UNL     1      -8.045  11.871  67.896  1.00  0.00    -0.147 C  
BRANCH  12  13
HETATM   13  O   UNL     1      -8.389  13.162  67.386  1.00  0.00    -0.170 OA 
BRANCH  13  14
HETATM   14  C   UNL     1      -9.663  13.602  67.855  1.00  0.00    -0.234 C  
BRANCH  14  15
HETATM   15  N   UNL     1     -10.081  14.770  67.100  1.00  0.00    -0.239 NA 
HETATM   16  C   UNL     1     -11.082  14.781  66.154  1.00  0.00    -0.339 A  
HETATM   17  N   UNL     1     -11.277  15.986  65.650  1.00  0.00    -0.034 NA 
HETATM   18  C   UNL     1     -10.365  16.796  66.296  1.00  0.00    -0.310 A  
HETATM   19  C   UNL     1      -9.626  16.046  67.169  1.00  0.00    -0.218 A  
HETATM   20  N   UNL     1      -8.664  16.573  67.936  1.00  0.00    -0.186 NA 
HETATM   21  C   UNL     1      -8.483  17.927  67.852  1.00  0.00    -0.251 C  
HETATM   22  N   UNL     1      -7.542  18.397  68.711  1.00  0.00    -0.294 NA 
HETATM   23  N   UNL     1      -9.123  18.738  67.062  1.00  0.00    -0.284 N  
HETATM   24  H2  UNL     1      -7.022  17.800  69.354  1.00  0.00     0.000 HD 
HETATM   25  H1  UNL     1      -7.408  19.406  68.649  1.00  0.00     0.000 HD 
HETATM   26  C   UNL     1     -10.110  18.241  66.197  1.00  0.00    -0.346 C  
HETATM   27  H   UNL     1      -8.908  19.735  67.072  1.00  0.00     0.000 HD 
HETATM   28  O   UNL     1     -10.718  18.962  65.414  1.00  0.00    -0.536 OA 
ENDBRANCH  14  15
ENDBRANCH  13  14
ENDBRANCH  12  13
ENDBRANCH  11  12
ENDBRANCH  10  11
ENDBRANCH   8  10
ENDBRANCH   3   8
TORSDOF 7
ENDMDL
MODEL      282
REMARK 921   NORMALIZED FREE ENERGY PREDICTED BY IDOCK:   -3.90 KCAL/MOL
REMARK 922        TOTAL FREE ENERGY PREDICTED BY IDOCK:   -6.04 KCAL/MOL
REMARK 923 INTER-LIGAND FREE ENERGY PREDICTED BY IDOCK:   -6.32 KCAL/MOL
REMARK 924 INTRA-LIGAND FREE ENERGY PREDICTED BY IDOCK:    0.28 KCAL/MOL
REMARK 927      BINDING AFFINITY PREDICTED BY RF-SCORE:    0.00 PKD
ROOT
HETATM    1  C   UNL     1     -10.731   7.924  69.515  1.00  0.00    -0.195 C  
HETATM    2  C   UNL     1     -10.617   8.850  70.730  1.00  0.00    -0.281 C  
HETATM    3  C   UNL     1     -11.217  10.256  70.479  1.00  0.00    -0.330 C  
HETATM    4  C   UNL     1     -11.252   8.174  71.953  1.00  0.00    -0.351 C  
HETATM    5  H1  UNL     1     -13.061  11.107  70.024  1.00  0.00     0.000 HD 
HETATM    6  N   UNL     1     -12.666  10.182  70.189  1.00  0.00    -0.556 NA 
HETATM    7  H2  UNL     1     -13.170   9.687  70.926  1.00  0.00     0.000 HD 
ENDROOT
BRANCH   3   8
HETATM    8  C   UNL     1     -10.499  11.015  69.339  1.00  0.00    -0.142 C  
HETATM    9  O   UNL     1      -9.473  10.641  68.781  1.00  0.00    -0.168 OA 
BRANCH   8  10
HETATM   10  O   UNL     1     -11.194  12.133  68.980  1.00  0.00    -0.234 OA 
BRANCH  10  11
HETATM   11  C   UNL     1     -11.320  12.334  67.558  1.00  0.00    -0.325 C  
BRANCH  11  12
HETATM   12  C   UNL     1     -11.777  13.763  67.258  1.00  0.00    -0.382 C  
BRANCH  12  13
HETATM   13  O   UNL     1     -10.977  14.267  66.185  1.00  0.00    -0.304 OA 
BRANCH  13  14
HETATM   14  C   UNL     1     -10.817  15.684  66.256  1.00  0.00    -0.262 C  
BRANCH  14  15
HETATM   15  N   UNL     1      -9.830  16.010  67.269  1.00  0.00    -0.233 NA 
HETATM   16  C   UNL     1      -9.908  15.641  68.594  1.00  0.00    -0.210 A  
HETATM   17  N   UNL     1      -8.856  16.040  69.285  1.00  0.00    -0.249 NA 
HETATM   18  C   UNL     1      -8.055  16.694  68.371  1.00  0.00    -0.208 A  
HETATM   19  C   UNL     1      -8.661  16.687  67.144  1.00  0.00    -0.192 A  
HETATM   20  N   UNL     1      -8.107  17.251  66.064  1.00  0.00    -0.525 NA 
HETATM   21  C   UNL     1      -6.862  17.795  66.224  1.00  0.00    -0.272 C  
HETATM   22  N   UNL     1      -6.336  18.281  65.070  1.00  0.00    -0.325 NA 
HETATM   23  N   UNL     1      -6.191  17.859  67.337  1.00  0.00    -0.150 N  
HETATM   24  H2  UNL     1      -6.821  18.244  64.174  1.00  0.00     0.000 HD 
HETATM   25  H1  UNL     1      -5.408  18.686  65.189  1.00  0.00     0.000 HD 
HETATM   26  C   UNL     1      -6.737  17.331  68.517  1.00  0.00    -0.185 C  
HETATM   27  H   UNL     1      -5.268  18.294  67.351  1.00  0.00     0.000 HD 
HETATM   28  O   UNL     1      -6.155  17.396  69.594  1.00  0.00    -0.239 OA 
ENDBRANCH  14  15
ENDBRANCH  13  14
ENDBRANCH  12  13
ENDBRANCH  11  12
ENDBRANCH  10  11
ENDBRANCH   8  10
ENDBRANCH   3   8
TORSDOF 7
ENDMDL
MODEL      283
REMARK 921   NORMALIZED FREE ENERGY PREDICTED BY IDOCK:   -3.90 KCAL/MOL
REMARK 922        TOTAL FREE ENERGY PREDICTED BY IDOCK:   -6.03 KCAL/MOL
REMARK 923 INTER-LIGAND FREE ENERGY PREDICTED BY IDOCK:   -5.40 KCAL/MOL
REMARK 924 INTRA-LIGAND FREE ENERGY PREDICTED BY IDOCK:   -0.63 KCAL/MOL
REMARK 927      BINDING AFFINITY PREDICTED BY RF-SCORE:    0.00 PKD
ROOT
HETATM    1  C   UNL     1      -5.747  10.824  65.509  1.00  0.00    -0.121 C  
HETATM    2  C   UNL     1      -6.486  11.424  66.710  1.00  0.00    -0.140 C  
HETATM    3  C   UNL     1      -7.431  10.413  67.406  1.00  0.00    -0.094 C  
HETATM    4  C   UNL     1      -5.471  12.020  67.695  1.00  0.00    -0.082 C  
HETATM    5  H1  UNL     1      -7.304   8.597  68.414  1.00  0.00     0.000 HD 
HETATM    6  N   UNL     1      -6.682   9.262  67.955  1.00  0.00    -0.060 NA 
HETATM    7  H2  UNL     1      -5.935   9.566  68.580  1.00  0.00     0.000 HD 
ENDROOT
BRANCH   3   8
HETATM    8  C   UNL     1      -8.552   9.903  66.470  1.00  0.00    -0.124 C  
HETATM    9  O   UNL     1      -8.479   8.904  65.764  1.00  0.00    -0.128 OA 
BRANCH   8  10
HETATM   10  O   UNL     1      -9.671  10.676  66.580  1.00  0.00    -0.182 OA 
BRANCH  10  11
HETATM   11  C   UNL     1     -10.773  10.048  67.266  1.00  0.00    -0.244 C  
BRANCH  11  12
HETATM   12  C   UNL     1     -11.333  10.978  68.344  1.00  0.00    -0.295 C  
BRANCH  12  13
HETATM   13  O   UNL     1     -11.545  12.262  67.753  1.00  0.00    -0.313 OA 
BRANCH  13  14
HETATM   14  C   UNL     1     -12.006  13.221  68.706  1.00  0.00    -0.300 C  
BRANCH  14  15
HETATM   15  N   UNL     1     -11.098  14.353  68.732  1.00  0.00    -0.246 NA 
HETATM   16  C   UNL     1     -10.391  14.770  69.838  1.00  0.00     0.043 A  
HETATM   17  N   UNL     1      -9.612  15.803  69.571  1.00  0.00    -0.271 NA 
HETATM   18  C   UNL     1      -9.818  16.067  68.232  1.00  0.00    -0.219 A  
HETATM   19  C   UNL     1     -10.738  15.190  67.727  1.00  0.00    -0.279 A  
HETATM   20  N   UNL     1     -11.130  15.213  66.448  1.00  0.00    -0.335 NA 
HETATM   21  C   UNL     1     -10.521  16.130  65.634  1.00  0.00    -0.383 C  
HETATM   22  N   UNL     1     -10.917  16.043  64.339  1.00  0.00    -0.932 NA 
HETATM   23  N   UNL     1      -9.638  17.011  66.000  1.00  0.00    -0.229 N  
HETATM   24  H2  UNL     1     -11.601  15.364  64.005  1.00  0.00     0.000 HD 
HETATM   25  H1  UNL     1     -10.464  16.726  63.732  1.00  0.00     0.000 HD 
HETATM   26  C   UNL     1      -9.220  17.072  67.339  1.00  0.00    -0.234 C  
HETATM   27  H   UNL     1      -9.248  17.657  65.314  1.00  0.00     0.000 HD 
HETATM   28  O   UNL     1      -8.412  17.905  67.736  1.00  0.00    -0.235 OA 
ENDBRANCH  14  15
ENDBRANCH  13  14
ENDBRANCH  12  13
ENDBRANCH  11  12
ENDBRANCH  10  11
ENDBRANCH   8  10
ENDBRANCH   3   8
TORSDOF 7
ENDMDL
MODEL      284
REMARK 921   NORMALIZED FREE ENERGY PREDICTED BY IDOCK:   -3.89 KCAL/MOL
REMARK 922        TOTAL FREE ENERGY PREDICTED BY IDOCK:   -6.03 KCAL/MOL
REMARK 923 INTER-LIGAND FREE ENERGY PREDICTED BY IDOCK:   -5.49 KCAL/MOL
REMARK 924 INTRA-LIGAND FREE ENERGY PREDICTED BY IDOCK:   -0.53 KCAL/MOL
REMARK 927      BINDING AFFINITY PREDICTED BY RF-SCORE:    0.00 PKD
ROOT
HETATM    1  C   UNL     1      -9.235  13.313  67.017  1.00  0.00    -0.237 C  
HETATM    2  C   UNL     1     -10.364  13.457  65.992  1.00  0.00    -0.297 C  
HETATM    3  C   UNL     1     -11.327  12.244  65.976  1.00  0.00    -0.350 C  
HETATM    4  C   UNL     1     -11.116  14.773  66.234  1.00  0.00    -0.341 C  
HETATM    5  H1  UNL     1     -12.646  11.282  67.267  1.00  0.00     0.000 HD 
HETATM    6  N   UNL     1     -12.012  12.081  67.277  1.00  0.00    -0.590 NA 
HETATM    7  H2  UNL     1     -12.494  12.936  67.556  1.00  0.00     0.000 HD 
ENDROOT
BRANCH   3   8
HETATM    8  C   UNL     1     -10.617  10.924  65.595  1.00  0.00    -0.164 C  
HETATM    9  O   UNL     1     -10.188  10.653  64.479  1.00  0.00    -0.336 OA 
BRANCH   8  10
HETATM   10  O   UNL     1     -10.467  10.117  66.684  1.00  0.00    -0.228 OA 
BRANCH  10  11
HETATM   11  C   UNL     1      -9.555   9.015  66.497  1.00  0.00    -0.223 C  
BRANCH  11  12
HETATM   12  C   UNL     1      -8.991   8.552  67.841  1.00  0.00    -0.137 C  
BRANCH  12  13
HETATM   13  O   UNL     1      -9.453   7.220  68.079  1.00  0.00    -0.136 OA 
BRANCH  13  14
HETATM   14  C   UNL     1     -10.798   7.197  68.557  1.00  0.00    -0.095 C  
BRANCH  14  15
HETATM   15  N   UNL     1     -10.795   7.122  70.007  1.00  0.00    -0.248 NA 
HETATM   16  C   UNL     1     -11.125   8.159  70.851  1.00  0.00    -0.258 A  
HETATM   17  N   UNL     1     -11.072   7.803  72.122  1.00  0.00    -0.260 NA 
HETATM   18  C   UNL     1     -10.696   6.475  72.105  1.00  0.00    -0.221 A  
HETATM   19  C   UNL     1     -10.512   6.067  70.813  1.00  0.00    -0.239 A  
HETATM   20  N   UNL     1     -10.145   4.820  70.496  1.00  0.00    -0.235 NA 
HETATM   21  C   UNL     1     -10.013   3.935  71.531  1.00  0.00    -0.139 C  
HETATM   22  N   UNL     1      -9.711   2.675  71.126  1.00  0.00    -0.148 NA 
HETATM   23  N   UNL     1     -10.162   4.208  72.794  1.00  0.00    -0.160 N  
HETATM   24  H2  UNL     1      -9.594   2.414  70.147  1.00  0.00     0.000 HD 
HETATM   25  H1  UNL     1      -9.613   2.016  71.898  1.00  0.00     0.000 HD 
HETATM   26  C   UNL     1     -10.497   5.510  73.197  1.00  0.00    -0.222 C  
HETATM   27  H   UNL     1     -10.034   3.474  73.492  1.00  0.00     0.000 HD 
HETATM   28  O   UNL     1     -10.618   5.819  74.377  1.00  0.00    -0.230 OA 
ENDBRANCH  14  15
ENDBRANCH  13  14
ENDBRANCH  12  13
ENDBRANCH  11  12
ENDBRANCH  10  11
ENDBRANCH   8  10
ENDBRANCH   3   8
TORSDOF 7
ENDMDL
MODEL      285
REMARK 921   NORMALIZED FREE ENERGY PREDICTED BY IDOCK:   -3.89 KCAL/MOL
REMARK 922        TOTAL FREE ENERGY PREDICTED BY IDOCK:   -6.03 KCAL/MOL
REMARK 923 INTER-LIGAND FREE ENERGY PREDICTED BY IDOCK:   -5.82 KCAL/MOL
REMARK 924 INTRA-LIGAND FREE ENERGY PREDICTED BY IDOCK:   -0.21 KCAL/MOL
REMARK 927      BINDING AFFINITY PREDICTED BY RF-SCORE:    0.00 PKD
ROOT
HETATM    1  C   UNL     1     -10.966  11.325  64.932  1.00  0.00    -0.243 C  
HETATM    2  C   UNL     1      -9.515  11.098  64.494  1.00  0.00    -0.254 C  
HETATM    3  C   UNL     1      -8.646  10.440  65.595  1.00  0.00    -0.167 C  
HETATM    4  C   UNL     1      -9.490  10.285  63.193  1.00  0.00    -0.337 C  
HETATM    5  H1  UNL     1      -8.580   8.663  66.676  1.00  0.00     0.000 HD 
HETATM    6  N   UNL     1      -9.152   9.096  65.952  1.00  0.00    -0.190 NA 
HETATM    7  H2  UNL     1      -9.231   8.496  65.130  1.00  0.00     0.000 HD 
ENDROOT
BRANCH   3   8
HETATM    8  C   UNL     1      -8.540  11.309  66.870  1.00  0.00    -0.150 C  
HETATM    9  O   UNL     1      -8.221  10.896  67.979  1.00  0.00    -0.114 OA 
BRANCH   8  10
HETATM   10  O   UNL     1      -8.785  12.622  66.589  1.00  0.00    -0.179 OA 
BRANCH  10  11
HETATM   11  C   UNL     1      -8.769  13.497  67.735  1.00  0.00    -0.189 C  
BRANCH  11  12
HETATM   12  C   UNL     1     -10.191  13.918  68.108  1.00  0.00    -0.249 C  
BRANCH  12  13
HETATM   13  O   UNL     1     -10.346  15.299  67.771  1.00  0.00    -0.239 OA 
BRANCH  13  14
HETATM   14  C   UNL     1      -9.875  16.160  68.809  1.00  0.00    -0.230 C  
BRANCH  14  15
HETATM   15  N   UNL     1      -9.449  17.423  68.234  1.00  0.00    -0.280 NA 
HETATM   16  C   UNL     1     -10.200  18.189  67.370  1.00  0.00    -0.372 A  
HETATM   17  N   UNL     1      -9.583  19.307  67.032  1.00  0.00    -0.313 NA 
HETATM   18  C   UNL     1      -8.380  19.270  67.708  1.00  0.00    -0.300 A  
HETATM   19  C   UNL     1      -8.295  18.110  68.428  1.00  0.00    -0.299 A  
HETATM   20  N   UNL     1      -7.233  17.808  69.184  1.00  0.00    -0.200 NA 
HETATM   21  C   UNL     1      -6.241  18.747  69.255  1.00  0.00    -0.265 C  
HETATM   22  N   UNL     1      -5.234  18.401  70.097  1.00  0.00    -0.215 NA 
HETATM   23  N   UNL     1      -6.212  19.880  68.617  1.00  0.00    -0.260 N  
HETATM   24  H2  UNL     1      -5.218  17.528  70.624  1.00  0.00     0.000 HD 
HETATM   25  H1  UNL     1      -4.494  19.101  70.150  1.00  0.00     0.000 HD 
HETATM   26  C   UNL     1      -7.272  20.236  67.768  1.00  0.00    -0.301 C  
HETATM   27  H   UNL     1      -5.418  20.511  68.734  1.00  0.00     0.000 HD 
HETATM   28  O   UNL     1      -7.274  21.279  67.125  1.00  0.00    -0.475 OA 
ENDBRANCH  14  15
ENDBRANCH  13  14
ENDBRANCH  12  13
ENDBRANCH  11  12
ENDBRANCH  10  11
ENDBRANCH   8  10
ENDBRANCH   3   8
TORSDOF 7
ENDMDL
MODEL      286
REMARK 921   NORMALIZED FREE ENERGY PREDICTED BY IDOCK:   -3.88 KCAL/MOL
REMARK 922        TOTAL FREE ENERGY PREDICTED BY IDOCK:   -6.01 KCAL/MOL
REMARK 923 INTER-LIGAND FREE ENERGY PREDICTED BY IDOCK:   -5.31 KCAL/MOL
REMARK 924 INTRA-LIGAND FREE ENERGY PREDICTED BY IDOCK:   -0.70 KCAL/MOL
REMARK 927      BINDING AFFINITY PREDICTED BY RF-SCORE:    0.00 PKD
ROOT
HETATM    1  C   UNL     1     -10.475   4.144  65.082  1.00  0.00    -0.174 C  
HETATM    2  C   UNL     1      -9.188   4.184  65.913  1.00  0.00    -0.148 C  
HETATM    3  C   UNL     1      -9.195   5.303  66.985  1.00  0.00    -0.116 C  
HETATM    4  C   UNL     1      -8.933   2.805  66.536  1.00  0.00    -0.159 C  
HETATM    5  H1  UNL     1     -10.284   5.836  68.676  1.00  0.00     0.000 HD 
HETATM    6  N   UNL     1     -10.280   5.101  67.971  1.00  0.00    -0.145 NA 
HETATM    7  H2  UNL     1     -10.230   4.175  68.397  1.00  0.00     0.000 HD 
ENDROOT
BRANCH   3   8
HETATM    8  C   UNL     1      -9.310   6.717  66.370  1.00  0.00    -0.136 C  
HETATM    9  O   UNL     1     -10.168   7.543  66.661  1.00  0.00    -0.250 OA 
BRANCH   8  10
HETATM   10  O   UNL     1      -8.286   6.958  65.501  1.00  0.00    -0.137 OA 
BRANCH  10  11
HETATM   11  C   UNL     1      -8.352   8.234  64.831  1.00  0.00    -0.135 C  
BRANCH  11  12
HETATM   12  C   UNL     1      -7.200   9.135  65.281  1.00  0.00    -0.089 C  
BRANCH  12  13
HETATM   13  O   UNL     1      -7.588   9.771  66.502  1.00  0.00    -0.097 OA 
BRANCH  13  14
HETATM   14  C   UNL     1      -7.230  11.153  66.523  1.00  0.00    -0.124 C  
BRANCH  14  15
HETATM   15  N   UNL     1      -8.406  11.953  66.815  1.00  0.00    -0.175 NA 
HETATM   16  C   UNL     1      -8.543  12.783  67.906  1.00  0.00    -0.181 A  
HETATM   17  N   UNL     1      -9.701  13.419  67.904  1.00  0.00    -0.219 NA 
HETATM   18  C   UNL     1     -10.344  12.987  66.762  1.00  0.00    -0.254 A  
HETATM   19  C   UNL     1      -9.557  12.080  66.108  1.00  0.00    -0.239 A  
HETATM   20  N   UNL     1      -9.929  11.495  64.964  1.00  0.00    -0.253 NA 
HETATM   21  C   UNL     1     -11.127  11.890  64.432  1.00  0.00    -0.336 C  
HETATM   22  N   UNL     1     -11.402  11.308  63.237  1.00  0.00    -0.818 NA 
HETATM   23  N   UNL     1     -11.957  12.740  64.962  1.00  0.00    -0.386 N  
HETATM   24  H2  UNL     1     -10.778  10.643  62.780  1.00  0.00     0.000 HD 
HETATM   25  H1  UNL     1     -12.294  11.602  62.841  1.00  0.00     0.000 HD 
HETATM   26  C   UNL     1     -11.649  13.352  66.188  1.00  0.00    -0.346 C  
HETATM   27  H   UNL     1     -12.832  12.962  64.487  1.00  0.00     0.000 HD 
HETATM   28  O   UNL     1     -12.413  14.136  66.739  1.00  0.00    -0.396 OA 
ENDBRANCH  14  15
ENDBRANCH  13  14
ENDBRANCH  12  13
ENDBRANCH  11  12
ENDBRANCH  10  11
ENDBRANCH   8  10
ENDBRANCH   3   8
TORSDOF 7
ENDMDL
MODEL      287
REMARK 921   NORMALIZED FREE ENERGY PREDICTED BY IDOCK:   -3.88 KCAL/MOL
REMARK 922        TOTAL FREE ENERGY PREDICTED BY IDOCK:   -6.01 KCAL/MOL
REMARK 923 INTER-LIGAND FREE ENERGY PREDICTED BY IDOCK:   -6.81 KCAL/MOL
REMARK 924 INTRA-LIGAND FREE ENERGY PREDICTED BY IDOCK:    0.80 KCAL/MOL
REMARK 927      BINDING AFFINITY PREDICTED BY RF-SCORE:    0.00 PKD
ROOT
HETATM    1  C   UNL     1      -7.997  17.681  67.172  1.00  0.00    -0.229 C  
HETATM    2  C   UNL     1      -8.943  18.704  66.535  1.00  0.00    -0.308 C  
HETATM    3  C   UNL     1     -10.371  18.147  66.305  1.00  0.00    -0.397 C  
HETATM    4  C   UNL     1      -8.965  19.984  67.381  1.00  0.00    -0.440 C  
HETATM    5  H1  UNL     1     -11.956  17.406  67.430  1.00  0.00     0.000 HD 
HETATM    6  N   UNL     1     -11.017  17.772  67.582  1.00  0.00    -0.212 NA 
HETATM    7  H2  UNL     1     -11.022  18.551  68.241  1.00  0.00     0.000 HD 
ENDROOT
BRANCH   3   8
HETATM    8  C   UNL     1     -10.390  16.939  65.339  1.00  0.00    -0.104 C  
HETATM    9  O   UNL     1     -11.051  16.872  64.309  1.00  0.00    -1.135 OA 
BRANCH   8  10
HETATM   10  O   UNL     1      -9.519  15.972  65.748  1.00  0.00    -0.334 OA 
BRANCH  10  11
HETATM   11  C   UNL     1     -10.122  14.888  66.484  1.00  0.00    -0.271 C  
BRANCH  11  12
HETATM   12  C   UNL     1     -11.540  14.620  65.977  1.00  0.00    -0.328 C  
BRANCH  12  13
HETATM   13  O   UNL     1     -11.480  13.531  65.052  1.00  0.00    -0.306 OA 
BRANCH  13  14
HETATM   14  C   UNL     1     -11.187  12.293  65.699  1.00  0.00    -0.333 C  
BRANCH  14  15
HETATM   15  N   UNL     1     -10.447  11.435  64.792  1.00  0.00    -0.291 NA 
HETATM   16  C   UNL     1     -10.395  11.592  63.424  1.00  0.00    -0.435 A  
HETATM   17  N   UNL     1      -9.619  10.692  62.849  1.00  0.00    -0.323 NA 
HETATM   18  C   UNL     1      -9.141   9.917  63.886  1.00  0.00    -0.259 A  
HETATM   19  C   UNL     1      -9.662  10.364  65.069  1.00  0.00    -0.300 A  
HETATM   20  N   UNL     1      -9.368   9.798  66.246  1.00  0.00    -0.169 NA 
HETATM   21  C   UNL     1      -8.464   8.771  66.226  1.00  0.00    -0.124 C  
HETATM   22  N   UNL     1      -8.161   8.297  67.461  1.00  0.00    -0.121 NA 
HETATM   23  N   UNL     1      -7.906   8.263  65.166  1.00  0.00    -0.112 N  
HETATM   24  H2  UNL     1      -8.568   8.670  68.320  1.00  0.00     0.000 HD 
HETATM   25  H1  UNL     1      -7.488   7.532  67.447  1.00  0.00     0.000 HD 
HETATM   26  C   UNL     1      -8.210   8.778  63.897  1.00  0.00    -0.160 C  
HETATM   27  H   UNL     1      -7.247   7.489  65.259  1.00  0.00     0.000 HD 
HETATM   28  O   UNL     1      -7.731   8.312  62.869  1.00  0.00    -0.118 OA 
ENDBRANCH  14  15
ENDBRANCH  13  14
ENDBRANCH  12  13
ENDBRANCH  11  12
ENDBRANCH  10  11
ENDBRANCH   8  10
ENDBRANCH   3   8
TORSDOF 7
ENDMDL
MODEL      288
REMARK 921   NORMALIZED FREE ENERGY PREDICTED BY IDOCK:   -3.87 KCAL/MOL
REMARK 922        TOTAL FREE ENERGY PREDICTED BY IDOCK:   -6.00 KCAL/MOL
REMARK 923 INTER-LIGAND FREE ENERGY PREDICTED BY IDOCK:   -5.56 KCAL/MOL
REMARK 924 INTRA-LIGAND FREE ENERGY PREDICTED BY IDOCK:   -0.44 KCAL/MOL
REMARK 927      BINDING AFFINITY PREDICTED BY RF-SCORE:    0.00 PKD
ROOT
HETATM    1  C   UNL     1      -7.574   7.530  72.185  1.00  0.00    -0.086 C  
HETATM    2  C   UNL     1      -9.057   7.145  72.222  1.00  0.00    -0.148 C  
HETATM    3  C   UNL     1      -9.718   7.147  70.821  1.00  0.00    -0.171 C  
HETATM    4  C   UNL     1      -9.220   5.790  72.923  1.00  0.00    -0.134 C  
HETATM    5  H1  UNL     1      -9.523   6.154  69.003  1.00  0.00     0.000 HD 
HETATM    6  N   UNL     1      -9.088   6.153  69.924  1.00  0.00    -0.142 NA 
HETATM    7  H2  UNL     1      -9.092   5.221  70.339  1.00  0.00     0.000 HD 
ENDROOT
BRANCH   3   8
HETATM    8  C   UNL     1      -9.690   8.541  70.151  1.00  0.00    -0.170 C  
HETATM    9  O   UNL     1     -10.551   9.403  70.284  1.00  0.00    -0.214 OA 
BRANCH   8  10
HETATM   10  O   UNL     1      -8.541   8.718  69.437  1.00  0.00    -0.129 OA 
BRANCH  10  11
HETATM   11  C   UNL     1      -8.600   9.768  68.450  1.00  0.00    -0.119 C  
BRANCH  11  12
HETATM   12  C   UNL     1      -7.497  10.798  68.697  1.00  0.00    -0.102 C  
BRANCH  12  13
HETATM   13  O   UNL     1      -7.975  12.072  68.254  1.00  0.00    -0.135 OA 
BRANCH  13  14
HETATM   14  C   UNL     1      -9.361  12.254  68.544  1.00  0.00    -0.099 C  
BRANCH  14  15
HETATM   15  N   UNL     1      -9.861  13.406  67.816  1.00  0.00    -0.227 NA 
HETATM   16  C   UNL     1     -10.032  14.663  68.352  1.00  0.00    -0.227 A  
HETATM   17  N   UNL     1     -10.467  15.531  67.456  1.00  0.00    -0.276 NA 
HETATM   18  C   UNL     1     -10.579  14.809  66.285  1.00  0.00    -0.305 A  
HETATM   19  C   UNL     1     -10.224  13.508  66.513  1.00  0.00    -0.283 A  
HETATM   20  N   UNL     1     -10.237  12.579  65.551  1.00  0.00    -0.273 NA 
HETATM   21  C   UNL     1     -10.571  13.000  64.292  1.00  0.00    -0.412 C  
HETATM   22  N   UNL     1     -10.490  12.018  63.358  1.00  0.00    -0.540 NA 
HETATM   23  N   UNL     1     -10.925  14.205  63.958  1.00  0.00    -0.464 N  
HETATM   24  H2  UNL     1     -10.209  11.061  63.573  1.00  0.00     0.000 HD 
HETATM   25  H1  UNL     1     -10.739  12.331  62.421  1.00  0.00     0.000 HD 
HETATM   26  C   UNL     1     -10.981  15.216  64.930  1.00  0.00    -0.419 C  
HETATM   27  H   UNL     1     -11.163  14.416  62.988  1.00  0.00     0.000 HD 
HETATM   28  O   UNL     1     -11.338  16.359  64.666  1.00  0.00    -0.482 OA 
ENDBRANCH  14  15
ENDBRANCH  13  14
ENDBRANCH  12  13
ENDBRANCH  11  12
ENDBRANCH  10  11
ENDBRANCH   8  10
ENDBRANCH   3   8
TORSDOF 7
ENDMDL
MODEL      289
REMARK 921   NORMALIZED FREE ENERGY PREDICTED BY IDOCK:   -3.87 KCAL/MOL
REMARK 922        TOTAL FREE ENERGY PREDICTED BY IDOCK:   -6.00 KCAL/MOL
REMARK 923 INTER-LIGAND FREE ENERGY PREDICTED BY IDOCK:   -5.26 KCAL/MOL
REMARK 924 INTRA-LIGAND FREE ENERGY PREDICTED BY IDOCK:   -0.74 KCAL/MOL
REMARK 927      BINDING AFFINITY PREDICTED BY RF-SCORE:    0.00 PKD
ROOT
HETATM    1  C   UNL     1      -9.519   3.890  64.445  1.00  0.00    -0.163 C  
HETATM    2  C   UNL     1      -8.307   3.650  65.351  1.00  0.00    -0.105 C  
HETATM    3  C   UNL     1      -8.629   3.840  66.855  1.00  0.00    -0.108 C  
HETATM    4  C   UNL     1      -7.720   2.260  65.070  1.00  0.00    -0.076 C  
HETATM    5  H1  UNL     1      -9.860   2.998  68.306  1.00  0.00     0.000 HD 
HETATM    6  N   UNL     1      -9.649   2.873  67.317  1.00  0.00    -0.391 NA 
HETATM    7  H2  UNL     1      -9.372   1.912  67.113  1.00  0.00     0.000 HD 
ENDROOT
BRANCH   3   8
HETATM    8  C   UNL     1      -9.090   5.278  67.188  1.00  0.00    -0.112 C  
HETATM    9  O   UNL     1     -10.082   5.564  67.849  1.00  0.00    -0.153 OA 
BRANCH   8  10
HETATM   10  O   UNL     1      -8.208   6.200  66.705  1.00  0.00    -0.108 OA 
BRANCH  10  11
HETATM   11  C   UNL     1      -8.816   7.364  66.109  1.00  0.00    -0.160 C  
BRANCH  11  12
HETATM   12  C   UNL     1      -8.218   8.642  66.698  1.00  0.00    -0.107 C  
BRANCH  12  13
HETATM   13  O   UNL     1      -9.224   9.274  67.494  1.00  0.00    -0.124 OA 
BRANCH  13  14
HETATM   14  C   UNL     1      -9.101   8.941  68.877  1.00  0.00    -0.140 C  
BRANCH  14  15
HETATM   15  N   UNL     1     -10.289   9.376  69.588  1.00  0.00    -0.205 NA 
HETATM   16  C   UNL     1     -11.053  10.472  69.252  1.00  0.00    -0.246 A  
HETATM   17  N   UNL     1     -12.097  10.614  70.047  1.00  0.00    -0.313 NA 
HETATM   18  C   UNL     1     -12.013   9.563  70.938  1.00  0.00    -0.295 A  
HETATM   19  C   UNL     1     -10.899   8.819  70.665  1.00  0.00    -0.232 A  
HETATM   20  N   UNL     1     -10.566   7.733  71.372  1.00  0.00    -0.213 NA 
HETATM   21  C   UNL     1     -11.431   7.355  72.363  1.00  0.00    -0.300 C  
HETATM   22  N   UNL     1     -11.065   6.206  72.986  1.00  0.00    -0.375 NA 
HETATM   23  N   UNL     1     -12.515   7.982  72.712  1.00  0.00    -0.597 N  
HETATM   24  H2  UNL     1     -10.228   5.676  72.740  1.00  0.00     0.000 HD 
HETATM   25  H1  UNL     1     -11.709   5.924  73.724  1.00  0.00     0.000 HD 
HETATM   26  C   UNL     1     -12.895   9.156  72.043  1.00  0.00    -0.408 C  
HETATM   27  H   UNL     1     -13.091   7.619  73.473  1.00  0.00     0.000 HD 
HETATM   28  O   UNL     1     -13.892   9.796  72.358  1.00  0.00    -0.330 OA 
ENDBRANCH  14  15
ENDBRANCH  13  14
ENDBRANCH  12  13
ENDBRANCH  11  12
ENDBRANCH  10  11
ENDBRANCH   8  10
ENDBRANCH   3   8
TORSDOF 7
ENDMDL
MODEL      290
REMARK 921   NORMALIZED FREE ENERGY PREDICTED BY IDOCK:   -3.87 KCAL/MOL
REMARK 922        TOTAL FREE ENERGY PREDICTED BY IDOCK:   -5.99 KCAL/MOL
REMARK 923 INTER-LIGAND FREE ENERGY PREDICTED BY IDOCK:   -5.81 KCAL/MOL
REMARK 924 INTRA-LIGAND FREE ENERGY PREDICTED BY IDOCK:   -0.18 KCAL/MOL
REMARK 927      BINDING AFFINITY PREDICTED BY RF-SCORE:    0.00 PKD
ROOT
HETATM    1  C   UNL     1     -10.852   5.379  72.400  1.00  0.00    -0.297 C  
HETATM    2  C   UNL     1     -10.489   6.739  71.795  1.00  0.00    -0.228 C  
HETATM    3  C   UNL     1     -10.824   6.839  70.286  1.00  0.00    -0.270 C  
HETATM    4  C   UNL     1     -11.165   7.858  72.599  1.00  0.00    -0.459 C  
HETATM    5  H1  UNL     1     -12.496   6.753  69.049  1.00  0.00     0.000 HD 
HETATM    6  N   UNL     1     -12.276   6.688  70.042  1.00  0.00    -0.520 NA 
HETATM    7  H2  UNL     1     -12.818   7.356  70.590  1.00  0.00     0.000 HD 
ENDROOT
BRANCH   3   8
HETATM    8  C   UNL     1     -10.046   5.810  69.433  1.00  0.00    -0.213 C  
HETATM    9  O   UNL     1      -9.990   4.606  69.661  1.00  0.00    -0.214 OA 
BRANCH   8  10
HETATM   10  O   UNL     1      -9.476   6.405  68.346  1.00  0.00    -0.121 OA 
BRANCH  10  11
HETATM   11  C   UNL     1     -10.401   6.748  67.293  1.00  0.00    -0.244 C  
BRANCH  11  12
HETATM   12  C   UNL     1     -10.132   8.165  66.785  1.00  0.00    -0.295 C  
BRANCH  12  13
HETATM   13  O   UNL     1     -10.869   9.076  67.606  1.00  0.00    -0.219 OA 
BRANCH  13  14
HETATM   14  C   UNL     1     -10.144  10.281  67.852  1.00  0.00    -0.170 C  
BRANCH  14  15
HETATM   15  N   UNL     1     -10.972  11.197  68.615  1.00  0.00    -0.202 NA 
HETATM   16  C   UNL     1     -12.070  10.832  69.363  1.00  0.00    -0.244 A  
HETATM   17  N   UNL     1     -12.615  11.862  69.983  1.00  0.00     0.009 NA 
HETATM   18  C   UNL     1     -11.838  12.946  69.626  1.00  0.00    -0.320 A  
HETATM   19  C   UNL     1     -10.846  12.538  68.778  1.00  0.00    -0.239 A  
HETATM   20  N   UNL     1      -9.939  13.382  68.272  1.00  0.00    -0.237 NA 
HETATM   21  C   UNL     1     -10.009  14.684  68.689  1.00  0.00    -0.234 C  
HETATM   22  N   UNL     1      -9.013  15.461  68.192  1.00  0.00    -0.174 NA 
HETATM   23  N   UNL     1     -10.904  15.184  69.489  1.00  0.00    -0.252 N  
HETATM   24  H2  UNL     1      -8.286  15.110  67.569  1.00  0.00     0.000 HD 
HETATM   25  H1  UNL     1      -9.065  16.431  68.502  1.00  0.00     0.000 HD 
HETATM   26  C   UNL     1     -11.914  14.363  70.015  1.00  0.00    -0.334 C  
HETATM   27  H   UNL     1     -10.872  16.174  69.734  1.00  0.00     0.000 HD 
HETATM   28  O   UNL     1     -12.795  14.796  70.748  1.00  0.00    -0.337 OA 
ENDBRANCH  14  15
ENDBRANCH  13  14
ENDBRANCH  12  13
ENDBRANCH  11  12
ENDBRANCH  10  11
ENDBRANCH   8  10
ENDBRANCH   3   8
TORSDOF 7
ENDMDL
MODEL      291
REMARK 921   NORMALIZED FREE ENERGY PREDICTED BY IDOCK:   -3.85 KCAL/MOL
REMARK 922        TOTAL FREE ENERGY PREDICTED BY IDOCK:   -5.97 KCAL/MOL
REMARK 923 INTER-LIGAND FREE ENERGY PREDICTED BY IDOCK:   -5.36 KCAL/MOL
REMARK 924 INTRA-LIGAND FREE ENERGY PREDICTED BY IDOCK:   -0.61 KCAL/MOL
REMARK 927      BINDING AFFINITY PREDICTED BY RF-SCORE:    0.00 PKD
ROOT
HETATM    1  C   UNL     1      -9.021  17.053  68.247  1.00  0.00    -0.242 C  
HETATM    2  C   UNL     1      -9.761  15.763  67.879  1.00  0.00    -0.216 C  
HETATM    3  C   UNL     1      -9.534  14.622  68.902  1.00  0.00    -0.173 C  
HETATM    4  C   UNL     1     -11.254  16.061  67.687  1.00  0.00    -0.183 C  
HETATM    5  H1  UNL     1      -9.896  14.236  70.915  1.00  0.00     0.000 HD 
HETATM    6  N   UNL     1     -10.046  14.987  70.242  1.00  0.00    -0.495 NA 
HETATM    7  H2  UNL     1     -11.027  15.265  70.204  1.00  0.00     0.000 HD 
ENDROOT
BRANCH   3   8
HETATM    8  C   UNL     1      -8.048  14.206  69.010  1.00  0.00     0.043 C  
HETATM    9  O   UNL     1      -7.143  14.928  69.413  1.00  0.00    -0.150 OA 
BRANCH   8  10
HETATM   10  O   UNL     1      -7.879  12.898  68.661  1.00  0.00    -0.120 OA 
BRANCH  10  11
HETATM   11  C   UNL     1      -7.457  12.687  67.298  1.00  0.00    -0.109 C  
BRANCH  11  12
HETATM   12  C   UNL     1      -7.798  11.266  66.845  1.00  0.00    -0.156 C  
BRANCH  12  13
HETATM   13  O   UNL     1      -9.210  11.198  66.630  1.00  0.00    -0.167 OA 
BRANCH  13  14
HETATM   14  C   UNL     1      -9.803  10.094  67.314  1.00  0.00    -0.183 C  
BRANCH  14  15
HETATM   15  N   UNL     1     -10.705  10.586  68.340  1.00  0.00    -0.207 NA 
HETATM   16  C   UNL     1     -11.468  11.728  68.235  1.00  0.00    -0.307 A  
HETATM   17  N   UNL     1     -12.225  11.919  69.301  1.00  0.00    -0.183 NA 
HETATM   18  C   UNL     1     -11.946  10.855  70.133  1.00  0.00    -0.352 A  
HETATM   19  C   UNL     1     -11.005  10.052  69.550  1.00  0.00    -0.253 A  
HETATM   20  N   UNL     1     -10.544   8.940  70.134  1.00  0.00    -0.216 NA 
HETATM   21  C   UNL     1     -11.102   8.600  71.337  1.00  0.00    -0.274 C  
HETATM   22  N   UNL     1     -10.637   7.424  71.831  1.00  0.00    -0.201 NA 
HETATM   23  N   UNL     1     -11.999   9.282  71.984  1.00  0.00    -0.352 N  
HETATM   24  H2  UNL     1      -9.941   6.851  71.354  1.00  0.00     0.000 HD 
HETATM   25  H1  UNL     1     -11.053   7.170  72.727  1.00  0.00     0.000 HD 
HETATM   26  C   UNL     1     -12.489  10.485  71.449  1.00  0.00    -0.411 C  
HETATM   27  H   UNL     1     -12.348   8.944  72.882  1.00  0.00     0.000 HD 
HETATM   28  O   UNL     1     -13.312  11.176  72.038  1.00  0.00    -0.454 OA 
ENDBRANCH  14  15
ENDBRANCH  13  14
ENDBRANCH  12  13
ENDBRANCH  11  12
ENDBRANCH  10  11
ENDBRANCH   8  10
ENDBRANCH   3   8
TORSDOF 7
ENDMDL
MODEL      292
REMARK 921   NORMALIZED FREE ENERGY PREDICTED BY IDOCK:   -3.84 KCAL/MOL
REMARK 922        TOTAL FREE ENERGY PREDICTED BY IDOCK:   -5.95 KCAL/MOL
REMARK 923 INTER-LIGAND FREE ENERGY PREDICTED BY IDOCK:   -5.69 KCAL/MOL
REMARK 924 INTRA-LIGAND FREE ENERGY PREDICTED BY IDOCK:   -0.26 KCAL/MOL
REMARK 927      BINDING AFFINITY PREDICTED BY RF-SCORE:    0.00 PKD
ROOT
HETATM    1  C   UNL     1     -10.748   8.193  66.887  1.00  0.00    -0.186 C  
HETATM    2  C   UNL     1     -10.114   6.967  67.552  1.00  0.00    -0.222 C  
HETATM    3  C   UNL     1     -10.389   6.893  69.075  1.00  0.00    -0.192 C  
HETATM    4  C   UNL     1     -10.577   5.693  66.832  1.00  0.00    -0.367 C  
HETATM    5  H1  UNL     1     -12.018   6.728  70.360  1.00  0.00     0.000 HD 
HETATM    6  N   UNL     1     -11.837   6.776  69.358  1.00  0.00    -0.557 NA 
HETATM    7  H2  UNL     1     -12.251   5.985  68.865  1.00  0.00     0.000 HD 
ENDROOT
BRANCH   3   8
HETATM    8  C   UNL     1      -9.807   8.102  69.844  1.00  0.00    -0.186 C  
HETATM    9  O   UNL     1     -10.174   8.473  70.953  1.00  0.00    -0.189 OA 
BRANCH   8  10
HETATM   10  O   UNL     1      -8.776   8.670  69.155  1.00  0.00    -0.134 OA 
BRANCH  10  11
HETATM   11  C   UNL     1      -8.512  10.047  69.492  1.00  0.00    -0.176 C  
BRANCH  11  12
HETATM   12  C   UNL     1      -9.457  10.976  68.728  1.00  0.00    -0.183 C  
BRANCH  12  13
HETATM   13  O   UNL     1      -8.675  11.743  67.808  1.00  0.00    -0.144 OA 
BRANCH  13  14
HETATM   14  C   UNL     1      -7.897  12.741  68.468  1.00  0.00    -0.099 C  
BRANCH  14  15
HETATM   15  N   UNL     1      -8.378  14.058  68.091  1.00  0.00    -0.154 NA 
HETATM   16  C   UNL     1      -7.692  14.951  67.298  1.00  0.00    -0.197 A  
HETATM   17  N   UNL     1      -8.380  16.058  67.085  1.00  0.00    -0.183 NA 
HETATM   18  C   UNL     1      -9.567  15.878  67.766  1.00  0.00    -0.218 A  
HETATM   19  C   UNL     1      -9.555  14.662  68.392  1.00  0.00    -0.217 A  
HETATM   20  N   UNL     1     -10.582  14.220  69.128  1.00  0.00    -0.221 NA 
HETATM   21  C   UNL     1     -11.689  15.023  69.184  1.00  0.00    -0.319 C  
HETATM   22  N   UNL     1     -12.714  14.475  69.886  1.00  0.00    -0.547 NA 
HETATM   23  N   UNL     1     -11.815  16.194  68.632  1.00  0.00    -0.311 N  
HETATM   24  H2  UNL     1     -12.664  13.557  70.328  1.00  0.00     0.000 HD 
HETATM   25  H1  UNL     1     -13.539  15.073  69.927  1.00  0.00     0.000 HD 
HETATM   26  C   UNL     1     -10.755  16.737  67.888  1.00  0.00    -0.347 C  
HETATM   27  H   UNL     1     -12.684  16.718  68.740  1.00  0.00     0.000 HD 
HETATM   28  O   UNL     1     -10.817  17.849  67.376  1.00  0.00    -0.339 OA 
ENDBRANCH  14  15
ENDBRANCH  13  14
ENDBRANCH  12  13
ENDBRANCH  11  12
ENDBRANCH  10  11
ENDBRANCH   8  10
ENDBRANCH   3   8
TORSDOF 7
ENDMDL
MODEL      293
REMARK 921   NORMALIZED FREE ENERGY PREDICTED BY IDOCK:   -3.84 KCAL/MOL
REMARK 922        TOTAL FREE ENERGY PREDICTED BY IDOCK:   -5.95 KCAL/MOL
REMARK 923 INTER-LIGAND FREE ENERGY PREDICTED BY IDOCK:   -5.52 KCAL/MOL
REMARK 924 INTRA-LIGAND FREE ENERGY PREDICTED BY IDOCK:   -0.43 KCAL/MOL
REMARK 927      BINDING AFFINITY PREDICTED BY RF-SCORE:    0.00 PKD
ROOT
HETATM    1  C   UNL     1      -9.007   6.422  70.048  1.00  0.00    -0.146 C  
HETATM    2  C   UNL     1      -8.738   7.319  71.261  1.00  0.00    -0.127 C  
HETATM    3  C   UNL     1      -9.821   7.188  72.362  1.00  0.00    -0.150 C  
HETATM    4  C   UNL     1      -7.334   7.035  71.812  1.00  0.00    -0.086 C  
HETATM    5  H1  UNL     1     -10.586   5.728  73.632  1.00  0.00     0.000 HD 
HETATM    6  N   UNL     1      -9.874   5.813  72.908  1.00  0.00    -0.159 NA 
HETATM    7  H2  UNL     1      -8.960   5.510  73.244  1.00  0.00     0.000 HD 
ENDROOT
BRANCH   3   8
HETATM    8  C   UNL     1     -11.226   7.604  71.869  1.00  0.00    -0.257 C  
HETATM    9  O   UNL     1     -12.155   6.833  71.657  1.00  0.00    -0.326 OA 
BRANCH   8  10
HETATM   10  O   UNL     1     -11.325   8.961  71.760  1.00  0.00    -0.314 OA 
BRANCH  10  11
HETATM   11  C   UNL     1     -12.539   9.429  71.139  1.00  0.00    -0.282 C  
BRANCH  11  12
HETATM   12  C   UNL     1     -12.500  10.948  70.963  1.00  0.00    -0.411 C  
BRANCH  12  13
HETATM   13  O   UNL     1     -11.616  11.244  69.878  1.00  0.00    -0.289 OA 
BRANCH  13  14
HETATM   14  C   UNL     1     -11.568  12.643  69.593  1.00  0.00    -0.251 C  
BRANCH  14  15
HETATM   15  N   UNL     1     -11.413  12.840  68.163  1.00  0.00    -0.291 NA 
HETATM   16  C   UNL     1     -11.544  11.853  67.212  1.00  0.00    -0.293 A  
HETATM   17  N   UNL     1     -11.387  12.319  65.986  1.00  0.00    -0.334 NA 
HETATM   18  C   UNL     1     -11.147  13.668  66.145  1.00  0.00    -0.295 A  
HETATM   19  C   UNL     1     -11.148  13.980  67.477  1.00  0.00    -0.298 A  
HETATM   20  N   UNL     1     -10.942  15.223  67.926  1.00  0.00    -0.296 NA 
HETATM   21  C   UNL     1     -10.784  16.201  66.981  1.00  0.00    -0.254 C  
HETATM   22  N   UNL     1     -10.653  17.444  67.512  1.00  0.00    -0.352 NA 
HETATM   23  N   UNL     1     -10.765  16.024  65.693  1.00  0.00    -0.347 N  
HETATM   24  H2  UNL     1     -10.671  17.631  68.514  1.00  0.00     0.000 HD 
HETATM   25  H1  UNL     1     -10.536  18.172  66.808  1.00  0.00     0.000 HD 
HETATM   26  C   UNL     1     -10.925  14.736  65.158  1.00  0.00    -0.393 C  
HETATM   27  H   UNL     1     -10.633  16.822  65.071  1.00  0.00     0.000 HD 
HETATM   28  O   UNL     1     -10.884  14.518  63.953  1.00  0.00     0.430 OA 
ENDBRANCH  14  15
ENDBRANCH  13  14
ENDBRANCH  12  13
ENDBRANCH  11  12
ENDBRANCH  10  11
ENDBRANCH   8  10
ENDBRANCH   3   8
TORSDOF 7
ENDMDL
MODEL      294
REMARK 921   NORMALIZED FREE ENERGY PREDICTED BY IDOCK:   -3.83 KCAL/MOL
REMARK 922        TOTAL FREE ENERGY PREDICTED BY IDOCK:   -5.94 KCAL/MOL
REMARK 923 INTER-LIGAND FREE ENERGY PREDICTED BY IDOCK:   -5.39 KCAL/MOL
REMARK 924 INTRA-LIGAND FREE ENERGY PREDICTED BY IDOCK:   -0.55 KCAL/MOL
REMARK 927      BINDING AFFINITY PREDICTED BY RF-SCORE:    0.00 PKD
ROOT
HETATM    1  C   UNL     1     -10.954   4.177  64.659  1.00  0.00    -0.058 C  
HETATM    2  C   UNL     1      -9.589   3.782  64.086  1.00  0.00    -0.163 C  
HETATM    3  C   UNL     1      -8.406   4.197  64.997  1.00  0.00    -0.110 C  
HETATM    4  C   UNL     1      -9.572   2.277  63.788  1.00  0.00    -0.125 C  
HETATM    5  H1  UNL     1      -7.699   3.799  66.913  1.00  0.00     0.000 HD 
HETATM    6  N   UNL     1      -8.477   3.526  66.314  1.00  0.00    -0.109 NA 
HETATM    7  H2  UNL     1      -8.533   2.512  66.214  1.00  0.00     0.000 HD 
ENDROOT
BRANCH   3   8
HETATM    8  C   UNL     1      -8.319   5.728  65.199  1.00  0.00    -0.146 C  
HETATM    9  O   UNL     1      -8.213   6.552  64.298  1.00  0.00    -0.091 OA 
BRANCH   8  10
HETATM   10  O   UNL     1      -8.443   6.055  66.518  1.00  0.00    -0.110 OA 
BRANCH  10  11
HETATM   11  C   UNL     1      -9.058   7.336  66.766  1.00  0.00    -0.148 C  
BRANCH  11  12
HETATM   12  C   UNL     1     -10.535   7.162  67.124  1.00  0.00    -0.319 C  
BRANCH  12  13
HETATM   13  O   UNL     1     -11.002   8.391  67.685  1.00  0.00    -0.084 OA 
BRANCH  13  14
HETATM   14  C   UNL     1     -10.220   8.799  68.808  1.00  0.00    -0.206 C  
BRANCH  14  15
HETATM   15  N   UNL     1     -10.891   9.887  69.495  1.00  0.00    -0.236 NA 
HETATM   16  C   UNL     1     -10.762  11.221  69.174  1.00  0.00    -0.207 A  
HETATM   17  N   UNL     1     -11.513  11.992  69.940  1.00  0.00    -0.217 NA 
HETATM   18  C   UNL     1     -12.162  11.123  70.794  1.00  0.00    -0.385 A  
HETATM   19  C   UNL     1     -11.767   9.841  70.530  1.00  0.00    -0.268 A  
HETATM   20  N   UNL     1     -12.239   8.788  71.208  1.00  0.00    -0.297 NA 
HETATM   21  C   UNL     1     -13.193   9.043  72.155  1.00  0.00    -0.446 C  
HETATM   22  N   UNL     1     -13.674   7.920  72.747  1.00  0.00    -0.180 NA 
HETATM   23  N   UNL     1     -13.643  10.215  72.492  1.00  0.00    -0.554 N  
HETATM   24  H2  UNL     1     -13.357   6.980  72.510  1.00  0.00     0.000 HD 
HETATM   25  H1  UNL     1     -14.385   8.110  73.453  1.00  0.00     0.000 HD 
HETATM   26  C   UNL     1     -13.153  11.366  71.854  1.00  0.00    -0.400 C  
HETATM   27  H   UNL     1     -14.354  10.299  73.219  1.00  0.00     0.000 HD 
HETATM   28  O   UNL     1     -13.526  12.493  72.159  1.00  0.00    -0.532 OA 
ENDBRANCH  14  15
ENDBRANCH  13  14
ENDBRANCH  12  13
ENDBRANCH  11  12
ENDBRANCH  10  11
ENDBRANCH   8  10
ENDBRANCH   3   8
TORSDOF 7
ENDMDL
MODEL      295
REMARK 921   NORMALIZED FREE ENERGY PREDICTED BY IDOCK:   -3.83 KCAL/MOL
REMARK 922        TOTAL FREE ENERGY PREDICTED BY IDOCK:   -5.94 KCAL/MOL
REMARK 923 INTER-LIGAND FREE ENERGY PREDICTED BY IDOCK:   -5.26 KCAL/MOL
REMARK 924 INTRA-LIGAND FREE ENERGY PREDICTED BY IDOCK:   -0.68 KCAL/MOL
REMARK 927      BINDING AFFINITY PREDICTED BY RF-SCORE:    0.00 PKD
ROOT
HETATM    1  C   UNL     1     -10.410  11.433  64.085  1.00  0.00    -0.400 C  
HETATM    2  C   UNL     1     -11.705  12.004  64.674  1.00  0.00    -0.358 C  
HETATM    3  C   UNL     1     -11.500  13.369  65.377  1.00  0.00    -0.302 C  
HETATM    4  C   UNL     1     -12.776  12.087  63.578  1.00  0.00    -0.567 C  
HETATM    5  H1  UNL     1     -10.890  15.298  64.892  1.00  0.00     0.000 HD 
HETATM    6  N   UNL     1     -11.024  14.400  64.429  1.00  0.00    -0.618 NA 
HETATM    7  H2  UNL     1     -11.647  14.484  63.625  1.00  0.00     0.000 HD 
ENDROOT
BRANCH   3   8
HETATM    8  C   UNL     1     -10.528  13.281  66.577  1.00  0.00    -0.281 C  
HETATM    9  O   UNL     1      -9.536  13.984  66.733  1.00  0.00    -0.262 OA 
BRANCH   8  10
HETATM   10  O   UNL     1     -10.954  12.356  67.486  1.00  0.00    -0.234 OA 
BRANCH  10  11
HETATM   11  C   UNL     1      -9.899  11.662  68.181  1.00  0.00    -0.191 C  
BRANCH  11  12
HETATM   12  C   UNL     1     -10.482  10.695  69.213  1.00  0.00    -0.227 C  
BRANCH  12  13
HETATM   13  O   UNL     1     -10.229   9.362  68.761  1.00  0.00    -0.190 OA 
BRANCH  13  14
HETATM   14  C   UNL     1     -10.458   9.219  67.359  1.00  0.00    -0.273 C  
BRANCH  14  15
HETATM   15  N   UNL     1      -9.808   8.011  66.883  1.00  0.00    -0.224 NA 
HETATM   16  C   UNL     1     -10.182   6.729  67.220  1.00  0.00    -0.210 A  
HETATM   17  N   UNL     1      -9.441   5.819  66.614  1.00  0.00    -0.144 NA 
HETATM   18  C   UNL     1      -8.547   6.539  65.847  1.00  0.00    -0.149 A  
HETATM   19  C   UNL     1      -8.764   7.877  66.026  1.00  0.00    -0.158 A  
HETATM   20  N   UNL     1      -8.041   8.815  65.402  1.00  0.00    -0.118 NA 
HETATM   21  C   UNL     1      -7.096   8.374  64.516  1.00  0.00    -0.077 C  
HETATM   22  N   UNL     1      -6.456   9.381  63.869  1.00  0.00    -0.092 NA 
HETATM   23  N   UNL     1      -6.802   7.132  64.265  1.00  0.00    -0.046 N  
HETATM   24  H2  UNL     1      -6.659  10.368  64.027  1.00  0.00     0.000 HD 
HETATM   25  H1  UNL     1      -5.751   9.053  63.209  1.00  0.00     0.000 HD 
HETATM   26  C   UNL     1      -7.489   6.101  64.924  1.00  0.00    -0.083 C  
HETATM   27  H   UNL     1      -6.072   6.908  63.589  1.00  0.00     0.000 HD 
HETATM   28  O   UNL     1      -7.225   4.917  64.742  1.00  0.00    -0.061 OA 
ENDBRANCH  14  15
ENDBRANCH  13  14
ENDBRANCH  12  13
ENDBRANCH  11  12
ENDBRANCH  10  11
ENDBRANCH   8  10
ENDBRANCH   3   8
TORSDOF 7
ENDMDL
MODEL      296
REMARK 921   NORMALIZED FREE ENERGY PREDICTED BY IDOCK:   -3.83 KCAL/MOL
REMARK 922        TOTAL FREE ENERGY PREDICTED BY IDOCK:   -5.94 KCAL/MOL
REMARK 923 INTER-LIGAND FREE ENERGY PREDICTED BY IDOCK:   -5.75 KCAL/MOL
REMARK 924 INTRA-LIGAND FREE ENERGY PREDICTED BY IDOCK:   -0.19 KCAL/MOL
REMARK 927      BINDING AFFINITY PREDICTED BY RF-SCORE:    0.00 PKD
ROOT
HETATM    1  C   UNL     1     -12.572  12.002  63.415  1.00  0.00    -0.592 C  
HETATM    2  C   UNL     1     -11.269  12.547  64.009  1.00  0.00    -0.461 C  
HETATM    3  C   UNL     1     -11.443  13.098  65.447  1.00  0.00    -0.304 C  
HETATM    4  C   UNL     1     -10.181  11.466  63.946  1.00  0.00    -0.415 C  
HETATM    5  H1  UNL     1     -11.991  12.400  67.329  1.00  0.00     0.000 HD 
HETATM    6  N   UNL     1     -11.876  12.037  66.384  1.00  0.00    -0.593 NA 
HETATM    7  H2  UNL     1     -11.241  11.239  66.364  1.00  0.00     0.000 HD 
ENDROOT
BRANCH   3   8
HETATM    8  C   UNL     1     -12.432  14.285  65.514  1.00  0.00    -0.422 C  
HETATM    9  O   UNL     1     -13.652  14.182  65.574  1.00  0.00    -0.568 OA 
BRANCH   8  10
HETATM   10  O   UNL     1     -11.767  15.475  65.568  1.00  0.00     0.002 OA 
BRANCH  10  11
HETATM   11  C   UNL     1     -10.358  15.392  65.268  1.00  0.00    -0.390 C  
BRANCH  11  12
HETATM   12  C   UNL     1      -9.538  16.087  66.356  1.00  0.00    -0.283 C  
BRANCH  12  13
HETATM   13  O   UNL     1      -8.441  15.233  66.695  1.00  0.00    -0.259 OA 
BRANCH  13  14
HETATM   14  C   UNL     1      -7.454  15.912  67.472  1.00  0.00    -0.168 C  
BRANCH  14  15
HETATM   15  N   UNL     1      -7.001  15.045  68.544  1.00  0.00    -0.102 NA 
HETATM   16  C   UNL     1      -6.988  15.382  69.880  1.00  0.00    -0.095 A  
HETATM   17  N   UNL     1      -6.560  14.391  70.640  1.00  0.00    -0.011 NA 
HETATM   18  C   UNL     1      -6.285  13.362  69.762  1.00  0.00    -0.113 A  
HETATM   19  C   UNL     1      -6.540  13.770  68.482  1.00  0.00    -0.099 A  
HETATM   20  N   UNL     1      -6.363  12.973  67.423  1.00  0.00    -0.249 NA 
HETATM   21  C   UNL     1      -5.963  11.689  67.678  1.00  0.00    -0.064 C  
HETATM   22  N   UNL     1      -5.876  10.922  66.562  1.00  0.00    -0.091 NA 
HETATM   23  N   UNL     1      -5.692  11.191  68.848  1.00  0.00    -0.040 N  
HETATM   24  H2  UNL     1      -6.088  11.267  65.625  1.00  0.00     0.000 HD 
HETATM   25  H1  UNL     1      -5.579   9.965  66.752  1.00  0.00     0.000 HD 
HETATM   26  C   UNL     1      -5.809  11.990  69.996  1.00  0.00    -0.152 C  
HETATM   27  H   UNL     1      -5.393  10.218  68.931  1.00  0.00     0.000 HD 
HETATM   28  O   UNL     1      -5.535  11.571  71.116  1.00  0.00    -0.282 OA 
ENDBRANCH  14  15
ENDBRANCH  13  14
ENDBRANCH  12  13
ENDBRANCH  11  12
ENDBRANCH  10  11
ENDBRANCH   8  10
ENDBRANCH   3   8
TORSDOF 7
ENDMDL
MODEL      297
REMARK 921   NORMALIZED FREE ENERGY PREDICTED BY IDOCK:   -3.82 KCAL/MOL
REMARK 922        TOTAL FREE ENERGY PREDICTED BY IDOCK:   -5.93 KCAL/MOL
REMARK 923 INTER-LIGAND FREE ENERGY PREDICTED BY IDOCK:   -5.51 KCAL/MOL
REMARK 924 INTRA-LIGAND FREE ENERGY PREDICTED BY IDOCK:   -0.43 KCAL/MOL
REMARK 927      BINDING AFFINITY PREDICTED BY RF-SCORE:    0.00 PKD
ROOT
HETATM    1  C   UNL     1      -7.315   6.360  72.495  1.00  0.00    -0.087 C  
HETATM    2  C   UNL     1      -8.816   6.511  72.226  1.00  0.00    -0.134 C  
HETATM    3  C   UNL     1      -9.178   6.385  70.724  1.00  0.00    -0.158 C  
HETATM    4  C   UNL     1      -9.598   5.506  73.082  1.00  0.00    -0.158 C  
HETATM    5  H1  UNL     1      -9.065   4.965  69.207  1.00  0.00     0.000 HD 
HETATM    6  N   UNL     1      -8.827   5.048  70.195  1.00  0.00    -0.108 NA 
HETATM    7  H2  UNL     1      -9.255   4.304  70.746  1.00  0.00     0.000 HD 
ENDROOT
BRANCH   3   8
HETATM    8  C   UNL     1      -8.511   7.477  69.857  1.00  0.00    -0.138 C  
HETATM    9  O   UNL     1      -7.476   7.333  69.216  1.00  0.00    -0.091 OA 
BRANCH   8  10
HETATM   10  O   UNL     1      -9.262   8.616  69.840  1.00  0.00    -0.150 OA 
BRANCH  10  11
HETATM   11  C   UNL     1     -10.586   8.457  69.290  1.00  0.00    -0.182 C  
BRANCH  11  12
HETATM   12  C   UNL     1     -10.958   9.665  68.430  1.00  0.00    -0.113 C  
BRANCH  12  13
HETATM   13  O   UNL     1     -10.628  10.848  69.163  1.00  0.00    -0.203 OA 
BRANCH  13  14
HETATM   14  C   UNL     1     -11.726  11.759  69.231  1.00  0.00    -0.335 C  
BRANCH  14  15
HETATM   15  N   UNL     1     -11.359  13.008  68.589  1.00  0.00    -0.270 NA 
HETATM   16  C   UNL     1     -10.985  13.137  67.270  1.00  0.00    -0.268 A  
HETATM   17  N   UNL     1     -10.740  14.393  66.942  1.00  0.00    -0.289 NA 
HETATM   18  C   UNL     1     -10.968  15.114  68.097  1.00  0.00    -0.287 A  
HETATM   19  C   UNL     1     -11.330  14.264  69.104  1.00  0.00    -0.276 A  
HETATM   20  N   UNL     1     -11.614  14.690  70.340  1.00  0.00    -0.275 NA 
HETATM   21  C   UNL     1     -11.584  16.042  70.547  1.00  0.00    -0.362 C  
HETATM   22  N   UNL     1     -11.954  16.402  71.803  1.00  0.00    -0.659 NA 
HETATM   23  N   UNL     1     -11.255  16.944  69.669  1.00  0.00    -0.258 N  
HETATM   24  H2  UNL     1     -12.227  15.731  72.521  1.00  0.00     0.000 HD 
HETATM   25  H1  UNL     1     -11.931  17.410  71.957  1.00  0.00     0.000 HD 
HETATM   26  C   UNL     1     -10.898  16.558  68.367  1.00  0.00    -0.348 C  
HETATM   27  H   UNL     1     -11.257  17.931  69.927  1.00  0.00     0.000 HD 
HETATM   28  O   UNL     1     -10.552  17.370  67.516  1.00  0.00    -0.356 OA 
ENDBRANCH  14  15
ENDBRANCH  13  14
ENDBRANCH  12  13
ENDBRANCH  11  12
ENDBRANCH  10  11
ENDBRANCH   8  10
ENDBRANCH   3   8
TORSDOF 7
ENDMDL
MODEL      298
REMARK 921   NORMALIZED FREE ENERGY PREDICTED BY IDOCK:   -3.82 KCAL/MOL
REMARK 922        TOTAL FREE ENERGY PREDICTED BY IDOCK:   -5.93 KCAL/MOL
REMARK 923 INTER-LIGAND FREE ENERGY PREDICTED BY IDOCK:   -4.99 KCAL/MOL
REMARK 924 INTRA-LIGAND FREE ENERGY PREDICTED BY IDOCK:   -0.94 KCAL/MOL
REMARK 927      BINDING AFFINITY PREDICTED BY RF-SCORE:    0.00 PKD
ROOT
HETATM    1  C   UNL     1     -11.360   6.124  70.356  1.00  0.00    -0.399 C  
HETATM    2  C   UNL     1     -11.299   6.463  71.849  1.00  0.00    -0.339 C  
HETATM    3  C   UNL     1     -12.014   7.793  72.198  1.00  0.00    -0.317 C  
HETATM    4  C   UNL     1     -11.855   5.290  72.667  1.00  0.00    -0.107 C  
HETATM    5  H1  UNL     1     -13.928   8.604  72.109  1.00  0.00     0.000 HD 
HETATM    6  N   UNL     1     -13.458   7.730  71.879  1.00  0.00    -0.467 NA 
HETATM    7  H2  UNL     1     -13.906   6.934  72.334  1.00  0.00     0.000 HD 
ENDROOT
BRANCH   3   8
HETATM    8  C   UNL     1     -11.380   9.014  71.491  1.00  0.00    -0.346 C  
HETATM    9  O   UNL     1     -10.194   9.316  71.539  1.00  0.00    -0.330 OA 
BRANCH   8  10
HETATM   10  O   UNL     1     -12.306   9.682  70.744  1.00  0.00    -0.275 OA 
BRANCH  10  11
HETATM   11  C   UNL     1     -12.084  11.103  70.640  1.00  0.00    -0.379 C  
BRANCH  11  12
HETATM   12  C   UNL     1     -11.970  11.522  69.173  1.00  0.00    -0.320 C  
BRANCH  12  13
HETATM   13  O   UNL     1     -10.599  11.830  68.907  1.00  0.00    -0.212 OA 
BRANCH  13  14
HETATM   14  C   UNL     1     -10.239  11.548  67.554  1.00  0.00    -0.184 C  
BRANCH  14  15
HETATM   15  N   UNL     1      -9.860  10.151  67.435  1.00  0.00    -0.180 NA 
HETATM   16  C   UNL     1     -10.444   9.247  66.575  1.00  0.00    -0.134 A  
HETATM   17  N   UNL     1      -9.879   8.055  66.648  1.00  0.00    -0.246 NA 
HETATM   18  C   UNL     1      -8.882   8.190  67.593  1.00  0.00    -0.136 A  
HETATM   19  C   UNL     1      -8.885   9.467  68.083  1.00  0.00    -0.124 A  
HETATM   20  N   UNL     1      -8.020   9.882  69.016  1.00  0.00    -0.094 NA 
HETATM   21  C   UNL     1      -7.078   8.979  69.428  1.00  0.00    -0.056 C  
HETATM   22  N   UNL     1      -6.193   9.495  70.319  1.00  0.00    -0.053 NA 
HETATM   23  N   UNL     1      -6.979   7.744  69.035  1.00  0.00    -0.067 N  
HETATM   24  H2  UNL     1      -6.227  10.460  70.648  1.00  0.00     0.000 HD 
HETATM   25  H1  UNL     1      -5.491   8.823  70.626  1.00  0.00     0.000 HD 
HETATM   26  C   UNL     1      -7.887   7.230  68.095  1.00  0.00    -0.118 C  
HETATM   27  H   UNL     1      -6.241   7.147  69.410  1.00  0.00     0.000 HD 
HETATM   28  O   UNL     1      -7.850   6.064  67.718  1.00  0.00    -0.102 OA 
ENDBRANCH  14  15
ENDBRANCH  13  14
ENDBRANCH  12  13
ENDBRANCH  11  12
ENDBRANCH  10  11
ENDBRANCH   8  10
ENDBRANCH   3   8
TORSDOF 7
ENDMDL
MODEL      299
REMARK 921   NORMALIZED FREE ENERGY PREDICTED BY IDOCK:   -3.80 KCAL/MOL
REMARK 922        TOTAL FREE ENERGY PREDICTED BY IDOCK:   -5.90 KCAL/MOL
REMARK 923 INTER-LIGAND FREE ENERGY PREDICTED BY IDOCK:   -5.79 KCAL/MOL
REMARK 924 INTRA-LIGAND FREE ENERGY PREDICTED BY IDOCK:   -0.11 KCAL/MOL
REMARK 927      BINDING AFFINITY PREDICTED BY RF-SCORE:    0.00 PKD
ROOT
HETATM    1  C   UNL     1     -10.321  12.753  64.200  1.00  0.00    -0.401 C  
HETATM    2  C   UNL     1     -11.325  12.469  65.323  1.00  0.00    -0.363 C  
HETATM    3  C   UNL     1     -11.151  13.409  66.542  1.00  0.00    -0.297 C  
HETATM    4  C   UNL     1     -12.753  12.525  64.764  1.00  0.00    -0.415 C  
HETATM    5  H1  UNL     1     -11.268  15.441  66.975  1.00  0.00     0.000 HD 
HETATM    6  N   UNL     1     -11.382  14.823  66.172  1.00  0.00    -0.342 NA 
HETATM    7  H2  UNL     1     -12.292  14.949  65.730  1.00  0.00     0.000 HD 
ENDROOT
BRANCH   3   8
HETATM    8  C   UNL     1      -9.764  13.267  67.211  1.00  0.00    -0.231 C  
HETATM    9  O   UNL     1      -9.176  14.162  67.807  1.00  0.00    -0.181 OA 
BRANCH   8  10
HETATM   10  O   UNL     1      -9.300  11.988  67.110  1.00  0.00    -0.179 OA 
BRANCH  10  11
HETATM   11  C   UNL     1      -9.710  11.112  68.180  1.00  0.00    -0.181 C  
BRANCH  11  12
HETATM   12  C   UNL     1      -9.405   9.656  67.827  1.00  0.00    -0.127 C  
BRANCH  12  13
HETATM   13  O   UNL     1      -9.529   8.876  69.020  1.00  0.00    -0.154 OA 
BRANCH  13  14
HETATM   14  C   UNL     1     -10.770   9.109  69.685  1.00  0.00    -0.225 C  
BRANCH  14  15
HETATM   15  N   UNL     1     -10.835   8.298  70.888  1.00  0.00    -0.225 NA 
HETATM   16  C   UNL     1     -11.225   8.756  72.127  1.00  0.00    -0.338 A  
HETATM   17  N   UNL     1     -11.225   7.796  73.034  1.00  0.00    -0.392 NA 
HETATM   18  C   UNL     1     -10.821   6.664  72.357  1.00  0.00    -0.235 A  
HETATM   19  C   UNL     1     -10.568   6.978  71.050  1.00  0.00    -0.218 A  
HETATM   20  N   UNL     1     -10.160   6.070  70.157  1.00  0.00    -0.184 NA 
HETATM   21  C   UNL     1     -10.058   4.777  70.595  1.00  0.00    -0.218 C  
HETATM   22  N   UNL     1      -9.711   3.903  69.616  1.00  0.00    -0.189 NA 
HETATM   23  N   UNL     1     -10.272   4.362  71.809  1.00  0.00    -0.166 N  
HETATM   24  H2  UNL     1      -9.542   4.182  68.649  1.00  0.00     0.000 HD 
HETATM   25  H1  UNL     1      -9.636   2.940  69.943  1.00  0.00     0.000 HD 
HETATM   26  C   UNL     1     -10.654   5.273  72.806  1.00  0.00    -0.230 C  
HETATM   27  H   UNL     1     -10.162   3.373  72.037  1.00  0.00     0.000 HD 
HETATM   28  O   UNL     1     -10.837   4.933  73.970  1.00  0.00    -0.294 OA 
ENDBRANCH  14  15
ENDBRANCH  13  14
ENDBRANCH  12  13
ENDBRANCH  11  12
ENDBRANCH  10  11
ENDBRANCH   8  10
ENDBRANCH   3   8
TORSDOF 7
ENDMDL
MODEL      300
REMARK 921   NORMALIZED FREE ENERGY PREDICTED BY IDOCK:   -3.79 KCAL/MOL
REMARK 922        TOTAL FREE ENERGY PREDICTED BY IDOCK:   -5.89 KCAL/MOL
REMARK 923 INTER-LIGAND FREE ENERGY PREDICTED BY IDOCK:   -5.53 KCAL/MOL
REMARK 924 INTRA-LIGAND FREE ENERGY PREDICTED BY IDOCK:   -0.35 KCAL/MOL
REMARK 927      BINDING AFFINITY PREDICTED BY RF-SCORE:    0.00 PKD
ROOT
HETATM    1  C   UNL     1     -10.414  11.100  63.910  1.00  0.00    -0.445 C  
HETATM    2  C   UNL     1     -11.443  12.081  64.483  1.00  0.00    -0.385 C  
HETATM    3  C   UNL     1     -10.854  13.008  65.574  1.00  0.00    -0.278 C  
HETATM    4  C   UNL     1     -12.081  12.884  63.341  1.00  0.00    -0.610 C  
HETATM    5  H1  UNL     1      -9.386  14.473  65.751  1.00  0.00     0.000 HD 
HETATM    6  N   UNL     1      -9.773  13.862  65.033  1.00  0.00    -0.555 NA 
HETATM    7  H2  UNL     1     -10.089  14.394  64.221  1.00  0.00     0.000 HD 
ENDROOT
BRANCH   3   8
HETATM    8  C   UNL     1     -10.331  12.227  66.802  1.00  0.00    -0.217 C  
HETATM    9  O   UNL     1      -9.305  12.490  67.420  1.00  0.00    -0.177 OA 
BRANCH   8  10
HETATM   10  O   UNL     1     -11.198  11.235  67.157  1.00  0.00    -0.293 OA 
BRANCH  10  11
HETATM   11  C   UNL     1     -10.572   9.986  67.515  1.00  0.00    -0.280 C  
BRANCH  11  12
HETATM   12  C   UNL     1     -10.435   9.084  66.287  1.00  0.00     0.097 C  
BRANCH  12  13
HETATM   13  O   UNL     1      -9.101   8.568  66.265  1.00  0.00    -0.161 OA 
BRANCH  13  14
HETATM   14  C   UNL     1      -9.072   7.151  66.438  1.00  0.00    -0.157 C  
BRANCH  14  15
HETATM   15  N   UNL     1      -8.605   6.836  67.776  1.00  0.00    -0.122 NA 
HETATM   16  C   UNL     1      -7.295   6.573  68.112  1.00  0.00    -0.090 A  
HETATM   17  N   UNL     1      -7.147   6.354  69.406  1.00  0.00    -0.071 NA 
HETATM   18  C   UNL     1      -8.415   6.484  69.937  1.00  0.00    -0.135 A  
HETATM   19  C   UNL     1      -9.304   6.763  68.936  1.00  0.00    -0.129 A  
HETATM   20  N   UNL     1     -10.611   6.943  69.163  1.00  0.00    -0.213 NA 
HETATM   21  C   UNL     1     -11.022   6.893  70.467  1.00  0.00    -0.273 C  
HETATM   22  N   UNL     1     -12.344   7.157  70.624  1.00  0.00    -0.596 NA 
HETATM   23  N   UNL     1     -10.270   6.636  71.497  1.00  0.00    -0.197 N  
HETATM   24  H2  UNL     1     -12.969   7.371  69.847  1.00  0.00     0.000 HD 
HETATM   25  H1  UNL     1     -12.651   7.120  71.595  1.00  0.00     0.000 HD 
HETATM   26  C   UNL     1      -8.900   6.388  71.322  1.00  0.00    -0.138 C  
HETATM   27  H   UNL     1     -10.678   6.615  72.432  1.00  0.00     0.000 HD 
HETATM   28  O   UNL     1      -8.159   6.113  72.260  1.00  0.00    -0.108 OA 
ENDBRANCH  14  15
ENDBRANCH  13  14
ENDBRANCH  12  13
ENDBRANCH  11  12
ENDBRANCH  10  11
ENDBRANCH   8  10
ENDBRANCH   3   8
TORSDOF 7
ENDMDL
MODEL      301
REMARK 921   NORMALIZED FREE ENERGY PREDICTED BY IDOCK:   -3.79 KCAL/MOL
REMARK 922        TOTAL FREE ENERGY PREDICTED BY IDOCK:   -5.88 KCAL/MOL
REMARK 923 INTER-LIGAND FREE ENERGY PREDICTED BY IDOCK:   -5.27 KCAL/MOL
REMARK 924 INTRA-LIGAND FREE ENERGY PREDICTED BY IDOCK:   -0.61 KCAL/MOL
REMARK 927      BINDING AFFINITY PREDICTED BY RF-SCORE:    0.00 PKD
ROOT
HETATM    1  C   UNL     1      -8.180  10.302  69.444  1.00  0.00    -0.171 C  
HETATM    2  C   UNL     1      -8.144  11.170  68.182  1.00  0.00    -0.128 C  
HETATM    3  C   UNL     1      -9.518  11.797  67.839  1.00  0.00    -0.191 C  
HETATM    4  C   UNL     1      -7.053  12.240  68.323  1.00  0.00    -0.093 C  
HETATM    5  H1  UNL     1     -10.886  13.117  68.686  1.00  0.00     0.000 HD 
HETATM    6  N   UNL     1      -9.982  12.704  68.912  1.00  0.00    -0.424 NA 
HETATM    7  H2  UNL     1      -9.286  13.420  69.123  1.00  0.00     0.000 HD 
ENDROOT
BRANCH   3   8
HETATM    8  C   UNL     1     -10.604  10.734  67.553  1.00  0.00    -0.237 C  
HETATM    9  O   UNL     1     -11.769  10.800  67.928  1.00  0.00    -0.543 OA 
BRANCH   8  10
HETATM   10  O   UNL     1     -10.114   9.733  66.767  1.00  0.00    -0.206 OA 
BRANCH  10  11
HETATM   11  C   UNL     1     -10.625   8.419  67.073  1.00  0.00    -0.246 C  
BRANCH  11  12
HETATM   12  C   UNL     1      -9.514   7.373  66.966  1.00  0.00    -0.158 C  
BRANCH  12  13
HETATM   13  O   UNL     1      -9.737   6.387  67.976  1.00  0.00    -0.121 OA 
BRANCH  13  14
HETATM   14  C   UNL     1     -11.079   6.411  68.463  1.00  0.00    -0.300 C  
BRANCH  14  15
HETATM   15  N   UNL     1     -11.069   6.383  69.914  1.00  0.00    -0.345 NA 
HETATM   16  C   UNL     1     -11.582   7.371  70.726  1.00  0.00    -0.290 A  
HETATM   17  N   UNL     1     -11.472   7.069  72.007  1.00  0.00    -0.262 NA 
HETATM   18  C   UNL     1     -10.866   5.830  72.031  1.00  0.00    -0.251 A  
HETATM   19  C   UNL     1     -10.607   5.421  70.752  1.00  0.00    -0.223 A  
HETATM   20  N   UNL     1     -10.022   4.250  70.474  1.00  0.00    -0.195 NA 
HETATM   21  C   UNL     1      -9.739   3.436  71.537  1.00  0.00    -0.163 C  
HETATM   22  N   UNL     1      -9.216   2.238  71.171  1.00  0.00    -0.106 NA 
HETATM   23  N   UNL     1      -9.939   3.716  72.791  1.00  0.00    -0.146 N  
HETATM   24  H2  UNL     1      -9.049   1.971  70.200  1.00  0.00     0.000 HD 
HETATM   25  H1  UNL     1      -9.005   1.631  71.962  1.00  0.00     0.000 HD 
HETATM   26  C   UNL     1     -10.503   4.950  73.153  1.00  0.00    -0.202 C  
HETATM   27  H   UNL     1      -9.685   3.040  73.511  1.00  0.00     0.000 HD 
HETATM   28  O   UNL     1     -10.682   5.270  74.323  1.00  0.00    -0.269 OA 
ENDBRANCH  14  15
ENDBRANCH  13  14
ENDBRANCH  12  13
ENDBRANCH  11  12
ENDBRANCH  10  11
ENDBRANCH   8  10
ENDBRANCH   3   8
TORSDOF 7
ENDMDL
MODEL      302
REMARK 921   NORMALIZED FREE ENERGY PREDICTED BY IDOCK:   -3.79 KCAL/MOL
REMARK 922        TOTAL FREE ENERGY PREDICTED BY IDOCK:   -5.88 KCAL/MOL
REMARK 923 INTER-LIGAND FREE ENERGY PREDICTED BY IDOCK:   -5.49 KCAL/MOL
REMARK 924 INTRA-LIGAND FREE ENERGY PREDICTED BY IDOCK:   -0.39 KCAL/MOL
REMARK 927      BINDING AFFINITY PREDICTED BY RF-SCORE:    0.00 PKD
ROOT
HETATM    1  C   UNL     1     -10.705  19.586  65.991  1.00  0.00    -0.529 C  
HETATM    2  C   UNL     1     -10.254  18.852  67.258  1.00  0.00    -0.454 C  
HETATM    3  C   UNL     1      -9.541  17.509  66.958  1.00  0.00    -0.268 C  
HETATM    4  C   UNL     1      -9.376  19.781  68.108  1.00  0.00    -0.429 C  
HETATM    5  H1  UNL     1      -7.834  16.834  65.979  1.00  0.00     0.000 HD 
HETATM    6  N   UNL     1      -8.302  17.717  66.176  1.00  0.00    -0.487 NA 
HETATM    7  H2  UNL     1      -7.676  18.378  66.636  1.00  0.00     0.000 HD 
ENDROOT
BRANCH   3   8
HETATM    8  C   UNL     1     -10.455  16.501  66.224  1.00  0.00    -0.281 C  
HETATM    9  O   UNL     1     -10.594  16.433  65.008  1.00  0.00    -0.651 OA 
BRANCH   8  10
HETATM   10  O   UNL     1     -11.043  15.641  67.105  1.00  0.00    -0.304 OA 
BRANCH  10  11
HETATM   11  C   UNL     1     -10.148  14.678  67.697  1.00  0.00    -0.228 C  
BRANCH  11  12
HETATM   12  C   UNL     1     -10.432  13.277  67.154  1.00  0.00    -0.248 C  
BRANCH  12  13
HETATM   13  O   UNL     1      -9.812  12.330  68.029  1.00  0.00    -0.192 OA 
BRANCH  13  14
HETATM   14  C   UNL     1      -8.418  12.183  67.757  1.00  0.00    -0.160 C  
BRANCH  14  15
HETATM   15  N   UNL     1      -7.945  10.928  68.313  1.00  0.00    -0.115 NA 
HETATM   16  C   UNL     1      -7.235  10.803  69.486  1.00  0.00    -0.132 A  
HETATM   17  N   UNL     1      -6.965   9.543  69.773  1.00  0.00    -0.063 NA 
HETATM   18  C   UNL     1      -7.527   8.814  68.745  1.00  0.00    -0.084 A  
HETATM   19  C   UNL     1      -8.111   9.665  67.847  1.00  0.00    -0.106 A  
HETATM   20  N   UNL     1      -8.736   9.232  66.746  1.00  0.00    -0.126 NA 
HETATM   21  C   UNL     1      -8.821   7.876  66.579  1.00  0.00    -0.152 C  
HETATM   22  N   UNL     1      -9.532   7.514  65.480  1.00  0.00    -0.170 NA 
HETATM   23  N   UNL     1      -8.307   6.975  67.362  1.00  0.00    -0.122 N  
HETATM   24  H2  UNL     1      -9.960   8.185  64.843  1.00  0.00     0.000 HD 
HETATM   25  H1  UNL     1      -9.595   6.504  65.356  1.00  0.00     0.000 HD 
HETATM   26  C   UNL     1      -7.594   7.364  68.508  1.00  0.00    -0.114 C  
HETATM   27  H   UNL     1      -8.421   5.985  67.144  1.00  0.00     0.000 HD 
HETATM   28  O   UNL     1      -7.067   6.551  69.259  1.00  0.00    -0.078 OA 
ENDBRANCH  14  15
ENDBRANCH  13  14
ENDBRANCH  12  13
ENDBRANCH  11  12
ENDBRANCH  10  11
ENDBRANCH   8  10
ENDBRANCH   3   8
TORSDOF 7
ENDMDL
MODEL      303
REMARK 921   NORMALIZED FREE ENERGY PREDICTED BY IDOCK:   -3.78 KCAL/MOL
REMARK 922        TOTAL FREE ENERGY PREDICTED BY IDOCK:   -5.87 KCAL/MOL
REMARK 923 INTER-LIGAND FREE ENERGY PREDICTED BY IDOCK:   -5.35 KCAL/MOL
REMARK 924 INTRA-LIGAND FREE ENERGY PREDICTED BY IDOCK:   -0.52 KCAL/MOL
REMARK 927      BINDING AFFINITY PREDICTED BY RF-SCORE:    0.00 PKD
ROOT
HETATM    1  C   UNL     1     -10.568  11.976  65.311  1.00  0.00    -0.328 C  
HETATM    2  C   UNL     1     -11.719  12.987  65.285  1.00  0.00    -0.388 C  
HETATM    3  C   UNL     1     -11.386  14.303  66.032  1.00  0.00    -0.335 C  
HETATM    4  C   UNL     1     -12.141  13.252  63.834  1.00  0.00    -0.531 C  
HETATM    5  H1  UNL     1     -10.026  15.873  65.895  1.00  0.00     0.000 HD 
HETATM    6  N   UNL     1     -10.245  15.007  65.404  1.00  0.00    -0.366 NA 
HETATM    7  H2  UNL     1     -10.410  15.172  64.411  1.00  0.00     0.000 HD 
ENDROOT
BRANCH   3   8
HETATM    8  C   UNL     1     -11.093  14.078  67.534  1.00  0.00    -0.298 C  
HETATM    9  O   UNL     1     -10.255  14.691  68.187  1.00  0.00    -0.224 OA 
BRANCH   8  10
HETATM   10  O   UNL     1     -11.939  13.149  68.064  1.00  0.00    -0.351 OA 
BRANCH  10  11
HETATM   11  C   UNL     1     -11.418  12.442  69.208  1.00  0.00    -0.288 C  
BRANCH  11  12
HETATM   12  C   UNL     1     -11.421  10.933  68.953  1.00  0.00    -0.300 C  
BRANCH  12  13
HETATM   13  O   UNL     1     -11.534  10.272  70.215  1.00  0.00    -0.271 OA 
BRANCH  13  14
HETATM   14  C   UNL     1     -11.408   8.855  70.091  1.00  0.00    -0.106 C  
BRANCH  14  15
HETATM   15  N   UNL     1     -10.528   8.354  71.131  1.00  0.00    -0.205 NA 
HETATM   16  C   UNL     1     -10.911   7.507  72.148  1.00  0.00    -0.240 A  
HETATM   17  N   UNL     1      -9.900   7.182  72.932  1.00  0.00    -0.173 NA 
HETATM   18  C   UNL     1      -8.809   7.841  72.401  1.00  0.00    -0.142 A  
HETATM   19  C   UNL     1      -9.200   8.568  71.311  1.00  0.00    -0.200 A  
HETATM   20  N   UNL     1      -8.346   9.308  70.594  1.00  0.00    -0.198 NA 
HETATM   21  C   UNL     1      -7.030   9.263  70.967  1.00  0.00    -0.084 C  
HETATM   22  N   UNL     1      -6.216   9.980  70.151  1.00  0.00    -0.065 NA 
HETATM   23  N   UNL     1      -6.544   8.611  71.982  1.00  0.00    -0.081 N  
HETATM   24  H2  UNL     1      -6.551  10.500  69.339  1.00  0.00     0.000 HD 
HETATM   25  H1  UNL     1      -5.235   9.946  70.428  1.00  0.00     0.000 HD 
HETATM   26  C   UNL     1      -7.395   7.855  72.804  1.00  0.00    -0.101 C  
HETATM   27  H   UNL     1      -5.544   8.648  72.180  1.00  0.00     0.000 HD 
HETATM   28  O   UNL     1      -6.986   7.248  73.788  1.00  0.00    -0.078 OA 
ENDBRANCH  14  15
ENDBRANCH  13  14
ENDBRANCH  12  13
ENDBRANCH  11  12
ENDBRANCH  10  11
ENDBRANCH   8  10
ENDBRANCH   3   8
TORSDOF 7
ENDMDL
MODEL      304
REMARK 921   NORMALIZED FREE ENERGY PREDICTED BY IDOCK:   -3.78 KCAL/MOL
REMARK 922        TOTAL FREE ENERGY PREDICTED BY IDOCK:   -5.86 KCAL/MOL
REMARK 923 INTER-LIGAND FREE ENERGY PREDICTED BY IDOCK:   -4.99 KCAL/MOL
REMARK 924 INTRA-LIGAND FREE ENERGY PREDICTED BY IDOCK:   -0.87 KCAL/MOL
REMARK 927      BINDING AFFINITY PREDICTED BY RF-SCORE:    0.00 PKD
ROOT
HETATM    1  C   UNL     1      -8.624  11.550  66.280  1.00  0.00    -0.133 C  
HETATM    2  C   UNL     1      -7.940  11.113  67.580  1.00  0.00    -0.118 C  
HETATM    3  C   UNL     1      -8.630   9.896  68.247  1.00  0.00    -0.115 C  
HETATM    4  C   UNL     1      -6.453  10.845  67.315  1.00  0.00    -0.072 C  
HETATM    5  H1  UNL     1      -9.040   7.903  67.812  1.00  0.00     0.000 HD 
HETATM    6  N   UNL     1      -8.587   8.703  67.373  1.00  0.00    -0.133 NA 
HETATM    7  H2  UNL     1      -7.631   8.482  67.089  1.00  0.00     0.000 HD 
ENDROOT
BRANCH   3   8
HETATM    8  C   UNL     1     -10.093  10.189  68.652  1.00  0.00    -0.172 C  
HETATM    9  O   UNL     1     -11.021   9.394  68.561  1.00  0.00    -0.148 OA 
BRANCH   8  10
HETATM   10  O   UNL     1     -10.212  11.436  69.193  1.00  0.00    -0.169 OA 
BRANCH  10  11
HETATM   11  C   UNL     1     -11.549  11.976  69.178  1.00  0.00    -0.312 C  
BRANCH  11  12
HETATM   12  C   UNL     1     -11.835  12.660  67.840  1.00  0.00    -0.332 C  
BRANCH  12  13
HETATM   13  O   UNL     1     -11.691  14.071  68.025  1.00  0.00    -0.319 OA 
BRANCH  13  14
HETATM   14  C   UNL     1     -11.189  14.717  66.855  1.00  0.00    -0.343 C  
BRANCH  14  15
HETATM   15  N   UNL     1     -10.305  15.800  67.241  1.00  0.00    -0.283 NA 
HETATM   16  C   UNL     1     -10.527  17.133  66.974  1.00  0.00    -0.282 A  
HETATM   17  N   UNL     1      -9.579  17.906  67.472  1.00  0.00    -0.265 NA 
HETATM   18  C   UNL     1      -8.703  17.039  68.095  1.00  0.00    -0.233 A  
HETATM   19  C   UNL     1      -9.141  15.754  67.938  1.00  0.00    -0.186 A  
HETATM   20  N   UNL     1      -8.485  14.702  68.442  1.00  0.00    -0.153 NA 
HETATM   21  C   UNL     1      -7.367  14.972  69.184  1.00  0.00    -0.164 C  
HETATM   22  N   UNL     1      -6.799  13.862  69.722  1.00  0.00    -0.337 NA 
HETATM   23  N   UNL     1      -6.858  16.149  69.400  1.00  0.00    -0.209 N  
HETATM   24  H2  UNL     1      -7.169  12.921  69.586  1.00  0.00     0.000 HD 
HETATM   25  H1  UNL     1      -5.967  14.063  70.275  1.00  0.00     0.000 HD 
HETATM   26  C   UNL     1      -7.470  17.289  68.857  1.00  0.00    -0.240 C  
HETATM   27  H   UNL     1      -6.013  16.243  69.965  1.00  0.00     0.000 HD 
HETATM   28  O   UNL     1      -7.008  18.415  69.009  1.00  0.00    -0.270 OA 
ENDBRANCH  14  15
ENDBRANCH  13  14
ENDBRANCH  12  13
ENDBRANCH  11  12
ENDBRANCH  10  11
ENDBRANCH   8  10
ENDBRANCH   3   8
TORSDOF 7
ENDMDL
MODEL      305
REMARK 921   NORMALIZED FREE ENERGY PREDICTED BY IDOCK:   -3.77 KCAL/MOL
REMARK 922        TOTAL FREE ENERGY PREDICTED BY IDOCK:   -5.86 KCAL/MOL
REMARK 923 INTER-LIGAND FREE ENERGY PREDICTED BY IDOCK:   -5.29 KCAL/MOL
REMARK 924 INTRA-LIGAND FREE ENERGY PREDICTED BY IDOCK:   -0.57 KCAL/MOL
REMARK 927      BINDING AFFINITY PREDICTED BY RF-SCORE:    0.00 PKD
ROOT
HETATM    1  C   UNL     1     -10.811   7.844  69.450  1.00  0.00    -0.114 C  
HETATM    2  C   UNL     1     -10.566   8.975  70.454  1.00  0.00    -0.258 C  
HETATM    3  C   UNL     1     -11.237  10.309  70.039  1.00  0.00    -0.311 C  
HETATM    4  C   UNL     1     -11.011   8.529  71.853  1.00  0.00    -0.394 C  
HETATM    5  H1  UNL     1     -13.151  11.051  69.695  1.00  0.00     0.000 HD 
HETATM    6  N   UNL     1     -12.709  10.174  69.968  1.00  0.00    -0.542 NA 
HETATM    7  H2  UNL     1     -13.094   9.817  70.843  1.00  0.00     0.000 HD 
ENDROOT
BRANCH   3   8
HETATM    8  C   UNL     1     -10.701  10.853  68.695  1.00  0.00    -0.203 C  
HETATM    9  O   UNL     1      -9.771  10.368  68.060  1.00  0.00    -0.148 OA 
BRANCH   8  10
HETATM   10  O   UNL     1     -11.443  11.913  68.264  1.00  0.00    -0.262 OA 
BRANCH  10  11
HETATM   11  C   UNL     1     -11.763  11.896  66.858  1.00  0.00    -0.212 C  
BRANCH  11  12
HETATM   12  C   UNL     1     -12.043  13.312  66.354  1.00  0.00    -0.394 C  
BRANCH  12  13
HETATM   13  O   UNL     1     -11.172  13.568  65.248  1.00  0.00    -0.288 OA 
BRANCH  13  14
HETATM   14  C   UNL     1     -10.780  14.939  65.182  1.00  0.00    -0.411 C  
BRANCH  14  15
HETATM   15  N   UNL     1     -10.049  15.293  66.386  1.00  0.00    -0.262 NA 
HETATM   16  C   UNL     1     -10.274  16.422  67.141  1.00  0.00    -0.282 A  
HETATM   17  N   UNL     1      -9.491  16.475  68.203  1.00  0.00    -0.218 NA 
HETATM   18  C   UNL     1      -8.724  15.329  68.139  1.00  0.00    -0.162 A  
HETATM   19  C   UNL     1      -9.057  14.618  67.019  1.00  0.00    -0.238 A  
HETATM   20  N   UNL     1      -8.472  13.457  66.702  1.00  0.00     0.049 NA 
HETATM   21  C   UNL     1      -7.550  12.970  67.588  1.00  0.00    -0.160 C  
HETATM   22  N   UNL     1      -7.055  11.756  67.236  1.00  0.00    -0.130 NA 
HETATM   23  N   UNL     1      -7.155  13.556  68.680  1.00  0.00    -0.102 N  
HETATM   24  H2  UNL     1      -7.342  11.256  66.394  1.00  0.00     0.000 HD 
HETATM   25  H1  UNL     1      -6.368  11.393  67.897  1.00  0.00     0.000 HD 
HETATM   26  C   UNL     1      -7.693  14.800  69.045  1.00  0.00    -0.145 C  
HETATM   27  H   UNL     1      -6.453  13.110  69.273  1.00  0.00     0.000 HD 
HETATM   28  O   UNL     1      -7.329  15.402  70.048  1.00  0.00    -0.105 OA 
ENDBRANCH  14  15
ENDBRANCH  13  14
ENDBRANCH  12  13
ENDBRANCH  11  12
ENDBRANCH  10  11
ENDBRANCH   8  10
ENDBRANCH   3   8
TORSDOF 7
ENDMDL
MODEL      306
REMARK 921   NORMALIZED FREE ENERGY PREDICTED BY IDOCK:   -3.77 KCAL/MOL
REMARK 922        TOTAL FREE ENERGY PREDICTED BY IDOCK:   -5.85 KCAL/MOL
REMARK 923 INTER-LIGAND FREE ENERGY PREDICTED BY IDOCK:   -5.37 KCAL/MOL
REMARK 924 INTRA-LIGAND FREE ENERGY PREDICTED BY IDOCK:   -0.49 KCAL/MOL
REMARK 927      BINDING AFFINITY PREDICTED BY RF-SCORE:    0.00 PKD
ROOT
HETATM    1  C   UNL     1     -11.946  12.331  63.319  1.00  0.00    -0.499 C  
HETATM    2  C   UNL     1     -10.483  12.519  63.735  1.00  0.00    -0.451 C  
HETATM    3  C   UNL     1     -10.239  12.230  65.238  1.00  0.00    -0.278 C  
HETATM    4  C   UNL     1      -9.578  11.663  62.840  1.00  0.00    -0.223 C  
HETATM    5  H1  UNL     1     -10.393  10.634  66.564  1.00  0.00     0.000 HD 
HETATM    6  N   UNL     1     -10.554  10.824  65.576  1.00  0.00    -0.185 NA 
HETATM    7  H2  UNL     1     -10.041  10.173  64.981  1.00  0.00     0.000 HD 
ENDROOT
BRANCH   3   8
HETATM    8  C   UNL     1     -11.036  13.177  66.164  1.00  0.00    -0.283 C  
HETATM    9  O   UNL     1     -11.992  13.861  65.817  1.00  0.00    -0.360 OA 
BRANCH   8  10
HETATM   10  O   UNL     1     -10.579  13.106  67.448  1.00  0.00    -0.240 OA 
BRANCH  10  11
HETATM   11  C   UNL     1     -11.577  12.743  68.424  1.00  0.00    -0.325 C  
BRANCH  11  12
HETATM   12  C   UNL     1     -11.677  13.814  69.511  1.00  0.00    -0.323 C  
BRANCH  12  13
HETATM   13  O   UNL     1     -10.849  14.914  69.126  1.00  0.00    -0.233 OA 
BRANCH  13  14
HETATM   14  C   UNL     1     -11.256  16.134  69.747  1.00  0.00    -0.343 C  
BRANCH  14  15
HETATM   15  N   UNL     1     -10.602  17.253  69.093  1.00  0.00    -0.287 NA 
HETATM   16  C   UNL     1      -9.912  18.253  69.742  1.00  0.00     0.620 A  
HETATM   17  N   UNL     1      -9.388  19.124  68.899  1.00  0.00    -0.364 NA 
HETATM   18  C   UNL     1      -9.748  18.669  67.646  1.00  0.00    -0.303 A  
HETATM   19  C   UNL     1     -10.503  17.536  67.769  1.00  0.00    -0.381 A  
HETATM   20  N   UNL     1     -10.991  16.876  66.712  1.00  0.00     0.023 NA 
HETATM   21  C   UNL     1     -10.650  17.356  65.477  1.00  0.00    -0.108 C  
HETATM   22  N   UNL     1     -11.120  16.593  64.457  1.00  0.00    -1.105 NA 
HETATM   23  N   UNL     1      -9.942  18.420  65.237  1.00  0.00     0.907 N  
HETATM   24  H2  UNL     1     -11.672  15.747  64.597  1.00  0.00     0.000 HD 
HETATM   25  H1  UNL     1     -10.867  16.951  63.536  1.00  0.00     0.000 HD 
HETATM   26  C   UNL     1      -9.443  19.186  66.303  1.00  0.00    -0.326 C  
HETATM   27  H   UNL     1      -9.750  18.699  64.275  1.00  0.00     0.000 HD 
HETATM   28  O   UNL     1      -8.797  20.212  66.125  1.00  0.00    -0.300 OA 
ENDBRANCH  14  15
ENDBRANCH  13  14
ENDBRANCH  12  13
ENDBRANCH  11  12
ENDBRANCH  10  11
ENDBRANCH   8  10
ENDBRANCH   3   8
TORSDOF 7
ENDMDL
MODEL      307
REMARK 921   NORMALIZED FREE ENERGY PREDICTED BY IDOCK:   -3.75 KCAL/MOL
REMARK 922        TOTAL FREE ENERGY PREDICTED BY IDOCK:   -5.83 KCAL/MOL
REMARK 923 INTER-LIGAND FREE ENERGY PREDICTED BY IDOCK:   -5.01 KCAL/MOL
REMARK 924 INTRA-LIGAND FREE ENERGY PREDICTED BY IDOCK:   -0.82 KCAL/MOL
REMARK 927      BINDING AFFINITY PREDICTED BY RF-SCORE:    0.00 PKD
ROOT
HETATM    1  C   UNL     1      -5.511   8.851  68.964  1.00  0.00    -0.036 C  
HETATM    2  C   UNL     1      -6.894   9.487  68.786  1.00  0.00    -0.052 C  
HETATM    3  C   UNL     1      -7.367  10.270  70.036  1.00  0.00    -0.149 C  
HETATM    4  C   UNL     1      -6.898  10.370  67.531  1.00  0.00    -0.075 C  
HETATM    5  H1  UNL     1      -6.774  11.917  71.162  1.00  0.00     0.000 HD 
HETATM    6  N   UNL     1      -6.463  11.401  70.339  1.00  0.00    -0.500 NA 
HETATM    7  H2  UNL     1      -6.351  12.017  69.533  1.00  0.00     0.000 HD 
ENDROOT
BRANCH   3   8
HETATM    8  C   UNL     1      -7.507   9.369  71.286  1.00  0.00     0.151 C  
HETATM    9  O   UNL     1      -6.682   9.285  72.189  1.00  0.00    -0.305 OA 
BRANCH   8  10
HETATM   10  O   UNL     1      -8.707   8.721  71.291  1.00  0.00    -0.181 OA 
BRANCH  10  11
HETATM   11  C   UNL     1      -8.628   7.301  71.052  1.00  0.00    -0.128 C  
BRANCH  11  12
HETATM   12  C   UNL     1      -9.094   6.969  69.634  1.00  0.00    -0.144 C  
BRANCH  12  13
HETATM   13  O   UNL     1     -10.482   7.301  69.536  1.00  0.00    -0.218 OA 
BRANCH  13  14
HETATM   14  C   UNL     1     -10.753   8.143  68.415  1.00  0.00    -0.012 C  
BRANCH  14  15
HETATM   15  N   UNL     1     -10.952   9.507  68.871  1.00  0.00    -0.142 NA 
HETATM   16  C   UNL     1     -10.421  10.626  68.268  1.00  0.00    -0.187 A  
HETATM   17  N   UNL     1     -10.793  11.740  68.871  1.00  0.00    -0.223 NA 
HETATM   18  C   UNL     1     -11.604  11.331  69.910  1.00  0.00    -0.334 A  
HETATM   19  C   UNL     1     -11.686   9.966  69.917  1.00  0.00    -0.071 A  
HETATM   20  N   UNL     1     -12.409   9.292  70.818  1.00  0.00    -0.160 NA 
HETATM   21  C   UNL     1     -13.124  10.037  71.715  1.00  0.00    -0.457 C  
HETATM   22  N   UNL     1     -13.889   9.286  72.548  1.00  0.00    -0.679 NA 
HETATM   23  N   UNL     1     -13.124  11.335  71.804  1.00  0.00    -0.468 N  
HETATM   24  H2  UNL     1     -13.927   8.268  72.510  1.00  0.00     0.000 HD 
HETATM   25  H1  UNL     1     -14.422   9.842  73.217  1.00  0.00     0.000 HD 
HETATM   26  C   UNL     1     -12.347  12.099  70.920  1.00  0.00    -0.273 C  
HETATM   27  H   UNL     1     -13.690  11.797  72.517  1.00  0.00     0.000 HD 
HETATM   28  O   UNL     1     -12.293  13.322  70.986  1.00  0.00    -0.362 OA 
ENDBRANCH  14  15
ENDBRANCH  13  14
ENDBRANCH  12  13
ENDBRANCH  11  12
ENDBRANCH  10  11
ENDBRANCH   8  10
ENDBRANCH   3   8
TORSDOF 7
ENDMDL
MODEL      308
REMARK 921   NORMALIZED FREE ENERGY PREDICTED BY IDOCK:   -3.73 KCAL/MOL
REMARK 922        TOTAL FREE ENERGY PREDICTED BY IDOCK:   -5.80 KCAL/MOL
REMARK 923 INTER-LIGAND FREE ENERGY PREDICTED BY IDOCK:   -5.20 KCAL/MOL
REMARK 924 INTRA-LIGAND FREE ENERGY PREDICTED BY IDOCK:   -0.60 KCAL/MOL
REMARK 927      BINDING AFFINITY PREDICTED BY RF-SCORE:    0.00 PKD
ROOT
HETATM    1  C   UNL     1      -6.532   9.817  65.758  1.00  0.00    -0.083 C  
HETATM    2  C   UNL     1      -7.192  10.400  67.012  1.00  0.00    -0.093 C  
HETATM    3  C   UNL     1      -7.260   9.391  68.186  1.00  0.00    -0.078 C  
HETATM    4  C   UNL     1      -6.473  11.694  67.419  1.00  0.00    -0.103 C  
HETATM    5  H1  UNL     1      -5.952   8.315  69.395  1.00  0.00     0.000 HD 
HETATM    6  N   UNL     1      -5.908   8.979  68.623  1.00  0.00    -0.041 NA 
HETATM    7  H2  UNL     1      -5.328   9.786  68.857  1.00  0.00     0.000 HD 
ENDROOT
BRANCH   3   8
HETATM    8  C   UNL     1      -8.100   8.138  67.846  1.00  0.00    -0.128 C  
HETATM    9  O   UNL     1      -7.640   7.033  67.582  1.00  0.00    -0.105 OA 
BRANCH   8  10
HETATM   10  O   UNL     1      -9.435   8.402  67.945  1.00  0.00    -0.143 OA 
BRANCH  10  11
HETATM   11  C   UNL     1     -10.064   7.892  69.138  1.00  0.00    -0.197 C  
BRANCH  11  12
HETATM   12  C   UNL     1     -10.812   9.009  69.868  1.00  0.00    -0.218 C  
BRANCH  12  13
HETATM   13  O   UNL     1     -11.241   9.964  68.894  1.00  0.00    -0.180 OA 
BRANCH  13  14
HETATM   14  C   UNL     1     -12.279  10.808  69.392  1.00  0.00    -0.171 C  
BRANCH  14  15
HETATM   15  N   UNL     1     -11.862  12.195  69.301  1.00  0.00    -0.318 NA 
HETATM   16  C   UNL     1     -11.134  12.733  68.262  1.00  0.00    -0.257 A  
HETATM   17  N   UNL     1     -10.925  14.028  68.419  1.00  0.00    -0.243 NA 
HETATM   18  C   UNL     1     -11.547  14.348  69.608  1.00  0.00    -0.292 A  
HETATM   19  C   UNL     1     -12.104  13.224  70.152  1.00  0.00    -0.333 A  
HETATM   20  N   UNL     1     -12.775  13.239  71.309  1.00  0.00    -0.358 NA 
HETATM   21  C   UNL     1     -12.935  14.458  71.912  1.00  0.00    -0.349 C  
HETATM   22  N   UNL     1     -13.688  14.404  73.040  1.00  0.00    -0.538 NA 
HETATM   23  N   UNL     1     -12.453  15.589  71.490  1.00  0.00    -0.375 N  
HETATM   24  H2  UNL     1     -14.093  13.541  73.404  1.00  0.00     0.000 HD 
HETATM   25  H1  UNL     1     -13.807  15.311  73.490  1.00  0.00     0.000 HD 
HETATM   26  C   UNL     1     -11.696  15.634  70.309  1.00  0.00    -0.357 C  
HETATM   27  H   UNL     1     -12.624  16.445  72.019  1.00  0.00     0.000 HD 
HETATM   28  O   UNL     1     -11.197  16.672  69.889  1.00  0.00    -0.239 OA 
ENDBRANCH  14  15
ENDBRANCH  13  14
ENDBRANCH  12  13
ENDBRANCH  11  12
ENDBRANCH  10  11
ENDBRANCH   8  10
ENDBRANCH   3   8
TORSDOF 7
ENDMDL
MODEL      309
REMARK 921   NORMALIZED FREE ENERGY PREDICTED BY IDOCK:   -3.72 KCAL/MOL
REMARK 922        TOTAL FREE ENERGY PREDICTED BY IDOCK:   -5.79 KCAL/MOL
REMARK 923 INTER-LIGAND FREE ENERGY PREDICTED BY IDOCK:   -5.74 KCAL/MOL
REMARK 924 INTRA-LIGAND FREE ENERGY PREDICTED BY IDOCK:   -0.05 KCAL/MOL
REMARK 927      BINDING AFFINITY PREDICTED BY RF-SCORE:    0.00 PKD
ROOT
HETATM    1  C   UNL     1      -8.895   5.837  68.351  1.00  0.00    -0.109 C  
HETATM    2  C   UNL     1      -9.689   6.917  67.607  1.00  0.00    -0.151 C  
HETATM    3  C   UNL     1      -9.050   7.312  66.252  1.00  0.00    -0.149 C  
HETATM    4  C   UNL     1     -11.144   6.461  67.435  1.00  0.00    -0.412 C  
HETATM    5  H1  UNL     1      -8.583   6.423  64.429  1.00  0.00     0.000 HD 
HETATM    6  N   UNL     1      -9.003   6.163  65.320  1.00  0.00    -0.370 NA 
HETATM    7  H2  UNL     1      -9.927   5.748  65.192  1.00  0.00     0.000 HD 
ENDROOT
BRANCH   3   8
HETATM    8  C   UNL     1      -7.632   7.907  66.412  1.00  0.00    -0.091 C  
HETATM    9  O   UNL     1      -6.634   7.272  66.735  1.00  0.00    -0.052 OA 
BRANCH   8  10
HETATM   10  O   UNL     1      -7.616   9.231  66.082  1.00  0.00    -0.094 OA 
BRANCH  10  11
HETATM   11  C   UNL     1      -6.870  10.070  66.987  1.00  0.00    -0.087 C  
BRANCH  11  12
HETATM   12  C   UNL     1      -7.817  10.934  67.821  1.00  0.00    -0.109 C  
BRANCH  12  13
HETATM   13  O   UNL     1      -8.695  10.062  68.538  1.00  0.00    -0.118 OA 
BRANCH  13  14
HETATM   14  C   UNL     1      -9.905  10.717  68.921  1.00  0.00    -0.201 C  
BRANCH  14  15
HETATM   15  N   UNL     1     -10.523  11.314  67.752  1.00  0.00    -0.180 NA 
HETATM   16  C   UNL     1     -10.587  10.729  66.507  1.00  0.00    -0.218 A  
HETATM   17  N   UNL     1     -11.238  11.478  65.637  1.00  0.00    -0.208 NA 
HETATM   18  C   UNL     1     -11.620  12.599  66.346  1.00  0.00    -0.384 A  
HETATM   19  C   UNL     1     -11.167  12.503  67.633  1.00  0.00    -0.282 A  
HETATM   20  N   UNL     1     -11.394  13.451  68.550  1.00  0.00    -0.269 NA 
HETATM   21  C   UNL     1     -12.159  14.516  68.158  1.00  0.00    -0.197 C  
HETATM   22  N   UNL     1     -12.406  15.397  69.160  1.00  0.00    -0.609 NA 
HETATM   23  N   UNL     1     -12.641  14.714  66.966  1.00  0.00    -0.290 N  
HETATM   24  H2  UNL     1     -12.056  15.278  70.111  1.00  0.00     0.000 HD 
HETATM   25  H1  UNL     1     -12.976  16.190  68.868  1.00  0.00     0.000 HD 
HETATM   26  C   UNL     1     -12.398  13.782  65.946  1.00  0.00    -0.476 C  
HETATM   27  H   UNL     1     -13.197  15.548  66.774  1.00  0.00     0.000 HD 
HETATM   28  O   UNL     1     -12.807  13.942  64.801  1.00  0.00    -0.679 OA 
ENDBRANCH  14  15
ENDBRANCH  13  14
ENDBRANCH  12  13
ENDBRANCH  11  12
ENDBRANCH  10  11
ENDBRANCH   8  10
ENDBRANCH   3   8
TORSDOF 7
ENDMDL
MODEL      310
REMARK 921   NORMALIZED FREE ENERGY PREDICTED BY IDOCK:   -3.72 KCAL/MOL
REMARK 922        TOTAL FREE ENERGY PREDICTED BY IDOCK:   -5.78 KCAL/MOL
REMARK 923 INTER-LIGAND FREE ENERGY PREDICTED BY IDOCK:   -4.59 KCAL/MOL
REMARK 924 INTRA-LIGAND FREE ENERGY PREDICTED BY IDOCK:   -1.20 KCAL/MOL
REMARK 927      BINDING AFFINITY PREDICTED BY RF-SCORE:    0.00 PKD
ROOT
HETATM    1  C   UNL     1     -10.521   3.966  64.423  1.00  0.00    -0.238 C  
HETATM    2  C   UNL     1      -9.166   4.326  65.042  1.00  0.00    -0.155 C  
HETATM    3  C   UNL     1      -9.274   4.761  66.525  1.00  0.00    -0.133 C  
HETATM    4  C   UNL     1      -8.191   3.154  64.865  1.00  0.00    -0.090 C  
HETATM    5  H1  UNL     1      -9.873   3.955  68.348  1.00  0.00     0.000 HD 
HETATM    6  N   UNL     1      -9.802   3.669  67.372  1.00  0.00    -0.242 NA 
HETATM    7  H2  UNL     1      -9.249   2.817  67.271  1.00  0.00     0.000 HD 
ENDROOT
BRANCH   3   8
HETATM    8  C   UNL     1     -10.141   6.028  66.713  1.00  0.00    -0.187 C  
HETATM    9  O   UNL     1     -11.274   6.042  67.181  1.00  0.00    -0.236 OA 
BRANCH   8  10
HETATM   10  O   UNL     1      -9.454   7.150  66.351  1.00  0.00    -0.173 OA 
BRANCH  10  11
HETATM   11  C   UNL     1      -9.913   8.366  66.975  1.00  0.00    -0.253 C  
BRANCH  11  12
HETATM   12  C   UNL     1      -8.773   9.040  67.739  1.00  0.00    -0.125 C  
BRANCH  12  13
HETATM   13  O   UNL     1      -9.242   9.346  69.055  1.00  0.00    -0.140 OA 
BRANCH  13  14
HETATM   14  C   UNL     1     -10.656   9.178  69.171  1.00  0.00    -0.208 C  
BRANCH  14  15
HETATM   15  N   UNL     1     -10.955   8.403  70.362  1.00  0.00    -0.240 NA 
HETATM   16  C   UNL     1     -11.838   8.783  71.349  1.00  0.00    -0.308 A  
HETATM   17  N   UNL     1     -11.945   7.872  72.299  1.00  0.00    -0.335 NA 
HETATM   18  C   UNL     1     -11.097   6.853  71.913  1.00  0.00    -0.246 A  
HETATM   19  C   UNL     1     -10.483   7.188  70.739  1.00  0.00    -0.212 A  
HETATM   20  N   UNL     1      -9.606   6.383  70.129  1.00  0.00    -0.160 NA 
HETATM   21  C   UNL     1      -9.386   5.162  70.707  1.00  0.00    -0.160 C  
HETATM   22  N   UNL     1      -8.542   4.373  69.993  1.00  0.00    -0.068 NA 
HETATM   23  N   UNL     1      -9.911   4.736  71.818  1.00  0.00    -0.173 N  
HETATM   24  H2  UNL     1      -8.114   4.662  69.113  1.00  0.00     0.000 HD 
HETATM   25  H1  UNL     1      -8.379   3.464  70.424  1.00  0.00     0.000 HD 
HETATM   26  C   UNL     1     -10.800   5.553  72.534  1.00  0.00    -0.252 C  
HETATM   27  H   UNL     1      -9.675   3.807  72.170  1.00  0.00     0.000 HD 
HETATM   28  O   UNL     1     -11.295   5.205  73.600  1.00  0.00    -0.252 OA 
ENDBRANCH  14  15
ENDBRANCH  13  14
ENDBRANCH  12  13
ENDBRANCH  11  12
ENDBRANCH  10  11
ENDBRANCH   8  10
ENDBRANCH   3   8
TORSDOF 7
ENDMDL
MODEL      311
REMARK 921   NORMALIZED FREE ENERGY PREDICTED BY IDOCK:   -3.71 KCAL/MOL
REMARK 922        TOTAL FREE ENERGY PREDICTED BY IDOCK:   -5.77 KCAL/MOL
REMARK 923 INTER-LIGAND FREE ENERGY PREDICTED BY IDOCK:   -4.74 KCAL/MOL
REMARK 924 INTRA-LIGAND FREE ENERGY PREDICTED BY IDOCK:   -1.03 KCAL/MOL
REMARK 927      BINDING AFFINITY PREDICTED BY RF-SCORE:    0.00 PKD
ROOT
HETATM    1  C   UNL     1      -8.473   4.170  67.150  1.00  0.00    -0.100 C  
HETATM    2  C   UNL     1      -8.690   4.991  68.426  1.00  0.00    -0.107 C  
HETATM    3  C   UNL     1      -9.181   6.433  68.143  1.00  0.00    -0.111 C  
HETATM    4  C   UNL     1      -9.645   4.242  69.365  1.00  0.00    -0.267 C  
HETATM    5  H1  UNL     1     -10.818   7.380  67.275  1.00  0.00     0.000 HD 
HETATM    6  N   UNL     1     -10.495   6.432  67.461  1.00  0.00    -0.197 NA 
HETATM    7  H2  UNL     1     -11.188   5.897  67.986  1.00  0.00     0.000 HD 
ENDROOT
BRANCH   3   8
HETATM    8  C   UNL     1      -8.168   7.256  67.314  1.00  0.00    -0.115 C  
HETATM    9  O   UNL     1      -6.976   7.372  67.574  1.00  0.00    -0.074 OA 
BRANCH   8  10
HETATM   10  O   UNL     1      -8.759   7.788  66.206  1.00  0.00    -0.140 OA 
BRANCH  10  11
HETATM   11  C   UNL     1      -8.682   9.225  66.112  1.00  0.00    -0.149 C  
BRANCH  11  12
HETATM   12  C   UNL     1     -10.084   9.833  66.039  1.00  0.00    -0.251 C  
BRANCH  12  13
HETATM   13  O   UNL     1     -10.713   9.648  67.309  1.00  0.00    -0.263 OA 
BRANCH  13  14
HETATM   14  C   UNL     1     -10.052  10.375  68.345  1.00  0.00    -0.163 C  
BRANCH  14  15
HETATM   15  N   UNL     1     -10.585  11.723  68.408  1.00  0.00    -0.208 NA 
HETATM   16  C   UNL     1     -11.851  12.052  68.841  1.00  0.00    -0.299 A  
HETATM   17  N   UNL     1     -12.058  13.356  68.828  1.00  0.00    -0.310 NA 
HETATM   18  C   UNL     1     -10.876  13.901  68.370  1.00  0.00    -0.254 A  
HETATM   19  C   UNL     1      -9.984  12.900  68.100  1.00  0.00    -0.234 A  
HETATM   20  N   UNL     1      -8.750  13.139  67.641  1.00  0.00    -0.179 NA 
HETATM   21  C   UNL     1      -8.388  14.452  67.505  1.00  0.00    -0.187 C  
HETATM   22  N   UNL     1      -7.100  14.615  67.107  1.00  0.00    -0.357 NA 
HETATM   23  N   UNL     1      -9.147  15.483  67.731  1.00  0.00    -0.178 N  
HETATM   24  H2  UNL     1      -6.466  13.836  66.926  1.00  0.00     0.000 HD 
HETATM   25  H1  UNL     1      -6.830  15.593  67.005  1.00  0.00     0.000 HD 
HETATM   26  C   UNL     1     -10.469  15.300  68.165  1.00  0.00    -0.246 C  
HETATM   27  H   UNL     1      -8.782  16.426  67.592  1.00  0.00     0.000 HD 
HETATM   28  O   UNL     1     -11.231  16.241  68.362  1.00  0.00    -0.354 OA 
ENDBRANCH  14  15
ENDBRANCH  13  14
ENDBRANCH  12  13
ENDBRANCH  11  12
ENDBRANCH  10  11
ENDBRANCH   8  10
ENDBRANCH   3   8
TORSDOF 7
ENDMDL
MODEL      312
REMARK 921   NORMALIZED FREE ENERGY PREDICTED BY IDOCK:   -3.70 KCAL/MOL
REMARK 922        TOTAL FREE ENERGY PREDICTED BY IDOCK:   -5.75 KCAL/MOL
REMARK 923 INTER-LIGAND FREE ENERGY PREDICTED BY IDOCK:   -5.18 KCAL/MOL
REMARK 924 INTRA-LIGAND FREE ENERGY PREDICTED BY IDOCK:   -0.57 KCAL/MOL
REMARK 927      BINDING AFFINITY PREDICTED BY RF-SCORE:    0.00 PKD
ROOT
HETATM    1  C   UNL     1      -5.982   9.508  66.208  1.00  0.00    -0.059 C  
HETATM    2  C   UNL     1      -6.343   9.864  67.654  1.00  0.00    -0.059 C  
HETATM    3  C   UNL     1      -6.657   8.621  68.524  1.00  0.00    -0.059 C  
HETATM    4  C   UNL     1      -5.226  10.718  68.270  1.00  0.00    -0.036 C  
HETATM    5  H1  UNL     1      -5.689   6.909  69.205  1.00  0.00     0.000 HD 
HETATM    6  N   UNL     1      -5.483   7.727  68.633  1.00  0.00    -0.026 NA 
HETATM    7  H2  UNL     1      -4.663   8.228  68.978  1.00  0.00     0.000 HD 
ENDROOT
BRANCH   3   8
HETATM    8  C   UNL     1      -7.872   7.820  68.002  1.00  0.00    -0.124 C  
HETATM    9  O   UNL     1      -7.806   6.748  67.410  1.00  0.00    -0.107 OA 
BRANCH   8  10
HETATM   10  O   UNL     1      -9.044   8.428  68.345  1.00  0.00    -0.136 OA 
BRANCH  10  11
HETATM   11  C   UNL     1      -9.741   7.816  69.449  1.00  0.00    -0.169 C  
BRANCH  11  12
HETATM   12  C   UNL     1     -10.476   8.875  70.272  1.00  0.00    -0.210 C  
BRANCH  12  13
HETATM   13  O   UNL     1     -11.090   9.793  69.363  1.00  0.00    -0.227 OA 
BRANCH  13  14
HETATM   14  C   UNL     1     -12.140  10.537  69.982  1.00  0.00    -0.274 C  
BRANCH  14  15
HETATM   15  N   UNL     1     -12.016  11.939  69.625  1.00  0.00    -0.309 NA 
HETATM   16  C   UNL     1     -11.972  12.980  70.526  1.00  0.00    -0.212 A  
HETATM   17  N   UNL     1     -11.818  14.148  69.928  1.00  0.00    -0.305 NA 
HETATM   18  C   UNL     1     -11.755  13.855  68.581  1.00  0.00    -0.361 A  
HETATM   19  C   UNL     1     -11.892  12.506  68.399  1.00  0.00    -0.304 A  
HETATM   20  N   UNL     1     -11.868  11.937  67.189  1.00  0.00    -0.620 NA 
HETATM   21  C   UNL     1     -11.639  12.764  66.123  1.00  0.00    -0.379 C  
HETATM   22  N   UNL     1     -11.555  12.105  64.940  1.00  0.00    -0.331 NA 
HETATM   23  N   UNL     1     -11.495  14.056  66.174  1.00  0.00    -0.335 N  
HETATM   24  H2  UNL     1     -11.653  11.093  64.853  1.00  0.00     0.000 HD 
HETATM   25  H1  UNL     1     -11.384  12.722  64.146  1.00  0.00     0.000 HD 
HETATM   26  C   UNL     1     -11.560  14.721  67.409  1.00  0.00    -0.360 C  
HETATM   27  H   UNL     1     -11.334  14.585  65.317  1.00  0.00     0.000 HD 
HETATM   28  O   UNL     1     -11.460  15.940  67.502  1.00  0.00    -0.173 OA 
ENDBRANCH  14  15
ENDBRANCH  13  14
ENDBRANCH  12  13
ENDBRANCH  11  12
ENDBRANCH  10  11
ENDBRANCH   8  10
ENDBRANCH   3   8
TORSDOF 7
ENDMDL
MODEL      313
REMARK 921   NORMALIZED FREE ENERGY PREDICTED BY IDOCK:   -3.69 KCAL/MOL
REMARK 922        TOTAL FREE ENERGY PREDICTED BY IDOCK:   -5.75 KCAL/MOL
REMARK 923 INTER-LIGAND FREE ENERGY PREDICTED BY IDOCK:   -5.95 KCAL/MOL
REMARK 924 INTRA-LIGAND FREE ENERGY PREDICTED BY IDOCK:    0.21 KCAL/MOL
REMARK 927      BINDING AFFINITY PREDICTED BY RF-SCORE:    0.00 PKD
ROOT
HETATM    1  C   UNL     1      -7.388  16.915  67.411  1.00  0.00    -0.186 C  
HETATM    2  C   UNL     1      -8.803  16.329  67.368  1.00  0.00    -0.198 C  
HETATM    3  C   UNL     1      -8.935  15.004  68.160  1.00  0.00    -0.173 C  
HETATM    4  C   UNL     1      -9.811  17.380  67.852  1.00  0.00    -0.287 C  
HETATM    5  H1  UNL     1      -8.734  14.331  70.119  1.00  0.00     0.000 HD 
HETATM    6  N   UNL     1      -8.647  15.203  69.598  1.00  0.00    -0.436 NA 
HETATM    7  H2  UNL     1      -9.233  15.937  69.998  1.00  0.00     0.000 HD 
ENDROOT
BRANCH   3   8
HETATM    8  C   UNL     1      -8.028  13.883  67.601  1.00  0.00    -0.175 C  
HETATM    9  O   UNL     1      -6.865  14.031  67.242  1.00  0.00    -0.214 OA 
BRANCH   8  10
HETATM   10  O   UNL     1      -8.670  12.679  67.618  1.00  0.00    -0.159 OA 
BRANCH  10  11
HETATM   11  C   UNL     1      -7.942  11.598  67.002  1.00  0.00    -0.164 C  
BRANCH  11  12
HETATM   12  C   UNL     1      -8.594  10.254  67.333  1.00  0.00    -0.125 C  
BRANCH  12  13
HETATM   13  O   UNL     1      -9.352   9.838  66.194  1.00  0.00    -0.167 OA 
BRANCH  13  14
HETATM   14  C   UNL     1     -10.724   9.609  66.518  1.00  0.00     0.026 C  
BRANCH  14  15
HETATM   15  N   UNL     1     -11.159  10.584  67.501  1.00  0.00    -0.313 NA 
HETATM   16  C   UNL     1     -11.181  10.376  68.863  1.00  0.00    -0.235 A  
HETATM   17  N   UNL     1     -11.588  11.445  69.523  1.00  0.00    -0.300 NA 
HETATM   18  C   UNL     1     -11.838  12.392  68.550  1.00  0.00    -0.304 A  
HETATM   19  C   UNL     1     -11.591  11.857  67.316  1.00  0.00    -0.293 A  
HETATM   20  N   UNL     1     -11.748  12.553  66.185  1.00  0.00    -0.399 NA 
HETATM   21  C   UNL     1     -12.119  13.864  66.315  1.00  0.00    -0.451 C  
HETATM   22  N   UNL     1     -12.187  14.524  65.130  1.00  0.00    -0.373 NA 
HETATM   23  N   UNL     1     -12.381  14.478  67.431  1.00  0.00    -0.575 N  
HETATM   24  H2  UNL     1     -11.982  14.086  64.232  1.00  0.00     0.000 HD 
HETATM   25  H1  UNL     1     -12.463  15.500  65.227  1.00  0.00     0.000 HD 
HETATM   26  C   UNL     1     -12.283  13.790  68.651  1.00  0.00    -0.167 C  
HETATM   27  H   UNL     1     -12.657  15.460  67.420  1.00  0.00     0.000 HD 
HETATM   28  O   UNL     1     -12.549  14.319  69.724  1.00  0.00    -0.287 OA 
ENDBRANCH  14  15
ENDBRANCH  13  14
ENDBRANCH  12  13
ENDBRANCH  11  12
ENDBRANCH  10  11
ENDBRANCH   8  10
ENDBRANCH   3   8
TORSDOF 7
ENDMDL
MODEL      314
REMARK 921   NORMALIZED FREE ENERGY PREDICTED BY IDOCK:   -3.68 KCAL/MOL
REMARK 922        TOTAL FREE ENERGY PREDICTED BY IDOCK:   -5.72 KCAL/MOL
REMARK 923 INTER-LIGAND FREE ENERGY PREDICTED BY IDOCK:   -5.41 KCAL/MOL
REMARK 924 INTRA-LIGAND FREE ENERGY PREDICTED BY IDOCK:   -0.31 KCAL/MOL
REMARK 927      BINDING AFFINITY PREDICTED BY RF-SCORE:    0.00 PKD
ROOT
HETATM    1  C   UNL     1      -7.090   5.637  70.847  1.00  0.00    -0.070 C  
HETATM    2  C   UNL     1      -8.359   6.355  71.318  1.00  0.00    -0.123 C  
HETATM    3  C   UNL     1      -9.654   5.754  70.716  1.00  0.00    -0.171 C  
HETATM    4  C   UNL     1      -8.403   6.372  72.852  1.00  0.00    -0.117 C  
HETATM    5  H1  UNL     1     -10.690   3.949  70.731  1.00  0.00     0.000 HD 
HETATM    6  N   UNL     1      -9.838   4.344  71.127  1.00  0.00    -0.185 NA 
HETATM    7  H2  UNL     1      -9.817   4.246  72.142  1.00  0.00     0.000 HD 
ENDROOT
BRANCH   3   8
HETATM    8  C   UNL     1      -9.695   5.853  69.173  1.00  0.00    -0.140 C  
HETATM    9  O   UNL     1      -9.523   4.915  68.402  1.00  0.00    -0.125 OA 
BRANCH   8  10
HETATM   10  O   UNL     1     -10.018   7.117  68.772  1.00  0.00    -0.156 OA 
BRANCH  10  11
HETATM   11  C   UNL     1     -10.288   7.252  67.362  1.00  0.00    -0.260 C  
BRANCH  11  12
HETATM   12  C   UNL     1      -8.991   7.491  66.588  1.00  0.00    -0.153 C  
BRANCH  12  13
HETATM   13  O   UNL     1      -9.087   8.767  65.949  1.00  0.00    -0.193 OA 
BRANCH  13  14
HETATM   14  C   UNL     1     -10.116   9.576  66.519  1.00  0.00    -0.256 C  
BRANCH  14  15
HETATM   15  N   UNL     1      -9.692  10.964  66.530  1.00  0.00    -0.193 NA 
HETATM   16  C   UNL     1      -8.656  11.465  67.287  1.00  0.00    -0.146 A  
HETATM   17  N   UNL     1      -8.464  12.755  67.076  1.00  0.00    -0.182 NA 
HETATM   18  C   UNL     1      -9.413  13.108  66.137  1.00  0.00    -0.145 A  
HETATM   19  C   UNL     1     -10.171  12.015  65.819  1.00  0.00    -0.242 A  
HETATM   20  N   UNL     1     -11.169  12.065  64.929  1.00  0.00    -0.320 NA 
HETATM   21  C   UNL     1     -11.370  13.262  64.296  1.00  0.00    -0.393 C  
HETATM   22  N   UNL     1     -12.349  13.215  63.357  1.00  0.00    -0.782 NA 
HETATM   23  N   UNL     1     -10.715  14.363  64.516  1.00  0.00    -0.616 N  
HETATM   24  H2  UNL     1     -12.883  12.371  63.145  1.00  0.00     0.000 HD 
HETATM   25  H1  UNL     1     -12.498  14.106  62.885  1.00  0.00     0.000 HD 
HETATM   26  C   UNL     1      -9.688  14.391  65.473  1.00  0.00    -0.179 C  
HETATM   27  H   UNL     1     -10.947  15.208  63.993  1.00  0.00     0.000 HD 
HETATM   28  O   UNL     1      -9.064  15.414  65.735  1.00  0.00    -0.265 OA 
ENDBRANCH  14  15
ENDBRANCH  13  14
ENDBRANCH  12  13
ENDBRANCH  11  12
ENDBRANCH  10  11
ENDBRANCH   8  10
ENDBRANCH   3   8
TORSDOF 7
ENDMDL
MODEL      315
REMARK 921   NORMALIZED FREE ENERGY PREDICTED BY IDOCK:   -3.68 KCAL/MOL
REMARK 922        TOTAL FREE ENERGY PREDICTED BY IDOCK:   -5.72 KCAL/MOL
REMARK 923 INTER-LIGAND FREE ENERGY PREDICTED BY IDOCK:   -4.58 KCAL/MOL
REMARK 924 INTRA-LIGAND FREE ENERGY PREDICTED BY IDOCK:   -1.14 KCAL/MOL
REMARK 927      BINDING AFFINITY PREDICTED BY RF-SCORE:    0.00 PKD
ROOT
HETATM    1  C   UNL     1      -7.010   8.542  64.871  1.00  0.00    -0.072 C  
HETATM    2  C   UNL     1      -7.412   7.303  65.679  1.00  0.00    -0.085 C  
HETATM    3  C   UNL     1      -8.471   7.607  66.768  1.00  0.00    -0.127 C  
HETATM    4  C   UNL     1      -7.882   6.196  64.726  1.00  0.00    -0.109 C  
HETATM    5  H1  UNL     1     -10.430   8.300  66.889  1.00  0.00     0.000 HD 
HETATM    6  N   UNL     1      -9.733   8.100  66.172  1.00  0.00    -0.446 NA 
HETATM    7  H2  UNL     1     -10.093   7.452  65.471  1.00  0.00     0.000 HD 
ENDROOT
BRANCH   3   8
HETATM    8  C   UNL     1      -7.967   8.619  67.824  1.00  0.00    -0.107 C  
HETATM    9  O   UNL     1      -7.074   8.402  68.635  1.00  0.00    -0.069 OA 
BRANCH   8  10
HETATM   10  O   UNL     1      -8.601   9.819  67.694  1.00  0.00    -0.125 OA 
BRANCH  10  11
HETATM   11  C   UNL     1      -9.007  10.425  68.939  1.00  0.00    -0.169 C  
BRANCH  11  12
HETATM   12  C   UNL     1     -10.531  10.538  69.008  1.00  0.00    -0.217 C  
BRANCH  12  13
HETATM   13  O   UNL     1     -10.913  10.522  70.386  1.00  0.00    -0.287 OA 
BRANCH  13  14
HETATM   14  C   UNL     1     -11.984   9.610  70.635  1.00  0.00    -0.229 C  
BRANCH  14  15
HETATM   15  N   UNL     1     -11.453   8.380  71.193  1.00  0.00    -0.269 NA 
HETATM   16  C   UNL     1     -11.267   8.140  72.537  1.00  0.00    -0.391 A  
HETATM   17  N   UNL     1     -10.805   6.924  72.766  1.00  0.00    -0.255 NA 
HETATM   18  C   UNL     1     -10.688   6.346  71.518  1.00  0.00    -0.238 A  
HETATM   19  C   UNL     1     -11.070   7.243  70.560  1.00  0.00    -0.267 A  
HETATM   20  N   UNL     1     -11.060   6.951  69.254  1.00  0.00    -0.214 NA 
HETATM   21  C   UNL     1     -10.701   5.675  68.912  1.00  0.00    -0.209 C  
HETATM   22  N   UNL     1     -10.786   5.433  67.579  1.00  0.00    -0.169 NA 
HETATM   23  N   UNL     1     -10.320   4.741  69.732  1.00  0.00    -0.154 N  
HETATM   24  H2  UNL     1     -11.087   6.132  66.899  1.00  0.00     0.000 HD 
HETATM   25  H1  UNL     1     -10.518   4.483  67.323  1.00  0.00     0.000 HD 
HETATM   26  C   UNL     1     -10.260   4.998  71.111  1.00  0.00    -0.211 C  
HETATM   27  H   UNL     1     -10.065   3.820  69.373  1.00  0.00     0.000 HD 
HETATM   28  O   UNL     1      -9.879   4.158  71.918  1.00  0.00    -0.165 OA 
ENDBRANCH  14  15
ENDBRANCH  13  14
ENDBRANCH  12  13
ENDBRANCH  11  12
ENDBRANCH  10  11
ENDBRANCH   8  10
ENDBRANCH   3   8
TORSDOF 7
ENDMDL
MODEL      316
REMARK 921   NORMALIZED FREE ENERGY PREDICTED BY IDOCK:   -3.67 KCAL/MOL
REMARK 922        TOTAL FREE ENERGY PREDICTED BY IDOCK:   -5.72 KCAL/MOL
REMARK 923 INTER-LIGAND FREE ENERGY PREDICTED BY IDOCK:   -5.12 KCAL/MOL
REMARK 924 INTRA-LIGAND FREE ENERGY PREDICTED BY IDOCK:   -0.60 KCAL/MOL
REMARK 927      BINDING AFFINITY PREDICTED BY RF-SCORE:    0.00 PKD
ROOT
HETATM    1  C   UNL     1     -11.163  15.228  67.446  1.00  0.00    -0.311 C  
HETATM    2  C   UNL     1     -10.528  14.507  66.252  1.00  0.00    -0.303 C  
HETATM    3  C   UNL     1     -10.837  12.989  66.226  1.00  0.00    -0.278 C  
HETATM    4  C   UNL     1     -10.958  15.194  64.948  1.00  0.00    -0.434 C  
HETATM    5  H1  UNL     1     -12.492  11.736  66.081  1.00  0.00     0.000 HD 
HETATM    6  N   UNL     1     -12.289  12.734  66.098  1.00  0.00    -0.531 NA 
HETATM    7  H2  UNL     1     -12.681  13.209  65.285  1.00  0.00     0.000 HD 
ENDROOT
BRANCH   3   8
HETATM    8  C   UNL     1     -10.288  12.249  67.468  1.00  0.00    -0.203 C  
HETATM    9  O   UNL     1     -10.931  12.005  68.483  1.00  0.00    -0.214 OA 
BRANCH   8  10
HETATM   10  O   UNL     1      -9.003  11.837  67.265  1.00  0.00    -0.163 OA 
BRANCH  10  11
HETATM   11  C   UNL     1      -8.807  11.030  66.086  1.00  0.00    -0.190 C  
BRANCH  11  12
HETATM   12  C   UNL     1      -7.340  10.618  65.957  1.00  0.00    -0.132 C  
BRANCH  12  13
HETATM   13  O   UNL     1      -7.293   9.201  65.773  1.00  0.00    -0.088 OA 
BRANCH  13  14
HETATM   14  C   UNL     1      -8.527   8.685  65.271  1.00  0.00    -0.179 C  
BRANCH  14  15
HETATM   15  N   UNL     1      -8.641   7.280  65.617  1.00  0.00    -0.138 NA 
HETATM   16  C   UNL     1      -7.969   6.255  64.988  1.00  0.00    -0.120 A  
HETATM   17  N   UNL     1      -8.232   5.080  65.531  1.00  0.00    -0.114 NA 
HETATM   18  C   UNL     1      -9.110   5.352  66.561  1.00  0.00    -0.135 A  
HETATM   19  C   UNL     1      -9.370   6.694  66.600  1.00  0.00    -0.163 A  
HETATM   20  N   UNL     1     -10.190   7.243  67.503  1.00  0.00    -0.200 NA 
HETATM   21  C   UNL     1     -10.726   6.401  68.440  1.00  0.00    -0.286 C  
HETATM   22  N   UNL     1     -11.487   7.041  69.364  1.00  0.00    -0.536 NA 
HETATM   23  N   UNL     1     -10.552   5.114  68.501  1.00  0.00    -0.023 N  
HETATM   24  H2  UNL     1     -11.645   8.049  69.360  1.00  0.00     0.000 HD 
HETATM   25  H1  UNL     1     -11.886   6.415  70.062  1.00  0.00     0.000 HD 
HETATM   26  C   UNL     1      -9.742   4.469  67.553  1.00  0.00    -0.169 C  
HETATM   27  H   UNL     1     -11.004   4.573  69.239  1.00  0.00     0.000 HD 
HETATM   28  O   UNL     1      -9.574   3.254  67.554  1.00  0.00    -0.205 OA 
ENDBRANCH  14  15
ENDBRANCH  13  14
ENDBRANCH  12  13
ENDBRANCH  11  12
ENDBRANCH  10  11
ENDBRANCH   8  10
ENDBRANCH   3   8
TORSDOF 7
ENDMDL
MODEL      317
REMARK 921   NORMALIZED FREE ENERGY PREDICTED BY IDOCK:   -3.67 KCAL/MOL
REMARK 922        TOTAL FREE ENERGY PREDICTED BY IDOCK:   -5.71 KCAL/MOL
REMARK 923 INTER-LIGAND FREE ENERGY PREDICTED BY IDOCK:   -5.46 KCAL/MOL
REMARK 924 INTRA-LIGAND FREE ENERGY PREDICTED BY IDOCK:   -0.25 KCAL/MOL
REMARK 927      BINDING AFFINITY PREDICTED BY RF-SCORE:    0.00 PKD
ROOT
HETATM    1  C   UNL     1      -8.577  17.336  66.685  1.00  0.00    -0.286 C  
HETATM    2  C   UNL     1      -7.938  17.149  68.065  1.00  0.00    -0.212 C  
HETATM    3  C   UNL     1      -6.943  15.963  68.116  1.00  0.00    -0.116 C  
HETATM    4  C   UNL     1      -7.278  18.461  68.511  1.00  0.00    -0.298 C  
HETATM    5  H1  UNL     1      -5.150  15.391  67.228  1.00  0.00     0.000 HD 
HETATM    6  N   UNL     1      -5.805  16.172  67.194  1.00  0.00    -0.330 NA 
HETATM    7  H2  UNL     1      -5.337  17.060  67.375  1.00  0.00     0.000 HD 
ENDROOT
BRANCH   3   8
HETATM    8  C   UNL     1      -7.618  14.605  67.807  1.00  0.00    -0.160 C  
HETATM    9  O   UNL     1      -8.454  14.419  66.931  1.00  0.00    -0.202 OA 
BRANCH   8  10
HETATM   10  O   UNL     1      -7.110  13.615  68.597  1.00  0.00    -0.095 OA 
BRANCH  10  11
HETATM   11  C   UNL     1      -6.385  12.590  67.888  1.00  0.00    -0.103 C  
BRANCH  11  12
HETATM   12  C   UNL     1      -7.294  11.396  67.594  1.00  0.00    -0.102 C  
BRANCH  12  13
HETATM   13  O   UNL     1      -8.140  11.194  68.730  1.00  0.00    -0.140 OA 
BRANCH  13  14
HETATM   14  C   UNL     1      -9.432  10.716  68.357  1.00  0.00    -0.165 C  
BRANCH  14  15
HETATM   15  N   UNL     1     -10.437  11.317  69.215  1.00  0.00    -0.162 NA 
HETATM   16  C   UNL     1     -10.814  12.641  69.181  1.00  0.00    -0.077 A  
HETATM   17  N   UNL     1     -11.775  12.908  70.046  1.00  0.00    -0.261 NA 
HETATM   18  C   UNL     1     -12.039  11.704  70.669  1.00  0.00    -0.335 A  
HETATM   19  C   UNL     1     -11.209  10.739  70.170  1.00  0.00    -0.267 A  
HETATM   20  N   UNL     1     -11.245   9.469  70.591  1.00  0.00    -0.278 NA 
HETATM   21  C   UNL     1     -12.201   9.156  71.518  1.00  0.00    -0.349 C  
HETATM   22  N   UNL     1     -12.224   7.837  71.842  1.00  0.00    -0.296 NA 
HETATM   23  N   UNL     1     -13.042   9.986  72.062  1.00  0.00    -0.446 N  
HETATM   24  H2  UNL     1     -11.590   7.149  71.435  1.00  0.00     0.000 HD 
HETATM   25  H1  UNL     1     -12.936   7.603  72.532  1.00  0.00     0.000 HD 
HETATM   26  C   UNL     1     -13.023  11.342  71.701  1.00  0.00    -0.432 C  
HETATM   27  H   UNL     1     -13.714   9.651  72.753  1.00  0.00     0.000 HD 
HETATM   28  O   UNL     1     -13.775  12.166  72.209  1.00  0.00    -0.347 OA 
ENDBRANCH  14  15
ENDBRANCH  13  14
ENDBRANCH  12  13
ENDBRANCH  11  12
ENDBRANCH  10  11
ENDBRANCH   8  10
ENDBRANCH   3   8
TORSDOF 7
ENDMDL
MODEL      318
REMARK 921   NORMALIZED FREE ENERGY PREDICTED BY IDOCK:   -3.66 KCAL/MOL
REMARK 922        TOTAL FREE ENERGY PREDICTED BY IDOCK:   -5.70 KCAL/MOL
REMARK 923 INTER-LIGAND FREE ENERGY PREDICTED BY IDOCK:   -5.12 KCAL/MOL
REMARK 924 INTRA-LIGAND FREE ENERGY PREDICTED BY IDOCK:   -0.59 KCAL/MOL
REMARK 927      BINDING AFFINITY PREDICTED BY RF-SCORE:    0.00 PKD
ROOT
HETATM    1  C   UNL     1     -12.173  12.957  63.640  1.00  0.00    -0.581 C  
HETATM    2  C   UNL     1     -10.756  12.821  64.208  1.00  0.00    -0.419 C  
HETATM    3  C   UNL     1     -10.738  12.569  65.737  1.00  0.00    -0.269 C  
HETATM    4  C   UNL     1      -9.997  11.727  63.445  1.00  0.00    -0.446 C  
HETATM    5  H1  UNL     1     -11.400  11.132  67.088  1.00  0.00     0.000 HD 
HETATM    6  N   UNL     1     -11.412  11.298  66.083  1.00  0.00    -0.179 NA 
HETATM    7  H2  UNL     1     -11.012  10.512  65.569  1.00  0.00     0.000 HD 
ENDROOT
BRANCH   3   8
HETATM    8  C   UNL     1     -11.375  13.728  66.539  1.00  0.00    -0.325 C  
HETATM    9  O   UNL     1     -12.308  14.423  66.153  1.00  0.00    -0.401 OA 
BRANCH   8  10
HETATM   10  O   UNL     1     -10.805  13.839  67.774  1.00  0.00    -0.245 OA 
BRANCH  10  11
HETATM   11  C   UNL     1     -11.743  13.915  68.867  1.00  0.00    -0.337 C  
BRANCH  11  12
HETATM   12  C   UNL     1     -11.877  12.554  69.553  1.00  0.00    -0.310 C  
BRANCH  12  13
HETATM   13  O   UNL     1     -10.797  11.728  69.111  1.00  0.00    -0.224 OA 
BRANCH  13  14
HETATM   14  C   UNL     1     -10.706  10.518  69.863  1.00  0.00    -0.247 C  
BRANCH  14  15
HETATM   15  N   UNL     1      -9.887   9.560  69.142  1.00  0.00    -0.169 NA 
HETATM   16  C   UNL     1     -10.352   8.390  68.583  1.00  0.00    -0.197 A  
HETATM   17  N   UNL     1      -9.398   7.726  67.955  1.00  0.00    -0.141 NA 
HETATM   18  C   UNL     1      -8.265   8.498  68.109  1.00  0.00    -0.120 A  
HETATM   19  C   UNL     1      -8.564   9.609  68.848  1.00  0.00    -0.127 A  
HETATM   20  N   UNL     1      -7.652  10.539  69.152  1.00  0.00    -0.112 NA 
HETATM   21  C   UNL     1      -6.396  10.362  68.638  1.00  0.00    -0.051 C  
HETATM   22  N   UNL     1      -5.548  11.381  68.928  1.00  0.00    -0.043 NA 
HETATM   23  N   UNL     1      -5.997   9.350  67.925  1.00  0.00    -0.051 N  
HETATM   24  H2  UNL     1      -5.819  12.198  69.475  1.00  0.00     0.000 HD 
HETATM   25  H1  UNL     1      -4.612  11.249  68.544  1.00  0.00     0.000 HD 
HETATM   26  C   UNL     1      -6.892   8.314  67.613  1.00  0.00    -0.070 C  
HETATM   27  H   UNL     1      -5.033   9.308  67.594  1.00  0.00     0.000 HD 
HETATM   28  O   UNL     1      -6.552   7.327  66.970  1.00  0.00    -0.055 OA 
ENDBRANCH  14  15
ENDBRANCH  13  14
ENDBRANCH  12  13
ENDBRANCH  11  12
ENDBRANCH  10  11
ENDBRANCH   8  10
ENDBRANCH   3   8
TORSDOF 7
ENDMDL
MODEL      319
REMARK 921   NORMALIZED FREE ENERGY PREDICTED BY IDOCK:   -3.66 KCAL/MOL
REMARK 922        TOTAL FREE ENERGY PREDICTED BY IDOCK:   -5.70 KCAL/MOL
REMARK 923 INTER-LIGAND FREE ENERGY PREDICTED BY IDOCK:   -4.68 KCAL/MOL
REMARK 924 INTRA-LIGAND FREE ENERGY PREDICTED BY IDOCK:   -1.02 KCAL/MOL
REMARK 927      BINDING AFFINITY PREDICTED BY RF-SCORE:    0.00 PKD
ROOT
HETATM    1  C   UNL     1      -8.038   7.179  64.877  1.00  0.00    -0.107 C  
HETATM    2  C   UNL     1      -6.867   8.067  64.444  1.00  0.00    -0.064 C  
HETATM    3  C   UNL     1      -7.206   9.578  64.482  1.00  0.00    -0.110 C  
HETATM    4  C   UNL     1      -5.632   7.743  65.297  1.00  0.00    -0.037 C  
HETATM    5  H1  UNL     1      -7.760  11.019  65.877  1.00  0.00     0.000 HD 
HETATM    6  N   UNL     1      -7.537  10.025  65.853  1.00  0.00    -0.108 NA 
HETATM    7  H2  UNL     1      -6.792   9.792  66.511  1.00  0.00     0.000 HD 
ENDROOT
BRANCH   3   8
HETATM    8  C   UNL     1      -8.359   9.954  63.522  1.00  0.00    -0.166 C  
HETATM    9  O   UNL     1      -8.678   9.319  62.523  1.00  0.00    -0.213 OA 
BRANCH   8  10
HETATM   10  O   UNL     1      -9.027  11.057  63.967  1.00  0.00    -0.146 OA 
BRANCH  10  11
HETATM   11  C   UNL     1     -10.464  10.931  63.970  1.00  0.00    -0.309 C  
BRANCH  11  12
HETATM   12  C   UNL     1     -11.062  11.638  65.188  1.00  0.00    -0.237 C  
BRANCH  12  13
HETATM   13  O   UNL     1     -10.347  11.201  66.347  1.00  0.00    -0.236 OA 
BRANCH  13  14
HETATM   14  C   UNL     1     -11.220  10.682  67.350  1.00  0.00    -0.205 C  
BRANCH  14  15
HETATM   15  N   UNL     1     -10.495   9.738  68.181  1.00  0.00    -0.203 NA 
HETATM   16  C   UNL     1      -9.825  10.060  69.341  1.00  0.00    -0.224 A  
HETATM   17  N   UNL     1      -9.284   9.001  69.915  1.00  0.00    -0.163 NA 
HETATM   18  C   UNL     1      -9.619   7.942  69.096  1.00  0.00    -0.153 A  
HETATM   19  C   UNL     1     -10.344   8.398  68.030  1.00  0.00    -0.215 A  
HETATM   20  N   UNL     1     -10.805   7.586  67.071  1.00  0.00    -0.308 NA 
HETATM   21  C   UNL     1     -10.567   6.248  67.231  1.00  0.00    -0.302 C  
HETATM   22  N   UNL     1     -11.127   5.483  66.259  1.00  0.00    -0.770 NA 
HETATM   23  N   UNL     1      -9.892   5.701  68.199  1.00  0.00    -0.130 N  
HETATM   24  H2  UNL     1     -11.671   5.868  65.486  1.00  0.00     0.000 HD 
HETATM   25  H1  UNL     1     -10.950   4.486  66.378  1.00  0.00     0.000 HD 
HETATM   26  C   UNL     1      -9.339   6.502  69.210  1.00  0.00    -0.141 C  
HETATM   27  H   UNL     1      -9.765   4.688  68.223  1.00  0.00     0.000 HD 
HETATM   28  O   UNL     1      -8.671   6.033  70.125  1.00  0.00    -0.135 OA 
ENDBRANCH  14  15
ENDBRANCH  13  14
ENDBRANCH  12  13
ENDBRANCH  11  12
ENDBRANCH  10  11
ENDBRANCH   8  10
ENDBRANCH   3   8
TORSDOF 7
ENDMDL
MODEL      320
REMARK 921   NORMALIZED FREE ENERGY PREDICTED BY IDOCK:   -3.66 KCAL/MOL
REMARK 922        TOTAL FREE ENERGY PREDICTED BY IDOCK:   -5.70 KCAL/MOL
REMARK 923 INTER-LIGAND FREE ENERGY PREDICTED BY IDOCK:   -5.09 KCAL/MOL
REMARK 924 INTRA-LIGAND FREE ENERGY PREDICTED BY IDOCK:   -0.61 KCAL/MOL
REMARK 927      BINDING AFFINITY PREDICTED BY RF-SCORE:    0.00 PKD
ROOT
HETATM    1  C   UNL     1     -11.811  13.979  69.575  1.00  0.00    -0.378 C  
HETATM    2  C   UNL     1     -10.872  14.936  70.317  1.00  0.00    -0.137 C  
HETATM    3  C   UNL     1     -10.270  16.028  69.399  1.00  0.00    -0.270 C  
HETATM    4  C   UNL     1     -11.604  15.548  71.519  1.00  0.00    -0.487 C  
HETATM    5  H1  UNL     1     -10.927  17.614  68.223  1.00  0.00     0.000 HD 
HETATM    6  N   UNL     1     -11.324  16.895  68.827  1.00  0.00    -0.154 NA 
HETATM    7  H2  UNL     1     -11.909  17.302  69.557  1.00  0.00     0.000 HD 
ENDROOT
BRANCH   3   8
HETATM    8  C   UNL     1      -9.408  15.438  68.258  1.00  0.00    -0.193 C  
HETATM    9  O   UNL     1      -9.503  15.744  67.074  1.00  0.00    -0.215 OA 
BRANCH   8  10
HETATM   10  O   UNL     1      -8.472  14.575  68.747  1.00  0.00    -0.163 OA 
BRANCH  10  11
HETATM   11  C   UNL     1      -7.426  14.229  67.817  1.00  0.00    -0.164 C  
BRANCH  11  12
HETATM   12  C   UNL     1      -7.120  12.732  67.886  1.00  0.00    -0.118 C  
BRANCH  12  13
HETATM   13  O   UNL     1      -8.044  12.134  68.799  1.00  0.00    -0.084 OA 
BRANCH  13  14
HETATM   14  C   UNL     1      -8.907  11.197  68.153  1.00  0.00    -0.148 C  
BRANCH  14  15
HETATM   15  N   UNL     1      -9.789  10.594  69.135  1.00  0.00    -0.212 NA 
HETATM   16  C   UNL     1     -11.165  10.604  69.071  1.00  0.00    -0.265 A  
HETATM   17  N   UNL     1     -11.715   9.949  70.078  1.00  0.00    -0.176 NA 
HETATM   18  C   UNL     1     -10.652   9.489  70.828  1.00  0.00    -0.317 A  
HETATM   19  C   UNL     1      -9.478   9.899  70.258  1.00  0.00    -0.105 A  
HETATM   20  N   UNL     1      -8.282   9.594  70.774  1.00  0.00    -0.263 NA 
HETATM   21  C   UNL     1      -8.276   8.794  71.885  1.00  0.00    -0.046 C  
HETATM   22  N   UNL     1      -7.027   8.469  72.306  1.00  0.00    -0.170 NA 
HETATM   23  N   UNL     1      -9.324   8.346  72.511  1.00  0.00    -0.272 N  
HETATM   24  H2  UNL     1      -6.177   8.789  71.841  1.00  0.00     0.000 HD 
HETATM   25  H1  UNL     1      -7.023   7.872  73.133  1.00  0.00     0.000 HD 
HETATM   26  C   UNL     1     -10.610   8.671  72.050  1.00  0.00    -0.351 C  
HETATM   27  H   UNL     1      -9.212   7.759  73.338  1.00  0.00     0.000 HD 
HETATM   28  O   UNL     1     -11.626   8.297  72.625  1.00  0.00    -0.399 OA 
ENDBRANCH  14  15
ENDBRANCH  13  14
ENDBRANCH  12  13
ENDBRANCH  11  12
ENDBRANCH  10  11
ENDBRANCH   8  10
ENDBRANCH   3   8
TORSDOF 7
ENDMDL
MODEL      321
REMARK 921   NORMALIZED FREE ENERGY PREDICTED BY IDOCK:   -3.65 KCAL/MOL
REMARK 922        TOTAL FREE ENERGY PREDICTED BY IDOCK:   -5.69 KCAL/MOL
REMARK 923 INTER-LIGAND FREE ENERGY PREDICTED BY IDOCK:   -5.34 KCAL/MOL
REMARK 924 INTRA-LIGAND FREE ENERGY PREDICTED BY IDOCK:   -0.35 KCAL/MOL
REMARK 927      BINDING AFFINITY PREDICTED BY RF-SCORE:    0.00 PKD
ROOT
HETATM    1  C   UNL     1     -11.808  15.012  67.006  1.00  0.00    -0.124 C  
HETATM    2  C   UNL     1     -10.691  14.871  65.967  1.00  0.00    -0.326 C  
HETATM    3  C   UNL     1     -11.152  14.148  64.677  1.00  0.00    -0.371 C  
HETATM    4  C   UNL     1     -10.096  16.252  65.660  1.00  0.00    -0.340 C  
HETATM    5  H1  UNL     1     -12.525  14.426  63.138  1.00  0.00     0.000 HD 
HETATM    6  N   UNL     1     -12.222  14.902  63.987  1.00  0.00    -0.967 NA 
HETATM    7  H2  UNL     1     -11.938  15.863  63.796  1.00  0.00     0.000 HD 
ENDROOT
BRANCH   3   8
HETATM    8  C   UNL     1     -11.626  12.700  64.942  1.00  0.00    -0.334 C  
HETATM    9  O   UNL     1     -12.563  12.151  64.373  1.00  0.00    -0.398 OA 
BRANCH   8  10
HETATM   10  O   UNL     1     -10.821  12.080  65.852  1.00  0.00    -0.268 OA 
BRANCH  10  11
HETATM   11  C   UNL     1      -9.987  11.037  65.307  1.00  0.00    -0.266 C  
BRANCH  11  12
HETATM   12  C   UNL     1      -9.069  10.465  66.389  1.00  0.00    -0.157 C  
BRANCH  12  13
HETATM   13  O   UNL     1      -9.889   9.827  67.372  1.00  0.00    -0.160 OA 
BRANCH  13  14
HETATM   14  C   UNL     1      -9.362   8.560  67.768  1.00  0.00    -0.137 C  
BRANCH  14  15
HETATM   15  N   UNL     1      -9.240   8.517  69.214  1.00  0.00    -0.153 NA 
HETATM   16  C   UNL     1      -9.859   9.388  70.084  1.00  0.00    -0.232 A  
HETATM   17  N   UNL     1      -9.603   9.096  71.346  1.00  0.00    -0.280 NA 
HETATM   18  C   UNL     1      -8.786   7.984  71.297  1.00  0.00    -0.139 A  
HETATM   19  C   UNL     1      -8.554   7.644  69.993  1.00  0.00    -0.138 A  
HETATM   20  N   UNL     1      -7.792   6.600  69.646  1.00  0.00    -0.113 NA 
HETATM   21  C   UNL     1      -7.292   5.837  70.666  1.00  0.00    -0.084 C  
HETATM   22  N   UNL     1      -6.593   4.756  70.234  1.00  0.00    -0.034 NA 
HETATM   23  N   UNL     1      -7.445   6.062  71.937  1.00  0.00    -0.094 N  
HETATM   24  H2  UNL     1      -6.454   4.535  69.248  1.00  0.00     0.000 HD 
HETATM   25  H1  UNL     1      -6.220   4.187  70.994  1.00  0.00     0.000 HD 
HETATM   26  C   UNL     1      -8.191   7.171  72.369  1.00  0.00    -0.104 C  
HETATM   27  H   UNL     1      -7.024   5.434  72.621  1.00  0.00     0.000 HD 
HETATM   28  O   UNL     1      -8.338   7.440  73.556  1.00  0.00    -0.122 OA 
ENDBRANCH  14  15
ENDBRANCH  13  14
ENDBRANCH  12  13
ENDBRANCH  11  12
ENDBRANCH  10  11
ENDBRANCH   8  10
ENDBRANCH   3   8
TORSDOF 7
ENDMDL
MODEL      322
REMARK 921   NORMALIZED FREE ENERGY PREDICTED BY IDOCK:   -3.65 KCAL/MOL
REMARK 922        TOTAL FREE ENERGY PREDICTED BY IDOCK:   -5.69 KCAL/MOL
REMARK 923 INTER-LIGAND FREE ENERGY PREDICTED BY IDOCK:   -4.78 KCAL/MOL
REMARK 924 INTRA-LIGAND FREE ENERGY PREDICTED BY IDOCK:   -0.91 KCAL/MOL
REMARK 927      BINDING AFFINITY PREDICTED BY RF-SCORE:    0.00 PKD
ROOT
HETATM    1  C   UNL     1      -9.103   4.040  66.426  1.00  0.00    -0.140 C  
HETATM    2  C   UNL     1      -9.092   5.006  67.615  1.00  0.00    -0.121 C  
HETATM    3  C   UNL     1      -9.364   6.475  67.205  1.00  0.00    -0.126 C  
HETATM    4  C   UNL     1     -10.085   4.523  68.680  1.00  0.00    -0.024 C  
HETATM    5  H1  UNL     1     -10.885   7.595  66.331  1.00  0.00     0.000 HD 
HETATM    6  N   UNL     1     -10.706   6.628  66.601  1.00  0.00    -0.531 NA 
HETATM    7  H2  UNL     1     -11.436   6.271  67.218  1.00  0.00     0.000 HD 
ENDROOT
BRANCH   3   8
HETATM    8  C   UNL     1      -8.294   7.031  66.237  1.00  0.00    -0.129 C  
HETATM    9  O   UNL     1      -7.087   6.836  66.335  1.00  0.00    -0.067 OA 
BRANCH   8  10
HETATM   10  O   UNL     1      -8.872   7.719  65.211  1.00  0.00    -0.044 OA 
BRANCH  10  11
HETATM   11  C   UNL     1      -8.424   9.083  65.071  1.00  0.00    -0.174 C  
BRANCH  11  12
HETATM   12  C   UNL     1      -9.591   9.994  64.686  1.00  0.00    -0.297 C  
BRANCH  12  13
HETATM   13  O   UNL     1     -10.453  10.110  65.821  1.00  0.00    -0.183 OA 
BRANCH  13  14
HETATM   14  C   UNL     1      -9.854  10.865  66.874  1.00  0.00    -0.189 C  
BRANCH  14  15
HETATM   15  N   UNL     1     -10.644  10.720  68.084  1.00  0.00    -0.189 NA 
HETATM   16  C   UNL     1     -11.909  11.234  68.265  1.00  0.00    -0.229 A  
HETATM   17  N   UNL     1     -12.408  10.921  69.448  1.00  0.00    -0.358 NA 
HETATM   18  C   UNL     1     -11.427  10.168  70.061  1.00  0.00    -0.277 A  
HETATM   19  C   UNL     1     -10.345  10.061  69.231  1.00  0.00    -0.219 A  
HETATM   20  N   UNL     1      -9.243   9.383  69.569  1.00  0.00    -0.165 NA 
HETATM   21  C   UNL     1      -9.262   8.738  70.776  1.00  0.00    -0.198 C  
HETATM   22  N   UNL     1      -8.140   8.013  71.015  1.00  0.00    -0.093 NA 
HETATM   23  N   UNL     1     -10.229   8.768  71.644  1.00  0.00    -0.295 N  
HETATM   24  H2  UNL     1      -7.360   7.953  70.360  1.00  0.00     0.000 HD 
HETATM   25  H1  UNL     1      -8.154   7.532  71.914  1.00  0.00     0.000 HD 
HETATM   26  C   UNL     1     -11.394   9.504  71.373  1.00  0.00    -0.392 C  
HETATM   27  H   UNL     1     -10.142   8.256  72.523  1.00  0.00     0.000 HD 
HETATM   28  O   UNL     1     -12.319   9.585  72.174  1.00  0.00    -0.340 OA 
ENDBRANCH  14  15
ENDBRANCH  13  14
ENDBRANCH  12  13
ENDBRANCH  11  12
ENDBRANCH  10  11
ENDBRANCH   8  10
ENDBRANCH   3   8
TORSDOF 7
ENDMDL
MODEL      323
REMARK 921   NORMALIZED FREE ENERGY PREDICTED BY IDOCK:   -3.65 KCAL/MOL
REMARK 922        TOTAL FREE ENERGY PREDICTED BY IDOCK:   -5.68 KCAL/MOL
REMARK 923 INTER-LIGAND FREE ENERGY PREDICTED BY IDOCK:   -4.88 KCAL/MOL
REMARK 924 INTRA-LIGAND FREE ENERGY PREDICTED BY IDOCK:   -0.81 KCAL/MOL
REMARK 927      BINDING AFFINITY PREDICTED BY RF-SCORE:    0.00 PKD
ROOT
HETATM    1  C   UNL     1      -7.653  12.973  68.473  1.00  0.00    -0.121 C  
HETATM    2  C   UNL     1      -6.276  12.344  68.711  1.00  0.00    -0.073 C  
HETATM    3  C   UNL     1      -5.913  11.263  67.662  1.00  0.00    -0.051 C  
HETATM    4  C   UNL     1      -5.210  13.447  68.779  1.00  0.00    -0.072 C  
HETATM    5  H1  UNL     1      -5.602  11.124  65.609  1.00  0.00     0.000 HD 
HETATM    6  N   UNL     1      -5.841  11.836  66.299  1.00  0.00    -0.502 NA 
HETATM    7  H2  UNL     1      -5.197  12.626  66.260  1.00  0.00     0.000 HD 
ENDROOT
BRANCH   3   8
HETATM    8  C   UNL     1      -6.897  10.070  67.672  1.00  0.00    -0.084 C  
HETATM    9  O   UNL     1      -7.028   9.273  68.594  1.00  0.00    -0.061 OA 
BRANCH   8  10
HETATM   10  O   UNL     1      -7.658  10.054  66.539  1.00  0.00    -0.102 OA 
BRANCH  10  11
HETATM   11  C   UNL     1      -9.073   9.895  66.766  1.00  0.00    -0.143 C  
BRANCH  11  12
HETATM   12  C   UNL     1      -9.582   8.612  66.106  1.00  0.00    -0.235 C  
BRANCH  12  13
HETATM   13  O   UNL     1      -9.881   7.672  67.141  1.00  0.00    -0.168 OA 
BRANCH  13  14
HETATM   14  C   UNL     1     -10.611   8.270  68.213  1.00  0.00    -0.103 C  
BRANCH  14  15
HETATM   15  N   UNL     1     -10.211   7.662  69.469  1.00  0.00    -0.203 NA 
HETATM   16  C   UNL     1      -9.054   6.940  69.663  1.00  0.00    -0.143 A  
HETATM   17  N   UNL     1      -8.924   6.534  70.913  1.00  0.00    -0.147 NA 
HETATM   18  C   UNL     1     -10.042   7.015  71.563  1.00  0.00    -0.187 A  
HETATM   19  C   UNL     1     -10.833   7.689  70.675  1.00  0.00    -0.237 A  
HETATM   20  N   UNL     1     -11.987   8.266  71.031  1.00  0.00    -0.278 NA 
HETATM   21  C   UNL     1     -12.324   8.202  72.356  1.00  0.00    -0.294 C  
HETATM   22  N   UNL     1     -13.467   8.871  72.652  1.00  0.00    -0.721 NA 
HETATM   23  N   UNL     1     -11.653   7.591  73.287  1.00  0.00    -0.524 N  
HETATM   24  H2  UNL     1     -14.021   9.371  71.956  1.00  0.00     0.000 HD 
HETATM   25  H1  UNL     1     -13.718   8.824  73.639  1.00  0.00     0.000 HD 
HETATM   26  C   UNL     1     -10.459   6.924  72.970  1.00  0.00    -0.264 C  
HETATM   27  H   UNL     1     -11.995   7.597  74.249  1.00  0.00     0.000 HD 
HETATM   28  O   UNL     1      -9.810   6.309  73.809  1.00  0.00    -0.166 OA 
ENDBRANCH  14  15
ENDBRANCH  13  14
ENDBRANCH  12  13
ENDBRANCH  11  12
ENDBRANCH  10  11
ENDBRANCH   8  10
ENDBRANCH   3   8
TORSDOF 7
ENDMDL
MODEL      324
REMARK 921   NORMALIZED FREE ENERGY PREDICTED BY IDOCK:   -3.62 KCAL/MOL
REMARK 922        TOTAL FREE ENERGY PREDICTED BY IDOCK:   -5.65 KCAL/MOL
REMARK 923 INTER-LIGAND FREE ENERGY PREDICTED BY IDOCK:   -5.45 KCAL/MOL
REMARK 924 INTRA-LIGAND FREE ENERGY PREDICTED BY IDOCK:   -0.20 KCAL/MOL
REMARK 927      BINDING AFFINITY PREDICTED BY RF-SCORE:    0.00 PKD
ROOT
HETATM    1  C   UNL     1      -7.050  18.159  66.053  1.00  0.00    -0.318 C  
HETATM    2  C   UNL     1      -7.900  19.429  65.938  1.00  0.00    -0.230 C  
HETATM    3  C   UNL     1      -9.081  19.459  66.940  1.00  0.00    -0.319 C  
HETATM    4  C   UNL     1      -7.003  20.665  66.083  1.00  0.00    -0.212 C  
HETATM    5  H1  UNL     1      -9.380  19.466  68.999  1.00  0.00     0.000 HD 
HETATM    6  N   UNL     1      -8.603  19.445  68.340  1.00  0.00    -0.351 NA 
HETATM    7  H2  UNL     1      -7.943  20.204  68.517  1.00  0.00     0.000 HD 
ENDROOT
BRANCH   3   8
HETATM    8  C   UNL     1     -10.078  18.298  66.721  1.00  0.00    -0.364 C  
HETATM    9  O   UNL     1     -10.552  17.971  65.639  1.00  0.00    -0.599 OA 
BRANCH   8  10
HETATM   10  O   UNL     1     -10.317  17.631  67.887  1.00  0.00    -0.337 OA 
BRANCH  10  11
HETATM   11  C   UNL     1     -10.827  16.292  67.723  1.00  0.00    -0.315 C  
BRANCH  11  12
HETATM   12  C   UNL     1     -10.194  15.348  68.746  1.00  0.00    -0.217 C  
BRANCH  12  13
HETATM   13  O   UNL     1     -10.095  14.052  68.149  1.00  0.00    -0.231 OA 
BRANCH  13  14
HETATM   14  C   UNL     1      -8.929  13.926  67.334  1.00  0.00    -0.210 C  
BRANCH  14  15
HETATM   15  N   UNL     1      -8.237  12.694  67.666  1.00  0.00    -0.161 NA 
HETATM   16  C   UNL     1      -6.875  12.507  67.581  1.00  0.00    -0.136 A  
HETATM   17  N   UNL     1      -6.513  11.301  67.978  1.00  0.00    -0.056 NA 
HETATM   18  C   UNL     1      -7.688  10.676  68.342  1.00  0.00    -0.106 A  
HETATM   19  C   UNL     1      -8.741  11.524  68.135  1.00  0.00    -0.157 A  
HETATM   20  N   UNL     1     -10.006  11.182  68.403  1.00  0.00    -0.180 NA 
HETATM   21  C   UNL     1     -10.205   9.947  68.958  1.00  0.00    -0.200 C  
HETATM   22  N   UNL     1     -11.503   9.701  69.270  1.00  0.00    -0.449 NA 
HETATM   23  N   UNL     1      -9.286   9.059  69.200  1.00  0.00    -0.143 N  
HETATM   24  H2  UNL     1     -12.256  10.370  69.106  1.00  0.00     0.000 HD 
HETATM   25  H1  UNL     1     -11.651   8.781  69.683  1.00  0.00     0.000 HD 
HETATM   26  C   UNL     1      -7.944   9.337  68.894  1.00  0.00    -0.098 C  
HETATM   27  H   UNL     1      -9.540   8.161  69.611  1.00  0.00     0.000 HD 
HETATM   28  O   UNL     1      -7.048   8.520  69.076  1.00  0.00    -0.063 OA 
ENDBRANCH  14  15
ENDBRANCH  13  14
ENDBRANCH  12  13
ENDBRANCH  11  12
ENDBRANCH  10  11
ENDBRANCH   8  10
ENDBRANCH   3   8
TORSDOF 7
ENDMDL
MODEL      325
REMARK 921   NORMALIZED FREE ENERGY PREDICTED BY IDOCK:   -3.62 KCAL/MOL
REMARK 922        TOTAL FREE ENERGY PREDICTED BY IDOCK:   -5.64 KCAL/MOL
REMARK 923 INTER-LIGAND FREE ENERGY PREDICTED BY IDOCK:   -4.95 KCAL/MOL
REMARK 924 INTRA-LIGAND FREE ENERGY PREDICTED BY IDOCK:   -0.69 KCAL/MOL
REMARK 927      BINDING AFFINITY PREDICTED BY RF-SCORE:    0.00 PKD
ROOT
HETATM    1  C   UNL     1      -9.493  10.213  64.388  1.00  0.00    -0.368 C  
HETATM    2  C   UNL     1      -8.161   9.618  64.857  1.00  0.00    -0.133 C  
HETATM    3  C   UNL     1      -8.209   8.078  65.019  1.00  0.00    -0.141 C  
HETATM    4  C   UNL     1      -7.039  10.051  63.904  1.00  0.00    -0.126 C  
HETATM    5  H1  UNL     1      -8.527   6.394  63.838  1.00  0.00     0.000 HD 
HETATM    6  N   UNL     1      -8.495   7.407  63.731  1.00  0.00    -0.346 NA 
HETATM    7  H2  UNL     1      -7.831   7.686  63.009  1.00  0.00     0.000 HD 
ENDROOT
BRANCH   3   8
HETATM    8  C   UNL     1      -9.238   7.623  66.080  1.00  0.00    -0.116 C  
HETATM    9  O   UNL     1     -10.183   8.294  66.477  1.00  0.00    -0.288 OA 
BRANCH   8  10
HETATM   10  O   UNL     1      -8.999   6.339  66.475  1.00  0.00    -0.134 OA 
BRANCH  10  11
HETATM   11  C   UNL     1     -10.168   5.611  66.901  1.00  0.00    -0.227 C  
BRANCH  11  12
HETATM   12  C   UNL     1      -9.891   4.869  68.210  1.00  0.00    -0.136 C  
BRANCH  12  13
HETATM   13  O   UNL     1      -8.598   5.263  68.676  1.00  0.00    -0.089 OA 
BRANCH  13  14
HETATM   14  C   UNL     1      -8.648   5.820  69.990  1.00  0.00    -0.128 C  
BRANCH  14  15
HETATM   15  N   UNL     1      -9.039   7.216  69.909  1.00  0.00    -0.142 NA 
HETATM   16  C   UNL     1      -8.242   8.232  69.430  1.00  0.00    -0.117 A  
HETATM   17  N   UNL     1      -8.863   9.398  69.437  1.00  0.00    -0.149 NA 
HETATM   18  C   UNL     1     -10.120   9.129  69.939  1.00  0.00    -0.202 A  
HETATM   19  C   UNL     1     -10.219   7.799  70.241  1.00  0.00    -0.199 A  
HETATM   20  N   UNL     1     -11.332   7.255  70.746  1.00  0.00    -0.277 NA 
HETATM   21  C   UNL     1     -12.409   8.085  70.897  1.00  0.00    -0.060 C  
HETATM   22  N   UNL     1     -13.521   7.447  71.344  1.00  0.00    -0.518 NA 
HETATM   23  N   UNL     1     -12.433   9.361  70.645  1.00  0.00    -0.492 N  
HETATM   24  H2  UNL     1     -13.551   6.447  71.546  1.00  0.00     0.000 HD 
HETATM   25  H1  UNL     1     -14.323   8.065  71.456  1.00  0.00     0.000 HD 
HETATM   26  C   UNL     1     -11.283  10.003  70.161  1.00  0.00    -0.304 C  
HETATM   27  H   UNL     1     -13.289   9.895  70.799  1.00  0.00     0.000 HD 
HETATM   28  O   UNL     1     -11.250  11.208  69.938  1.00  0.00    -0.261 OA 
ENDBRANCH  14  15
ENDBRANCH  13  14
ENDBRANCH  12  13
ENDBRANCH  11  12
ENDBRANCH  10  11
ENDBRANCH   8  10
ENDBRANCH   3   8
TORSDOF 7
ENDMDL
MODEL      326
REMARK 921   NORMALIZED FREE ENERGY PREDICTED BY IDOCK:   -3.62 KCAL/MOL
REMARK 922        TOTAL FREE ENERGY PREDICTED BY IDOCK:   -5.64 KCAL/MOL
REMARK 923 INTER-LIGAND FREE ENERGY PREDICTED BY IDOCK:   -4.91 KCAL/MOL
REMARK 924 INTRA-LIGAND FREE ENERGY PREDICTED BY IDOCK:   -0.73 KCAL/MOL
REMARK 927      BINDING AFFINITY PREDICTED BY RF-SCORE:    0.00 PKD
ROOT
HETATM    1  C   UNL     1     -10.685   4.501  73.812  1.00  0.00    -0.348 C  
HETATM    2  C   UNL     1     -10.603   4.351  72.289  1.00  0.00    -0.141 C  
HETATM    3  C   UNL     1     -10.632   5.709  71.544  1.00  0.00    -0.244 C  
HETATM    4  C   UNL     1      -9.361   3.529  71.918  1.00  0.00    -0.191 C  
HETATM    5  H1  UNL     1      -9.490   7.444  71.418  1.00  0.00     0.000 HD 
HETATM    6  N   UNL     1      -9.471   6.551  71.908  1.00  0.00    -0.152 NA 
HETATM    7  H2  UNL     1      -8.590   6.059  71.754  1.00  0.00     0.000 HD 
ENDROOT
BRANCH   3   8
HETATM    8  C   UNL     1     -11.940   6.496  71.792  1.00  0.00    -0.344 C  
HETATM    9  O   UNL     1     -12.954   6.034  72.303  1.00  0.00     0.041 OA 
BRANCH   8  10
HETATM   10  O   UNL     1     -11.802   7.804  71.427  1.00  0.00    -0.283 OA 
BRANCH  10  11
HETATM   11  C   UNL     1     -12.234   8.756  72.420  1.00  0.00    -0.326 C  
BRANCH  11  12
HETATM   12  C   UNL     1     -13.490   9.490  71.948  1.00  0.00    -0.424 C  
BRANCH  12  13
HETATM   13  O   UNL     1     -13.141  10.269  70.800  1.00  0.00    -0.381 OA 
BRANCH  13  14
HETATM   14  C   UNL     1     -11.870  10.901  70.948  1.00  0.00    -0.258 C  
BRANCH  14  15
HETATM   15  N   UNL     1     -11.076  10.677  69.753  1.00  0.00    -0.277 NA 
HETATM   16  C   UNL     1     -11.401  11.131  68.494  1.00  0.00    -0.282 A  
HETATM   17  N   UNL     1     -10.483  10.816  67.598  1.00  0.00    -0.200 NA 
HETATM   18  C   UNL     1      -9.516  10.131  68.305  1.00  0.00    -0.140 A  
HETATM   19  C   UNL     1      -9.889  10.034  69.617  1.00  0.00    -0.235 A  
HETATM   20  N   UNL     1      -9.137   9.419  70.537  1.00  0.00    -0.253 NA 
HETATM   21  C   UNL     1      -7.929   8.930  70.118  1.00  0.00    -0.111 C  
HETATM   22  N   UNL     1      -7.193   8.387  71.121  1.00  0.00    -0.061 NA 
HETATM   23  N   UNL     1      -7.470   8.963  68.902  1.00  0.00    -0.081 N  
HETATM   24  H2  UNL     1      -7.508   8.346  72.090  1.00  0.00     0.000 HD 
HETATM   25  H1  UNL     1      -6.293   8.023  70.809  1.00  0.00     0.000 HD 
HETATM   26  C   UNL     1      -8.233   9.550  67.879  1.00  0.00    -0.114 C  
HETATM   27  H   UNL     1      -6.556   8.563  68.690  1.00  0.00     0.000 HD 
HETATM   28  O   UNL     1      -7.854   9.577  66.713  1.00  0.00    -0.100 OA 
ENDBRANCH  14  15
ENDBRANCH  13  14
ENDBRANCH  12  13
ENDBRANCH  11  12
ENDBRANCH  10  11
ENDBRANCH   8  10
ENDBRANCH   3   8
TORSDOF 7
ENDMDL
MODEL      327
REMARK 921   NORMALIZED FREE ENERGY PREDICTED BY IDOCK:   -3.60 KCAL/MOL
REMARK 922        TOTAL FREE ENERGY PREDICTED BY IDOCK:   -5.61 KCAL/MOL
REMARK 923 INTER-LIGAND FREE ENERGY PREDICTED BY IDOCK:   -5.01 KCAL/MOL
REMARK 924 INTRA-LIGAND FREE ENERGY PREDICTED BY IDOCK:   -0.60 KCAL/MOL
REMARK 927      BINDING AFFINITY PREDICTED BY RF-SCORE:    0.00 PKD
ROOT
HETATM    1  C   UNL     1      -7.041   5.814  71.486  1.00  0.00    -0.077 C  
HETATM    2  C   UNL     1      -6.885   7.317  71.233  1.00  0.00    -0.055 C  
HETATM    3  C   UNL     1      -8.159   8.126  71.584  1.00  0.00    -0.124 C  
HETATM    4  C   UNL     1      -5.656   7.842  71.988  1.00  0.00    -0.036 C  
HETATM    5  H1  UNL     1      -9.330   8.545  73.252  1.00  0.00     0.000 HD 
HETATM    6  N   UNL     1      -8.492   8.013  73.021  1.00  0.00    -0.174 NA 
HETATM    7  H2  UNL     1      -7.704   8.283  73.610  1.00  0.00     0.000 HD 
ENDROOT
BRANCH   3   8
HETATM    8  C   UNL     1      -9.382   7.710  70.734  1.00  0.00    -0.162 C  
HETATM    9  O   UNL     1     -10.485   7.420  71.182  1.00  0.00    -0.209 OA 
BRANCH   8  10
HETATM   10  O   UNL     1      -9.095   7.770  69.401  1.00  0.00    -0.146 OA 
BRANCH  10  11
HETATM   11  C   UNL     1     -10.228   7.576  68.531  1.00  0.00    -0.197 C  
BRANCH  11  12
HETATM   12  C   UNL     1     -10.511   8.847  67.728  1.00  0.00    -0.239 C  
BRANCH  12  13
HETATM   13  O   UNL     1     -10.181   8.588  66.361  1.00  0.00    -0.273 OA 
BRANCH  13  14
HETATM   14  C   UNL     1      -9.130   9.434  65.894  1.00  0.00    -0.195 C  
BRANCH  14  15
HETATM   15  N   UNL     1      -9.687  10.694  65.437  1.00  0.00    -0.232 NA 
HETATM   16  C   UNL     1     -10.439  10.855  64.294  1.00  0.00    -0.335 A  
HETATM   17  N   UNL     1     -10.849  12.101  64.140  1.00  0.00    -0.327 NA 
HETATM   18  C   UNL     1     -10.346  12.780  65.231  1.00  0.00    -0.296 A  
HETATM   19  C   UNL     1      -9.624  11.921  66.012  1.00  0.00    -0.235 A  
HETATM   20  N   UNL     1      -9.021  12.309  67.142  1.00  0.00    -0.185 NA 
HETATM   21  C   UNL     1      -9.205  13.611  67.522  1.00  0.00    -0.218 C  
HETATM   22  N   UNL     1      -8.625  13.909  68.713  1.00  0.00    -0.348 NA 
HETATM   23  N   UNL     1      -9.867  14.515  66.863  1.00  0.00    -0.255 N  
HETATM   24  H2  UNL     1      -8.103  13.231  69.269  1.00  0.00     0.000 HD 
HETATM   25  H1  UNL     1      -8.762  14.879  68.997  1.00  0.00     0.000 HD 
HETATM   26  C   UNL     1     -10.482  14.185  65.645  1.00  0.00    -0.321 C  
HETATM   27  H   UNL     1      -9.940  15.463  67.231  1.00  0.00     0.000 HD 
HETATM   28  O   UNL     1     -11.091  15.012  64.974  1.00  0.00    -0.368 OA 
ENDBRANCH  14  15
ENDBRANCH  13  14
ENDBRANCH  12  13
ENDBRANCH  11  12
ENDBRANCH  10  11
ENDBRANCH   8  10
ENDBRANCH   3   8
TORSDOF 7
ENDMDL
MODEL      328
REMARK 921   NORMALIZED FREE ENERGY PREDICTED BY IDOCK:   -3.58 KCAL/MOL
REMARK 922        TOTAL FREE ENERGY PREDICTED BY IDOCK:   -5.59 KCAL/MOL
REMARK 923 INTER-LIGAND FREE ENERGY PREDICTED BY IDOCK:   -4.95 KCAL/MOL
REMARK 924 INTRA-LIGAND FREE ENERGY PREDICTED BY IDOCK:   -0.64 KCAL/MOL
REMARK 927      BINDING AFFINITY PREDICTED BY RF-SCORE:    0.00 PKD
ROOT
HETATM    1  C   UNL     1     -10.854  15.977  69.487  1.00  0.00    -0.317 C  
HETATM    2  C   UNL     1      -9.564  15.334  68.968  1.00  0.00    -0.237 C  
HETATM    3  C   UNL     1      -9.687  14.822  67.510  1.00  0.00    -0.213 C  
HETATM    4  C   UNL     1      -8.398  16.318  69.125  1.00  0.00    -0.211 C  
HETATM    5  H1  UNL     1     -10.048  15.592  65.611  1.00  0.00     0.000 HD 
HETATM    6  N   UNL     1      -9.968  15.929  66.570  1.00  0.00    -0.258 NA 
HETATM    7  H2  UNL     1      -9.271  16.671  66.648  1.00  0.00     0.000 HD 
ENDROOT
BRANCH   3   8
HETATM    8  C   UNL     1     -10.765  13.724  67.354  1.00  0.00    -0.275 C  
HETATM    9  O   UNL     1     -11.767  13.816  66.654  1.00  0.00    -0.353 OA 
BRANCH   8  10
HETATM   10  O   UNL     1     -10.424  12.600  68.048  1.00  0.00    -0.212 OA 
BRANCH  10  11
HETATM   11  C   UNL     1      -9.206  11.965  67.607  1.00  0.00    -0.183 C  
BRANCH  11  12
HETATM   12  C   UNL     1      -8.522  11.250  68.773  1.00  0.00    -0.112 C  
BRANCH  12  13
HETATM   13  O   UNL     1      -9.530  10.571  69.528  1.00  0.00    -0.179 OA 
BRANCH  13  14
HETATM   14  C   UNL     1      -9.056   9.335  70.064  1.00  0.00    -0.210 C  
BRANCH  14  15
HETATM   15  N   UNL     1      -9.674   8.230  69.354  1.00  0.00    -0.175 NA 
HETATM   16  C   UNL     1     -10.694   7.447  69.848  1.00  0.00    -0.243 A  
HETATM   17  N   UNL     1     -11.090   6.538  68.976  1.00  0.00    -0.315 NA 
HETATM   18  C   UNL     1     -10.297   6.739  67.864  1.00  0.00    -0.194 A  
HETATM   19  C   UNL     1      -9.423   7.763  68.105  1.00  0.00    -0.146 A  
HETATM   20  N   UNL     1      -8.532   8.178  67.197  1.00  0.00    -0.123 NA 
HETATM   21  C   UNL     1      -8.568   7.565  65.974  1.00  0.00    -0.151 C  
HETATM   22  N   UNL     1      -7.686   8.089  65.085  1.00  0.00    -0.098 NA 
HETATM   23  N   UNL     1      -9.351   6.585  65.632  1.00  0.00    -0.368 N  
HETATM   24  H2  UNL     1      -7.059   8.863  65.306  1.00  0.00     0.000 HD 
HETATM   25  H1  UNL     1      -7.713   7.633  64.174  1.00  0.00     0.000 HD 
HETATM   26  C   UNL     1     -10.274   6.069  66.555  1.00  0.00    -0.143 C  
HETATM   27  H   UNL     1      -9.294   6.191  64.693  1.00  0.00     0.000 HD 
HETATM   28  O   UNL     1     -11.011   5.127  66.287  1.00  0.00    -0.236 OA 
ENDBRANCH  14  15
ENDBRANCH  13  14
ENDBRANCH  12  13
ENDBRANCH  11  12
ENDBRANCH  10  11
ENDBRANCH   8  10
ENDBRANCH   3   8
TORSDOF 7
ENDMDL
MODEL      329
REMARK 921   NORMALIZED FREE ENERGY PREDICTED BY IDOCK:   -3.58 KCAL/MOL
REMARK 922        TOTAL FREE ENERGY PREDICTED BY IDOCK:   -5.59 KCAL/MOL
REMARK 923 INTER-LIGAND FREE ENERGY PREDICTED BY IDOCK:   -5.01 KCAL/MOL
REMARK 924 INTRA-LIGAND FREE ENERGY PREDICTED BY IDOCK:   -0.57 KCAL/MOL
REMARK 927      BINDING AFFINITY PREDICTED BY RF-SCORE:    0.00 PKD
ROOT
HETATM    1  C   UNL     1      -6.901   5.491  71.457  1.00  0.00    -0.062 C  
HETATM    2  C   UNL     1      -6.996   5.932  72.922  1.00  0.00    -0.076 C  
HETATM    3  C   UNL     1      -8.312   5.482  73.605  1.00  0.00    -0.112 C  
HETATM    4  C   UNL     1      -5.763   5.438  73.689  1.00  0.00    -0.024 C  
HETATM    5  H1  UNL     1      -9.291   3.711  74.091  1.00  0.00     0.000 HD 
HETATM    6  N   UNL     1      -8.426   4.007  73.641  1.00  0.00    -0.092 NA 
HETATM    7  H2  UNL     1      -7.610   3.580  74.083  1.00  0.00     0.000 HD 
ENDROOT
BRANCH   3   8
HETATM    8  C   UNL     1      -9.568   6.082  72.932  1.00  0.00    -0.154 C  
HETATM    9  O   UNL     1     -10.370   5.453  72.251  1.00  0.00    -0.195 OA 
BRANCH   8  10
HETATM   10  O   UNL     1      -9.711   7.401  73.250  1.00  0.00    -0.200 OA 
BRANCH  10  11
HETATM   11  C   UNL     1     -10.147   8.240  72.161  1.00  0.00    -0.274 C  
BRANCH  11  12
HETATM   12  C   UNL     1      -8.998   8.489  71.183  1.00  0.00    -0.186 C  
BRANCH  12  13
HETATM   13  O   UNL     1      -9.343   9.617  70.374  1.00  0.00    -0.251 OA 
BRANCH  13  14
HETATM   14  C   UNL     1     -10.633   9.475  69.779  1.00  0.00    -0.236 C  
BRANCH  14  15
HETATM   15  N   UNL     1     -11.094  10.768  69.307  1.00  0.00    -0.236 NA 
HETATM   16  C   UNL     1     -11.934  11.608  70.004  1.00  0.00    -0.351 A  
HETATM   17  N   UNL     1     -12.161  12.736  69.355  1.00  0.00    -0.241 NA 
HETATM   18  C   UNL     1     -11.434  12.627  68.186  1.00  0.00    -0.313 A  
HETATM   19  C   UNL     1     -10.797  11.418  68.154  1.00  0.00    -0.213 A  
HETATM   20  N   UNL     1     -10.017  11.041  67.134  1.00  0.00    -0.184 NA 
HETATM   21  C   UNL     1      -9.832  11.955  66.131  1.00  0.00    -0.232 C  
HETATM   22  N   UNL     1      -8.972  11.530  65.170  1.00  0.00    -0.402 NA 
HETATM   23  N   UNL     1     -10.383  13.130  66.055  1.00  0.00    -0.282 N  
HETATM   24  H2  UNL     1      -8.510  10.621  65.193  1.00  0.00     0.000 HD 
HETATM   25  H1  UNL     1      -8.834  12.210  64.424  1.00  0.00     0.000 HD 
HETATM   26  C   UNL     1     -11.252  13.565  67.068  1.00  0.00    -0.312 C  
HETATM   27  H   UNL     1     -10.185  13.735  65.258  1.00  0.00     0.000 HD 
HETATM   28  O   UNL     1     -11.818  14.652  67.023  1.00  0.00    -0.387 OA 
ENDBRANCH  14  15
ENDBRANCH  13  14
ENDBRANCH  12  13
ENDBRANCH  11  12
ENDBRANCH  10  11
ENDBRANCH   8  10
ENDBRANCH   3   8
TORSDOF 7
ENDMDL
MODEL      330
REMARK 921   NORMALIZED FREE ENERGY PREDICTED BY IDOCK:   -3.55 KCAL/MOL
REMARK 922        TOTAL FREE ENERGY PREDICTED BY IDOCK:   -5.54 KCAL/MOL
REMARK 923 INTER-LIGAND FREE ENERGY PREDICTED BY IDOCK:   -5.42 KCAL/MOL
REMARK 924 INTRA-LIGAND FREE ENERGY PREDICTED BY IDOCK:   -0.11 KCAL/MOL
REMARK 927      BINDING AFFINITY PREDICTED BY RF-SCORE:    0.00 PKD
ROOT
HETATM    1  C   UNL     1      -9.647   4.216  71.097  1.00  0.00    -0.249 C  
HETATM    2  C   UNL     1      -9.137   4.730  72.448  1.00  0.00    -0.141 C  
HETATM    3  C   UNL     1     -10.037   5.836  73.054  1.00  0.00    -0.179 C  
HETATM    4  C   UNL     1      -8.961   3.551  73.415  1.00  0.00    -0.098 C  
HETATM    5  H1  UNL     1     -11.994   6.061  73.726  1.00  0.00     0.000 HD 
HETATM    6  N   UNL     1     -11.402   5.333  73.327  1.00  0.00    -0.471 NA 
HETATM    7  H2  UNL     1     -11.382   4.502  73.918  1.00  0.00     0.000 HD 
ENDROOT
BRANCH   3   8
HETATM    8  C   UNL     1     -10.118   7.095  72.159  1.00  0.00    -0.180 C  
HETATM    9  O   UNL     1      -9.163   7.793  71.839  1.00  0.00    -0.133 OA 
BRANCH   8  10
HETATM   10  O   UNL     1     -11.390   7.296  71.710  1.00  0.00    -0.243 OA 
BRANCH  10  11
HETATM   11  C   UNL     1     -11.644   8.615  71.185  1.00  0.00    -0.281 C  
BRANCH  11  12
HETATM   12  C   UNL     1     -11.004   8.774  69.805  1.00  0.00    -0.140 C  
BRANCH  12  13
HETATM   13  O   UNL     1     -11.176  10.133  69.392  1.00  0.00    -0.230 OA 
BRANCH  13  14
HETATM   14  C   UNL     1      -9.934  10.749  69.047  1.00  0.00    -0.199 C  
BRANCH  14  15
HETATM   15  N   UNL     1      -9.732  10.661  67.613  1.00  0.00    -0.164 NA 
HETATM   16  C   UNL     1      -8.732   9.940  67.000  1.00  0.00    -0.131 A  
HETATM   17  N   UNL     1      -8.805  10.007  65.683  1.00  0.00    -0.153 NA 
HETATM   18  C   UNL     1      -9.903  10.803  65.426  1.00  0.00    -0.262 A  
HETATM   19  C   UNL     1     -10.457  11.213  66.607  1.00  0.00    -0.250 A  
HETATM   20  N   UNL     1     -11.539  11.998  66.661  1.00  0.00    -0.513 NA 
HETATM   21  C   UNL     1     -12.116  12.334  65.466  1.00  0.00    -0.257 C  
HETATM   22  N   UNL     1     -13.250  13.068  65.605  1.00  0.00    -0.116 NA 
HETATM   23  N   UNL     1     -11.681  12.004  64.286  1.00  0.00    -0.353 N  
HETATM   24  H2  UNL     1     -13.633  13.343  66.509  1.00  0.00     0.000 HD 
HETATM   25  H1  UNL     1     -13.680  13.318  64.715  1.00  0.00     0.000 HD 
HETATM   26  C   UNL     1     -10.521  11.223  64.159  1.00  0.00    -0.369 C  
HETATM   27  H   UNL     1     -12.182  12.312  63.453  1.00  0.00     0.000 HD 
HETATM   28  O   UNL     1     -10.056  10.913  63.067  1.00  0.00    -0.310 OA 
ENDBRANCH  14  15
ENDBRANCH  13  14
ENDBRANCH  12  13
ENDBRANCH  11  12
ENDBRANCH  10  11
ENDBRANCH   8  10
ENDBRANCH   3   8
TORSDOF 7
ENDMDL
MODEL      331
REMARK 921   NORMALIZED FREE ENERGY PREDICTED BY IDOCK:   -3.54 KCAL/MOL
REMARK 922        TOTAL FREE ENERGY PREDICTED BY IDOCK:   -5.53 KCAL/MOL
REMARK 923 INTER-LIGAND FREE ENERGY PREDICTED BY IDOCK:   -5.10 KCAL/MOL
REMARK 924 INTRA-LIGAND FREE ENERGY PREDICTED BY IDOCK:   -0.43 KCAL/MOL
REMARK 927      BINDING AFFINITY PREDICTED BY RF-SCORE:    0.00 PKD
ROOT
HETATM    1  C   UNL     1      -9.053   3.270  67.532  1.00  0.00    -0.205 C  
HETATM    2  C   UNL     1      -8.331   3.492  68.866  1.00  0.00    -0.087 C  
HETATM    3  C   UNL     1      -8.561   4.908  69.451  1.00  0.00    -0.087 C  
HETATM    4  C   UNL     1      -8.736   2.396  69.860  1.00  0.00    -0.121 C  
HETATM    5  H1  UNL     1     -10.143   6.076  70.133  1.00  0.00     0.000 HD 
HETATM    6  N   UNL     1      -9.991   5.144  69.747  1.00  0.00    -0.221 NA 
HETATM    7  H2  UNL     1     -10.371   4.421  70.359  1.00  0.00     0.000 HD 
ENDROOT
BRANCH   3   8
HETATM    8  C   UNL     1      -8.031   6.028  68.526  1.00  0.00    -0.107 C  
HETATM    9  O   UNL     1      -6.867   6.147  68.160  1.00  0.00    -0.062 OA 
BRANCH   8  10
HETATM   10  O   UNL     1      -9.046   6.840  68.109  1.00  0.00    -0.126 OA 
BRANCH  10  11
HETATM   11  C   UNL     1      -8.704   8.238  68.025  1.00  0.00    -0.135 C  
BRANCH  11  12
HETATM   12  C   UNL     1      -9.551   8.934  66.958  1.00  0.00    -0.176 C  
BRANCH  12  13
HETATM   13  O   UNL     1      -9.633  10.321  67.295  1.00  0.00    -0.155 OA 
BRANCH  13  14
HETATM   14  C   UNL     1     -10.856  10.909  66.850  1.00  0.00    -0.249 C  
BRANCH  14  15
HETATM   15  N   UNL     1     -11.338  11.843  67.852  1.00  0.00    -0.268 NA 
HETATM   16  C   UNL     1     -11.833  11.488  69.087  1.00  0.00    -0.340 A  
HETATM   17  N   UNL     1     -12.166  12.541  69.811  1.00  0.00    -0.190 NA 
HETATM   18  C   UNL     1     -11.871  13.629  69.015  1.00  0.00    -0.352 A  
HETATM   19  C   UNL     1     -11.381  13.198  67.813  1.00  0.00    -0.290 A  
HETATM   20  N   UNL     1     -11.010  14.041  66.843  1.00  0.00    -0.294 NA 
HETATM   21  C   UNL     1     -11.086  15.378  67.125  1.00  0.00    -0.291 C  
HETATM   22  N   UNL     1     -10.624  16.166  66.121  1.00  0.00    -0.306 NA 
HETATM   23  N   UNL     1     -11.534  15.902  68.227  1.00  0.00    -0.352 N  
HETATM   24  H2  UNL     1     -10.256  15.799  65.243  1.00  0.00     0.000 HD 
HETATM   25  H1  UNL     1     -10.681  17.162  66.332  1.00  0.00     0.000 HD 
HETATM   26  C   UNL     1     -11.987  15.074  69.267  1.00  0.00    -0.289 C  
HETATM   27  H   UNL     1     -11.557  16.917  68.337  1.00  0.00     0.000 HD 
HETATM   28  O   UNL     1     -12.445  15.524  70.311  1.00  0.00    -0.399 OA 
ENDBRANCH  14  15
ENDBRANCH  13  14
ENDBRANCH  12  13
ENDBRANCH  11  12
ENDBRANCH  10  11
ENDBRANCH   8  10
ENDBRANCH   3   8
TORSDOF 7
ENDMDL
MODEL      332
REMARK 921   NORMALIZED FREE ENERGY PREDICTED BY IDOCK:   -3.54 KCAL/MOL
REMARK 922        TOTAL FREE ENERGY PREDICTED BY IDOCK:   -5.53 KCAL/MOL
REMARK 923 INTER-LIGAND FREE ENERGY PREDICTED BY IDOCK:   -4.74 KCAL/MOL
REMARK 924 INTRA-LIGAND FREE ENERGY PREDICTED BY IDOCK:   -0.80 KCAL/MOL
REMARK 927      BINDING AFFINITY PREDICTED BY RF-SCORE:    0.00 PKD
ROOT
HETATM    1  C   UNL     1     -10.688  15.752  70.283  1.00  0.00    -0.342 C  
HETATM    2  C   UNL     1      -9.646  15.229  69.289  1.00  0.00    -0.249 C  
HETATM    3  C   UNL     1     -10.277  14.642  68.002  1.00  0.00    -0.231 C  
HETATM    4  C   UNL     1      -8.636  16.339  68.969  1.00  0.00    -0.247 C  
HETATM    5  H1  UNL     1     -11.451  15.284  66.408  1.00  0.00     0.000 HD 
HETATM    6  N   UNL     1     -11.036  15.670  67.255  1.00  0.00    -0.302 NA 
HETATM    7  H2  UNL     1     -10.457  16.485  67.049  1.00  0.00     0.000 HD 
ENDROOT
BRANCH   3   8
HETATM    8  C   UNL     1     -11.192  13.428  68.287  1.00  0.00    -0.279 C  
HETATM    9  O   UNL     1     -12.346  13.497  68.695  1.00  0.00    -0.232 OA 
BRANCH   8  10
HETATM   10  O   UNL     1     -10.570  12.259  67.961  1.00  0.00    -0.204 OA 
BRANCH  10  11
HETATM   11  C   UNL     1     -11.175  11.538  66.868  1.00  0.00    -0.298 C  
BRANCH  11  12
HETATM   12  C   UNL     1     -10.127  11.196  65.807  1.00  0.00    -0.249 C  
BRANCH  12  13
HETATM   13  O   UNL     1      -8.850  11.614  66.295  1.00  0.00    -0.193 OA 
BRANCH  13  14
HETATM   14  C   UNL     1      -7.897  10.551  66.282  1.00  0.00    -0.141 C  
BRANCH  14  15
HETATM   15  N   UNL     1      -7.530  10.213  67.645  1.00  0.00    -0.089 NA 
HETATM   16  C   UNL     1      -6.333  10.541  68.244  1.00  0.00    -0.054 A  
HETATM   17  N   UNL     1      -6.279  10.141  69.501  1.00  0.00    -0.045 NA 
HETATM   18  C   UNL     1      -7.495   9.530  69.734  1.00  0.00    -0.098 A  
HETATM   19  C   UNL     1      -8.249   9.562  68.594  1.00  0.00    -0.112 A  
HETATM   20  N   UNL     1      -9.480   9.041  68.529  1.00  0.00    -0.143 NA 
HETATM   21  C   UNL     1      -9.988   8.516  69.686  1.00  0.00    -0.192 C  
HETATM   22  N   UNL     1     -11.265   8.075  69.561  1.00  0.00    -0.441 NA 
HETATM   23  N   UNL     1      -9.366   8.431  70.825  1.00  0.00    -0.156 N  
HETATM   24  H2  UNL     1     -11.795   8.129  68.690  1.00  0.00     0.000 HD 
HETATM   25  H1  UNL     1     -11.644   7.684  70.423  1.00  0.00     0.000 HD 
HETATM   26  C   UNL     1      -8.053   8.913  70.947  1.00  0.00    -0.166 C  
HETATM   27  H   UNL     1      -9.833   8.013  71.631  1.00  0.00     0.000 HD 
HETATM   28  O   UNL     1      -7.418   8.827  71.992  1.00  0.00    -0.271 OA 
ENDBRANCH  14  15
ENDBRANCH  13  14
ENDBRANCH  12  13
ENDBRANCH  11  12
ENDBRANCH  10  11
ENDBRANCH   8  10
ENDBRANCH   3   8
TORSDOF 7
ENDMDL
MODEL      333
REMARK 921   NORMALIZED FREE ENERGY PREDICTED BY IDOCK:   -3.54 KCAL/MOL
REMARK 922        TOTAL FREE ENERGY PREDICTED BY IDOCK:   -5.52 KCAL/MOL
REMARK 923 INTER-LIGAND FREE ENERGY PREDICTED BY IDOCK:   -4.98 KCAL/MOL
REMARK 924 INTRA-LIGAND FREE ENERGY PREDICTED BY IDOCK:   -0.54 KCAL/MOL
REMARK 927      BINDING AFFINITY PREDICTED BY RF-SCORE:    0.00 PKD
ROOT
HETATM    1  C   UNL     1     -10.458  15.650  65.436  1.00  0.00    -0.435 C  
HETATM    2  C   UNL     1     -10.733  14.153  65.615  1.00  0.00    -0.317 C  
HETATM    3  C   UNL     1     -11.327  13.808  67.003  1.00  0.00    -0.326 C  
HETATM    4  C   UNL     1     -11.630  13.654  64.475  1.00  0.00    -0.415 C  
HETATM    5  H1  UNL     1     -13.029  14.236  68.122  1.00  0.00     0.000 HD 
HETATM    6  N   UNL     1     -12.638  14.463  67.208  1.00  0.00    -0.416 NA 
HETATM    7  H2  UNL     1     -13.290  14.239  66.456  1.00  0.00     0.000 HD 
ENDROOT
BRANCH   3   8
HETATM    8  C   UNL     1     -10.376  14.175  68.166  1.00  0.00    -0.239 C  
HETATM    9  O   UNL     1     -10.675  14.881  69.123  1.00  0.00    -0.236 OA 
BRANCH   8  10
HETATM   10  O   UNL     1      -9.170  13.553  68.028  1.00  0.00    -0.194 OA 
BRANCH  10  11
HETATM   11  C   UNL     1      -9.228  12.112  68.058  1.00  0.00    -0.194 C  
BRANCH  11  12
HETATM   12  C   UNL     1      -8.272  11.516  67.023  1.00  0.00    -0.167 C  
BRANCH  12  13
HETATM   13  O   UNL     1      -8.615  10.139  66.846  1.00  0.00    -0.125 OA 
BRANCH  13  14
HETATM   14  C   UNL     1      -7.572   9.267  67.282  1.00  0.00    -0.091 C  
BRANCH  14  15
HETATM   15  N   UNL     1      -8.134   7.973  67.624  1.00  0.00    -0.122 NA 
HETATM   16  C   UNL     1      -7.757   6.775  67.058  1.00  0.00    -0.100 A  
HETATM   17  N   UNL     1      -8.405   5.751  67.582  1.00  0.00    -0.105 NA 
HETATM   18  C   UNL     1      -9.238   6.304  68.533  1.00  0.00    -0.123 A  
HETATM   19  C   UNL     1      -9.081   7.663  68.545  1.00  0.00    -0.131 A  
HETATM   20  N   UNL     1      -9.765   8.460  69.374  1.00  0.00    -0.175 NA 
HETATM   21  C   UNL     1     -10.602   7.848  70.266  1.00  0.00    -0.231 C  
HETATM   22  N   UNL     1     -11.203   8.715  71.120  1.00  0.00    -0.259 NA 
HETATM   23  N   UNL     1     -10.832   6.570  70.347  1.00  0.00    -0.252 N  
HETATM   24  H2  UNL     1     -11.047   9.723  71.099  1.00  0.00     0.000 HD 
HETATM   25  H1  UNL     1     -11.827   8.258  71.785  1.00  0.00     0.000 HD 
HETATM   26  C   UNL     1     -10.184   5.683  69.473  1.00  0.00    -0.250 C  
HETATM   27  H   UNL     1     -11.483   6.213  71.047  1.00  0.00     0.000 HD 
HETATM   28  O   UNL     1     -10.392   4.475  69.493  1.00  0.00    -0.078 OA 
ENDBRANCH  14  15
ENDBRANCH  13  14
ENDBRANCH  12  13
ENDBRANCH  11  12
ENDBRANCH  10  11
ENDBRANCH   8  10
ENDBRANCH   3   8
TORSDOF 7
ENDMDL
MODEL      334
REMARK 921   NORMALIZED FREE ENERGY PREDICTED BY IDOCK:   -3.51 KCAL/MOL
REMARK 922        TOTAL FREE ENERGY PREDICTED BY IDOCK:   -5.48 KCAL/MOL
REMARK 923 INTER-LIGAND FREE ENERGY PREDICTED BY IDOCK:   -4.78 KCAL/MOL
REMARK 924 INTRA-LIGAND FREE ENERGY PREDICTED BY IDOCK:   -0.70 KCAL/MOL
REMARK 927      BINDING AFFINITY PREDICTED BY RF-SCORE:    0.00 PKD
ROOT
HETATM    1  C   UNL     1      -6.741   5.817  71.548  1.00  0.00    -0.058 C  
HETATM    2  C   UNL     1      -6.807   4.885  72.763  1.00  0.00    -0.071 C  
HETATM    3  C   UNL     1      -7.914   3.807  72.639  1.00  0.00    -0.081 C  
HETATM    4  C   UNL     1      -5.429   4.256  73.006  1.00  0.00    -0.007 C  
HETATM    5  H1  UNL     1      -8.399   2.204  71.405  1.00  0.00     0.000 HD 
HETATM    6  N   UNL     1      -7.671   2.913  71.486  1.00  0.00    -0.047 NA 
HETATM    7  H2  UNL     1      -6.742   2.493  71.528  1.00  0.00     0.000 HD 
ENDROOT
BRANCH   3   8
HETATM    8  C   UNL     1      -9.331   4.418  72.534  1.00  0.00    -0.131 C  
HETATM    9  O   UNL     1     -10.017   4.431  71.518  1.00  0.00    -0.180 OA 
BRANCH   8  10
HETATM   10  O   UNL     1      -9.754   4.885  73.743  1.00  0.00    -0.130 OA 
BRANCH  10  11
HETATM   11  C   UNL     1     -10.465   6.139  73.691  1.00  0.00    -0.276 C  
BRANCH  11  12
HETATM   12  C   UNL     1      -9.507   7.284  73.360  1.00  0.00    -0.208 C  
BRANCH  12  13
HETATM   13  O   UNL     1     -10.285   8.467  73.157  1.00  0.00    -0.119 OA 
BRANCH  13  14
HETATM   14  C   UNL     1     -11.512   8.191  72.480  1.00  0.00    -0.404 C  
BRANCH  14  15
HETATM   15  N   UNL     1     -11.832   9.291  71.589  1.00  0.00    -0.360 NA 
HETATM   16  C   UNL     1     -12.596  10.385  71.930  1.00  0.00    -0.288 A  
HETATM   17  N   UNL     1     -12.696  11.251  70.938  1.00  0.00    -0.340 NA 
HETATM   18  C   UNL     1     -11.963  10.700  69.907  1.00  0.00    -0.310 A  
HETATM   19  C   UNL     1     -11.449   9.496  70.304  1.00  0.00    -0.206 A  
HETATM   20  N   UNL     1     -10.692   8.737  69.503  1.00  0.00    -0.217 NA 
HETATM   21  C   UNL     1     -10.397   9.248  68.269  1.00  0.00    -0.217 C  
HETATM   22  N   UNL     1      -9.565   8.456  67.544  1.00  0.00    -0.149 NA 
HETATM   23  N   UNL     1     -10.826  10.376  67.785  1.00  0.00    -0.276 N  
HETATM   24  H2  UNL     1      -9.197   7.568  67.886  1.00  0.00     0.000 HD 
HETATM   25  H1  UNL     1      -9.345   8.837  66.624  1.00  0.00     0.000 HD 
HETATM   26  C   UNL     1     -11.666  11.196  68.555  1.00  0.00    -0.298 C  
HETATM   27  H   UNL     1     -10.552  10.665  66.845  1.00  0.00     0.000 HD 
HETATM   28  O   UNL     1     -12.119  12.253  68.129  1.00  0.00    -0.407 OA 
ENDBRANCH  14  15
ENDBRANCH  13  14
ENDBRANCH  12  13
ENDBRANCH  11  12
ENDBRANCH  10  11
ENDBRANCH   8  10
ENDBRANCH   3   8
TORSDOF 7
ENDMDL
MODEL      335
REMARK 921   NORMALIZED FREE ENERGY PREDICTED BY IDOCK:   -3.51 KCAL/MOL
REMARK 922        TOTAL FREE ENERGY PREDICTED BY IDOCK:   -5.48 KCAL/MOL
REMARK 923 INTER-LIGAND FREE ENERGY PREDICTED BY IDOCK:   -4.99 KCAL/MOL
REMARK 924 INTRA-LIGAND FREE ENERGY PREDICTED BY IDOCK:   -0.50 KCAL/MOL
REMARK 927      BINDING AFFINITY PREDICTED BY RF-SCORE:    0.00 PKD
ROOT
HETATM    1  C   UNL     1     -10.072  12.464  63.337  1.00  0.00    -0.156 C  
HETATM    2  C   UNL     1     -11.295  12.237  64.232  1.00  0.00    -0.415 C  
HETATM    3  C   UNL     1     -11.810  13.539  64.896  1.00  0.00    -0.374 C  
HETATM    4  C   UNL     1     -12.400  11.538  63.428  1.00  0.00    -0.123 C  
HETATM    5  H1  UNL     1     -12.593  15.379  64.322  1.00  0.00     0.000 HD 
HETATM    6  N   UNL     1     -12.255  14.523  63.885  1.00  0.00    -1.006 NA 
HETATM    7  H2  UNL     1     -12.952  14.123  63.256  1.00  0.00     0.000 HD 
ENDROOT
BRANCH   3   8
HETATM    8  C   UNL     1     -10.759  14.189  65.826  1.00  0.00    -0.299 C  
HETATM    9  O   UNL     1     -10.402  15.361  65.774  1.00  0.00    -0.310 OA 
BRANCH   8  10
HETATM   10  O   UNL     1     -10.320  13.302  66.765  1.00  0.00    -0.253 OA 
BRANCH  10  11
HETATM   11  C   UNL     1      -8.909  13.379  67.055  1.00  0.00    -0.211 C  
BRANCH  11  12
HETATM   12  C   UNL     1      -8.589  12.647  68.359  1.00  0.00    -0.122 C  
BRANCH  12  13
HETATM   13  O   UNL     1      -8.483  11.251  68.068  1.00  0.00    -0.127 OA 
BRANCH  13  14
HETATM   14  C   UNL     1      -7.684  10.562  69.030  1.00  0.00    -0.125 C  
BRANCH  14  15
HETATM   15  N   UNL     1      -8.430   9.435  69.561  1.00  0.00    -0.140 NA 
HETATM   16  C   UNL     1      -9.643   9.526  70.206  1.00  0.00    -0.265 A  
HETATM   17  N   UNL     1     -10.113   8.341  70.551  1.00  0.00    -0.194 NA 
HETATM   18  C   UNL     1      -9.167   7.439  70.108  1.00  0.00    -0.151 A  
HETATM   19  C   UNL     1      -8.133   8.112  69.518  1.00  0.00    -0.119 A  
HETATM   20  N   UNL     1      -7.072   7.487  68.995  1.00  0.00    -0.077 NA 
HETATM   21  C   UNL     1      -7.088   6.119  69.022  1.00  0.00    -0.081 C  
HETATM   22  N   UNL     1      -6.016   5.557  68.408  1.00  0.00    -0.017 NA 
HETATM   23  N   UNL     1      -8.013   5.375  69.553  1.00  0.00    -0.088 N  
HETATM   24  H2  UNL     1      -5.272   6.100  67.970  1.00  0.00     0.000 HD 
HETATM   25  H1  UNL     1      -6.028   4.538  68.428  1.00  0.00     0.000 HD 
HETATM   26  C   UNL     1      -9.128   5.969  70.164  1.00  0.00    -0.147 C  
HETATM   27  H   UNL     1      -7.927   4.358  69.527  1.00  0.00     0.000 HD 
HETATM   28  O   UNL     1     -10.009   5.309  70.704  1.00  0.00    -0.189 OA 
ENDBRANCH  14  15
ENDBRANCH  13  14
ENDBRANCH  12  13
ENDBRANCH  11  12
ENDBRANCH  10  11
ENDBRANCH   8  10
ENDBRANCH   3   8
TORSDOF 7
ENDMDL
MODEL      336
REMARK 921   NORMALIZED FREE ENERGY PREDICTED BY IDOCK:   -3.50 KCAL/MOL
REMARK 922        TOTAL FREE ENERGY PREDICTED BY IDOCK:   -5.47 KCAL/MOL
REMARK 923 INTER-LIGAND FREE ENERGY PREDICTED BY IDOCK:   -4.87 KCAL/MOL
REMARK 924 INTRA-LIGAND FREE ENERGY PREDICTED BY IDOCK:   -0.59 KCAL/MOL
REMARK 927      BINDING AFFINITY PREDICTED BY RF-SCORE:    0.00 PKD
ROOT
HETATM    1  C   UNL     1     -10.681   3.750  63.944  1.00  0.00    -0.257 C  
HETATM    2  C   UNL     1      -9.324   3.424  63.312  1.00  0.00    -0.098 C  
HETATM    3  C   UNL     1      -8.126   3.817  64.212  1.00  0.00    -0.089 C  
HETATM    4  C   UNL     1      -9.279   1.939  62.926  1.00  0.00    -0.090 C  
HETATM    5  H1  UNL     1      -7.354   3.328  66.082  1.00  0.00     0.000 HD 
HETATM    6  N   UNL     1      -8.142   3.070  65.490  1.00  0.00    -0.086 NA 
HETATM    7  H2  UNL     1      -8.177   2.062  65.333  1.00  0.00     0.000 HD 
ENDROOT
BRANCH   3   8
HETATM    8  C   UNL     1      -8.070   5.335  64.500  1.00  0.00    -0.120 C  
HETATM    9  O   UNL     1      -8.085   6.214  63.646  1.00  0.00    -0.118 OA 
BRANCH   8  10
HETATM   10  O   UNL     1      -8.069   5.579  65.843  1.00  0.00    -0.104 OA 
BRANCH  10  11
HETATM   11  C   UNL     1      -8.893   6.688  66.255  1.00  0.00    -0.147 C  
BRANCH  11  12
HETATM   12  C   UNL     1     -10.214   6.186  66.840  1.00  0.00    -0.208 C  
BRANCH  12  13
HETATM   13  O   UNL     1     -10.816   7.264  67.562  1.00  0.00    -0.249 OA 
BRANCH  13  14
HETATM   14  C   UNL     1      -9.933   7.809  68.544  1.00  0.00    -0.182 C  
BRANCH  14  15
HETATM   15  N   UNL     1     -10.684   8.656  69.453  1.00  0.00    -0.198 NA 
HETATM   16  C   UNL     1     -11.088   8.292  70.719  1.00  0.00    -0.258 A  
HETATM   17  N   UNL     1     -11.723   9.269  71.339  1.00  0.00    -0.332 NA 
HETATM   18  C   UNL     1     -11.730  10.317  70.441  1.00  0.00    -0.319 A  
HETATM   19  C   UNL     1     -11.109   9.933  69.285  1.00  0.00    -0.181 A  
HETATM   20  N   UNL     1     -10.969  10.752  68.236  1.00  0.00    -0.234 NA 
HETATM   21  C   UNL     1     -11.429  12.032  68.389  1.00  0.00    -0.301 C  
HETATM   22  N   UNL     1     -11.185  12.822  67.312  1.00  0.00    -0.280 NA 
HETATM   23  N   UNL     1     -12.033  12.508  69.437  1.00  0.00    -0.286 N  
HETATM   24  H2  UNL     1     -10.707  12.495  66.472  1.00  0.00     0.000 HD 
HETATM   25  H1  UNL     1     -11.527  13.776  67.426  1.00  0.00     0.000 HD 
HETATM   26  C   UNL     1     -12.257  11.686  70.553  1.00  0.00    -0.361 C  
HETATM   27  H   UNL     1     -12.345  13.480  69.448  1.00  0.00     0.000 HD 
HETATM   28  O   UNL     1     -12.849  12.083  71.550  1.00  0.00    -0.376 OA 
ENDBRANCH  14  15
ENDBRANCH  13  14
ENDBRANCH  12  13
ENDBRANCH  11  12
ENDBRANCH  10  11
ENDBRANCH   8  10
ENDBRANCH   3   8
TORSDOF 7
ENDMDL
MODEL      337
REMARK 921   NORMALIZED FREE ENERGY PREDICTED BY IDOCK:   -3.49 KCAL/MOL
REMARK 922        TOTAL FREE ENERGY PREDICTED BY IDOCK:   -5.46 KCAL/MOL
REMARK 923 INTER-LIGAND FREE ENERGY PREDICTED BY IDOCK:   -5.51 KCAL/MOL
REMARK 924 INTRA-LIGAND FREE ENERGY PREDICTED BY IDOCK:    0.06 KCAL/MOL
REMARK 927      BINDING AFFINITY PREDICTED BY RF-SCORE:    0.00 PKD
ROOT
HETATM    1  C   UNL     1     -11.003   6.141  70.008  1.00  0.00    -0.441 C  
HETATM    2  C   UNL     1     -10.655   6.375  71.482  1.00  0.00    -0.273 C  
HETATM    3  C   UNL     1     -11.405   7.584  72.096  1.00  0.00    -0.283 C  
HETATM    4  C   UNL     1     -10.906   5.089  72.282  1.00  0.00    -0.207 C  
HETATM    5  H1  UNL     1     -13.363   8.174  72.481  1.00  0.00     0.000 HD 
HETATM    6  N   UNL     1     -12.870   7.379  72.077  1.00  0.00    -0.494 NA 
HETATM    7  H2  UNL     1     -13.131   6.506  72.536  1.00  0.00     0.000 HD 
ENDROOT
BRANCH   3   8
HETATM    8  C   UNL     1     -11.059   8.918  71.394  1.00  0.00    -0.306 C  
HETATM    9  O   UNL     1      -9.925   9.298  71.123  1.00  0.00    -0.285 OA 
BRANCH   8  10
HETATM   10  O   UNL     1     -12.191   9.598  71.050  1.00  0.00    -0.303 OA 
BRANCH  10  11
HETATM   11  C   UNL     1     -12.003  11.012  70.837  1.00  0.00    -0.286 C  
BRANCH  11  12
HETATM   12  C   UNL     1     -12.108  11.348  69.348  1.00  0.00    -0.291 C  
BRANCH  12  13
HETATM   13  O   UNL     1     -12.182  12.770  69.220  1.00  0.00    -0.208 OA 
BRANCH  13  14
HETATM   14  C   UNL     1     -11.739  13.216  67.938  1.00  0.00    -0.357 C  
BRANCH  14  15
HETATM   15  N   UNL     1     -10.624  12.398  67.499  1.00  0.00    -0.216 NA 
HETATM   16  C   UNL     1     -10.740  11.210  66.810  1.00  0.00    -0.276 A  
HETATM   17  N   UNL     1      -9.563  10.695  66.505  1.00  0.00    -0.176 NA 
HETATM   18  C   UNL     1      -8.640  11.587  67.012  1.00  0.00    -0.161 A  
HETATM   19  C   UNL     1      -9.291  12.617  67.632  1.00  0.00    -0.190 A  
HETATM   20  N   UNL     1      -8.644  13.632  68.216  1.00  0.00    -0.169 NA 
HETATM   21  C   UNL     1      -7.279  13.629  68.117  1.00  0.00    -0.117 C  
HETATM   22  N   UNL     1      -6.698  14.726  68.668  1.00  0.00    -0.084 NA 
HETATM   23  N   UNL     1      -6.554  12.708  67.555  1.00  0.00    -0.145 N  
HETATM   24  H2  UNL     1      -7.227  15.477  69.112  1.00  0.00     0.000 HD 
HETATM   25  H1  UNL     1      -5.681  14.724  68.594  1.00  0.00     0.000 HD 
HETATM   26  C   UNL     1      -7.169  11.591  66.968  1.00  0.00    -0.146 C  
HETATM   27  H   UNL     1      -5.537  12.796  67.540  1.00  0.00     0.000 HD 
HETATM   28  O   UNL     1      -6.526  10.683  66.453  1.00  0.00    -0.097 OA 
ENDBRANCH  14  15
ENDBRANCH  13  14
ENDBRANCH  12  13
ENDBRANCH  11  12
ENDBRANCH  10  11
ENDBRANCH   8  10
ENDBRANCH   3   8
TORSDOF 7
ENDMDL
MODEL      338
REMARK 921   NORMALIZED FREE ENERGY PREDICTED BY IDOCK:   -3.48 KCAL/MOL
REMARK 922        TOTAL FREE ENERGY PREDICTED BY IDOCK:   -5.44 KCAL/MOL
REMARK 923 INTER-LIGAND FREE ENERGY PREDICTED BY IDOCK:   -5.00 KCAL/MOL
REMARK 924 INTRA-LIGAND FREE ENERGY PREDICTED BY IDOCK:   -0.44 KCAL/MOL
REMARK 927      BINDING AFFINITY PREDICTED BY RF-SCORE:    0.00 PKD
ROOT
HETATM    1  C   UNL     1      -6.976   5.157  67.770  1.00  0.00    -0.062 C  
HETATM    2  C   UNL     1      -8.169   5.102  68.729  1.00  0.00    -0.085 C  
HETATM    3  C   UNL     1      -9.464   4.583  68.055  1.00  0.00    -0.148 C  
HETATM    4  C   UNL     1      -7.801   4.269  69.963  1.00  0.00    -0.052 C  
HETATM    5  H1  UNL     1     -10.153   2.853  67.125  1.00  0.00     0.000 HD 
HETATM    6  N   UNL     1      -9.301   3.195  67.568  1.00  0.00    -0.216 NA 
HETATM    7  H2  UNL     1      -8.992   2.571  68.314  1.00  0.00     0.000 HD 
ENDROOT
BRANCH   3   8
HETATM    8  C   UNL     1      -9.935   5.487  66.893  1.00  0.00    -0.179 C  
HETATM    9  O   UNL     1     -10.133   5.111  65.743  1.00  0.00    -0.141 OA 
BRANCH   8  10
HETATM   10  O   UNL     1     -10.170   6.759  67.327  1.00  0.00    -0.166 OA 
BRANCH  10  11
HETATM   11  C   UNL     1      -9.623   7.795  66.485  1.00  0.00    -0.201 C  
BRANCH  11  12
HETATM   12  C   UNL     1      -9.235   9.016  67.321  1.00  0.00    -0.134 C  
BRANCH  12  13
HETATM   13  O   UNL     1     -10.265   9.997  67.175  1.00  0.00    -0.203 OA 
BRANCH  13  14
HETATM   14  C   UNL     1     -10.050  11.130  68.016  1.00  0.00    -0.174 C  
BRANCH  14  15
HETATM   15  N   UNL     1     -10.452  12.336  67.317  1.00  0.00    -0.216 NA 
HETATM   16  C   UNL     1     -11.717  12.578  66.826  1.00  0.00    -0.384 A  
HETATM   17  N   UNL     1     -11.813  13.771  66.266  1.00  0.00    -0.376 NA 
HETATM   18  C   UNL     1     -10.560  14.332  66.402  1.00  0.00    -0.286 A  
HETATM   19  C   UNL     1      -9.727  13.447  67.029  1.00  0.00    -0.239 A  
HETATM   20  N   UNL     1      -8.446  13.726  67.295  1.00  0.00    -0.196 NA 
HETATM   21  C   UNL     1      -8.007  14.979  66.960  1.00  0.00    -0.162 C  
HETATM   22  N   UNL     1      -6.721  15.213  67.327  1.00  0.00    -0.288 NA 
HETATM   23  N   UNL     1      -8.705  15.899  66.363  1.00  0.00    -0.303 N  
HETATM   24  H2  UNL     1      -6.140  14.524  67.804  1.00  0.00     0.000 HD 
HETATM   25  H1  UNL     1      -6.394  16.146  67.077  1.00  0.00     0.000 HD 
HETATM   26  C   UNL     1     -10.041  15.651  66.011  1.00  0.00    -0.333 C  
HETATM   27  H   UNL     1      -8.280  16.803  66.150  1.00  0.00     0.000 HD 
HETATM   28  O   UNL     1     -10.727  16.478  65.420  1.00  0.00    -0.451 OA 
ENDBRANCH  14  15
ENDBRANCH  13  14
ENDBRANCH  12  13
ENDBRANCH  11  12
ENDBRANCH  10  11
ENDBRANCH   8  10
ENDBRANCH   3   8
TORSDOF 7
ENDMDL
MODEL      339
REMARK 921   NORMALIZED FREE ENERGY PREDICTED BY IDOCK:   -3.46 KCAL/MOL
REMARK 922        TOTAL FREE ENERGY PREDICTED BY IDOCK:   -5.42 KCAL/MOL
REMARK 923 INTER-LIGAND FREE ENERGY PREDICTED BY IDOCK:   -4.74 KCAL/MOL
REMARK 924 INTRA-LIGAND FREE ENERGY PREDICTED BY IDOCK:   -0.69 KCAL/MOL
REMARK 927      BINDING AFFINITY PREDICTED BY RF-SCORE:    0.00 PKD
ROOT
HETATM    1  C   UNL     1      -7.499   6.444  64.687  1.00  0.00    -0.091 C  
HETATM    2  C   UNL     1      -6.464   7.547  64.930  1.00  0.00    -0.037 C  
HETATM    3  C   UNL     1      -7.068   8.972  64.850  1.00  0.00    -0.091 C  
HETATM    4  C   UNL     1      -5.760   7.306  66.272  1.00  0.00    -0.031 C  
HETATM    5  H1  UNL     1      -8.498  10.119  65.835  1.00  0.00     0.000 HD 
HETATM    6  N   UNL     1      -8.101   9.181  65.888  1.00  0.00    -0.109 NA 
HETATM    7  H2  UNL     1      -7.739   8.981  66.821  1.00  0.00     0.000 HD 
ENDROOT
BRANCH   3   8
HETATM    8  C   UNL     1      -7.661   9.290  63.457  1.00  0.00    -0.107 C  
HETATM    9  O   UNL     1      -7.672   8.519  62.504  1.00  0.00    -0.117 OA 
BRANCH   8  10
HETATM   10  O   UNL     1      -8.236  10.527  63.440  1.00  0.00    -0.157 OA 
BRANCH  10  11
HETATM   11  C   UNL     1      -9.594  10.554  62.955  1.00  0.00    -0.333 C  
BRANCH  11  12
HETATM   12  C   UNL     1     -10.297  11.836  63.403  1.00  0.00    -0.439 C  
BRANCH  12  13
HETATM   13  O   UNL     1     -10.199  11.920  64.828  1.00  0.00    -0.259 OA 
BRANCH  13  14
HETATM   14  C   UNL     1     -11.466  12.170  65.438  1.00  0.00    -0.336 C  
BRANCH  14  15
HETATM   15  N   UNL     1     -11.367  11.945  66.869  1.00  0.00    -0.344 NA 
HETATM   16  C   UNL     1     -11.438  12.930  67.829  1.00  0.00    -0.323 A  
HETATM   17  N   UNL     1     -11.355  12.440  69.052  1.00  0.00    -0.266 NA 
HETATM   18  C   UNL     1     -11.229  11.076  68.882  1.00  0.00    -0.265 A  
HETATM   19  C   UNL     1     -11.221  10.779  67.547  1.00  0.00    -0.274 A  
HETATM   20  N   UNL     1     -11.112   9.527  67.088  1.00  0.00     0.054 NA 
HETATM   21  C   UNL     1     -11.065   8.530  68.024  1.00  0.00     0.369 C  
HETATM   22  N   UNL     1     -11.029   7.286  67.482  1.00  0.00    -0.537 NA 
HETATM   23  N   UNL     1     -11.065   8.691  69.315  1.00  0.00    -0.430 N  
HETATM   24  H2  UNL     1     -11.035   7.112  66.477  1.00  0.00     0.000 HD 
HETATM   25  H1  UNL     1     -10.994   6.543  68.180  1.00  0.00     0.000 HD 
HETATM   26  C   UNL     1     -11.127   9.983  69.861  1.00  0.00    -0.288 C  
HETATM   27  H   UNL     1     -11.020   7.878  69.930  1.00  0.00     0.000 HD 
HETATM   28  O   UNL     1     -11.100  10.184  71.070  1.00  0.00    -0.323 OA 
ENDBRANCH  14  15
ENDBRANCH  13  14
ENDBRANCH  12  13
ENDBRANCH  11  12
ENDBRANCH  10  11
ENDBRANCH   8  10
ENDBRANCH   3   8
TORSDOF 7
ENDMDL
MODEL      340
REMARK 921   NORMALIZED FREE ENERGY PREDICTED BY IDOCK:   -3.44 KCAL/MOL
REMARK 922        TOTAL FREE ENERGY PREDICTED BY IDOCK:   -5.39 KCAL/MOL
REMARK 923 INTER-LIGAND FREE ENERGY PREDICTED BY IDOCK:   -4.62 KCAL/MOL
REMARK 924 INTRA-LIGAND FREE ENERGY PREDICTED BY IDOCK:   -0.77 KCAL/MOL
REMARK 927      BINDING AFFINITY PREDICTED BY RF-SCORE:    0.00 PKD
ROOT
HETATM    1  C   UNL     1      -8.620  17.050  67.859  1.00  0.00    -0.207 C  
HETATM    2  C   UNL     1      -9.272  15.692  67.578  1.00  0.00    -0.203 C  
HETATM    3  C   UNL     1      -9.125  14.695  68.755  1.00  0.00    -0.178 C  
HETATM    4  C   UNL     1     -10.743  15.896  67.190  1.00  0.00    -0.301 C  
HETATM    5  H1  UNL     1      -9.699  14.540  70.749  1.00  0.00     0.000 HD 
HETATM    6  N   UNL     1      -9.796  15.196  69.975  1.00  0.00    -0.487 NA 
HETATM    7  H2  UNL     1     -10.775  15.422  69.797  1.00  0.00     0.000 HD 
ENDROOT
BRANCH   3   8
HETATM    8  C   UNL     1      -7.648  14.364  69.074  1.00  0.00    -0.106 C  
HETATM    9  O   UNL     1      -6.847  15.141  69.582  1.00  0.00    -0.163 OA 
BRANCH   8  10
HETATM   10  O   UNL     1      -7.363  13.063  68.779  1.00  0.00    -0.105 OA 
BRANCH  10  11
HETATM   11  C   UNL     1      -6.047  12.844  68.232  1.00  0.00    -0.082 C  
BRANCH  11  12
HETATM   12  C   UNL     1      -5.892  11.393  67.774  1.00  0.00    -0.046 C  
BRANCH  12  13
HETATM   13  O   UNL     1      -6.240  11.327  66.388  1.00  0.00    -0.139 OA 
BRANCH  13  14
HETATM   14  C   UNL     1      -7.192  10.296  66.123  1.00  0.00    -0.121 C  
BRANCH  14  15
HETATM   15  N   UNL     1      -8.499  10.711  66.599  1.00  0.00    -0.133 NA 
HETATM   16  C   UNL     1      -9.284  11.675  66.006  1.00  0.00    -0.208 A  
HETATM   17  N   UNL     1     -10.440  11.826  66.626  1.00  0.00    -0.218 NA 
HETATM   18  C   UNL     1     -10.409  10.918  67.665  1.00  0.00    -0.197 A  
HETATM   19  C   UNL     1      -9.216  10.250  67.655  1.00  0.00    -0.144 A  
HETATM   20  N   UNL     1      -8.910   9.306  68.552  1.00  0.00    -0.128 NA 
HETATM   21  C   UNL     1      -9.880   8.987  69.464  1.00  0.00    -0.180 C  
HETATM   22  N   UNL     1      -9.524   7.972  70.292  1.00  0.00    -0.166 NA 
HETATM   23  N   UNL     1     -11.046   9.551  69.570  1.00  0.00    -0.387 N  
HETATM   24  H2  UNL     1      -8.624   7.494  70.240  1.00  0.00     0.000 HD 
HETATM   25  H1  UNL     1     -10.246   7.734  70.971  1.00  0.00     0.000 HD 
HETATM   26  C   UNL     1     -11.410  10.584  68.691  1.00  0.00    -0.252 C  
HETATM   27  H   UNL     1     -11.698   9.243  70.292  1.00  0.00     0.000 HD 
HETATM   28  O   UNL     1     -12.486  11.165  68.772  1.00  0.00    -0.468 OA 
ENDBRANCH  14  15
ENDBRANCH  13  14
ENDBRANCH  12  13
ENDBRANCH  11  12
ENDBRANCH  10  11
ENDBRANCH   8  10
ENDBRANCH   3   8
TORSDOF 7
ENDMDL
MODEL      341
REMARK 921   NORMALIZED FREE ENERGY PREDICTED BY IDOCK:   -3.40 KCAL/MOL
REMARK 922        TOTAL FREE ENERGY PREDICTED BY IDOCK:   -5.34 KCAL/MOL
REMARK 923 INTER-LIGAND FREE ENERGY PREDICTED BY IDOCK:   -4.84 KCAL/MOL
REMARK 924 INTRA-LIGAND FREE ENERGY PREDICTED BY IDOCK:   -0.50 KCAL/MOL
REMARK 927      BINDING AFFINITY PREDICTED BY RF-SCORE:    0.00 PKD
ROOT
HETATM    1  C   UNL     1     -11.998  13.988  68.503  1.00  0.00    -0.383 C  
HETATM    2  C   UNL     1     -10.593  14.319  67.988  1.00  0.00    -0.238 C  
HETATM    3  C   UNL     1     -10.077  13.302  66.939  1.00  0.00    -0.250 C  
HETATM    4  C   UNL     1     -10.568  15.754  67.444  1.00  0.00    -0.313 C  
HETATM    5  H1  UNL     1     -10.594  12.620  65.042  1.00  0.00     0.000 HD 
HETATM    6  N   UNL     1     -10.933  13.289  65.732  1.00  0.00    -0.270 NA 
HETATM    7  H2  UNL     1     -11.029  14.222  65.332  1.00  0.00     0.000 HD 
ENDROOT
BRANCH   3   8
HETATM    8  C   UNL     1      -9.960  11.868  67.507  1.00  0.00    -0.187 C  
HETATM    9  O   UNL     1     -10.784  10.976  67.341  1.00  0.00    -0.224 OA 
BRANCH   8  10
HETATM   10  O   UNL     1      -8.778  11.698  68.167  1.00  0.00    -0.147 OA 
BRANCH  10  11
HETATM   11  C   UNL     1      -8.082  10.475  67.853  1.00  0.00    -0.107 C  
BRANCH  11  12
HETATM   12  C   UNL     1      -6.732  10.427  68.571  1.00  0.00    -0.056 C  
BRANCH  12  13
HETATM   13  O   UNL     1      -6.971  10.581  69.972  1.00  0.00    -0.145 OA 
BRANCH  13  14
HETATM   14  C   UNL     1      -6.243   9.629  70.748  1.00  0.00    -0.092 C  
BRANCH  14  15
HETATM   15  N   UNL     1      -7.120   9.047  71.748  1.00  0.00    -0.306 NA 
HETATM   16  C   UNL     1      -6.792   8.862  73.073  1.00  0.00     0.240 A  
HETATM   17  N   UNL     1      -7.791   8.346  73.766  1.00  0.00    -0.354 NA 
HETATM   18  C   UNL     1      -8.815   8.191  72.854  1.00  0.00    -0.240 A  
HETATM   19  C   UNL     1      -8.396   8.605  71.620  1.00  0.00    -0.157 A  
HETATM   20  N   UNL     1      -9.187   8.569  70.541  1.00  0.00    -0.149 NA 
HETATM   21  C   UNL     1     -10.474   8.147  70.735  1.00  0.00    -0.202 C  
HETATM   22  N   UNL     1     -11.235   8.208  69.612  1.00  0.00    -0.449 NA 
HETATM   23  N   UNL     1     -10.982   7.731  71.858  1.00  0.00    -0.240 N  
HETATM   24  H2  UNL     1     -10.882   8.535  68.713  1.00  0.00     0.000 HD 
HETATM   25  H1  UNL     1     -12.194   7.894  69.757  1.00  0.00     0.000 HD 
HETATM   26  C   UNL     1     -10.191   7.696  73.017  1.00  0.00    -0.320 C  
HETATM   27  H   UNL     1     -11.957   7.430  71.896  1.00  0.00     0.000 HD 
HETATM   28  O   UNL     1     -10.618   7.284  74.090  1.00  0.00    -0.253 OA 
ENDBRANCH  14  15
ENDBRANCH  13  14
ENDBRANCH  12  13
ENDBRANCH  11  12
ENDBRANCH  10  11
ENDBRANCH   8  10
ENDBRANCH   3   8
TORSDOF 7
ENDMDL
MODEL      342
REMARK 921   NORMALIZED FREE ENERGY PREDICTED BY IDOCK:   -3.39 KCAL/MOL
REMARK 922        TOTAL FREE ENERGY PREDICTED BY IDOCK:   -5.32 KCAL/MOL
REMARK 923 INTER-LIGAND FREE ENERGY PREDICTED BY IDOCK:   -5.76 KCAL/MOL
REMARK 924 INTRA-LIGAND FREE ENERGY PREDICTED BY IDOCK:    0.44 KCAL/MOL
REMARK 927      BINDING AFFINITY PREDICTED BY RF-SCORE:    0.00 PKD
ROOT
HETATM    1  C   UNL     1     -10.688  12.721  68.161  1.00  0.00    -0.243 C  
HETATM    2  C   UNL     1     -11.720  13.843  68.315  1.00  0.00    -0.396 C  
HETATM    3  C   UNL     1     -11.899  14.304  69.783  1.00  0.00    -0.324 C  
HETATM    4  C   UNL     1     -11.349  15.015  67.395  1.00  0.00    -0.338 C  
HETATM    5  H1  UNL     1     -10.761  15.166  71.297  1.00  0.00     0.000 HD 
HETATM    6  N   UNL     1     -10.644  14.863  70.331  1.00  0.00    -0.506 NA 
HETATM    7  H2  UNL     1     -10.282  15.615  69.745  1.00  0.00     0.000 HD 
ENDROOT
BRANCH   3   8
HETATM    8  C   UNL     1     -12.409  13.172  70.705  1.00  0.00    -0.326 C  
HETATM    9  O   UNL     1     -12.919  13.338  71.807  1.00  0.00    -0.358 OA 
BRANCH   8  10
HETATM   10  O   UNL     1     -12.280  11.955  70.103  1.00  0.00    -0.288 OA 
BRANCH  10  11
HETATM   11  C   UNL     1     -11.787  10.906  70.962  1.00  0.00    -0.191 C  
BRANCH  11  12
HETATM   12  C   UNL     1     -12.246   9.538  70.455  1.00  0.00     0.060 C  
BRANCH  12  13
HETATM   13  O   UNL     1     -11.092   8.702  70.334  1.00  0.00    -0.240 OA 
BRANCH  13  14
HETATM   14  C   UNL     1     -10.992   8.110  69.039  1.00  0.00     0.122 C  
BRANCH  14  15
HETATM   15  N   UNL     1     -10.241   6.871  69.129  1.00  0.00    -0.180 NA 
HETATM   16  C   UNL     1      -9.519   6.465  70.229  1.00  0.00    -0.161 A  
HETATM   17  N   UNL     1      -8.963   5.280  70.051  1.00  0.00    -0.125 NA 
HETATM   18  C   UNL     1      -9.343   4.896  68.781  1.00  0.00    -0.135 A  
HETATM   19  C   UNL     1     -10.110   5.877  68.215  1.00  0.00    -0.166 A  
HETATM   20  N   UNL     1     -10.620   5.772  66.983  1.00  0.00    -0.275 NA 
HETATM   21  C   UNL     1     -10.388   4.598  66.318  1.00  0.00    -0.255 C  
HETATM   22  N   UNL     1     -10.997   4.538  65.107  1.00  0.00    -0.842 NA 
HETATM   23  N   UNL     1      -9.677   3.600  66.753  1.00  0.00    -0.379 N  
HETATM   24  H2  UNL     1     -11.571   5.292  64.729  1.00  0.00     0.000 HD 
HETATM   25  H1  UNL     1     -10.825   3.663  64.612  1.00  0.00     0.000 HD 
HETATM   26  C   UNL     1      -9.073   3.667  68.019  1.00  0.00    -0.154 C  
HETATM   27  H   UNL     1      -9.559   2.768  66.175  1.00  0.00     0.000 HD 
HETATM   28  O   UNL     1      -8.370   2.763  68.457  1.00  0.00    -0.063 OA 
ENDBRANCH  14  15
ENDBRANCH  13  14
ENDBRANCH  12  13
ENDBRANCH  11  12
ENDBRANCH  10  11
ENDBRANCH   8  10
ENDBRANCH   3   8
TORSDOF 7
ENDMDL
MODEL      343
REMARK 921   NORMALIZED FREE ENERGY PREDICTED BY IDOCK:   -3.39 KCAL/MOL
REMARK 922        TOTAL FREE ENERGY PREDICTED BY IDOCK:   -5.32 KCAL/MOL
REMARK 923 INTER-LIGAND FREE ENERGY PREDICTED BY IDOCK:   -4.54 KCAL/MOL
REMARK 924 INTRA-LIGAND FREE ENERGY PREDICTED BY IDOCK:   -0.78 KCAL/MOL
REMARK 927      BINDING AFFINITY PREDICTED BY RF-SCORE:    0.00 PKD
ROOT
HETATM    1  C   UNL     1      -9.108   4.056  66.421  1.00  0.00    -0.140 C  
HETATM    2  C   UNL     1      -9.041   5.011  67.618  1.00  0.00    -0.121 C  
HETATM    3  C   UNL     1      -9.382   6.475  67.245  1.00  0.00    -0.121 C  
HETATM    4  C   UNL     1      -9.942   4.489  68.744  1.00  0.00    -0.120 C  
HETATM    5  H1  UNL     1     -10.993   7.558  66.493  1.00  0.00     0.000 HD 
HETATM    6  N   UNL     1     -10.768   6.595  66.738  1.00  0.00    -0.503 NA 
HETATM    7  H2  UNL     1     -11.442   6.211  67.400  1.00  0.00     0.000 HD 
ENDROOT
BRANCH   3   8
HETATM    8  C   UNL     1      -8.399   7.072  66.211  1.00  0.00    -0.129 C  
HETATM    9  O   UNL     1      -7.191   6.863  66.186  1.00  0.00    -0.071 OA 
BRANCH   8  10
HETATM   10  O   UNL     1      -9.061   7.815  65.278  1.00  0.00     0.103 OA 
BRANCH  10  11
HETATM   11  C   UNL     1      -8.636   9.191  65.191  1.00  0.00    -0.176 C  
BRANCH  11  12
HETATM   12  C   UNL     1      -9.841  10.113  65.001  1.00  0.00    -0.322 C  
BRANCH  12  13
HETATM   13  O   UNL     1     -10.634  10.054  66.190  1.00  0.00    -0.129 OA 
BRANCH  13  14
HETATM   14  C   UNL     1      -9.907  10.482  67.341  1.00  0.00    -0.174 C  
BRANCH  14  15
HETATM   15  N   UNL     1     -10.666  11.501  68.043  1.00  0.00    -0.192 NA 
HETATM   16  C   UNL     1     -10.781  12.814  67.643  1.00  0.00    -0.219 A  
HETATM   17  N   UNL     1     -11.562  13.512  68.447  1.00  0.00    -0.319 NA 
HETATM   18  C   UNL     1     -11.977  12.615  69.410  1.00  0.00    -0.260 A  
HETATM   19  C   UNL     1     -11.415  11.392  69.169  1.00  0.00    -0.299 A  
HETATM   20  N   UNL     1     -11.644  10.327  69.947  1.00  0.00    -0.261 NA 
HETATM   21  C   UNL     1     -12.525  10.499  70.980  1.00  0.00    -0.400 C  
HETATM   22  N   UNL     1     -12.763   9.358  71.677  1.00  0.00    -0.348 NA 
HETATM   23  N   UNL     1     -13.118  11.610  71.305  1.00  0.00    -0.253 N  
HETATM   24  H2  UNL     1     -12.328   8.463  71.454  1.00  0.00     0.000 HD 
HETATM   25  H1  UNL     1     -13.419   9.485  72.447  1.00  0.00     0.000 HD 
HETATM   26  C   UNL     1     -12.881  12.776  70.560  1.00  0.00     0.129 C  
HETATM   27  H   UNL     1     -13.755  11.634  72.102  1.00  0.00     0.000 HD 
HETATM   28  O   UNL     1     -13.393  13.852  70.847  1.00  0.00    -0.213 OA 
ENDBRANCH  14  15
ENDBRANCH  13  14
ENDBRANCH  12  13
ENDBRANCH  11  12
ENDBRANCH  10  11
ENDBRANCH   8  10
ENDBRANCH   3   8
TORSDOF 7
ENDMDL
MODEL      344
REMARK 921   NORMALIZED FREE ENERGY PREDICTED BY IDOCK:   -3.37 KCAL/MOL
REMARK 922        TOTAL FREE ENERGY PREDICTED BY IDOCK:   -5.29 KCAL/MOL
REMARK 923 INTER-LIGAND FREE ENERGY PREDICTED BY IDOCK:   -4.91 KCAL/MOL
REMARK 924 INTRA-LIGAND FREE ENERGY PREDICTED BY IDOCK:   -0.38 KCAL/MOL
REMARK 927      BINDING AFFINITY PREDICTED BY RF-SCORE:    0.00 PKD
ROOT
HETATM    1  C   UNL     1     -13.202  13.931  65.496  1.00  0.00    -0.039 C  
HETATM    2  C   UNL     1     -11.786  14.059  64.926  1.00  0.00    -0.402 C  
HETATM    3  C   UNL     1     -10.684  13.708  65.957  1.00  0.00    -0.280 C  
HETATM    4  C   UNL     1     -11.663  13.207  63.655  1.00  0.00    -0.505 C  
HETATM    5  H1  UNL     1     -10.064  12.072  67.083  1.00  0.00     0.000 HD 
HETATM    6  N   UNL     1     -10.790  12.302  66.405  1.00  0.00    -0.255 NA 
HETATM    7  H2  UNL     1     -10.781  11.657  65.615  1.00  0.00     0.000 HD 
ENDROOT
BRANCH   3   8
HETATM    8  C   UNL     1     -10.698  14.647  67.186  1.00  0.00    -0.292 C  
HETATM    9  O   UNL     1     -11.442  15.611  67.327  1.00  0.00    -0.201 OA 
BRANCH   8  10
HETATM   10  O   UNL     1      -9.816  14.222  68.136  1.00  0.00    -0.214 OA 
BRANCH  10  11
HETATM   11  C   UNL     1      -8.427  14.387  67.786  1.00  0.00    -0.173 C  
BRANCH  11  12
HETATM   12  C   UNL     1      -7.652  15.017  68.944  1.00  0.00    -0.144 C  
BRANCH  12  13
HETATM   13  O   UNL     1      -6.686  15.915  68.393  1.00  0.00    -0.111 OA 
BRANCH  13  14
HETATM   14  C   UNL     1      -6.564  15.768  66.978  1.00  0.00     0.077 C  
BRANCH  14  15
HETATM   15  N   UNL     1      -6.284  17.060  66.379  1.00  0.00    -0.266 NA 
HETATM   16  C   UNL     1      -5.149  17.368  65.661  1.00  0.00     0.209 A  
HETATM   17  N   UNL     1      -5.172  18.605  65.200  1.00  0.00    -0.166 NA 
HETATM   18  C   UNL     1      -6.376  19.125  65.632  1.00  0.00    -0.239 A  
HETATM   19  C   UNL     1      -7.044  18.184  66.365  1.00  0.00    -0.239 A  
HETATM   20  N   UNL     1      -8.245  18.414  66.910  1.00  0.00    -0.240 NA 
HETATM   21  C   UNL     1      -8.814  19.631  66.652  1.00  0.00    -0.353 C  
HETATM   22  N   UNL     1     -10.060  19.763  67.175  1.00  0.00    -0.394 NA 
HETATM   23  N   UNL     1      -8.276  20.600  65.972  1.00  0.00    -0.360 N  
HETATM   24  H2  UNL     1     -10.526  19.027  67.708  1.00  0.00     0.000 HD 
HETATM   25  H1  UNL     1     -10.485  20.670  66.983  1.00  0.00     0.000 HD 
HETATM   26  C   UNL     1      -6.996  20.441  65.416  1.00  0.00    -0.218 C  
HETATM   27  H   UNL     1      -8.783  21.476  65.843  1.00  0.00     0.000 HD 
HETATM   28  O   UNL     1      -6.437  21.337  64.794  1.00  0.00    -0.105 OA 
ENDBRANCH  14  15
ENDBRANCH  13  14
ENDBRANCH  12  13
ENDBRANCH  11  12
ENDBRANCH  10  11
ENDBRANCH   8  10
ENDBRANCH   3   8
TORSDOF 7
ENDMDL
MODEL      345
REMARK 921   NORMALIZED FREE ENERGY PREDICTED BY IDOCK:   -3.34 KCAL/MOL
REMARK 922        TOTAL FREE ENERGY PREDICTED BY IDOCK:   -5.25 KCAL/MOL
REMARK 923 INTER-LIGAND FREE ENERGY PREDICTED BY IDOCK:   -4.99 KCAL/MOL
REMARK 924 INTRA-LIGAND FREE ENERGY PREDICTED BY IDOCK:   -0.26 KCAL/MOL
REMARK 927      BINDING AFFINITY PREDICTED BY RF-SCORE:    0.00 PKD
ROOT
HETATM    1  C   UNL     1     -11.843  15.236  67.939  1.00  0.00    -0.144 C  
HETATM    2  C   UNL     1     -10.413  14.944  67.473  1.00  0.00    -0.254 C  
HETATM    3  C   UNL     1     -10.322  13.718  66.530  1.00  0.00    -0.286 C  
HETATM    4  C   UNL     1      -9.814  16.200  66.827  1.00  0.00    -0.255 C  
HETATM    5  H1  UNL     1     -11.032  13.128  64.665  1.00  0.00     0.000 HD 
HETATM    6  N   UNL     1     -11.092  13.935  65.286  1.00  0.00    -0.308 NA 
HETATM    7  H2  UNL     1     -10.804  14.792  64.813  1.00  0.00     0.000 HD 
ENDROOT
BRANCH   3   8
HETATM    8  C   UNL     1     -10.790  12.409  67.208  1.00  0.00    -0.243 C  
HETATM    9  O   UNL     1     -10.997  12.273  68.409  1.00  0.00    -0.211 OA 
BRANCH   8  10
HETATM   10  O   UNL     1     -11.010  11.430  66.283  1.00  0.00    -0.285 OA 
BRANCH  10  11
HETATM   11  C   UNL     1     -10.971  10.087  66.806  1.00  0.00     0.053 C  
BRANCH  11  12
HETATM   12  C   UNL     1      -9.548   9.529  66.743  1.00  0.00    -0.176 C  
BRANCH  12  13
HETATM   13  O   UNL     1      -9.453   8.453  67.681  1.00  0.00    -0.145 OA 
BRANCH  13  14
HETATM   14  C   UNL     1     -10.585   7.585  67.616  1.00  0.00    -0.233 C  
BRANCH  14  15
HETATM   15  N   UNL     1     -10.299   6.360  68.341  1.00  0.00    -0.174 NA 
HETATM   16  C   UNL     1      -9.708   5.242  67.796  1.00  0.00    -0.140 A  
HETATM   17  N   UNL     1      -9.532   4.286  68.691  1.00  0.00    -0.153 NA 
HETATM   18  C   UNL     1     -10.027   4.805  69.870  1.00  0.00    -0.236 A  
HETATM   19  C   UNL     1     -10.509   6.066  69.649  1.00  0.00    -0.261 A  
HETATM   20  N   UNL     1     -11.048   6.812  70.620  1.00  0.00    -0.272 NA 
HETATM   21  C   UNL     1     -11.048   6.276  71.879  1.00  0.00    -0.268 C  
HETATM   22  N   UNL     1     -11.544   7.119  72.821  1.00  0.00    -0.522 NA 
HETATM   23  N   UNL     1     -10.620   5.093  72.208  1.00  0.00    -0.218 N  
HETATM   24  H2  UNL     1     -11.883   8.058  72.611  1.00  0.00     0.000 HD 
HETATM   25  H1  UNL     1     -11.544   6.721  73.759  1.00  0.00     0.000 HD 
HETATM   26  C   UNL     1     -10.088   4.241  71.227  1.00  0.00    -0.108 C  
HETATM   27  H   UNL     1     -10.671   4.784  73.179  1.00  0.00     0.000 HD 
HETATM   28  O   UNL     1      -9.700   3.107  71.485  1.00  0.00    -0.150 OA 
ENDBRANCH  14  15
ENDBRANCH  13  14
ENDBRANCH  12  13
ENDBRANCH  11  12
ENDBRANCH  10  11
ENDBRANCH   8  10
ENDBRANCH   3   8
TORSDOF 7
ENDMDL
MODEL      346
REMARK 921   NORMALIZED FREE ENERGY PREDICTED BY IDOCK:   -3.33 KCAL/MOL
REMARK 922        TOTAL FREE ENERGY PREDICTED BY IDOCK:   -5.24 KCAL/MOL
REMARK 923 INTER-LIGAND FREE ENERGY PREDICTED BY IDOCK:   -4.78 KCAL/MOL
REMARK 924 INTRA-LIGAND FREE ENERGY PREDICTED BY IDOCK:   -0.46 KCAL/MOL
REMARK 927      BINDING AFFINITY PREDICTED BY RF-SCORE:    0.00 PKD
ROOT
HETATM    1  C   UNL     1     -10.971   4.752  65.742  1.00  0.00     0.020 C  
HETATM    2  C   UNL     1      -9.760   5.032  64.845  1.00  0.00     0.192 C  
HETATM    3  C   UNL     1      -8.673   5.886  65.544  1.00  0.00    -0.129 C  
HETATM    4  C   UNL     1      -9.189   3.708  64.321  1.00  0.00    -0.134 C  
HETATM    5  H1  UNL     1      -7.404   5.754  67.188  1.00  0.00     0.000 HD 
HETATM    6  N   UNL     1      -8.119   5.192  66.728  1.00  0.00    -0.108 NA 
HETATM    7  H2  UNL     1      -7.768   4.265  66.487  1.00  0.00     0.000 HD 
ENDROOT
BRANCH   3   8
HETATM    8  C   UNL     1      -9.189   7.284  65.957  1.00  0.00    -0.029 C  
HETATM    9  O   UNL     1      -9.267   8.254  65.212  1.00  0.00     0.031 OA 
BRANCH   8  10
HETATM   10  O   UNL     1      -9.613   7.287  67.254  1.00  0.00    -0.140 OA 
BRANCH  10  11
HETATM   11  C   UNL     1     -10.408   8.431  67.626  1.00  0.00    -0.252 C  
BRANCH  11  12
HETATM   12  C   UNL     1      -9.932   9.002  68.963  1.00  0.00    -0.185 C  
BRANCH  12  13
HETATM   13  O   UNL     1     -10.536  10.287  69.134  1.00  0.00    -0.196 OA 
BRANCH  13  14
HETATM   14  C   UNL     1     -11.181  10.739  67.943  1.00  0.00    -0.318 C  
BRANCH  14  15
HETATM   15  N   UNL     1     -11.098  12.186  67.866  1.00  0.00    -0.229 NA 
HETATM   16  C   UNL     1     -10.825  13.018  68.930  1.00  0.00    -0.206 A  
HETATM   17  N   UNL     1     -10.773  14.287  68.568  1.00  0.00    -0.248 NA 
HETATM   18  C   UNL     1     -11.019  14.282  67.210  1.00  0.00    -0.297 A  
HETATM   19  C   UNL     1     -11.233  12.999  66.788  1.00  0.00    -0.298 A  
HETATM   20  N   UNL     1     -11.495  12.694  65.512  1.00  0.00    -0.325 NA 
HETATM   21  C   UNL     1     -11.483  13.729  64.617  1.00  0.00    -0.371 C  
HETATM   22  N   UNL     1     -11.684  13.332  63.334  1.00  0.00    -0.723 NA 
HETATM   23  N   UNL     1     -11.294  14.984  64.901  1.00  0.00    -0.408 N  
HETATM   24  H2  UNL     1     -11.828  12.359  63.064  1.00  0.00     0.000 HD 
HETATM   25  H1  UNL     1     -11.675  14.104  62.667  1.00  0.00     0.000 HD 
HETATM   26  C   UNL     1     -11.064  15.377  66.229  1.00  0.00    -0.226 C  
HETATM   27  H   UNL     1     -11.312  15.683  64.158  1.00  0.00     0.000 HD 
HETATM   28  O   UNL     1     -10.910  16.551  66.547  1.00  0.00    -0.200 OA 
ENDBRANCH  14  15
ENDBRANCH  13  14
ENDBRANCH  12  13
ENDBRANCH  11  12
ENDBRANCH  10  11
ENDBRANCH   8  10
ENDBRANCH   3   8
TORSDOF 7
ENDMDL
MODEL      347
REMARK 921   NORMALIZED FREE ENERGY PREDICTED BY IDOCK:   -3.33 KCAL/MOL
REMARK 922        TOTAL FREE ENERGY PREDICTED BY IDOCK:   -5.23 KCAL/MOL
REMARK 923 INTER-LIGAND FREE ENERGY PREDICTED BY IDOCK:   -5.72 KCAL/MOL
REMARK 924 INTRA-LIGAND FREE ENERGY PREDICTED BY IDOCK:    0.49 KCAL/MOL
REMARK 927      BINDING AFFINITY PREDICTED BY RF-SCORE:    0.00 PKD
ROOT
HETATM    1  C   UNL     1     -11.070  15.294  67.101  1.00  0.00    -0.323 C  
HETATM    2  C   UNL     1     -10.062  15.285  65.947  1.00  0.00    -0.359 C  
HETATM    3  C   UNL     1     -10.698  15.654  64.584  1.00  0.00    -0.137 C  
HETATM    4  C   UNL     1      -8.881  16.205  66.287  1.00  0.00    -0.371 C  
HETATM    5  H1  UNL     1     -11.668  17.269  63.700  1.00  0.00     0.000 HD 
HETATM    6  N   UNL     1     -11.250  17.027  64.597  1.00  0.00    -0.972 NA 
HETATM    7  H2  UNL     1     -10.545  17.709  64.878  1.00  0.00     0.000 HD 
ENDROOT
BRANCH   3   8
HETATM    8  C   UNL     1     -11.799  14.657  64.151  1.00  0.00    -0.241 C  
HETATM    9  O   UNL     1     -12.996  14.913  64.093  1.00  0.00    -0.537 OA 
BRANCH   8  10
HETATM   10  O   UNL     1     -11.258  13.463  63.774  1.00  0.00    -0.289 OA 
BRANCH  10  11
HETATM   11  C   UNL     1     -11.900  12.303  64.341  1.00  0.00    -0.388 C  
BRANCH  11  12
HETATM   12  C   UNL     1     -10.944  11.570  65.284  1.00  0.00    -0.228 C  
BRANCH  12  13
HETATM   13  O   UNL     1     -11.624  11.357  66.524  1.00  0.00    -0.408 OA 
BRANCH  13  14
HETATM   14  C   UNL     1     -10.718  11.057  67.587  1.00  0.00    -0.238 C  
BRANCH  14  15
HETATM   15  N   UNL     1      -9.439  10.654  67.033  1.00  0.00    -0.162 NA 
HETATM   16  C   UNL     1      -8.577  11.485  66.353  1.00  0.00    -0.159 A  
HETATM   17  N   UNL     1      -7.468  10.865  65.991  1.00  0.00    -0.124 NA 
HETATM   18  C   UNL     1      -7.612   9.575  66.460  1.00  0.00    -0.094 A  
HETATM   19  C   UNL     1      -8.823   9.445  67.081  1.00  0.00    -0.127 A  
HETATM   20  N   UNL     1      -9.230   8.297  67.634  1.00  0.00    -0.137 NA 
HETATM   21  C   UNL     1      -8.347   7.252  67.604  1.00  0.00    -0.117 C  
HETATM   22  N   UNL     1      -8.801   6.146  68.247  1.00  0.00    -0.114 NA 
HETATM   23  N   UNL     1      -7.174   7.258  67.044  1.00  0.00    -0.089 N  
HETATM   24  H2  UNL     1      -9.710   6.099  68.708  1.00  0.00     0.000 HD 
HETATM   25  H1  UNL     1      -8.143   5.368  68.225  1.00  0.00     0.000 HD 
HETATM   26  C   UNL     1      -6.707   8.416  66.402  1.00  0.00    -0.066 C  
HETATM   27  H   UNL     1      -6.592   6.420  67.071  1.00  0.00     0.000 HD 
HETATM   28  O   UNL     1      -5.621   8.459  65.835  1.00  0.00    -0.038 OA 
ENDBRANCH  14  15
ENDBRANCH  13  14
ENDBRANCH  12  13
ENDBRANCH  11  12
ENDBRANCH  10  11
ENDBRANCH   8  10
ENDBRANCH   3   8
TORSDOF 7
ENDMDL
MODEL      348
REMARK 921   NORMALIZED FREE ENERGY PREDICTED BY IDOCK:   -3.31 KCAL/MOL
REMARK 922        TOTAL FREE ENERGY PREDICTED BY IDOCK:   -5.21 KCAL/MOL
REMARK 923 INTER-LIGAND FREE ENERGY PREDICTED BY IDOCK:   -4.58 KCAL/MOL
REMARK 924 INTRA-LIGAND FREE ENERGY PREDICTED BY IDOCK:   -0.63 KCAL/MOL
REMARK 927      BINDING AFFINITY PREDICTED BY RF-SCORE:    0.00 PKD
ROOT
HETATM    1  C   UNL     1      -9.356  15.486  69.462  1.00  0.00    -0.276 C  
HETATM    2  C   UNL     1      -8.823  15.089  68.082  1.00  0.00    -0.167 C  
HETATM    3  C   UNL     1      -9.910  15.127  66.979  1.00  0.00    -0.230 C  
HETATM    4  C   UNL     1      -7.619  15.970  67.721  1.00  0.00    -0.157 C  
HETATM    5  H1  UNL     1     -11.167  16.517  66.075  1.00  0.00     0.000 HD 
HETATM    6  N   UNL     1     -10.452  16.492  66.800  1.00  0.00    -0.292 NA 
HETATM    7  H2  UNL     1      -9.709  17.168  66.617  1.00  0.00     0.000 HD 
ENDROOT
BRANCH   3   8
HETATM    8  C   UNL     1     -11.070  14.141  67.251  1.00  0.00    -0.305 C  
HETATM    9  O   UNL     1     -12.239  14.323  66.931  1.00  0.00    -0.438 OA 
BRANCH   8  10
HETATM   10  O   UNL     1     -10.613  12.998  67.840  1.00  0.00    -0.221 OA 
BRANCH  10  11
HETATM   11  C   UNL     1     -10.726  11.813  67.026  1.00  0.00    -0.246 C  
BRANCH  11  12
HETATM   12  C   UNL     1      -9.433  11.572  66.246  1.00  0.00    -0.217 C  
BRANCH  12  13
HETATM   13  O   UNL     1      -8.446  11.094  67.163  1.00  0.00    -0.131 OA 
BRANCH  13  14
HETATM   14  C   UNL     1      -8.146   9.713  66.956  1.00  0.00    -0.113 C  
BRANCH  14  15
HETATM   15  N   UNL     1      -8.875   8.909  67.920  1.00  0.00    -0.132 NA 
HETATM   16  C   UNL     1      -9.962   8.117  67.625  1.00  0.00    -0.185 A  
HETATM   17  N   UNL     1     -10.407   7.467  68.685  1.00  0.00    -0.195 NA 
HETATM   18  C   UNL     1      -9.572   7.849  69.715  1.00  0.00    -0.167 A  
HETATM   19  C   UNL     1      -8.647   8.742  69.247  1.00  0.00    -0.130 A  
HETATM   20  N   UNL     1      -7.705   9.281  70.030  1.00  0.00    -0.089 NA 
HETATM   21  C   UNL     1      -7.666   8.852  71.329  1.00  0.00    -0.111 C  
HETATM   22  N   UNL     1      -6.640   9.387  72.040  1.00  0.00    -0.292 NA 
HETATM   23  N   UNL     1      -8.489   8.011  71.883  1.00  0.00    -0.124 N  
HETATM   24  H2  UNL     1      -5.966  10.043  71.646  1.00  0.00     0.000 HD 
HETATM   25  H1  UNL     1      -6.611   9.067  73.008  1.00  0.00     0.000 HD 
HETATM   26  C   UNL     1      -9.531   7.448  71.130  1.00  0.00    -0.155 C  
HETATM   27  H   UNL     1      -8.377   7.761  72.866  1.00  0.00     0.000 HD 
HETATM   28  O   UNL     1     -10.348   6.674  71.617  1.00  0.00    -0.203 OA 
ENDBRANCH  14  15
ENDBRANCH  13  14
ENDBRANCH  12  13
ENDBRANCH  11  12
ENDBRANCH  10  11
ENDBRANCH   8  10
ENDBRANCH   3   8
TORSDOF 7
ENDMDL
MODEL      349
REMARK 921   NORMALIZED FREE ENERGY PREDICTED BY IDOCK:   -3.29 KCAL/MOL
REMARK 922        TOTAL FREE ENERGY PREDICTED BY IDOCK:   -5.18 KCAL/MOL
REMARK 923 INTER-LIGAND FREE ENERGY PREDICTED BY IDOCK:   -5.48 KCAL/MOL
REMARK 924 INTRA-LIGAND FREE ENERGY PREDICTED BY IDOCK:    0.30 KCAL/MOL
REMARK 927      BINDING AFFINITY PREDICTED BY RF-SCORE:    0.00 PKD
ROOT
HETATM    1  C   UNL     1      -8.317  16.860  67.866  1.00  0.00    -0.198 C  
HETATM    2  C   UNL     1      -9.842  16.736  67.785  1.00  0.00    -0.257 C  
HETATM    3  C   UNL     1     -10.374  15.404  68.370  1.00  0.00    -0.229 C  
HETATM    4  C   UNL     1     -10.494  17.951  68.461  1.00  0.00    -0.312 C  
HETATM    5  H1  UNL     1     -10.406  14.404  70.195  1.00  0.00     0.000 HD 
HETATM    6  N   UNL     1     -10.056  15.280  69.810  1.00  0.00    -0.391 NA 
HETATM    7  H2  UNL     1     -10.399  16.083  70.338  1.00  0.00     0.000 HD 
ENDROOT
BRANCH   3   8
HETATM    8  C   UNL     1      -9.839  14.166  67.613  1.00  0.00    -0.229 C  
HETATM    9  O   UNL     1      -8.778  14.119  67.002  1.00  0.00    -0.214 OA 
BRANCH   8  10
HETATM   10  O   UNL     1     -10.674  13.098  67.769  1.00  0.00    -0.233 OA 
BRANCH  10  11
HETATM   11  C   UNL     1     -10.125  11.835  67.342  1.00  0.00    -0.195 C  
BRANCH  11  12
HETATM   12  C   UNL     1      -9.702  10.998  68.551  1.00  0.00    -0.189 C  
BRANCH  12  13
HETATM   13  O   UNL     1     -10.738  10.048  68.814  1.00  0.00    -0.207 OA 
BRANCH  13  14
HETATM   14  C   UNL     1     -11.143  10.064  70.183  1.00  0.00    -0.310 C  
BRANCH  14  15
HETATM   15  N   UNL     1     -10.778   8.807  70.811  1.00  0.00    -0.217 NA 
HETATM   16  C   UNL     1     -10.557   8.634  72.160  1.00  0.00    -0.341 A  
HETATM   17  N   UNL     1     -10.275   7.379  72.461  1.00  0.00    -0.202 NA 
HETATM   18  C   UNL     1     -10.317   6.705  71.258  1.00  0.00    -0.205 A  
HETATM   19  C   UNL     1     -10.609   7.583  70.250  1.00  0.00    -0.229 A  
HETATM   20  N   UNL     1     -10.716   7.203  68.972  1.00  0.00    -0.207 NA 
HETATM   21  C   UNL     1     -10.576   5.867  68.713  1.00  0.00    -0.272 C  
HETATM   22  N   UNL     1     -10.770   5.550  67.407  1.00  0.00    -0.245 NA 
HETATM   23  N   UNL     1     -10.299   4.943  69.585  1.00  0.00    -0.202 N  
HETATM   24  H2  UNL     1     -10.998   6.239  66.690  1.00  0.00     0.000 HD 
HETATM   25  H1  UNL     1     -10.666   4.554  67.214  1.00  0.00     0.000 HD 
HETATM   26  C   UNL     1     -10.124   5.282  70.936  1.00  0.00    -0.226 C  
HETATM   27  H   UNL     1     -10.208   3.971  69.287  1.00  0.00     0.000 HD 
HETATM   28  O   UNL     1      -9.833   4.450  71.788  1.00  0.00    -0.168 OA 
ENDBRANCH  14  15
ENDBRANCH  13  14
ENDBRANCH  12  13
ENDBRANCH  11  12
ENDBRANCH  10  11
ENDBRANCH   8  10
ENDBRANCH   3   8
TORSDOF 7
ENDMDL
MODEL      350
REMARK 921   NORMALIZED FREE ENERGY PREDICTED BY IDOCK:   -3.29 KCAL/MOL
REMARK 922        TOTAL FREE ENERGY PREDICTED BY IDOCK:   -5.17 KCAL/MOL
REMARK 923 INTER-LIGAND FREE ENERGY PREDICTED BY IDOCK:   -4.22 KCAL/MOL
REMARK 924 INTRA-LIGAND FREE ENERGY PREDICTED BY IDOCK:   -0.95 KCAL/MOL
REMARK 927      BINDING AFFINITY PREDICTED BY RF-SCORE:    0.00 PKD
ROOT
HETATM    1  C   UNL     1      -7.958  13.170  67.118  1.00  0.00    -0.083 C  
HETATM    2  C   UNL     1      -6.803  12.668  67.990  1.00  0.00    -0.095 C  
HETATM    3  C   UNL     1      -6.055  11.462  67.369  1.00  0.00    -0.074 C  
HETATM    4  C   UNL     1      -5.848  13.829  68.299  1.00  0.00    -0.109 C  
HETATM    5  H1  UNL     1      -4.937  11.027  65.669  1.00  0.00     0.000 HD 
HETATM    6  N   UNL     1      -5.429  11.821  66.077  1.00  0.00    -0.474 NA 
HETATM    7  H2  UNL     1      -4.818  12.632  66.171  1.00  0.00     0.000 HD 
ENDROOT
BRANCH   3   8
HETATM    8  C   UNL     1      -6.968  10.228  67.178  1.00  0.00    -0.088 C  
HETATM    9  O   UNL     1      -7.670   9.730  68.051  1.00  0.00    -0.083 OA 
BRANCH   8  10
HETATM   10  O   UNL     1      -6.946   9.798  65.884  1.00  0.00    -0.093 OA 
BRANCH  10  11
HETATM   11  C   UNL     1      -8.154   9.146  65.444  1.00  0.00    -0.124 C  
BRANCH  11  12
HETATM   12  C   UNL     1      -7.953   7.631  65.380  1.00  0.00    -0.123 C  
BRANCH  12  13
HETATM   13  O   UNL     1      -8.611   7.050  66.509  1.00  0.00    -0.119 OA 
BRANCH  13  14
HETATM   14  C   UNL     1     -10.007   7.349  66.527  1.00  0.00    -0.124 C  
BRANCH  14  15
HETATM   15  N   UNL     1     -10.376   7.859  67.835  1.00  0.00    -0.218 NA 
HETATM   16  C   UNL     1     -10.323   7.137  69.007  1.00  0.00    -0.199 A  
HETATM   17  N   UNL     1     -10.681   7.859  70.053  1.00  0.00    -0.243 NA 
HETATM   18  C   UNL     1     -10.977   9.107  69.542  1.00  0.00    -0.123 A  
HETATM   19  C   UNL     1     -10.805   9.098  68.185  1.00  0.00    -0.061 A  
HETATM   20  N   UNL     1     -11.020  10.178  67.425  1.00  0.00    -0.276 NA 
HETATM   21  C   UNL     1     -11.369  11.330  68.076  1.00  0.00    -0.304 C  
HETATM   22  N   UNL     1     -11.498  12.397  67.247  1.00  0.00    -0.332 NA 
HETATM   23  N   UNL     1     -11.561  11.457  69.356  1.00  0.00    -0.292 N  
HETATM   24  H2  UNL     1     -11.349  12.346  66.239  1.00  0.00     0.000 HD 
HETATM   25  H1  UNL     1     -11.758  13.255  67.732  1.00  0.00     0.000 HD 
HETATM   26  C   UNL     1     -11.402  10.350  70.204  1.00  0.00    -0.323 C  
HETATM   27  H   UNL     1     -11.828  12.363  69.743  1.00  0.00     0.000 HD 
HETATM   28  O   UNL     1     -11.601  10.416  71.412  1.00  0.00    -0.266 OA 
ENDBRANCH  14  15
ENDBRANCH  13  14
ENDBRANCH  12  13
ENDBRANCH  11  12
ENDBRANCH  10  11
ENDBRANCH   8  10
ENDBRANCH   3   8
TORSDOF 7
ENDMDL
MODEL      351
REMARK 921   NORMALIZED FREE ENERGY PREDICTED BY IDOCK:   -3.27 KCAL/MOL
REMARK 922        TOTAL FREE ENERGY PREDICTED BY IDOCK:   -5.15 KCAL/MOL
REMARK 923 INTER-LIGAND FREE ENERGY PREDICTED BY IDOCK:   -4.54 KCAL/MOL
REMARK 924 INTRA-LIGAND FREE ENERGY PREDICTED BY IDOCK:   -0.61 KCAL/MOL
REMARK 927      BINDING AFFINITY PREDICTED BY RF-SCORE:    0.00 PKD
ROOT
HETATM    1  C   UNL     1     -10.683   3.747  63.941  1.00  0.00    -0.257 C  
HETATM    2  C   UNL     1      -9.316   3.446  63.318  1.00  0.00    -0.098 C  
HETATM    3  C   UNL     1      -8.131   3.845  64.234  1.00  0.00    -0.090 C  
HETATM    4  C   UNL     1      -9.247   1.967  62.916  1.00  0.00    -0.090 C  
HETATM    5  H1  UNL     1      -7.370   3.345  66.105  1.00  0.00     0.000 HD 
HETATM    6  N   UNL     1      -8.149   3.083  65.502  1.00  0.00    -0.086 NA 
HETATM    7  H2  UNL     1      -8.169   2.077  65.333  1.00  0.00     0.000 HD 
ENDROOT
BRANCH   3   8
HETATM    8  C   UNL     1      -8.099   5.360  64.540  1.00  0.00    -0.122 C  
HETATM    9  O   UNL     1      -8.106   6.249  63.695  1.00  0.00    -0.114 OA 
BRANCH   8  10
HETATM   10  O   UNL     1      -8.128   5.589  65.884  1.00  0.00    -0.104 OA 
BRANCH  10  11
HETATM   11  C   UNL     1      -8.972   6.685  66.291  1.00  0.00    -0.152 C  
BRANCH  11  12
HETATM   12  C   UNL     1     -10.308   6.163  66.825  1.00  0.00    -0.231 C  
BRANCH  12  13
HETATM   13  O   UNL     1     -10.932   7.218  67.561  1.00  0.00    -0.226 OA 
BRANCH  13  14
HETATM   14  C   UNL     1     -10.083   7.730  68.589  1.00  0.00    -0.199 C  
BRANCH  14  15
HETATM   15  N   UNL     1     -10.023   6.780  69.685  1.00  0.00    -0.171 NA 
HETATM   16  C   UNL     1      -8.974   5.921  69.928  1.00  0.00    -0.139 A  
HETATM   17  N   UNL     1      -9.168   5.193  71.013  1.00  0.00    -0.144 NA 
HETATM   18  C   UNL     1     -10.394   5.598  71.500  1.00  0.00    -0.222 A  
HETATM   19  C   UNL     1     -10.920   6.556  70.678  1.00  0.00    -0.287 A  
HETATM   20  N   UNL     1     -12.105   7.132  70.909  1.00  0.00    -0.340 NA 
HETATM   21  C   UNL     1     -12.758   6.760  72.053  1.00  0.00    -0.189 C  
HETATM   22  N   UNL     1     -13.915   7.440  72.256  1.00  0.00    -0.537 NA 
HETATM   23  N   UNL     1     -12.357   5.864  72.907  1.00  0.00    -0.313 N  
HETATM   24  H2  UNL     1     -14.265   8.156  71.619  1.00  0.00     0.000 HD 
HETATM   25  H1  UNL     1     -14.401   7.163  73.109  1.00  0.00     0.000 HD 
HETATM   26  C   UNL     1     -11.145   5.187  72.696  1.00  0.00    -0.234 C  
HETATM   27  H   UNL     1     -12.923   5.654  73.729  1.00  0.00     0.000 HD 
HETATM   28  O   UNL     1     -10.743   4.314  73.457  1.00  0.00    -0.192 OA 
ENDBRANCH  14  15
ENDBRANCH  13  14
ENDBRANCH  12  13
ENDBRANCH  11  12
ENDBRANCH  10  11
ENDBRANCH   8  10
ENDBRANCH   3   8
TORSDOF 7
ENDMDL
MODEL      352
REMARK 921   NORMALIZED FREE ENERGY PREDICTED BY IDOCK:   -3.27 KCAL/MOL
REMARK 922        TOTAL FREE ENERGY PREDICTED BY IDOCK:   -5.14 KCAL/MOL
REMARK 923 INTER-LIGAND FREE ENERGY PREDICTED BY IDOCK:   -5.06 KCAL/MOL
REMARK 924 INTRA-LIGAND FREE ENERGY PREDICTED BY IDOCK:   -0.08 KCAL/MOL
REMARK 927      BINDING AFFINITY PREDICTED BY RF-SCORE:    0.00 PKD
ROOT
HETATM    1  C   UNL     1     -11.324  14.773  65.018  1.00  0.00    -0.391 C  
HETATM    2  C   UNL     1     -10.964  15.812  66.086  1.00  0.00    -0.169 C  
HETATM    3  C   UNL     1     -10.026  15.251  67.184  1.00  0.00    -0.233 C  
HETATM    4  C   UNL     1     -10.368  17.056  65.414  1.00  0.00    -0.084 C  
HETATM    5  H1  UNL     1      -8.112  14.450  67.342  1.00  0.00     0.000 HD 
HETATM    6  N   UNL     1      -8.729  14.819  66.619  1.00  0.00    -0.409 NA 
HETATM    7  H2  UNL     1      -8.282  15.571  66.093  1.00  0.00     0.000 HD 
ENDROOT
BRANCH   3   8
HETATM    8  C   UNL     1     -10.664  14.083  67.972  1.00  0.00    -0.246 C  
HETATM    9  O   UNL     1     -11.773  14.108  68.493  1.00  0.00    -0.306 OA 
BRANCH   8  10
HETATM   10  O   UNL     1      -9.855  12.984  67.958  1.00  0.00    -0.211 OA 
BRANCH  10  11
HETATM   11  C   UNL     1     -10.508  11.760  67.564  1.00  0.00    -0.202 C  
BRANCH  11  12
HETATM   12  C   UNL     1     -11.412  11.249  68.687  1.00  0.00    -0.297 C  
BRANCH  12  13
HETATM   13  O   UNL     1     -10.629  10.407  69.537  1.00  0.00    -0.217 OA 
BRANCH  13  14
HETATM   14  C   UNL     1     -11.427   9.748  70.520  1.00  0.00    -0.300 C  
BRANCH  14  15
HETATM   15  N   UNL     1     -10.991   8.369  70.653  1.00  0.00    -0.240 NA 
HETATM   16  C   UNL     1     -11.486   7.312  69.922  1.00  0.00    -0.054 A  
HETATM   17  N   UNL     1     -10.884   6.175  70.222  1.00  0.00    -0.291 NA 
HETATM   18  C   UNL     1      -9.954   6.507  71.187  1.00  0.00    -0.182 A  
HETATM   19  C   UNL     1     -10.034   7.845  71.459  1.00  0.00    -0.173 A  
HETATM   20  N   UNL     1      -9.245   8.445  72.358  1.00  0.00    -0.257 NA 
HETATM   21  C   UNL     1      -8.299   7.665  72.965  1.00  0.00    -0.133 C  
HETATM   22  N   UNL     1      -7.491   8.359  73.807  1.00  0.00    -0.310 NA 
HETATM   23  N   UNL     1      -8.130   6.388  72.787  1.00  0.00    -0.108 N  
HETATM   24  H2  UNL     1      -7.580   9.362  73.971  1.00  0.00     0.000 HD 
HETATM   25  H1  UNL     1      -6.786   7.778  74.259  1.00  0.00     0.000 HD 
HETATM   26  C   UNL     1      -8.958   5.688  71.895  1.00  0.00    -0.139 C  
HETATM   27  H   UNL     1      -7.396   5.895  73.296  1.00  0.00     0.000 HD 
HETATM   28  O   UNL     1      -8.855   4.479  71.717  1.00  0.00    -0.114 OA 
ENDBRANCH  14  15
ENDBRANCH  13  14
ENDBRANCH  12  13
ENDBRANCH  11  12
ENDBRANCH  10  11
ENDBRANCH   8  10
ENDBRANCH   3   8
TORSDOF 7
ENDMDL
MODEL      353
REMARK 921   NORMALIZED FREE ENERGY PREDICTED BY IDOCK:   -3.24 KCAL/MOL
REMARK 922        TOTAL FREE ENERGY PREDICTED BY IDOCK:   -5.11 KCAL/MOL
REMARK 923 INTER-LIGAND FREE ENERGY PREDICTED BY IDOCK:   -4.43 KCAL/MOL
REMARK 924 INTRA-LIGAND FREE ENERGY PREDICTED BY IDOCK:   -0.69 KCAL/MOL
REMARK 927      BINDING AFFINITY PREDICTED BY RF-SCORE:    0.00 PKD
ROOT
HETATM    1  C   UNL     1     -10.748   7.252  67.185  1.00  0.00    -0.413 C  
HETATM    2  C   UNL     1      -9.903   7.188  68.462  1.00  0.00    -0.155 C  
HETATM    3  C   UNL     1      -8.917   8.375  68.595  1.00  0.00    -0.140 C  
HETATM    4  C   UNL     1     -10.823   7.077  69.685  1.00  0.00    -0.275 C  
HETATM    5  H1  UNL     1      -8.984  10.449  68.764  1.00  0.00     0.000 HD 
HETATM    6  N   UNL     1      -9.633   9.667  68.676  1.00  0.00    -0.148 NA 
HETATM    7  H2  UNL     1     -10.321   9.666  69.430  1.00  0.00     0.000 HD 
ENDROOT
BRANCH   3   8
HETATM    8  C   UNL     1      -7.886   8.426  67.443  1.00  0.00    -0.099 C  
HETATM    9  O   UNL     1      -7.696   7.529  66.629  1.00  0.00    -0.097 OA 
BRANCH   8  10
HETATM   10  O   UNL     1      -7.253   9.634  67.404  1.00  0.00    -0.085 OA 
BRANCH  10  11
HETATM   11  C   UNL     1      -6.040   9.704  68.180  1.00  0.00    -0.055 C  
BRANCH  11  12
HETATM   12  C   UNL     1      -6.132  10.823  69.220  1.00  0.00    -0.045 C  
BRANCH  12  13
HETATM   13  O   UNL     1      -7.103  11.769  68.766  1.00  0.00    -0.098 OA 
BRANCH  13  14
HETATM   14  C   UNL     1      -6.568  13.091  68.690  1.00  0.00    -0.092 C  
BRANCH  14  15
HETATM   15  N   UNL     1      -7.651  14.056  68.755  1.00  0.00    -0.125 NA 
HETATM   16  C   UNL     1      -7.536  15.337  69.249  1.00  0.00    -0.213 A  
HETATM   17  N   UNL     1      -8.669  16.010  69.155  1.00  0.00    -0.247 NA 
HETATM   18  C   UNL     1      -9.558  15.131  68.571  1.00  0.00    -0.214 A  
HETATM   19  C   UNL     1      -8.938  13.934  68.343  1.00  0.00    -0.178 A  
HETATM   20  N   UNL     1      -9.563  12.893  67.782  1.00  0.00    -0.205 NA 
HETATM   21  C   UNL     1     -10.857  13.094  67.384  1.00  0.00    -0.255 C  
HETATM   22  N   UNL     1     -11.400  12.018  66.759  1.00  0.00    -0.326 NA 
HETATM   23  N   UNL     1     -11.548  14.183  67.548  1.00  0.00    -0.346 N  
HETATM   24  H2  UNL     1     -10.893  11.146  66.601  1.00  0.00     0.000 HD 
HETATM   25  H1  UNL     1     -12.364  12.167  66.462  1.00  0.00     0.000 HD 
HETATM   26  C   UNL     1     -10.966  15.296  68.176  1.00  0.00    -0.292 C  
HETATM   27  H   UNL     1     -12.513  14.229  67.220  1.00  0.00     0.000 HD 
HETATM   28  O   UNL     1     -11.588  16.333  68.378  1.00  0.00    -0.327 OA 
ENDBRANCH  14  15
ENDBRANCH  13  14
ENDBRANCH  12  13
ENDBRANCH  11  12
ENDBRANCH  10  11
ENDBRANCH   8  10
ENDBRANCH   3   8
TORSDOF 7
ENDMDL
MODEL      354
REMARK 921   NORMALIZED FREE ENERGY PREDICTED BY IDOCK:   -3.24 KCAL/MOL
REMARK 922        TOTAL FREE ENERGY PREDICTED BY IDOCK:   -5.11 KCAL/MOL
REMARK 923 INTER-LIGAND FREE ENERGY PREDICTED BY IDOCK:   -4.81 KCAL/MOL
REMARK 924 INTRA-LIGAND FREE ENERGY PREDICTED BY IDOCK:   -0.30 KCAL/MOL
REMARK 927      BINDING AFFINITY PREDICTED BY RF-SCORE:    0.00 PKD
ROOT
HETATM    1  C   UNL     1      -6.139   4.314  67.140  1.00  0.00    -0.028 C  
HETATM    2  C   UNL     1      -7.112   3.174  66.823  1.00  0.00    -0.054 C  
HETATM    3  C   UNL     1      -7.964   3.440  65.556  1.00  0.00    -0.089 C  
HETATM    4  C   UNL     1      -6.340   1.852  66.717  1.00  0.00    -0.023 C  
HETATM    5  H1  UNL     1      -7.677   3.740  63.517  1.00  0.00     0.000 HD 
HETATM    6  N   UNL     1      -7.116   3.565  64.350  1.00  0.00    -0.056 NA 
HETATM    7  H2  UNL     1      -6.513   2.750  64.231  1.00  0.00     0.000 HD 
ENDROOT
BRANCH   3   8
HETATM    8  C   UNL     1      -8.859   4.693  65.693  1.00  0.00    -0.131 C  
HETATM    9  O   UNL     1      -8.716   5.733  65.060  1.00  0.00    -0.127 OA 
BRANCH   8  10
HETATM   10  O   UNL     1      -9.882   4.471  66.569  1.00  0.00    -0.191 OA 
BRANCH  10  11
HETATM   11  C   UNL     1     -10.891   5.501  66.591  1.00  0.00    -0.179 C  
BRANCH  11  12
HETATM   12  C   UNL     1     -11.003   6.112  67.989  1.00  0.00    -0.305 C  
BRANCH  12  13
HETATM   13  O   UNL     1      -9.712   6.053  68.601  1.00  0.00    -0.122 OA 
BRANCH  13  14
HETATM   14  C   UNL     1      -9.097   7.339  68.680  1.00  0.00    -0.133 C  
BRANCH  14  15
HETATM   15  N   UNL     1     -10.020   8.282  69.286  1.00  0.00    -0.187 NA 
HETATM   16  C   UNL     1     -10.465   9.442  68.692  1.00  0.00    -0.209 A  
HETATM   17  N   UNL     1     -11.327  10.092  69.453  1.00  0.00    -0.185 NA 
HETATM   18  C   UNL     1     -11.452   9.319  70.591  1.00  0.00    -0.274 A  
HETATM   19  C   UNL     1     -10.640   8.223  70.491  1.00  0.00    -0.219 A  
HETATM   20  N   UNL     1     -10.560   7.297  71.453  1.00  0.00    -0.212 NA 
HETATM   21  C   UNL     1     -11.380   7.461  72.536  1.00  0.00    -0.313 C  
HETATM   22  N   UNL     1     -11.295   6.445  73.433  1.00  0.00    -0.413 NA 
HETATM   23  N   UNL     1     -12.189   8.459  72.739  1.00  0.00    -0.531 N  
HETATM   24  H2  UNL     1     -10.681   5.639  73.312  1.00  0.00     0.000 HD 
HETATM   25  H1  UNL     1     -11.906   6.568  74.240  1.00  0.00     0.000 HD 
HETATM   26  C   UNL     1     -12.284   9.490  71.792  1.00  0.00    -0.387 C  
HETATM   27  H   UNL     1     -12.756   8.491  73.587  1.00  0.00     0.000 HD 
HETATM   28  O   UNL     1     -13.010  10.464  71.955  1.00  0.00    -0.438 OA 
ENDBRANCH  14  15
ENDBRANCH  13  14
ENDBRANCH  12  13
ENDBRANCH  11  12
ENDBRANCH  10  11
ENDBRANCH   8  10
ENDBRANCH   3   8
TORSDOF 7
ENDMDL
MODEL      355
REMARK 921   NORMALIZED FREE ENERGY PREDICTED BY IDOCK:   -3.22 KCAL/MOL
REMARK 922        TOTAL FREE ENERGY PREDICTED BY IDOCK:   -5.08 KCAL/MOL
REMARK 923 INTER-LIGAND FREE ENERGY PREDICTED BY IDOCK:   -5.22 KCAL/MOL
REMARK 924 INTRA-LIGAND FREE ENERGY PREDICTED BY IDOCK:    0.13 KCAL/MOL
REMARK 927      BINDING AFFINITY PREDICTED BY RF-SCORE:    0.00 PKD
ROOT
HETATM    1  C   UNL     1     -10.788   4.308  72.893  1.00  0.00    -0.230 C  
HETATM    2  C   UNL     1      -9.713   5.394  72.772  1.00  0.00    -0.169 C  
HETATM    3  C   UNL     1     -10.301   6.827  72.745  1.00  0.00    -0.209 C  
HETATM    4  C   UNL     1      -8.683   5.227  73.897  1.00  0.00    -0.118 C  
HETATM    5  H1  UNL     1     -11.408   8.084  73.980  1.00  0.00     0.000 HD 
HETATM    6  N   UNL     1     -11.021   7.141  73.999  1.00  0.00    -0.425 NA 
HETATM    7  H2  UNL     1     -10.428   6.995  74.816  1.00  0.00     0.000 HD 
ENDROOT
BRANCH   3   8
HETATM    8  C   UNL     1     -11.236   7.065  71.536  1.00  0.00    -0.249 C  
HETATM    9  O   UNL     1     -12.459   6.981  71.566  1.00  0.00    -0.349 OA 
BRANCH   8  10
HETATM   10  O   UNL     1     -10.527   7.448  70.436  1.00  0.00    -0.214 OA 
BRANCH  10  11
HETATM   11  C   UNL     1     -10.797   8.790  69.982  1.00  0.00    -0.223 C  
BRANCH  11  12
HETATM   12  C   UNL     1     -10.786   8.852  68.454  1.00  0.00    -0.076 C  
BRANCH  12  13
HETATM   13  O   UNL     1      -9.513   9.358  68.041  1.00  0.00    -0.133 OA 
BRANCH  13  14
HETATM   14  C   UNL     1      -9.257  10.659  68.570  1.00  0.00    -0.170 C  
BRANCH  14  15
HETATM   15  N   UNL     1      -9.959  11.652  67.776  1.00  0.00    -0.178 NA 
HETATM   16  C   UNL     1     -11.293  11.593  67.439  1.00  0.00    -0.300 A  
HETATM   17  N   UNL     1     -11.677  12.646  66.742  1.00  0.00    -0.382 NA 
HETATM   18  C   UNL     1     -10.546  13.427  66.622  1.00  0.00    -0.282 A  
HETATM   19  C   UNL     1      -9.495  12.809  67.241  1.00  0.00    -0.204 A  
HETATM   20  N   UNL     1      -8.269  13.343  67.284  1.00  0.00    -0.174 NA 
HETATM   21  C   UNL     1      -8.116  14.581  66.722  1.00  0.00     0.163 C  
HETATM   22  N   UNL     1      -6.865  15.088  66.869  1.00  0.00    -0.237 NA 
HETATM   23  N   UNL     1      -9.039  15.262  66.109  1.00  0.00    -0.414 N  
HETATM   24  H2  UNL     1      -6.113  14.594  67.350  1.00  0.00     0.000 HD 
HETATM   25  H1  UNL     1      -6.752  16.011  66.451  1.00  0.00     0.000 HD 
HETATM   26  C   UNL     1     -10.335  14.737  65.985  1.00  0.00    -0.305 C  
HETATM   27  H   UNL     1      -8.821  16.179  65.717  1.00  0.00     0.000 HD 
HETATM   28  O   UNL     1     -11.228  15.329  65.390  1.00  0.00    -0.341 OA 
ENDBRANCH  14  15
ENDBRANCH  13  14
ENDBRANCH  12  13
ENDBRANCH  11  12
ENDBRANCH  10  11
ENDBRANCH   8  10
ENDBRANCH   3   8
TORSDOF 7
ENDMDL
MODEL      356
REMARK 921   NORMALIZED FREE ENERGY PREDICTED BY IDOCK:   -3.20 KCAL/MOL
REMARK 922        TOTAL FREE ENERGY PREDICTED BY IDOCK:   -5.05 KCAL/MOL
REMARK 923 INTER-LIGAND FREE ENERGY PREDICTED BY IDOCK:   -4.45 KCAL/MOL
REMARK 924 INTRA-LIGAND FREE ENERGY PREDICTED BY IDOCK:   -0.60 KCAL/MOL
REMARK 927      BINDING AFFINITY PREDICTED BY RF-SCORE:    0.00 PKD
ROOT
HETATM    1  C   UNL     1      -9.423   5.177  72.521  1.00  0.00    -0.166 C  
HETATM    2  C   UNL     1      -9.598   6.687  72.334  1.00  0.00    -0.154 C  
HETATM    3  C   UNL     1     -10.093   7.069  70.916  1.00  0.00    -0.193 C  
HETATM    4  C   UNL     1     -10.527   7.238  73.424  1.00  0.00    -0.423 C  
HETATM    5  H1  UNL     1     -11.752   6.743  69.703  1.00  0.00     0.000 HD 
HETATM    6  N   UNL     1     -11.427   6.492  70.635  1.00  0.00    -0.352 NA 
HETATM    7  H2  UNL     1     -12.105   6.754  71.351  1.00  0.00     0.000 HD 
ENDROOT
BRANCH   3   8
HETATM    8  C   UNL     1      -9.102   6.647  69.806  1.00  0.00    -0.143 C  
HETATM    9  O   UNL     1      -8.825   5.490  69.512  1.00  0.00    -0.106 OA 
BRANCH   8  10
HETATM   10  O   UNL     1      -8.619   7.736  69.141  1.00  0.00    -0.136 OA 
BRANCH  10  11
HETATM   11  C   UNL     1      -7.789   8.608  69.935  1.00  0.00    -0.093 C  
BRANCH  11  12
HETATM   12  C   UNL     1      -6.576   9.075  69.128  1.00  0.00    -0.050 C  
BRANCH  12  13
HETATM   13  O   UNL     1      -6.739   8.618  67.782  1.00  0.00    -0.064 OA 
BRANCH  13  14
HETATM   14  C   UNL     1      -6.669   9.689  66.841  1.00  0.00    -0.075 C  
BRANCH  14  15
HETATM   15  N   UNL     1      -8.012  10.089  66.462  1.00  0.00    -0.114 NA 
HETATM   16  C   UNL     1      -8.776   9.472  65.496  1.00  0.00    -0.154 A  
HETATM   17  N   UNL     1      -9.972  10.020  65.382  1.00  0.00    -0.308 NA 
HETATM   18  C   UNL     1      -9.990  11.035  66.316  1.00  0.00    -0.224 A  
HETATM   19  C   UNL     1      -8.786  11.085  66.962  1.00  0.00    -0.141 A  
HETATM   20  N   UNL     1      -8.521  11.976  67.924  1.00  0.00    -0.151 NA 
HETATM   21  C   UNL     1      -9.540  12.815  68.284  1.00  0.00    -0.211 C  
HETATM   22  N   UNL     1      -9.219  13.639  69.314  1.00  0.00    -0.080 NA 
HETATM   23  N   UNL     1     -10.722  12.860  67.743  1.00  0.00    -0.221 N  
HETATM   24  H2  UNL     1      -8.309  13.634  69.774  1.00  0.00     0.000 HD 
HETATM   25  H1  UNL     1      -9.979  14.265  69.582  1.00  0.00     0.000 HD 
HETATM   26  C   UNL     1     -11.048  11.986  66.694  1.00  0.00    -0.310 C  
HETATM   27  H   UNL     1     -11.412  13.531  68.081  1.00  0.00     0.000 HD 
HETATM   28  O   UNL     1     -12.138  12.012  66.134  1.00  0.00    -0.582 OA 
ENDBRANCH  14  15
ENDBRANCH  13  14
ENDBRANCH  12  13
ENDBRANCH  11  12
ENDBRANCH  10  11
ENDBRANCH   8  10
ENDBRANCH   3   8
TORSDOF 7
ENDMDL
MODEL      357
REMARK 921   NORMALIZED FREE ENERGY PREDICTED BY IDOCK:   -3.19 KCAL/MOL
REMARK 922        TOTAL FREE ENERGY PREDICTED BY IDOCK:   -5.04 KCAL/MOL
REMARK 923 INTER-LIGAND FREE ENERGY PREDICTED BY IDOCK:   -4.43 KCAL/MOL
REMARK 924 INTRA-LIGAND FREE ENERGY PREDICTED BY IDOCK:   -0.60 KCAL/MOL
REMARK 927      BINDING AFFINITY PREDICTED BY RF-SCORE:    0.00 PKD
ROOT
HETATM    1  C   UNL     1      -9.205  11.374  68.902  1.00  0.00    -0.035 C  
HETATM    2  C   UNL     1     -10.067  11.729  67.686  1.00  0.00    -0.206 C  
HETATM    3  C   UNL     1     -10.533  10.484  66.890  1.00  0.00    -0.246 C  
HETATM    4  C   UNL     1     -11.254  12.594  68.130  1.00  0.00    -0.311 C  
HETATM    5  H1  UNL     1     -11.692   8.782  67.194  1.00  0.00     0.000 HD 
HETATM    6  N   UNL     1     -11.385   9.601  67.717  1.00  0.00    -0.439 NA 
HETATM    7  H2  UNL     1     -12.177  10.110  68.113  1.00  0.00     0.000 HD 
ENDROOT
BRANCH   3   8
HETATM    8  C   UNL     1      -9.353   9.670  66.311  1.00  0.00    -0.185 C  
HETATM    9  O   UNL     1      -8.690   9.992  65.331  1.00  0.00    -0.144 OA 
BRANCH   8  10
HETATM   10  O   UNL     1      -9.095   8.570  67.075  1.00  0.00    -0.136 OA 
BRANCH  10  11
HETATM   11  C   UNL     1      -8.475   7.476  66.368  1.00  0.00    -0.131 C  
BRANCH  11  12
HETATM   12  C   UNL     1      -7.364   6.852  67.215  1.00  0.00    -0.091 C  
BRANCH  12  13
HETATM   13  O   UNL     1      -7.877   5.654  67.803  1.00  0.00    -0.096 OA 
BRANCH  13  14
HETATM   14  C   UNL     1      -9.116   5.877  68.478  1.00  0.00    -0.111 C  
BRANCH  14  15
HETATM   15  N   UNL     1      -8.855   6.340  69.829  1.00  0.00    -0.139 NA 
HETATM   16  C   UNL     1      -7.693   6.108  70.531  1.00  0.00    -0.101 A  
HETATM   17  N   UNL     1      -7.711   6.675  71.724  1.00  0.00    -0.096 NA 
HETATM   18  C   UNL     1      -8.936   7.306  71.801  1.00  0.00    -0.127 A  
HETATM   19  C   UNL     1      -9.638   7.085  70.649  1.00  0.00    -0.165 A  
HETATM   20  N   UNL     1     -10.864   7.582  70.445  1.00  0.00    -0.240 NA 
HETATM   21  C   UNL     1     -11.375   8.383  71.430  1.00  0.00    -0.264 C  
HETATM   22  N   UNL     1     -12.587   8.908  71.120  1.00  0.00    -0.460 NA 
HETATM   23  N   UNL     1     -10.802   8.662  72.564  1.00  0.00    -0.241 N  
HETATM   24  H2  UNL     1     -13.070   8.724  70.241  1.00  0.00     0.000 HD 
HETATM   25  H1  UNL     1     -12.968   9.504  71.854  1.00  0.00     0.000 HD 
HETATM   26  C   UNL     1      -9.536   8.131  72.861  1.00  0.00    -0.275 C  
HETATM   27  H   UNL     1     -11.272   9.267  73.238  1.00  0.00     0.000 HD 
HETATM   28  O   UNL     1      -8.972   8.342  73.928  1.00  0.00    -0.195 OA 
ENDBRANCH  14  15
ENDBRANCH  13  14
ENDBRANCH  12  13
ENDBRANCH  11  12
ENDBRANCH  10  11
ENDBRANCH   8  10
ENDBRANCH   3   8
TORSDOF 7
ENDMDL
MODEL      358
REMARK 921   NORMALIZED FREE ENERGY PREDICTED BY IDOCK:   -3.19 KCAL/MOL
REMARK 922        TOTAL FREE ENERGY PREDICTED BY IDOCK:   -5.03 KCAL/MOL
REMARK 923 INTER-LIGAND FREE ENERGY PREDICTED BY IDOCK:   -4.72 KCAL/MOL
REMARK 924 INTRA-LIGAND FREE ENERGY PREDICTED BY IDOCK:   -0.32 KCAL/MOL
REMARK 927      BINDING AFFINITY PREDICTED BY RF-SCORE:    0.00 PKD
ROOT
HETATM    1  C   UNL     1     -10.202   5.956  73.026  1.00  0.00    -0.211 C  
HETATM    2  C   UNL     1      -9.226   7.011  72.494  1.00  0.00    -0.156 C  
HETATM    3  C   UNL     1      -9.106   7.001  70.950  1.00  0.00    -0.153 C  
HETATM    4  C   UNL     1      -9.625   8.395  73.022  1.00  0.00    -0.215 C  
HETATM    5  H1  UNL     1     -10.321   7.311  69.289  1.00  0.00     0.000 HD 
HETATM    6  N   UNL     1     -10.399   7.318  70.305  1.00  0.00    -0.207 NA 
HETATM    7  H2  UNL     1     -10.779   8.202  70.645  1.00  0.00     0.000 HD 
ENDROOT
BRANCH   3   8
HETATM    8  C   UNL     1      -8.570   5.657  70.403  1.00  0.00    -0.132 C  
HETATM    9  O   UNL     1      -8.869   4.551  70.837  1.00  0.00    -0.107 OA 
BRANCH   8  10
HETATM   10  O   UNL     1      -7.764   5.856  69.320  1.00  0.00    -0.090 OA 
BRANCH  10  11
HETATM   11  C   UNL     1      -8.433   5.765  68.045  1.00  0.00    -0.106 C  
BRANCH  11  12
HETATM   12  C   UNL     1      -8.122   6.993  67.187  1.00  0.00    -0.118 C  
BRANCH  12  13
HETATM   13  O   UNL     1      -8.626   8.146  67.866  1.00  0.00    -0.130 OA 
BRANCH  13  14
HETATM   14  C   UNL     1      -8.793   9.256  66.984  1.00  0.00    -0.123 C  
BRANCH  14  15
HETATM   15  N   UNL     1      -9.612  10.267  67.628  1.00  0.00    -0.151 NA 
HETATM   16  C   UNL     1      -9.645  10.510  68.983  1.00  0.00    -0.202 A  
HETATM   17  N   UNL     1     -10.450  11.511  69.290  1.00  0.00    -0.099 NA 
HETATM   18  C   UNL     1     -10.961  11.942  68.083  1.00  0.00    -0.227 A  
HETATM   19  C   UNL     1     -10.459  11.170  67.072  1.00  0.00    -0.235 A  
HETATM   20  N   UNL     1     -10.784  11.364  65.788  1.00  0.00    -0.267 NA 
HETATM   21  C   UNL     1     -11.608  12.421  65.515  1.00  0.00    -0.385 C  
HETATM   22  N   UNL     1     -11.832  12.598  64.188  1.00  0.00    -0.377 NA 
HETATM   23  N   UNL     1     -12.144  13.220  66.390  1.00  0.00    -0.407 N  
HETATM   24  H2  UNL     1     -11.427  12.002  63.466  1.00  0.00     0.000 HD 
HETATM   25  H1  UNL     1     -12.446  13.386  63.984  1.00  0.00     0.000 HD 
HETATM   26  C   UNL     1     -11.884  13.040  67.757  1.00  0.00    -0.347 C  
HETATM   27  H   UNL     1     -12.753  13.978  66.082  1.00  0.00     0.000 HD 
HETATM   28  O   UNL     1     -12.390  13.749  68.620  1.00  0.00    -0.271 OA 
ENDBRANCH  14  15
ENDBRANCH  13  14
ENDBRANCH  12  13
ENDBRANCH  11  12
ENDBRANCH  10  11
ENDBRANCH   8  10
ENDBRANCH   3   8
TORSDOF 7
ENDMDL
MODEL      359
REMARK 921   NORMALIZED FREE ENERGY PREDICTED BY IDOCK:   -3.16 KCAL/MOL
REMARK 922        TOTAL FREE ENERGY PREDICTED BY IDOCK:   -4.99 KCAL/MOL
REMARK 923 INTER-LIGAND FREE ENERGY PREDICTED BY IDOCK:   -4.56 KCAL/MOL
REMARK 924 INTRA-LIGAND FREE ENERGY PREDICTED BY IDOCK:   -0.43 KCAL/MOL
REMARK 927      BINDING AFFINITY PREDICTED BY RF-SCORE:    0.00 PKD
ROOT
HETATM    1  C   UNL     1      -8.029   3.994  64.715  1.00  0.00    -0.089 C  
HETATM    2  C   UNL     1      -6.852   4.846  65.200  1.00  0.00    -0.053 C  
HETATM    3  C   UNL     1      -7.257   5.877  66.284  1.00  0.00    -0.080 C  
HETATM    4  C   UNL     1      -5.719   3.932  65.685  1.00  0.00    -0.022 C  
HETATM    5  H1  UNL     1      -8.038   5.888  68.213  1.00  0.00     0.000 HD 
HETATM    6  N   UNL     1      -7.772   5.210  67.500  1.00  0.00    -0.091 NA 
HETATM    7  H2  UNL     1      -7.105   4.529  67.863  1.00  0.00     0.000 HD 
ENDROOT
BRANCH   3   8
HETATM    8  C   UNL     1      -8.298   6.900  65.773  1.00  0.00    -0.142 C  
HETATM    9  O   UNL     1      -9.430   7.037  66.223  1.00  0.00    -0.158 OA 
BRANCH   8  10
HETATM   10  O   UNL     1      -7.771   7.687  64.791  1.00  0.00    -0.101 OA 
BRANCH  10  11
HETATM   11  C   UNL     1      -8.585   7.797  63.605  1.00  0.00     0.405 C  
BRANCH  11  12
HETATM   12  C   UNL     1      -8.755   9.264  63.206  1.00  0.00    -0.176 C  
BRANCH  12  13
HETATM   13  O   UNL     1      -9.499   9.919  64.237  1.00  0.00    -0.284 OA 
BRANCH  13  14
HETATM   14  C   UNL     1     -10.279  11.002  63.729  1.00  0.00    -0.364 C  
BRANCH  14  15
HETATM   15  N   UNL     1     -10.737  11.827  64.832  1.00  0.00    -0.284 NA 
HETATM   16  C   UNL     1     -11.100  13.152  64.728  1.00  0.00    -0.330 A  
HETATM   17  N   UNL     1     -11.512  13.648  65.880  1.00  0.00    -0.310 NA 
HETATM   18  C   UNL     1     -11.418  12.600  66.774  1.00  0.00    -0.351 A  
HETATM   19  C   UNL     1     -10.929  11.495  66.133  1.00  0.00    -0.266 A  
HETATM   20  N   UNL     1     -10.734  10.327  66.758  1.00  0.00    -0.188 NA 
HETATM   21  C   UNL     1     -11.104  10.264  68.074  1.00  0.00    -0.274 C  
HETATM   22  N   UNL     1     -10.946   9.030  68.617  1.00  0.00    -0.448 NA 
HETATM   23  N   UNL     1     -11.578  11.245  68.784  1.00  0.00    -0.288 N  
HETATM   24  H2  UNL     1     -10.586   8.230  68.097  1.00  0.00     0.000 HD 
HETATM   25  H1  UNL     1     -11.221   8.983  69.598  1.00  0.00     0.000 HD 
HETATM   26  C   UNL     1     -11.759  12.510  68.202  1.00  0.00    -0.348 C  
HETATM   27  H   UNL     1     -11.817  11.096  69.764  1.00  0.00     0.000 HD 
HETATM   28  O   UNL     1     -12.173  13.471  68.840  1.00  0.00    -0.315 OA 
ENDBRANCH  14  15
ENDBRANCH  13  14
ENDBRANCH  12  13
ENDBRANCH  11  12
ENDBRANCH  10  11
ENDBRANCH   8  10
ENDBRANCH   3   8
TORSDOF 7
ENDMDL
MODEL      360
REMARK 921   NORMALIZED FREE ENERGY PREDICTED BY IDOCK:   -3.08 KCAL/MOL
REMARK 922        TOTAL FREE ENERGY PREDICTED BY IDOCK:   -4.88 KCAL/MOL
REMARK 923 INTER-LIGAND FREE ENERGY PREDICTED BY IDOCK:   -4.49 KCAL/MOL
REMARK 924 INTRA-LIGAND FREE ENERGY PREDICTED BY IDOCK:   -0.39 KCAL/MOL
REMARK 927      BINDING AFFINITY PREDICTED BY RF-SCORE:    0.00 PKD
ROOT
HETATM    1  C   UNL     1      -9.648  17.578  68.675  1.00  0.00    -0.303 C  
HETATM    2  C   UNL     1     -10.091  16.146  68.358  1.00  0.00    -0.236 C  
HETATM    3  C   UNL     1      -9.442  15.092  69.290  1.00  0.00    -0.170 C  
HETATM    4  C   UNL     1     -11.623  16.061  68.388  1.00  0.00    -0.279 C  
HETATM    5  H1  UNL     1      -9.401  14.613  71.315  1.00  0.00     0.000 HD 
HETATM    6  N   UNL     1      -9.828  15.307  70.702  1.00  0.00    -0.126 NA 
HETATM    7  H2  UNL     1     -10.842  15.330  70.812  1.00  0.00     0.000 HD 
ENDROOT
BRANCH   3   8
HETATM    8  C   UNL     1      -7.900  15.062  69.173  1.00  0.00    -0.188 C  
HETATM    9  O   UNL     1      -7.156  16.002  69.431  1.00  0.00    -0.209 OA 
BRANCH   8  10
HETATM   10  O   UNL     1      -7.460  13.824  68.806  1.00  0.00    -0.115 OA 
BRANCH  10  11
HETATM   11  C   UNL     1      -6.851  13.762  67.501  1.00  0.00    -0.131 C  
BRANCH  11  12
HETATM   12  C   UNL     1      -5.993  12.502  67.368  1.00  0.00    -0.147 C  
BRANCH  12  13
HETATM   13  O   UNL     1      -6.870  11.374  67.318  1.00  0.00    -0.095 OA 
BRANCH  13  14
HETATM   14  C   UNL     1      -6.303  10.226  67.951  1.00  0.00    -0.060 C  
BRANCH  14  15
HETATM   15  N   UNL     1      -7.153   9.811  69.053  1.00  0.00    -0.065 NA 
HETATM   16  C   UNL     1      -6.883  10.035  70.385  1.00  0.00    -0.136 A  
HETATM   17  N   UNL     1      -7.844   9.582  71.170  1.00  0.00    -0.295 NA 
HETATM   18  C   UNL     1      -8.782   9.044  70.312  1.00  0.00    -0.184 A  
HETATM   19  C   UNL     1      -8.349   9.171  69.022  1.00  0.00    -0.127 A  
HETATM   20  N   UNL     1      -9.062   8.736  67.976  1.00  0.00    -0.140 NA 
HETATM   21  C   UNL     1     -10.291   8.200  68.250  1.00  0.00    -0.197 C  
HETATM   22  N   UNL     1     -10.984   7.849  67.136  1.00  0.00    -0.475 NA 
HETATM   23  N   UNL     1     -10.805   8.028  69.432  1.00  0.00    -0.400 N  
HETATM   24  H2  UNL     1     -10.624   7.973  66.189  1.00  0.00     0.000 HD 
HETATM   25  H1  UNL     1     -11.900   7.450  67.340  1.00  0.00     0.000 HD 
HETATM   26  C   UNL     1     -10.087   8.417  70.574  1.00  0.00    -0.190 C  
HETATM   27  H   UNL     1     -11.731   7.611  69.529  1.00  0.00     0.000 HD 
HETATM   28  O   UNL     1     -10.519   8.248  71.708  1.00  0.00    -0.224 OA 
ENDBRANCH  14  15
ENDBRANCH  13  14
ENDBRANCH  12  13
ENDBRANCH  11  12
ENDBRANCH  10  11
ENDBRANCH   8  10
ENDBRANCH   3   8
TORSDOF 7
ENDMDL
MODEL      361
REMARK 921   NORMALIZED FREE ENERGY PREDICTED BY IDOCK:   -3.03 KCAL/MOL
REMARK 922        TOTAL FREE ENERGY PREDICTED BY IDOCK:   -4.81 KCAL/MOL
REMARK 923 INTER-LIGAND FREE ENERGY PREDICTED BY IDOCK:   -3.91 KCAL/MOL
REMARK 924 INTRA-LIGAND FREE ENERGY PREDICTED BY IDOCK:   -0.90 KCAL/MOL
REMARK 927      BINDING AFFINITY PREDICTED BY RF-SCORE:    0.00 PKD
ROOT
HETATM    1  C   UNL     1     -11.867  13.183  68.356  1.00  0.00    -0.386 C  
HETATM    2  C   UNL     1     -10.349  13.104  68.163  1.00  0.00    -0.247 C  
HETATM    3  C   UNL     1      -9.828  11.651  68.039  1.00  0.00    -0.190 C  
HETATM    4  C   UNL     1      -9.938  13.958  66.956  1.00  0.00    -0.258 C  
HETATM    5  H1  UNL     1     -10.056  10.015  66.773  1.00  0.00     0.000 HD 
HETATM    6  N   UNL     1     -10.399  10.971  66.855  1.00  0.00    -0.225 NA 
HETATM    7  H2  UNL     1     -10.229  11.503  66.001  1.00  0.00     0.000 HD 
ENDROOT
BRANCH   3   8
HETATM    8  C   UNL     1     -10.108  10.807  69.305  1.00  0.00    -0.177 C  
HETATM    9  O   UNL     1     -11.138  10.853  69.967  1.00  0.00    -0.268 OA 
BRANCH   8  10
HETATM   10  O   UNL     1      -9.079   9.948  69.558  1.00  0.00    -0.194 OA 
BRANCH  10  11
HETATM   11  C   UNL     1      -7.772  10.558  69.570  1.00  0.00    -0.136 C  
BRANCH  11  12
HETATM   12  C   UNL     1      -6.683   9.490  69.682  1.00  0.00    -0.054 C  
BRANCH  12  13
HETATM   13  O   UNL     1      -5.814   9.626  68.554  1.00  0.00    -0.040 OA 
BRANCH  13  14
HETATM   14  C   UNL     1      -6.135  10.772  67.766  1.00  0.00    -0.047 C  
BRANCH  14  15
HETATM   15  N   UNL     1      -6.271  10.381  66.374  1.00  0.00    -0.079 NA 
HETATM   16  C   UNL     1      -5.441  10.793  65.355  1.00  0.00    -0.133 A  
HETATM   17  N   UNL     1      -5.773  10.255  64.195  1.00  0.00    -0.136 NA 
HETATM   18  C   UNL     1      -6.864   9.456  64.471  1.00  0.00    -0.093 A  
HETATM   19  C   UNL     1      -7.174   9.548  65.800  1.00  0.00    -0.097 A  
HETATM   20  N   UNL     1      -8.191   8.875  66.350  1.00  0.00    -0.113 NA 
HETATM   21  C   UNL     1      -8.887   8.031  65.529  1.00  0.00    -0.061 C  
HETATM   22  N   UNL     1      -9.854   7.330  66.174  1.00  0.00    -0.432 NA 
HETATM   23  N   UNL     1      -8.684   7.862  64.255  1.00  0.00    -0.301 N  
HETATM   24  H2  UNL     1     -10.044   7.423  67.172  1.00  0.00     0.000 HD 
HETATM   25  H1  UNL     1     -10.373   6.700  65.562  1.00  0.00     0.000 HD 
HETATM   26  C   UNL     1      -7.664   8.576  63.606  1.00  0.00    -0.142 C  
HETATM   27  H   UNL     1      -9.266   7.210  63.728  1.00  0.00     0.000 HD 
HETATM   28  O   UNL     1      -7.456   8.471  62.403  1.00  0.00    -0.101 OA 
ENDBRANCH  14  15
ENDBRANCH  13  14
ENDBRANCH  12  13
ENDBRANCH  11  12
ENDBRANCH  10  11
ENDBRANCH   8  10
ENDBRANCH   3   8
TORSDOF 7
ENDMDL
MODEL      362
REMARK 921   NORMALIZED FREE ENERGY PREDICTED BY IDOCK:   -3.02 KCAL/MOL
REMARK 922        TOTAL FREE ENERGY PREDICTED BY IDOCK:   -4.80 KCAL/MOL
REMARK 923 INTER-LIGAND FREE ENERGY PREDICTED BY IDOCK:   -5.07 KCAL/MOL
REMARK 924 INTRA-LIGAND FREE ENERGY PREDICTED BY IDOCK:    0.27 KCAL/MOL
REMARK 927      BINDING AFFINITY PREDICTED BY RF-SCORE:    0.00 PKD
ROOT
HETATM    1  C   UNL     1     -10.778  17.354  65.627  1.00  0.00    -0.113 C  
HETATM    2  C   UNL     1     -10.317  18.552  66.463  1.00  0.00    -0.447 C  
HETATM    3  C   UNL     1      -8.902  18.361  67.065  1.00  0.00    -0.271 C  
HETATM    4  C   UNL     1     -10.406  19.833  65.623  1.00  0.00    -0.421 C  
HETATM    5  H1  UNL     1      -6.948  18.093  66.402  1.00  0.00     0.000 HD 
HETATM    6  N   UNL     1      -7.878  18.218  66.006  1.00  0.00    -0.486 NA 
HETATM    7  H2  UNL     1      -7.904  19.002  65.353  1.00  0.00     0.000 HD 
ENDROOT
BRANCH   3   8
HETATM    8  C   UNL     1      -8.822  17.155  68.029  1.00  0.00    -0.229 C  
HETATM    9  O   UNL     1      -9.643  16.896  68.902  1.00  0.00    -0.258 OA 
BRANCH   8  10
HETATM   10  O   UNL     1      -7.747  16.367  67.740  1.00  0.00    -0.143 OA 
BRANCH  10  11
HETATM   11  C   UNL     1      -8.056  15.177  66.986  1.00  0.00    -0.205 C  
BRANCH  11  12
HETATM   12  C   UNL     1      -9.396  14.592  67.433  1.00  0.00    -0.197 C  
BRANCH  12  13
HETATM   13  O   UNL     1      -9.129  13.521  68.342  1.00  0.00    -0.193 OA 
BRANCH  13  14
HETATM   14  C   UNL     1     -10.178  12.552  68.351  1.00  0.00    -0.228 C  
BRANCH  14  15
HETATM   15  N   UNL     1      -9.683  11.296  67.820  1.00  0.00    -0.171 NA 
HETATM   16  C   UNL     1      -8.819  11.177  66.754  1.00  0.00    -0.161 A  
HETATM   17  N   UNL     1      -8.504   9.918  66.506  1.00  0.00    -0.124 NA 
HETATM   18  C   UNL     1      -9.189   9.186  67.455  1.00  0.00    -0.130 A  
HETATM   19  C   UNL     1      -9.920  10.029  68.245  1.00  0.00    -0.153 A  
HETATM   20  N   UNL     1     -10.683   9.592  69.253  1.00  0.00    -0.228 NA 
HETATM   21  C   UNL     1     -10.659   8.247  69.504  1.00  0.00    -0.213 C  
HETATM   22  N   UNL     1     -11.399   7.889  70.585  1.00  0.00    -0.283 NA 
HETATM   23  N   UNL     1     -10.005   7.352  68.823  1.00  0.00    -0.165 N  
HETATM   24  H2  UNL     1     -11.921   8.556  71.153  1.00  0.00     0.000 HD 
HETATM   25  H1  UNL     1     -11.381   6.887  70.772  1.00  0.00     0.000 HD 
HETATM   26  C   UNL     1      -9.225   7.740  67.722  1.00  0.00    -0.136 C  
HETATM   27  H   UNL     1     -10.059   6.369  69.090  1.00  0.00     0.000 HD 
HETATM   28  O   UNL     1      -8.616   6.929  67.034  1.00  0.00    -0.119 OA 
ENDBRANCH  14  15
ENDBRANCH  13  14
ENDBRANCH  12  13
ENDBRANCH  11  12
ENDBRANCH  10  11
ENDBRANCH   8  10
ENDBRANCH   3   8
TORSDOF 7
ENDMDL
MODEL      363
REMARK 921   NORMALIZED FREE ENERGY PREDICTED BY IDOCK:   -3.00 KCAL/MOL
REMARK 922        TOTAL FREE ENERGY PREDICTED BY IDOCK:   -4.77 KCAL/MOL
REMARK 923 INTER-LIGAND FREE ENERGY PREDICTED BY IDOCK:   -4.15 KCAL/MOL
REMARK 924 INTRA-LIGAND FREE ENERGY PREDICTED BY IDOCK:   -0.63 KCAL/MOL
REMARK 927      BINDING AFFINITY PREDICTED BY RF-SCORE:    0.00 PKD
ROOT
HETATM    1  C   UNL     1     -10.863  15.554  69.680  1.00  0.00    -0.285 C  
HETATM    2  C   UNL     1      -9.551  15.188  68.978  1.00  0.00    -0.229 C  
HETATM    3  C   UNL     1      -9.767  14.569  67.574  1.00  0.00    -0.211 C  
HETATM    4  C   UNL     1      -8.637  16.419  68.919  1.00  0.00    -0.250 C  
HETATM    5  H1  UNL     1     -10.578  15.115  65.737  1.00  0.00     0.000 HD 
HETATM    6  N   UNL     1     -10.436  15.522  66.661  1.00  0.00    -0.294 NA 
HETATM    7  H2  UNL     1      -9.928  16.405  66.606  1.00  0.00     0.000 HD 
ENDROOT
BRANCH   3   8
HETATM    8  C   UNL     1     -10.569  13.248  67.622  1.00  0.00    -0.236 C  
HETATM    9  O   UNL     1     -11.703  13.096  67.182  1.00  0.00    -0.339 OA 
BRANCH   8  10
HETATM   10  O   UNL     1      -9.823  12.241  68.163  1.00  0.00    -0.201 OA 
BRANCH  10  11
HETATM   11  C   UNL     1      -9.549  11.145  67.267  1.00  0.00    -0.165 C  
BRANCH  11  12
HETATM   12  C   UNL     1      -8.053  10.830  67.248  1.00  0.00    -0.117 C  
BRANCH  12  13
HETATM   13  O   UNL     1      -7.615  10.677  68.601  1.00  0.00    -0.089 OA 
BRANCH  13  14
HETATM   14  C   UNL     1      -7.060   9.384  68.841  1.00  0.00    -0.068 C  
BRANCH  14  15
HETATM   15  N   UNL     1      -8.010   8.580  69.589  1.00  0.00    -0.099 NA 
HETATM   16  C   UNL     1      -8.627   8.972  70.756  1.00  0.00    -0.217 A  
HETATM   17  N   UNL     1      -9.471   8.059  71.203  1.00  0.00    -0.151 NA 
HETATM   18  C   UNL     1      -9.404   7.031  70.285  1.00  0.00    -0.159 A  
HETATM   19  C   UNL     1      -8.498   7.345  69.310  1.00  0.00    -0.136 A  
HETATM   20  N   UNL     1      -8.229   6.528  68.286  1.00  0.00    -0.113 NA 
HETATM   21  C   UNL     1      -8.950   5.367  68.219  1.00  0.00    -0.108 C  
HETATM   22  N   UNL     1      -8.675   4.627  67.115  1.00  0.00    -0.104 NA 
HETATM   23  N   UNL     1      -9.833   4.963  69.084  1.00  0.00    -0.186 N  
HETATM   24  H2  UNL     1      -7.997   4.907  66.406  1.00  0.00     0.000 HD 
HETATM   25  H1  UNL     1      -9.212   3.761  67.065  1.00  0.00     0.000 HD 
HETATM   26  C   UNL     1     -10.126   5.751  70.209  1.00  0.00    -0.211 C  
HETATM   27  H   UNL     1     -10.313   4.074  68.946  1.00  0.00     0.000 HD 
HETATM   28  O   UNL     1     -10.928   5.397  71.066  1.00  0.00    -0.179 OA 
ENDBRANCH  14  15
ENDBRANCH  13  14
ENDBRANCH  12  13
ENDBRANCH  11  12
ENDBRANCH  10  11
ENDBRANCH   8  10
ENDBRANCH   3   8
TORSDOF 7
ENDMDL
MODEL      364
REMARK 921   NORMALIZED FREE ENERGY PREDICTED BY IDOCK:   -3.00 KCAL/MOL
REMARK 922        TOTAL FREE ENERGY PREDICTED BY IDOCK:   -4.77 KCAL/MOL
REMARK 923 INTER-LIGAND FREE ENERGY PREDICTED BY IDOCK:   -4.74 KCAL/MOL
REMARK 924 INTRA-LIGAND FREE ENERGY PREDICTED BY IDOCK:   -0.03 KCAL/MOL
REMARK 927      BINDING AFFINITY PREDICTED BY RF-SCORE:    0.00 PKD
ROOT
HETATM    1  C   UNL     1      -8.765  17.118  66.751  1.00  0.00    -0.270 C  
HETATM    2  C   UNL     1      -8.216  16.793  68.144  1.00  0.00    -0.199 C  
HETATM    3  C   UNL     1      -7.268  15.568  68.151  1.00  0.00    -0.117 C  
HETATM    4  C   UNL     1      -7.539  18.037  68.734  1.00  0.00    -0.277 C  
HETATM    5  H1  UNL     1      -5.446  15.002  67.320  1.00  0.00     0.000 HD 
HETATM    6  N   UNL     1      -6.070  15.807  67.315  1.00  0.00    -0.324 NA 
HETATM    7  H2  UNL     1      -5.583  16.659  67.595  1.00  0.00     0.000 HD 
ENDROOT
BRANCH   3   8
HETATM    8  C   UNL     1      -7.969  14.269  67.691  1.00  0.00    -0.180 C  
HETATM    9  O   UNL     1      -8.906  14.216  66.903  1.00  0.00    -0.227 OA 
BRANCH   8  10
HETATM   10  O   UNL     1      -7.364  13.170  68.228  1.00  0.00    -0.097 OA 
BRANCH  10  11
HETATM   11  C   UNL     1      -6.853  12.230  67.261  1.00  0.00    -0.140 C  
BRANCH  11  12
HETATM   12  C   UNL     1      -7.849  11.089  67.044  1.00  0.00    -0.137 C  
BRANCH  12  13
HETATM   13  O   UNL     1      -8.432  10.766  68.309  1.00  0.00    -0.120 OA 
BRANCH  13  14
HETATM   14  C   UNL     1      -7.959   9.517  68.814  1.00  0.00    -0.088 C  
BRANCH  14  15
HETATM   15  N   UNL     1      -8.926   8.975  69.751  1.00  0.00    -0.146 NA 
HETATM   16  C   UNL     1     -10.194   8.551  69.419  1.00  0.00    -0.211 A  
HETATM   17  N   UNL     1     -10.846   8.070  70.462  1.00  0.00    -0.238 NA 
HETATM   18  C   UNL     1      -9.965   8.182  71.518  1.00  0.00    -0.182 A  
HETATM   19  C   UNL     1      -8.799   8.750  71.083  1.00  0.00    -0.219 A  
HETATM   20  N   UNL     1      -7.761   8.978  71.897  1.00  0.00    -0.343 NA 
HETATM   21  C   UNL     1      -7.893   8.561  73.193  1.00  0.00     0.009 C  
HETATM   22  N   UNL     1      -6.774   8.759  73.937  1.00  0.00    -0.334 NA 
HETATM   23  N   UNL     1      -8.949   8.012  73.718  1.00  0.00    -0.275 N  
HETATM   24  H2  UNL     1      -5.921   9.178  73.566  1.00  0.00     0.000 HD 
HETATM   25  H1  UNL     1      -6.872   8.449  74.903  1.00  0.00     0.000 HD 
HETATM   26  C   UNL     1     -10.090   7.791  72.930  1.00  0.00    -0.301 C  
HETATM   27  H   UNL     1      -8.947   7.742  74.702  1.00  0.00     0.000 HD 
HETATM   28  O   UNL     1     -11.117   7.304  73.389  1.00  0.00    -0.323 OA 
ENDBRANCH  14  15
ENDBRANCH  13  14
ENDBRANCH  12  13
ENDBRANCH  11  12
ENDBRANCH  10  11
ENDBRANCH   8  10
ENDBRANCH   3   8
TORSDOF 7
ENDMDL
MODEL      365
REMARK 921   NORMALIZED FREE ENERGY PREDICTED BY IDOCK:   -2.96 KCAL/MOL
REMARK 922        TOTAL FREE ENERGY PREDICTED BY IDOCK:   -4.71 KCAL/MOL
REMARK 923 INTER-LIGAND FREE ENERGY PREDICTED BY IDOCK:   -4.25 KCAL/MOL
REMARK 924 INTRA-LIGAND FREE ENERGY PREDICTED BY IDOCK:   -0.46 KCAL/MOL
REMARK 927      BINDING AFFINITY PREDICTED BY RF-SCORE:    0.00 PKD
ROOT
HETATM    1  C   UNL     1     -10.014   4.164  70.551  1.00  0.00    -0.177 C  
HETATM    2  C   UNL     1      -9.675   5.033  71.767  1.00  0.00    -0.218 C  
HETATM    3  C   UNL     1     -10.420   6.391  71.768  1.00  0.00    -0.214 C  
HETATM    4  C   UNL     1      -9.940   4.242  73.056  1.00  0.00    -0.196 C  
HETATM    5  H1  UNL     1     -12.377   7.097  71.829  1.00  0.00     0.000 HD 
HETATM    6  N   UNL     1     -11.887   6.203  71.829  1.00  0.00    -0.274 NA 
HETATM    7  H2  UNL     1     -12.156   5.629  72.628  1.00  0.00     0.000 HD 
ENDROOT
BRANCH   3   8
HETATM    8  C   UNL     1     -10.060   7.268  70.545  1.00  0.00    -0.191 C  
HETATM    9  O   UNL     1      -8.927   7.441  70.113  1.00  0.00    -0.147 OA 
BRANCH   8  10
HETATM   10  O   UNL     1     -11.183   7.778  69.961  1.00  0.00    -0.224 OA 
BRANCH  10  11
HETATM   11  C   UNL     1     -10.938   8.614  68.812  1.00  0.00     0.150 C  
BRANCH  11  12
HETATM   12  C   UNL     1     -10.758  10.072  69.239  1.00  0.00    -0.224 C  
BRANCH  12  13
HETATM   13  O   UNL     1     -11.395  10.900  68.263  1.00  0.00    -0.267 OA 
BRANCH  13  14
HETATM   14  C   UNL     1     -10.499  11.864  67.710  1.00  0.00    -0.202 C  
BRANCH  14  15
HETATM   15  N   UNL     1     -10.203  11.517  66.332  1.00  0.00    -0.217 NA 
HETATM   16  C   UNL     1     -10.672  12.197  65.230  1.00  0.00    -0.288 A  
HETATM   17  N   UNL     1     -10.218  11.687  64.100  1.00  0.00    -0.298 NA 
HETATM   18  C   UNL     1      -9.415  10.631  64.482  1.00  0.00    -0.264 A  
HETATM   19  C   UNL     1      -9.422  10.521  65.845  1.00  0.00    -0.190 A  
HETATM   20  N   UNL     1      -8.726   9.581  66.495  1.00  0.00    -0.133 NA 
HETATM   21  C   UNL     1      -7.947   8.753  65.733  1.00  0.00    -0.105 C  
HETATM   22  N   UNL     1      -7.216   7.876  66.467  1.00  0.00    -0.081 NA 
HETATM   23  N   UNL     1      -7.861   8.764  64.435  1.00  0.00    -0.124 N  
HETATM   24  H2  UNL     1      -7.245   7.837  67.486  1.00  0.00     0.000 HD 
HETATM   25  H1  UNL     1      -6.636   7.260  65.899  1.00  0.00     0.000 HD 
HETATM   26  C   UNL     1      -8.605   9.693  63.690  1.00  0.00    -0.209 C  
HETATM   27  H   UNL     1      -7.254   8.097  63.959  1.00  0.00     0.000 HD 
HETATM   28  O   UNL     1      -8.579   9.720  62.464  1.00  0.00    -0.155 OA 
ENDBRANCH  14  15
ENDBRANCH  13  14
ENDBRANCH  12  13
ENDBRANCH  11  12
ENDBRANCH  10  11
ENDBRANCH   8  10
ENDBRANCH   3   8
TORSDOF 7
ENDMDL
MODEL      366
REMARK 921   NORMALIZED FREE ENERGY PREDICTED BY IDOCK:   -2.94 KCAL/MOL
REMARK 922        TOTAL FREE ENERGY PREDICTED BY IDOCK:   -4.68 KCAL/MOL
REMARK 923 INTER-LIGAND FREE ENERGY PREDICTED BY IDOCK:   -4.25 KCAL/MOL
REMARK 924 INTRA-LIGAND FREE ENERGY PREDICTED BY IDOCK:   -0.43 KCAL/MOL
REMARK 927      BINDING AFFINITY PREDICTED BY RF-SCORE:    0.00 PKD
ROOT
HETATM    1  C   UNL     1     -11.174   4.516  73.071  1.00  0.00    -0.277 C  
HETATM    2  C   UNL     1      -9.890   4.818  72.291  1.00  0.00    -0.221 C  
HETATM    3  C   UNL     1      -9.345   6.245  72.550  1.00  0.00    -0.146 C  
HETATM    4  C   UNL     1      -8.836   3.745  72.598  1.00  0.00    -0.106 C  
HETATM    5  H1  UNL     1      -8.623   7.374  74.142  1.00  0.00     0.000 HD 
HETATM    6  N   UNL     1      -8.982   6.435  73.971  1.00  0.00    -0.137 NA 
HETATM    7  H2  UNL     1      -8.325   5.721  74.288  1.00  0.00     0.000 HD 
ENDROOT
BRANCH   3   8
HETATM    8  C   UNL     1     -10.337   7.349  72.116  1.00  0.00    -0.199 C  
HETATM    9  O   UNL     1     -11.306   7.720  72.769  1.00  0.00    -0.370 OA 
BRANCH   8  10
HETATM   10  O   UNL     1      -9.958   7.912  70.933  1.00  0.00    -0.182 OA 
BRANCH  10  11
HETATM   11  C   UNL     1      -8.537   7.898  70.687  1.00  0.00    -0.130 C  
BRANCH  11  12
HETATM   12  C   UNL     1      -8.236   7.287  69.317  1.00  0.00    -0.131 C  
BRANCH  12  13
HETATM   13  O   UNL     1      -7.452   8.227  68.577  1.00  0.00    -0.091 OA 
BRANCH  13  14
HETATM   14  C   UNL     1      -7.861   8.307  67.211  1.00  0.00    -0.105 C  
BRANCH  14  15
HETATM   15  N   UNL     1      -8.972   9.233  67.091  1.00  0.00    -0.126 NA 
HETATM   16  C   UNL     1     -10.298   8.868  67.008  1.00  0.00    -0.269 A  
HETATM   17  N   UNL     1     -11.099   9.915  66.944  1.00  0.00     0.022 NA 
HETATM   18  C   UNL     1     -10.261  11.010  66.990  1.00  0.00    -0.211 A  
HETATM   19  C   UNL     1      -8.962  10.590  67.064  1.00  0.00    -0.140 A  
HETATM   20  N   UNL     1      -7.931  11.441  67.124  1.00  0.00    -0.148 NA 
HETATM   21  C   UNL     1      -8.236  12.774  67.166  1.00  0.00    -0.146 C  
HETATM   22  N   UNL     1      -7.144  13.570  67.300  1.00  0.00    -0.339 NA 
HETATM   23  N   UNL     1      -9.428  13.289  67.103  1.00  0.00    -0.231 N  
HETATM   24  H2  UNL     1      -6.192  13.211  67.362  1.00  0.00     0.000 HD 
HETATM   25  H1  UNL     1      -7.371  14.564  67.332  1.00  0.00     0.000 HD 
HETATM   26  C   UNL     1     -10.550  12.453  66.989  1.00  0.00    -0.225 C  
HETATM   27  H   UNL     1      -9.548  14.302  67.136  1.00  0.00     0.000 HD 
HETATM   28  O   UNL     1     -11.689  12.894  66.895  1.00  0.00    -0.346 OA 
ENDBRANCH  14  15
ENDBRANCH  13  14
ENDBRANCH  12  13
ENDBRANCH  11  12
ENDBRANCH  10  11
ENDBRANCH   8  10
ENDBRANCH   3   8
TORSDOF 7
ENDMDL
MODEL      367
REMARK 921   NORMALIZED FREE ENERGY PREDICTED BY IDOCK:   -2.93 KCAL/MOL
REMARK 922        TOTAL FREE ENERGY PREDICTED BY IDOCK:   -4.67 KCAL/MOL
REMARK 923 INTER-LIGAND FREE ENERGY PREDICTED BY IDOCK:   -3.75 KCAL/MOL
REMARK 924 INTRA-LIGAND FREE ENERGY PREDICTED BY IDOCK:   -0.91 KCAL/MOL
REMARK 927      BINDING AFFINITY PREDICTED BY RF-SCORE:    0.00 PKD
ROOT
HETATM    1  C   UNL     1      -8.809  12.271  66.773  1.00  0.00    -0.195 C  
HETATM    2  C   UNL     1      -7.490  12.058  67.525  1.00  0.00    -0.140 C  
HETATM    3  C   UNL     1      -6.660  10.874  66.968  1.00  0.00    -0.090 C  
HETATM    4  C   UNL     1      -6.683  13.363  67.529  1.00  0.00    -0.151 C  
HETATM    5  H1  UNL     1      -5.718  10.327  65.195  1.00  0.00     0.000 HD 
HETATM    6  N   UNL     1      -6.264  11.106  65.561  1.00  0.00    -0.363 NA 
HETATM    7  H2  UNL     1      -5.770  11.992  65.453  1.00  0.00     0.000 HD 
ENDROOT
BRANCH   3   8
HETATM    8  C   UNL     1      -7.401   9.521  67.083  1.00  0.00    -0.088 C  
HETATM    9  O   UNL     1      -7.540   8.881  68.118  1.00  0.00    -0.091 OA 
BRANCH   8  10
HETATM   10  O   UNL     1      -7.944   9.157  65.885  1.00  0.00    -0.103 OA 
BRANCH  10  11
HETATM   11  C   UNL     1      -8.913   8.092  65.961  1.00  0.00    -0.171 C  
BRANCH  11  12
HETATM   12  C   UNL     1      -8.348   6.809  65.350  1.00  0.00    -0.122 C  
BRANCH  12  13
HETATM   13  O   UNL     1      -7.811   6.014  66.411  1.00  0.00    -0.101 OA 
BRANCH  13  14
HETATM   14  C   UNL     1      -8.835   5.361  67.162  1.00  0.00    -0.109 C  
BRANCH  14  15
HETATM   15  N   UNL     1      -8.634   5.613  68.577  1.00  0.00    -0.107 NA 
HETATM   16  C   UNL     1      -7.433   5.479  69.239  1.00  0.00    -0.078 A  
HETATM   17  N   UNL     1      -7.528   5.809  70.515  1.00  0.00    -0.083 NA 
HETATM   18  C   UNL     1      -8.847   6.177  70.691  1.00  0.00    -0.143 A  
HETATM   19  C   UNL     1      -9.522   6.041  69.509  1.00  0.00    -0.139 A  
HETATM   20  N   UNL     1     -10.823   6.331  69.385  1.00  0.00    -0.302 NA 
HETATM   21  C   UNL     1     -11.450   6.832  70.493  1.00  0.00    -0.360 C  
HETATM   22  N   UNL     1     -12.746   7.170  70.269  1.00  0.00    -0.313 NA 
HETATM   23  N   UNL     1     -10.913   7.004  71.665  1.00  0.00    -0.228 N  
HETATM   24  H2  UNL     1     -13.206   7.061  69.366  1.00  0.00     0.000 HD 
HETATM   25  H1  UNL     1     -13.213   7.544  71.095  1.00  0.00     0.000 HD 
HETATM   26  C   UNL     1      -9.565   6.673  71.875  1.00  0.00    -0.149 C  
HETATM   27  H   UNL     1     -11.471   7.380  72.432  1.00  0.00     0.000 HD 
HETATM   28  O   UNL     1      -9.025   6.790  72.969  1.00  0.00    -0.127 OA 
ENDBRANCH  14  15
ENDBRANCH  13  14
ENDBRANCH  12  13
ENDBRANCH  11  12
ENDBRANCH  10  11
ENDBRANCH   8  10
ENDBRANCH   3   8
TORSDOF 7
ENDMDL
MODEL      368
REMARK 921   NORMALIZED FREE ENERGY PREDICTED BY IDOCK:   -2.88 KCAL/MOL
REMARK 922        TOTAL FREE ENERGY PREDICTED BY IDOCK:   -4.61 KCAL/MOL
REMARK 923 INTER-LIGAND FREE ENERGY PREDICTED BY IDOCK:   -4.72 KCAL/MOL
REMARK 924 INTRA-LIGAND FREE ENERGY PREDICTED BY IDOCK:    0.11 KCAL/MOL
REMARK 927      BINDING AFFINITY PREDICTED BY RF-SCORE:    0.00 PKD
ROOT
HETATM    1  C   UNL     1      -9.176  17.542  67.926  1.00  0.00    -0.265 C  
HETATM    2  C   UNL     1     -10.705  17.541  67.825  1.00  0.00    -0.333 C  
HETATM    3  C   UNL     1     -11.352  16.271  68.433  1.00  0.00    -0.312 C  
HETATM    4  C   UNL     1     -11.265  18.820  68.462  1.00  0.00     1.178 C  
HETATM    5  H1  UNL     1     -11.490  15.322  70.280  1.00  0.00     0.000 HD 
HETATM    6  N   UNL     1     -11.064  16.157  69.880  1.00  0.00    -0.341 NA 
HETATM    7  H2  UNL     1     -11.347  16.998  70.384  1.00  0.00     0.000 HD 
ENDROOT
BRANCH   3   8
HETATM    8  C   UNL     1     -10.910  14.975  67.713  1.00  0.00    -0.284 C  
HETATM    9  O   UNL     1      -9.834  14.817  67.147  1.00  0.00    -0.228 OA 
BRANCH   8  10
HETATM   10  O   UNL     1     -11.850  13.996  67.847  1.00  0.00    -0.344 OA 
BRANCH  10  11
HETATM   11  C   UNL     1     -11.402  12.675  67.479  1.00  0.00    -0.308 C  
BRANCH  11  12
HETATM   12  C   UNL     1     -11.155  11.827  68.727  1.00  0.00    -0.241 C  
BRANCH  12  13
HETATM   13  O   UNL     1     -12.305  11.003  68.937  1.00  0.00    -0.516 OA 
BRANCH  13  14
HETATM   14  C   UNL     1     -12.799  11.104  70.273  1.00  0.00    -0.060 C  
BRANCH  14  15
HETATM   15  N   UNL     1     -12.652   9.824  70.941  1.00  0.00    -0.291 NA 
HETATM   16  C   UNL     1     -13.682   9.108  71.510  1.00  0.00    -0.329 A  
HETATM   17  N   UNL     1     -13.270   7.961  72.018  1.00  0.00    -0.267 NA 
HETATM   18  C   UNL     1     -11.913   7.925  71.765  1.00  0.00    -0.298 A  
HETATM   19  C   UNL     1     -11.537   9.072  71.122  1.00  0.00    -0.306 A  
HETATM   20  N   UNL     1     -10.273   9.308  70.752  1.00  0.00    -0.263 NA 
HETATM   21  C   UNL     1      -9.364   8.315  70.994  1.00  0.00    -0.162 C  
HETATM   22  N   UNL     1      -8.122   8.597  70.525  1.00  0.00    -0.102 NA 
HETATM   23  N   UNL     1      -9.605   7.187  71.596  1.00  0.00    -0.156 N  
HETATM   24  H2  UNL     1      -7.889   9.464  70.040  1.00  0.00     0.000 HD 
HETATM   25  H1  UNL     1      -7.445   7.856  70.706  1.00  0.00     0.000 HD 
HETATM   26  C   UNL     1     -10.900   6.899  72.055  1.00  0.00    -0.225 C  
HETATM   27  H   UNL     1      -8.852   6.512  71.735  1.00  0.00     0.000 HD 
HETATM   28  O   UNL     1     -11.167   5.863  72.654  1.00  0.00    -0.264 OA 
ENDBRANCH  14  15
ENDBRANCH  13  14
ENDBRANCH  12  13
ENDBRANCH  11  12
ENDBRANCH  10  11
ENDBRANCH   8  10
ENDBRANCH   3   8
TORSDOF 7
ENDMDL
MODEL      369
REMARK 921   NORMALIZED FREE ENERGY PREDICTED BY IDOCK:   -2.88 KCAL/MOL
REMARK 922        TOTAL FREE ENERGY PREDICTED BY IDOCK:   -4.60 KCAL/MOL
REMARK 923 INTER-LIGAND FREE ENERGY PREDICTED BY IDOCK:   -3.94 KCAL/MOL
REMARK 924 INTRA-LIGAND FREE ENERGY PREDICTED BY IDOCK:   -0.66 KCAL/MOL
REMARK 927      BINDING AFFINITY PREDICTED BY RF-SCORE:    0.00 PKD
ROOT
HETATM    1  C   UNL     1      -8.689  11.361  67.165  1.00  0.00    -0.155 C  
HETATM    2  C   UNL     1      -9.754  10.739  66.255  1.00  0.00    -0.248 C  
HETATM    3  C   UNL     1      -9.251   9.478  65.509  1.00  0.00    -0.234 C  
HETATM    4  C   UNL     1     -11.021  10.447  67.070  1.00  0.00    -0.222 C  
HETATM    5  H1  UNL     1      -8.550   7.572  65.964  1.00  0.00     0.000 HD 
HETATM    6  N   UNL     1      -8.881   8.402  66.455  1.00  0.00    -0.144 NA 
HETATM    7  H2  UNL     1      -9.650   8.180  67.088  1.00  0.00     0.000 HD 
ENDROOT
BRANCH   3   8
HETATM    8  C   UNL     1      -8.058   9.776  64.571  1.00  0.00    -0.146 C  
HETATM    9  O   UNL     1      -6.998  10.283  64.920  1.00  0.00    -0.136 OA 
BRANCH   8  10
HETATM   10  O   UNL     1      -8.311   9.340  63.303  1.00  0.00    -0.169 OA 
BRANCH  10  11
HETATM   11  C   UNL     1      -8.155   7.919  63.112  1.00  0.00    -0.098 C  
BRANCH  11  12
HETATM   12  C   UNL     1      -6.716   7.585  62.716  1.00  0.00    -0.070 C  
BRANCH  12  13
HETATM   13  O   UNL     1      -6.050   7.062  63.868  1.00  0.00    -0.039 OA 
BRANCH  13  14
HETATM   14  C   UNL     1      -6.228   5.651  63.995  1.00  0.00    -0.025 C  
BRANCH  14  15
HETATM   15  N   UNL     1      -6.683   5.340  65.338  1.00  0.00    -0.044 NA 
HETATM   16  C   UNL     1      -5.897   5.391  66.469  1.00  0.00    -0.018 A  
HETATM   17  N   UNL     1      -6.577   5.094  67.561  1.00  0.00    -0.052 NA 
HETATM   18  C   UNL     1      -7.861   4.840  67.125  1.00  0.00    -0.095 A  
HETATM   19  C   UNL     1      -7.918   4.976  65.765  1.00  0.00    -0.107 A  
HETATM   20  N   UNL     1      -9.046   4.790  65.069  1.00  0.00    -0.156 NA 
HETATM   21  C   UNL     1     -10.175   4.509  65.789  1.00  0.00    -0.265 C  
HETATM   22  N   UNL     1     -11.290   4.407  65.022  1.00  0.00    -1.102 NA 
HETATM   23  N   UNL     1     -10.241   4.357  67.079  1.00  0.00    -0.187 N  
HETATM   24  H2  UNL     1     -11.287   4.527  64.009  1.00  0.00     0.000 HD 
HETATM   25  H1  UNL     1     -12.131   4.198  65.559  1.00  0.00     0.000 HD 
HETATM   26  C   UNL     1      -9.084   4.489  67.863  1.00  0.00    -0.123 C  
HETATM   27  H   UNL     1     -11.135   4.141  67.521  1.00  0.00     0.000 HD 
HETATM   28  O   UNL     1      -9.094   4.324  69.078  1.00  0.00    -0.110 OA 
ENDBRANCH  14  15
ENDBRANCH  13  14
ENDBRANCH  12  13
ENDBRANCH  11  12
ENDBRANCH  10  11
ENDBRANCH   8  10
ENDBRANCH   3   8
TORSDOF 7
ENDMDL
MODEL      370
REMARK 921   NORMALIZED FREE ENERGY PREDICTED BY IDOCK:   -2.87 KCAL/MOL
REMARK 922        TOTAL FREE ENERGY PREDICTED BY IDOCK:   -4.59 KCAL/MOL
REMARK 923 INTER-LIGAND FREE ENERGY PREDICTED BY IDOCK:   -4.59 KCAL/MOL
REMARK 924 INTRA-LIGAND FREE ENERGY PREDICTED BY IDOCK:    0.00 KCAL/MOL
REMARK 927      BINDING AFFINITY PREDICTED BY RF-SCORE:    0.00 PKD
ROOT
HETATM    1  C   UNL     1     -11.244  17.170  68.334  1.00  0.00     0.036 C  
HETATM    2  C   UNL     1      -9.803  17.618  68.067  1.00  0.00    -0.310 C  
HETATM    3  C   UNL     1      -8.980  16.571  67.274  1.00  0.00    -0.199 C  
HETATM    4  C   UNL     1      -9.809  18.982  67.364  1.00  0.00    -0.386 C  
HETATM    5  H1  UNL     1      -9.019  15.641  65.413  1.00  0.00     0.000 HD 
HETATM    6  N   UNL     1      -9.560  16.329  65.934  1.00  0.00    -0.424 NA 
HETATM    7  H2  UNL     1      -9.663  17.199  65.410  1.00  0.00     0.000 HD 
ENDROOT
BRANCH   3   8
HETATM    8  C   UNL     1      -8.841  15.227  68.028  1.00  0.00    -0.169 C  
HETATM    9  O   UNL     1      -9.364  14.968  69.106  1.00  0.00    -0.205 OA 
BRANCH   8  10
HETATM   10  O   UNL     1      -8.109  14.333  67.304  1.00  0.00    -0.188 OA 
BRANCH  10  11
HETATM   11  C   UNL     1      -7.364  13.384  68.094  1.00  0.00    -0.117 C  
BRANCH  11  12
HETATM   12  C   UNL     1      -7.575  11.964  67.566  1.00  0.00    -0.140 C  
BRANCH  12  13
HETATM   13  O   UNL     1      -8.432  11.275  68.480  1.00  0.00    -0.146 OA 
BRANCH  13  14
HETATM   14  C   UNL     1      -7.961   9.959  68.769  1.00  0.00    -0.093 C  
BRANCH  14  15
HETATM   15  N   UNL     1      -8.637   9.003  67.910  1.00  0.00    -0.125 NA 
HETATM   16  C   UNL     1      -8.315   8.760  66.593  1.00  0.00    -0.108 A  
HETATM   17  N   UNL     1      -9.069   7.815  66.063  1.00  0.00    -0.156 NA 
HETATM   18  C   UNL     1      -9.916   7.421  67.079  1.00  0.00    -0.231 A  
HETATM   19  C   UNL     1      -9.660   8.160  68.201  1.00  0.00    -0.149 A  
HETATM   20  N   UNL     1     -10.333   7.991  69.345  1.00  0.00    -0.215 NA 
HETATM   21  C   UNL     1     -11.267   6.991  69.367  1.00  0.00    -0.100 C  
HETATM   22  N   UNL     1     -11.855   6.832  70.580  1.00  0.00    -0.477 NA 
HETATM   23  N   UNL     1     -11.595   6.227  68.366  1.00  0.00    -0.344 N  
HETATM   24  H2  UNL     1     -11.623   7.401  71.394  1.00  0.00     0.000 HD 
HETATM   25  H1  UNL     1     -12.551   6.087  70.597  1.00  0.00     0.000 HD 
HETATM   26  C   UNL     1     -10.962   6.387  67.123  1.00  0.00    -0.399 C  
HETATM   27  H   UNL     1     -12.313   5.512  68.485  1.00  0.00     0.000 HD 
HETATM   28  O   UNL     1     -11.259   5.712  66.145  1.00  0.00     0.052 OA 
ENDBRANCH  14  15
ENDBRANCH  13  14
ENDBRANCH  12  13
ENDBRANCH  11  12
ENDBRANCH  10  11
ENDBRANCH   8  10
ENDBRANCH   3   8
TORSDOF 7
ENDMDL
MODEL      371
REMARK 921   NORMALIZED FREE ENERGY PREDICTED BY IDOCK:   -2.86 KCAL/MOL
REMARK 922        TOTAL FREE ENERGY PREDICTED BY IDOCK:   -4.57 KCAL/MOL
REMARK 923 INTER-LIGAND FREE ENERGY PREDICTED BY IDOCK:   -4.51 KCAL/MOL
REMARK 924 INTRA-LIGAND FREE ENERGY PREDICTED BY IDOCK:   -0.06 KCAL/MOL
REMARK 927      BINDING AFFINITY PREDICTED BY RF-SCORE:    0.00 PKD
ROOT
HETATM    1  C   UNL     1     -11.912  12.959  67.900  1.00  0.00    -0.333 C  
HETATM    2  C   UNL     1     -10.614  12.230  68.263  1.00  0.00    -0.243 C  
HETATM    3  C   UNL     1     -10.848  10.772  68.730  1.00  0.00    -0.221 C  
HETATM    4  C   UNL     1      -9.638  12.295  67.081  1.00  0.00    -0.200 C  
HETATM    5  H1  UNL     1     -11.613   8.993  67.967  1.00  0.00     0.000 HD 
HETATM    6  N   UNL     1     -11.459   9.953  67.660  1.00  0.00    -0.457 NA 
HETATM    7  H2  UNL     1     -10.907   9.986  66.802  1.00  0.00     0.000 HD 
ENDROOT
BRANCH   3   8
HETATM    8  C   UNL     1     -11.717  10.687  70.007  1.00  0.00    -0.324 C  
HETATM    9  O   UNL     1     -12.550  11.519  70.347  1.00  0.00    -0.239 OA 
BRANCH   8  10
HETATM   10  O   UNL     1     -11.485   9.524  70.681  1.00  0.00    -0.267 OA 
BRANCH  10  11
HETATM   11  C   UNL     1     -10.107   9.301  71.043  1.00  0.00    -0.303 C  
BRANCH  11  12
HETATM   12  C   UNL     1      -9.742   7.825  70.878  1.00  0.00    -0.168 C  
BRANCH  12  13
HETATM   13  O   UNL     1      -8.393   7.753  70.408  1.00  0.00    -0.119 OA 
BRANCH  13  14
HETATM   14  C   UNL     1      -7.962   8.985  69.827  1.00  0.00    -0.099 C  
BRANCH  14  15
HETATM   15  N   UNL     1      -7.757   8.803  68.402  1.00  0.00    -0.095 NA 
HETATM   16  C   UNL     1      -6.888   9.541  67.630  1.00  0.00    -0.075 A  
HETATM   17  N   UNL     1      -6.874   9.139  66.372  1.00  0.00    -0.078 NA 
HETATM   18  C   UNL     1      -7.771   8.091  66.323  1.00  0.00    -0.091 A  
HETATM   19  C   UNL     1      -8.319   7.899  67.561  1.00  0.00    -0.124 A  
HETATM   20  N   UNL     1      -9.223   6.944  67.809  1.00  0.00    -0.121 NA 
HETATM   21  C   UNL     1      -9.542   6.114  66.768  1.00  0.00    -0.148 C  
HETATM   22  N   UNL     1     -10.408   5.127  67.115  1.00  0.00    -0.208 NA 
HETATM   23  N   UNL     1      -9.087   6.199  65.553  1.00  0.00    -0.365 N  
HETATM   24  H2  UNL     1     -10.784   5.016  68.057  1.00  0.00     0.000 HD 
HETATM   25  H1  UNL     1     -10.645   4.508  66.340  1.00  0.00     0.000 HD 
HETATM   26  C   UNL     1      -8.173   7.210  65.215  1.00  0.00    -0.128 C  
HETATM   27  H   UNL     1      -9.394   5.532  64.846  1.00  0.00     0.000 HD 
HETATM   28  O   UNL     1      -7.741   7.348  64.076  1.00  0.00    -0.110 OA 
ENDBRANCH  14  15
ENDBRANCH  13  14
ENDBRANCH  12  13
ENDBRANCH  11  12
ENDBRANCH  10  11
ENDBRANCH   8  10
ENDBRANCH   3   8
TORSDOF 7
ENDMDL
MODEL      372
REMARK 921   NORMALIZED FREE ENERGY PREDICTED BY IDOCK:   -2.86 KCAL/MOL
REMARK 922        TOTAL FREE ENERGY PREDICTED BY IDOCK:   -4.57 KCAL/MOL
REMARK 923 INTER-LIGAND FREE ENERGY PREDICTED BY IDOCK:   -4.79 KCAL/MOL
REMARK 924 INTRA-LIGAND FREE ENERGY PREDICTED BY IDOCK:    0.22 KCAL/MOL
REMARK 927      BINDING AFFINITY PREDICTED BY RF-SCORE:    0.00 PKD
ROOT
HETATM    1  C   UNL     1      -8.567  17.285  66.766  1.00  0.00    -0.275 C  
HETATM    2  C   UNL     1      -7.814  17.155  68.095  1.00  0.00    -0.206 C  
HETATM    3  C   UNL     1      -6.788  15.994  68.098  1.00  0.00    -0.123 C  
HETATM    4  C   UNL     1      -7.153  18.495  68.446  1.00  0.00    -0.287 C  
HETATM    5  H1  UNL     1      -5.059  15.437  67.083  1.00  0.00     0.000 HD 
HETATM    6  N   UNL     1      -5.734  16.200  67.081  1.00  0.00    -0.337 NA 
HETATM    7  H2  UNL     1      -5.276  17.105  67.196  1.00  0.00     0.000 HD 
ENDROOT
BRANCH   3   8
HETATM    8  C   UNL     1      -7.451  14.613  67.886  1.00  0.00    -0.148 C  
HETATM    9  O   UNL     1      -8.479  14.416  67.248  1.00  0.00    -0.190 OA 
BRANCH   8  10
HETATM   10  O   UNL     1      -6.703  13.619  68.446  1.00  0.00    -0.082 OA 
BRANCH  10  11
HETATM   11  C   UNL     1      -6.261  12.603  67.524  1.00  0.00    -0.159 C  
BRANCH  11  12
HETATM   12  C   UNL     1      -7.191  11.390  67.576  1.00  0.00    -0.107 C  
BRANCH  12  13
HETATM   13  O   UNL     1      -7.391  11.045  68.949  1.00  0.00    -0.094 OA 
BRANCH  13  14
HETATM   14  C   UNL     1      -6.791   9.792  69.279  1.00  0.00    -0.055 C  
BRANCH  14  15
HETATM   15  N   UNL     1      -7.522   9.177  70.372  1.00  0.00    -0.091 NA 
HETATM   16  C   UNL     1      -6.957   8.408  71.365  1.00  0.00    -0.072 A  
HETATM   17  N   UNL     1      -7.849   8.006  72.252  1.00  0.00    -0.109 NA 
HETATM   18  C   UNL     1      -9.047   8.539  71.820  1.00  0.00    -0.235 A  
HETATM   19  C   UNL     1      -8.846   9.240  70.663  1.00  0.00    -0.237 A  
HETATM   20  N   UNL     1      -9.837   9.867  70.019  1.00  0.00    -0.251 NA 
HETATM   21  C   UNL     1     -11.073   9.828  70.605  1.00  0.00    -0.332 C  
HETATM   22  N   UNL     1     -12.009  10.546  69.933  1.00  0.00    -0.395 NA 
HETATM   23  N   UNL     1     -11.382   9.196  71.698  1.00  0.00    -0.355 N  
HETATM   24  H2  UNL     1     -11.810  11.064  69.077  1.00  0.00     0.000 HD 
HETATM   25  H1  UNL     1     -12.930  10.517  70.369  1.00  0.00     0.000 HD 
HETATM   26  C   UNL     1     -10.399   8.476  72.395  1.00  0.00    -0.302 C  
HETATM   27  H   UNL     1     -12.340   9.223  72.049  1.00  0.00     0.000 HD 
HETATM   28  O   UNL     1     -10.651   7.841  73.414  1.00  0.00    -0.348 OA 
ENDBRANCH  14  15
ENDBRANCH  13  14
ENDBRANCH  12  13
ENDBRANCH  11  12
ENDBRANCH  10  11
ENDBRANCH   8  10
ENDBRANCH   3   8
TORSDOF 7
ENDMDL
MODEL      373
REMARK 921   NORMALIZED FREE ENERGY PREDICTED BY IDOCK:   -2.84 KCAL/MOL
REMARK 922        TOTAL FREE ENERGY PREDICTED BY IDOCK:   -4.55 KCAL/MOL
REMARK 923 INTER-LIGAND FREE ENERGY PREDICTED BY IDOCK:   -4.15 KCAL/MOL
REMARK 924 INTRA-LIGAND FREE ENERGY PREDICTED BY IDOCK:   -0.39 KCAL/MOL
REMARK 927      BINDING AFFINITY PREDICTED BY RF-SCORE:    0.00 PKD
ROOT
HETATM    1  C   UNL     1     -12.053  14.386  68.575  1.00  0.00    -0.278 C  
HETATM    2  C   UNL     1     -10.764  14.662  67.794  1.00  0.00    -0.265 C  
HETATM    3  C   UNL     1     -10.751  14.000  66.393  1.00  0.00    -0.278 C  
HETATM    4  C   UNL     1     -10.528  16.176  67.706  1.00  0.00    -0.295 C  
HETATM    5  H1  UNL     1     -11.829  14.090  64.615  1.00  0.00     0.000 HD 
HETATM    6  N   UNL     1     -11.837  14.526  65.537  1.00  0.00    -0.348 NA 
HETATM    7  H2  UNL     1     -11.800  15.544  65.469  1.00  0.00     0.000 HD 
ENDROOT
BRANCH   3   8
HETATM    8  C   UNL     1     -10.847  12.458  66.462  1.00  0.00    -0.250 C  
HETATM    9  O   UNL     1     -11.820  11.797  66.117  1.00  0.00    -0.477 OA 
BRANCH   8  10
HETATM   10  O   UNL     1      -9.674  11.913  66.898  1.00  0.00    -0.195 OA 
BRANCH  10  11
HETATM   11  C   UNL     1      -8.920  11.216  65.887  1.00  0.00    -0.199 C  
BRANCH  11  12
HETATM   12  C   UNL     1      -7.629  10.647  66.477  1.00  0.00    -0.134 C  
BRANCH  12  13
HETATM   13  O   UNL     1      -7.964   9.480  67.231  1.00  0.00    -0.105 OA 
BRANCH  13  14
HETATM   14  C   UNL     1      -8.650   8.509  66.440  1.00  0.00    -0.125 C  
BRANCH  14  15
HETATM   15  N   UNL     1      -7.777   7.373  66.203  1.00  0.00    -0.091 NA 
HETATM   16  C   UNL     1      -6.417   7.366  66.417  1.00  0.00    -0.048 A  
HETATM   17  N   UNL     1      -5.878   6.189  66.153  1.00  0.00    -0.023 NA 
HETATM   18  C   UNL     1      -6.933   5.395  65.754  1.00  0.00    -0.066 A  
HETATM   19  C   UNL     1      -8.089   6.126  65.770  1.00  0.00    -0.124 A  
HETATM   20  N   UNL     1      -9.274   5.608  65.428  1.00  0.00    -0.028 NA 
HETATM   21  C   UNL     1      -9.296   4.276  65.111  1.00  0.00    -0.165 C  
HETATM   22  N   UNL     1     -10.542   3.807  64.848  1.00  0.00    -0.484 NA 
HETATM   23  N   UNL     1      -8.265   3.485  65.062  1.00  0.00    -0.093 N  
HETATM   24  H2  UNL     1     -11.380   4.389  64.883  1.00  0.00     0.000 HD 
HETATM   25  H1  UNL     1     -10.558   2.815  64.612  1.00  0.00     0.000 HD 
HETATM   26  C   UNL     1      -6.985   3.978  65.360  1.00  0.00    -0.062 C  
HETATM   27  H   UNL     1      -8.387   2.504  64.806  1.00  0.00     0.000 HD 
HETATM   28  O   UNL     1      -5.982   3.277  65.297  1.00  0.00    -0.018 OA 
ENDBRANCH  14  15
ENDBRANCH  13  14
ENDBRANCH  12  13
ENDBRANCH  11  12
ENDBRANCH  10  11
ENDBRANCH   8  10
ENDBRANCH   3   8
TORSDOF 7
ENDMDL
MODEL      374
REMARK 921   NORMALIZED FREE ENERGY PREDICTED BY IDOCK:   -2.83 KCAL/MOL
REMARK 922        TOTAL FREE ENERGY PREDICTED BY IDOCK:   -4.53 KCAL/MOL
REMARK 923 INTER-LIGAND FREE ENERGY PREDICTED BY IDOCK:   -3.95 KCAL/MOL
REMARK 924 INTRA-LIGAND FREE ENERGY PREDICTED BY IDOCK:   -0.58 KCAL/MOL
REMARK 927      BINDING AFFINITY PREDICTED BY RF-SCORE:    0.00 PKD
ROOT
HETATM    1  C   UNL     1      -8.060  12.379  67.304  1.00  0.00    -0.182 C  
HETATM    2  C   UNL     1      -7.083  11.703  68.271  1.00  0.00    -0.078 C  
HETATM    3  C   UNL     1      -7.022  10.165  68.096  1.00  0.00    -0.075 C  
HETATM    4  C   UNL     1      -5.695  12.343  68.132  1.00  0.00    -0.063 C  
HETATM    5  H1  UNL     1      -6.503   8.781  66.631  1.00  0.00     0.000 HD 
HETATM    6  N   UNL     1      -6.543   9.793  66.746  1.00  0.00    -0.067 NA 
HETATM    7  H2  UNL     1      -5.644  10.229  66.536  1.00  0.00     0.000 HD 
ENDROOT
BRANCH   3   8
HETATM    8  C   UNL     1      -8.382   9.480  68.370  1.00  0.00    -0.118 C  
HETATM    9  O   UNL     1      -8.835   9.235  69.482  1.00  0.00    -0.135 OA 
BRANCH   8  10
HETATM   10  O   UNL     1      -9.052   9.240  67.206  1.00  0.00    -0.126 OA 
BRANCH  10  11
HETATM   11  C   UNL     1     -10.365   8.668  67.374  1.00  0.00    -0.284 C  
BRANCH  11  12
HETATM   12  C   UNL     1     -10.479   7.350  66.606  1.00  0.00    -0.131 C  
BRANCH  12  13
HETATM   13  O   UNL     1     -10.018   6.300  67.460  1.00  0.00    -0.120 OA 
BRANCH  13  14
HETATM   14  C   UNL     1     -10.983   5.956  68.454  1.00  0.00    -0.178 C  
BRANCH  14  15
HETATM   15  N   UNL     1     -10.344   5.182  69.502  1.00  0.00    -0.250 NA 
HETATM   16  C   UNL     1      -9.531   4.089  69.292  1.00  0.00    -0.190 A  
HETATM   17  N   UNL     1      -9.055   3.598  70.421  1.00  0.00    -0.113 NA 
HETATM   18  C   UNL     1      -9.576   4.408  71.410  1.00  0.00    -0.165 A  
HETATM   19  C   UNL     1     -10.376   5.363  70.846  1.00  0.00    -0.242 A  
HETATM   20  N   UNL     1     -11.013   6.289  71.572  1.00  0.00    -0.260 NA 
HETATM   21  C   UNL     1     -10.785   6.279  72.921  1.00  0.00    -0.247 C  
HETATM   22  N   UNL     1     -11.407   7.291  73.579  1.00  0.00    -0.539 NA 
HETATM   23  N   UNL     1     -10.049   5.423  73.566  1.00  0.00    -0.175 N  
HETATM   24  H2  UNL     1     -11.986   7.990  73.114  1.00  0.00     0.000 HD 
HETATM   25  H1  UNL     1     -11.236   7.283  74.584  1.00  0.00     0.000 HD 
HETATM   26  C   UNL     1      -9.393   4.395  72.870  1.00  0.00    -0.126 C  
HETATM   27  H   UNL     1      -9.948   5.498  74.579  1.00  0.00     0.000 HD 
HETATM   28  O   UNL     1      -8.713   3.549  73.439  1.00  0.00    -0.085 OA 
ENDBRANCH  14  15
ENDBRANCH  13  14
ENDBRANCH  12  13
ENDBRANCH  11  12
ENDBRANCH  10  11
ENDBRANCH   8  10
ENDBRANCH   3   8
TORSDOF 7
ENDMDL
MODEL      375
REMARK 921   NORMALIZED FREE ENERGY PREDICTED BY IDOCK:   -2.83 KCAL/MOL
REMARK 922        TOTAL FREE ENERGY PREDICTED BY IDOCK:   -4.52 KCAL/MOL
REMARK 923 INTER-LIGAND FREE ENERGY PREDICTED BY IDOCK:   -3.97 KCAL/MOL
REMARK 924 INTRA-LIGAND FREE ENERGY PREDICTED BY IDOCK:   -0.55 KCAL/MOL
REMARK 927      BINDING AFFINITY PREDICTED BY RF-SCORE:    0.00 PKD
ROOT
HETATM    1  C   UNL     1      -9.428   3.719  71.109  1.00  0.00    -0.236 C  
HETATM    2  C   UNL     1      -9.149   3.690  72.615  1.00  0.00    -0.131 C  
HETATM    3  C   UNL     1     -10.086   4.622  73.423  1.00  0.00    -0.160 C  
HETATM    4  C   UNL     1      -9.214   2.244  73.124  1.00  0.00    -0.094 C  
HETATM    5  H1  UNL     1     -12.119   4.826  73.820  1.00  0.00     0.000 HD 
HETATM    6  N   UNL     1     -11.502   4.213  73.289  1.00  0.00    -0.181 NA 
HETATM    7  H2  UNL     1     -11.634   3.235  73.547  1.00  0.00     0.000 HD 
ENDROOT
BRANCH   3   8
HETATM    8  C   UNL     1      -9.937   6.109  73.024  1.00  0.00    -0.176 C  
HETATM    9  O   UNL     1      -8.926   6.783  73.187  1.00  0.00    -0.126 OA 
BRANCH   8  10
HETATM   10  O   UNL     1     -11.061   6.564  72.399  1.00  0.00    -0.239 OA 
BRANCH  10  11
HETATM   11  C   UNL     1     -10.832   7.605  71.428  1.00  0.00    -0.225 C  
BRANCH  11  12
HETATM   12  C   UNL     1     -10.302   7.012  70.121  1.00  0.00    -0.197 C  
BRANCH  12  13
HETATM   13  O   UNL     1      -9.378   7.946  69.555  1.00  0.00    -0.156 OA 
BRANCH  13  14
HETATM   14  C   UNL     1      -8.283   7.292  68.912  1.00  0.00    -0.125 C  
BRANCH  14  15
HETATM   15  N   UNL     1      -8.367   7.504  67.479  1.00  0.00    -0.116 NA 
HETATM   16  C   UNL     1      -8.580   6.513  66.546  1.00  0.00    -0.123 A  
HETATM   17  N   UNL     1      -8.647   6.993  65.317  1.00  0.00    -0.051 NA 
HETATM   18  C   UNL     1      -8.474   8.355  65.455  1.00  0.00    -0.168 A  
HETATM   19  C   UNL     1      -8.287   8.662  66.775  1.00  0.00    -0.108 A  
HETATM   20  N   UNL     1      -8.096   9.915  67.203  1.00  0.00    -0.116 NA 
HETATM   21  C   UNL     1      -8.152  10.903  66.259  1.00  0.00    -0.165 C  
HETATM   22  N   UNL     1      -8.022  12.151  66.779  1.00  0.00    -0.360 NA 
HETATM   23  N   UNL     1      -8.323  10.733  64.981  1.00  0.00    -0.343 N  
HETATM   24  H2  UNL     1      -7.895  12.333  67.775  1.00  0.00     0.000 HD 
HETATM   25  H1  UNL     1      -8.064  12.888  66.076  1.00  0.00     0.000 HD 
HETATM   26  C   UNL     1      -8.480   9.439  64.460  1.00  0.00    -0.177 C  
HETATM   27  H   UNL     1      -8.342  11.540  64.357  1.00  0.00     0.000 HD 
HETATM   28  O   UNL     1      -8.613   9.228  63.260  1.00  0.00    -0.201 OA 
ENDBRANCH  14  15
ENDBRANCH  13  14
ENDBRANCH  12  13
ENDBRANCH  11  12
ENDBRANCH  10  11
ENDBRANCH   8  10
ENDBRANCH   3   8
TORSDOF 7
ENDMDL
MODEL      376
REMARK 921   NORMALIZED FREE ENERGY PREDICTED BY IDOCK:   -2.80 KCAL/MOL
REMARK 922        TOTAL FREE ENERGY PREDICTED BY IDOCK:   -4.49 KCAL/MOL
REMARK 923 INTER-LIGAND FREE ENERGY PREDICTED BY IDOCK:   -4.34 KCAL/MOL
REMARK 924 INTRA-LIGAND FREE ENERGY PREDICTED BY IDOCK:   -0.15 KCAL/MOL
REMARK 927      BINDING AFFINITY PREDICTED BY RF-SCORE:    0.00 PKD
ROOT
HETATM    1  C   UNL     1     -11.727   4.902  72.870  1.00  0.00    -0.172 C  
HETATM    2  C   UNL     1     -10.464   5.644  72.420  1.00  0.00    -0.255 C  
HETATM    3  C   UNL     1     -10.478   7.147  72.795  1.00  0.00    -0.244 C  
HETATM    4  C   UNL     1      -9.223   4.933  72.976  1.00  0.00    -0.128 C  
HETATM    5  H1  UNL     1     -10.539   8.327  74.508  1.00  0.00     0.000 HD 
HETATM    6  N   UNL     1     -10.530   7.338  74.261  1.00  0.00    -0.478 NA 
HETATM    7  H2  UNL     1      -9.771   6.843  74.730  1.00  0.00     0.000 HD 
ENDROOT
BRANCH   3   8
HETATM    8  C   UNL     1     -11.644   7.916  72.130  1.00  0.00    -0.328 C  
HETATM    9  O   UNL     1     -12.725   8.149  72.659  1.00  0.00    -0.189 OA 
BRANCH   8  10
HETATM   10  O   UNL     1     -11.290   8.366  70.892  1.00  0.00    -0.263 OA 
BRANCH  10  11
HETATM   11  C   UNL     1     -10.244   9.358  70.886  1.00  0.00    -0.303 C  
BRANCH  11  12
HETATM   12  C   UNL     1      -8.892   8.710  70.581  1.00  0.00    -0.167 C  
BRANCH  12  13
HETATM   13  O   UNL     1      -8.634   8.864  69.183  1.00  0.00    -0.130 OA 
BRANCH  13  14
HETATM   14  C   UNL     1      -7.653   7.938  68.715  1.00  0.00    -0.100 C  
BRANCH  14  15
HETATM   15  N   UNL     1      -7.873   7.672  67.305  1.00  0.00    -0.115 NA 
HETATM   16  C   UNL     1      -8.624   6.630  66.806  1.00  0.00    -0.118 A  
HETATM   17  N   UNL     1      -8.685   6.647  65.487  1.00  0.00    -0.093 NA 
HETATM   18  C   UNL     1      -7.945   7.750  65.110  1.00  0.00    -0.129 A  
HETATM   19  C   UNL     1      -7.438   8.363  66.221  1.00  0.00    -0.089 A  
HETATM   20  N   UNL     1      -6.679   9.463  66.154  1.00  0.00    -0.076 NA 
HETATM   21  C   UNL     1      -6.474   9.994  64.910  1.00  0.00    -0.125 C  
HETATM   22  N   UNL     1      -5.758  11.148  64.930  1.00  0.00    -0.443 NA 
HETATM   23  N   UNL     1      -6.904   9.501  63.786  1.00  0.00    -0.101 N  
HETATM   24  H2  UNL     1      -5.407  11.576  65.787  1.00  0.00     0.000 HD 
HETATM   25  H1  UNL     1      -5.605  11.544  64.003  1.00  0.00     0.000 HD 
HETATM   26  C   UNL     1      -7.664   8.320  63.783  1.00  0.00    -0.145 C  
HETATM   27  H   UNL     1      -6.689   9.972  62.907  1.00  0.00     0.000 HD 
HETATM   28  O   UNL     1      -8.065   7.802  62.747  1.00  0.00    -0.149 OA 
ENDBRANCH  14  15
ENDBRANCH  13  14
ENDBRANCH  12  13
ENDBRANCH  11  12
ENDBRANCH  10  11
ENDBRANCH   8  10
ENDBRANCH   3   8
TORSDOF 7
ENDMDL
MODEL      377
REMARK 921   NORMALIZED FREE ENERGY PREDICTED BY IDOCK:   -2.76 KCAL/MOL
REMARK 922        TOTAL FREE ENERGY PREDICTED BY IDOCK:   -4.44 KCAL/MOL
REMARK 923 INTER-LIGAND FREE ENERGY PREDICTED BY IDOCK:   -4.48 KCAL/MOL
REMARK 924 INTRA-LIGAND FREE ENERGY PREDICTED BY IDOCK:    0.05 KCAL/MOL
REMARK 927      BINDING AFFINITY PREDICTED BY RF-SCORE:    0.00 PKD
ROOT
HETATM    1  C   UNL     1      -9.133   9.945  64.205  1.00  0.00    -0.297 C  
HETATM    2  C   UNL     1      -7.800   9.449  63.635  1.00  0.00    -0.131 C  
HETATM    3  C   UNL     1      -6.983   8.608  64.647  1.00  0.00    -0.073 C  
HETATM    4  C   UNL     1      -8.052   8.679  62.332  1.00  0.00    -0.167 C  
HETATM    5  H1  UNL     1      -7.172   6.827  65.707  1.00  0.00     0.000 HD 
HETATM    6  N   UNL     1      -7.710   7.381  65.041  1.00  0.00    -0.107 NA 
HETATM    7  H2  UNL     1      -7.979   6.828  64.226  1.00  0.00     0.000 HD 
ENDROOT
BRANCH   3   8
HETATM    8  C   UNL     1      -6.596   9.409  65.912  1.00  0.00    -0.076 C  
HETATM    9  O   UNL     1      -5.728   9.083  66.713  1.00  0.00    -0.046 OA 
BRANCH   8  10
HETATM   10  O   UNL     1      -7.303  10.574  65.990  1.00  0.00    -0.128 OA 
BRANCH  10  11
HETATM   11  C   UNL     1      -7.621  10.997  67.331  1.00  0.00    -0.110 C  
BRANCH  11  12
HETATM   12  C   UNL     1      -8.402  12.313  67.307  1.00  0.00    -0.182 C  
BRANCH  12  13
HETATM   13  O   UNL     1      -9.576  12.144  68.105  1.00  0.00    -0.198 OA 
BRANCH  13  14
HETATM   14  C   UNL     1     -10.358  11.028  67.679  1.00  0.00    -0.191 C  
BRANCH  14  15
HETATM   15  N   UNL     1     -10.705  10.213  68.829  1.00  0.00    -0.210 NA 
HETATM   16  C   UNL     1     -10.970  10.699  70.090  1.00  0.00    -0.222 A  
HETATM   17  N   UNL     1     -11.293   9.739  70.936  1.00  0.00    -0.336 NA 
HETATM   18  C   UNL     1     -11.240   8.576  70.194  1.00  0.00    -0.136 A  
HETATM   19  C   UNL     1     -10.865   8.868  68.912  1.00  0.00    -0.022 A  
HETATM   20  N   UNL     1     -10.733   7.929  67.968  1.00  0.00    -0.115 NA 
HETATM   21  C   UNL     1     -11.050   6.647  68.328  1.00  0.00    -0.198 C  
HETATM   22  N   UNL     1     -10.962   5.764  67.300  1.00  0.00    -0.420 NA 
HETATM   23  N   UNL     1     -11.416   6.252  69.511  1.00  0.00    -0.536 N  
HETATM   24  H2  UNL     1     -10.687   6.029  66.354  1.00  0.00     0.000 HD 
HETATM   25  H1  UNL     1     -11.198   4.809  67.567  1.00  0.00     0.000 HD 
HETATM   26  C   UNL     1     -11.525   7.180  70.559  1.00  0.00    -0.295 C  
HETATM   27  H   UNL     1     -11.624   5.267  69.678  1.00  0.00     0.000 HD 
HETATM   28  O   UNL     1     -11.838   6.849  71.697  1.00  0.00    -0.287 OA 
ENDBRANCH  14  15
ENDBRANCH  13  14
ENDBRANCH  12  13
ENDBRANCH  11  12
ENDBRANCH  10  11
ENDBRANCH   8  10
ENDBRANCH   3   8
TORSDOF 7
ENDMDL
MODEL      378
REMARK 921   NORMALIZED FREE ENERGY PREDICTED BY IDOCK:   -2.73 KCAL/MOL
REMARK 922        TOTAL FREE ENERGY PREDICTED BY IDOCK:   -4.39 KCAL/MOL
REMARK 923 INTER-LIGAND FREE ENERGY PREDICTED BY IDOCK:   -5.05 KCAL/MOL
REMARK 924 INTRA-LIGAND FREE ENERGY PREDICTED BY IDOCK:    0.66 KCAL/MOL
REMARK 927      BINDING AFFINITY PREDICTED BY RF-SCORE:    0.00 PKD
ROOT
HETATM    1  C   UNL     1      -7.773  17.557  65.629  1.00  0.00     0.357 C  
HETATM    2  C   UNL     1      -7.103  18.874  66.037  1.00  0.00    -0.297 C  
HETATM    3  C   UNL     1      -6.768  18.940  67.548  1.00  0.00    -0.200 C  
HETATM    4  C   UNL     1      -5.858  19.109  65.171  1.00  0.00    -0.274 C  
HETATM    5  H1  UNL     1      -5.585  17.929  68.930  1.00  0.00     0.000 HD 
HETATM    6  N   UNL     1      -5.805  17.885  67.935  1.00  0.00    -0.155 NA 
HETATM    7  H2  UNL     1      -4.961  17.922  67.364  1.00  0.00     0.000 HD 
ENDROOT
BRANCH   3   8
HETATM    8  C   UNL     1      -8.027  18.846  68.442  1.00  0.00    -0.338 C  
HETATM    9  O   UNL     1      -8.235  19.529  69.438  1.00  0.00    -0.167 OA 
BRANCH   8  10
HETATM   10  O   UNL     1      -8.918  17.942  67.940  1.00  0.00    -0.254 OA 
BRANCH  10  11
HETATM   11  C   UNL     1     -10.272  18.107  68.407  1.00  0.00    -0.387 C  
BRANCH  11  12
HETATM   12  C   UNL     1     -10.535  17.207  69.616  1.00  0.00    -0.022 C  
BRANCH  12  13
HETATM   13  O   UNL     1     -10.645  15.860  69.148  1.00  0.00    -0.215 OA 
BRANCH  13  14
HETATM   14  C   UNL     1     -11.673  15.716  68.168  1.00  0.00    -0.199 C  
BRANCH  14  15
HETATM   15  N   UNL     1     -11.422  14.528  67.373  1.00  0.00    -0.352 NA 
HETATM   16  C   UNL     1     -12.225  14.081  66.347  1.00  0.00    -0.460 A  
HETATM   17  N   UNL     1     -11.740  12.996  65.772  1.00  0.00    -0.361 NA 
HETATM   18  C   UNL     1     -10.568  12.726  66.449  1.00  0.00    -0.255 A  
HETATM   19  C   UNL     1     -10.386  13.654  67.437  1.00  0.00    -0.244 A  
HETATM   20  N   UNL     1      -9.327  13.639  68.254  1.00  0.00    -0.204 NA 
HETATM   21  C   UNL     1      -8.385  12.673  68.022  1.00  0.00    -0.175 C  
HETATM   22  N   UNL     1      -7.307  12.766  68.842  1.00  0.00    -0.253 NA 
HETATM   23  N   UNL     1      -8.451  11.741  67.117  1.00  0.00    -0.163 N  
HETATM   24  H2  UNL     1      -7.209  13.484  69.560  1.00  0.00     0.000 HD 
HETATM   25  H1  UNL     1      -6.606  12.046  68.670  1.00  0.00     0.000 HD 
HETATM   26  C   UNL     1      -9.560  11.671  66.260  1.00  0.00    -0.221 C  
HETATM   27  H   UNL     1      -7.695  11.061  67.030  1.00  0.00     0.000 HD 
HETATM   28  O   UNL     1      -9.679  10.793  65.413  1.00  0.00    -0.213 OA 
ENDBRANCH  14  15
ENDBRANCH  13  14
ENDBRANCH  12  13
ENDBRANCH  11  12
ENDBRANCH  10  11
ENDBRANCH   8  10
ENDBRANCH   3   8
TORSDOF 7
ENDMDL
MODEL      379
REMARK 921   NORMALIZED FREE ENERGY PREDICTED BY IDOCK:   -2.66 KCAL/MOL
REMARK 922        TOTAL FREE ENERGY PREDICTED BY IDOCK:   -4.30 KCAL/MOL
REMARK 923 INTER-LIGAND FREE ENERGY PREDICTED BY IDOCK:   -3.82 KCAL/MOL
REMARK 924 INTRA-LIGAND FREE ENERGY PREDICTED BY IDOCK:   -0.47 KCAL/MOL
REMARK 927      BINDING AFFINITY PREDICTED BY RF-SCORE:    0.00 PKD
ROOT
HETATM    1  C   UNL     1     -11.118  14.419  67.885  1.00  0.00    -0.288 C  
HETATM    2  C   UNL     1     -10.037  13.776  67.011  1.00  0.00    -0.256 C  
HETATM    3  C   UNL     1     -10.212  12.244  66.860  1.00  0.00    -0.213 C  
HETATM    4  C   UNL     1      -9.992  14.477  65.647  1.00  0.00    -0.376 C  
HETATM    5  H1  UNL     1     -11.605  10.900  66.095  1.00  0.00     0.000 HD 
HETATM    6  N   UNL     1     -11.490  11.908  66.195  1.00  0.00    -0.391 NA 
HETATM    7  H2  UNL     1     -11.580  12.385  65.297  1.00  0.00     0.000 HD 
ENDROOT
BRANCH   3   8
HETATM    8  C   UNL     1     -10.119  11.498  68.211  1.00  0.00    -0.199 C  
HETATM    9  O   UNL     1     -11.030  11.401  69.026  1.00  0.00    -0.212 OA 
BRANCH   8  10
HETATM   10  O   UNL     1      -8.903  10.897  68.357  1.00  0.00    -0.134 OA 
BRANCH  10  11
HETATM   11  C   UNL     1      -7.933  11.246  67.349  1.00  0.00    -0.132 C  
BRANCH  11  12
HETATM   12  C   UNL     1      -6.566  10.653  67.692  1.00  0.00    -0.061 C  
BRANCH  12  13
HETATM   13  O   UNL     1      -6.203   9.746  66.647  1.00  0.00    -0.062 OA 
BRANCH  13  14
HETATM   14  C   UNL     1      -7.018   9.912  65.486  1.00  0.00    -0.110 C  
BRANCH  14  15
HETATM   15  N   UNL     1      -7.242   8.621  64.863  1.00  0.00    -0.083 NA 
HETATM   16  C   UNL     1      -6.550   8.141  63.773  1.00  0.00    -0.071 A  
HETATM   17  N   UNL     1      -6.934   6.923  63.437  1.00  0.00    -0.053 NA 
HETATM   18  C   UNL     1      -7.917   6.594  64.349  1.00  0.00    -0.097 A  
HETATM   19  C   UNL     1      -8.113   7.639  65.208  1.00  0.00    -0.133 A  
HETATM   20  N   UNL     1      -9.009   7.598  66.201  1.00  0.00    -0.170 NA 
HETATM   21  C   UNL     1      -9.695   6.425  66.362  1.00  0.00    -0.089 C  
HETATM   22  N   UNL     1     -10.531   6.435  67.432  1.00  0.00    -0.214 NA 
HETATM   23  N   UNL     1      -9.593   5.369  65.610  1.00  0.00    -0.342 N  
HETATM   24  H2  UNL     1     -10.637   7.236  68.054  1.00  0.00     0.000 HD 
HETATM   25  H1  UNL     1     -11.042   5.561  67.553  1.00  0.00     0.000 HD 
HETATM   26  C   UNL     1      -8.707   5.365  64.521  1.00  0.00    -0.027 C  
HETATM   27  H   UNL     1     -10.157   4.543  65.812  1.00  0.00     0.000 HD 
HETATM   28  O   UNL     1      -8.600   4.404  63.768  1.00  0.00    -0.110 OA 
ENDBRANCH  14  15
ENDBRANCH  13  14
ENDBRANCH  12  13
ENDBRANCH  11  12
ENDBRANCH  10  11
ENDBRANCH   8  10
ENDBRANCH   3   8
TORSDOF 7
ENDMDL
MODEL      380
REMARK 921   NORMALIZED FREE ENERGY PREDICTED BY IDOCK:   -2.62 KCAL/MOL
REMARK 922        TOTAL FREE ENERGY PREDICTED BY IDOCK:   -4.23 KCAL/MOL
REMARK 923 INTER-LIGAND FREE ENERGY PREDICTED BY IDOCK:   -3.58 KCAL/MOL
REMARK 924 INTRA-LIGAND FREE ENERGY PREDICTED BY IDOCK:   -0.65 KCAL/MOL
REMARK 927      BINDING AFFINITY PREDICTED BY RF-SCORE:    0.00 PKD
ROOT
HETATM    1  C   UNL     1      -9.859   5.710  72.878  1.00  0.00    -0.183 C  
HETATM    2  C   UNL     1     -10.168   7.069  72.241  1.00  0.00    -0.207 C  
HETATM    3  C   UNL     1     -10.120   7.039  70.693  1.00  0.00    -0.191 C  
HETATM    4  C   UNL     1     -11.520   7.583  72.755  1.00  0.00    -0.352 C  
HETATM    5  H1  UNL     1     -11.104   6.097  69.120  1.00  0.00     0.000 HD 
HETATM    6  N   UNL     1     -11.136   6.117  70.138  1.00  0.00    -0.355 NA 
HETATM    7  H2  UNL     1     -12.071   6.344  70.478  1.00  0.00     0.000 HD 
ENDROOT
BRANCH   3   8
HETATM    8  C   UNL     1      -8.723   6.659  70.149  1.00  0.00    -0.141 C  
HETATM    9  O   UNL     1      -8.116   5.630  70.425  1.00  0.00    -0.100 OA 
BRANCH   8  10
HETATM   10  O   UNL     1      -8.274   7.590  69.259  1.00  0.00    -0.126 OA 
BRANCH  10  11
HETATM   11  C   UNL     1      -7.043   8.240  69.635  1.00  0.00    -0.056 C  
BRANCH  11  12
HETATM   12  C   UNL     1      -6.313   8.764  68.397  1.00  0.00    -0.055 C  
BRANCH  12  13
HETATM   13  O   UNL     1      -5.580   7.679  67.824  1.00  0.00    -0.032 OA 
BRANCH  13  14
HETATM   14  C   UNL     1      -5.945   7.446  66.463  1.00  0.00    -0.036 C  
BRANCH  14  15
HETATM   15  N   UNL     1      -6.601   6.156  66.351  1.00  0.00    -0.046 NA 
HETATM   16  C   UNL     1      -5.954   4.957  66.152  1.00  0.00    -0.023 A  
HETATM   17  N   UNL     1      -6.793   3.937  66.126  1.00  0.00    -0.056 NA 
HETATM   18  C   UNL     1      -8.040   4.495  66.320  1.00  0.00    -0.103 A  
HETATM   19  C   UNL     1      -7.921   5.852  66.441  1.00  0.00    -0.102 A  
HETATM   20  N   UNL     1      -8.974   6.654  66.639  1.00  0.00    -0.137 NA 
HETATM   21  C   UNL     1     -10.192   6.046  66.776  1.00  0.00    -0.214 C  
HETATM   22  N   UNL     1     -11.199   6.916  67.047  1.00  0.00    -0.699 NA 
HETATM   23  N   UNL     1     -10.427   4.771  66.679  1.00  0.00    -0.230 N  
HETATM   24  H2  UNL     1     -11.060   7.923  67.139  1.00  0.00     0.000 HD 
HETATM   25  H1  UNL     1     -12.107   6.464  67.149  1.00  0.00     0.000 HD 
HETATM   26  C   UNL     1      -9.373   3.880  66.422  1.00  0.00    -0.182 C  
HETATM   27  H   UNL     1     -11.378   4.417  66.791  1.00  0.00     0.000 HD 
HETATM   28  O   UNL     1      -9.551   2.674  66.294  1.00  0.00     0.049 OA 
ENDBRANCH  14  15
ENDBRANCH  13  14
ENDBRANCH  12  13
ENDBRANCH  11  12
ENDBRANCH  10  11
ENDBRANCH   8  10
ENDBRANCH   3   8
TORSDOF 7
ENDMDL
MODEL      381
REMARK 921   NORMALIZED FREE ENERGY PREDICTED BY IDOCK:   -2.59 KCAL/MOL
REMARK 922        TOTAL FREE ENERGY PREDICTED BY IDOCK:   -4.20 KCAL/MOL
REMARK 923 INTER-LIGAND FREE ENERGY PREDICTED BY IDOCK:   -3.84 KCAL/MOL
REMARK 924 INTRA-LIGAND FREE ENERGY PREDICTED BY IDOCK:   -0.35 KCAL/MOL
REMARK 927      BINDING AFFINITY PREDICTED BY RF-SCORE:    0.00 PKD
ROOT
HETATM    1  C   UNL     1     -10.942   4.957  71.368  1.00  0.00     0.191 C  
HETATM    2  C   UNL     1      -9.454   5.156  71.674  1.00  0.00    -0.193 C  
HETATM    3  C   UNL     1      -9.201   6.177  72.811  1.00  0.00    -0.138 C  
HETATM    4  C   UNL     1      -8.804   3.800  71.977  1.00  0.00    -0.131 C  
HETATM    5  H1  UNL     1      -9.629   6.395  74.836  1.00  0.00     0.000 HD 
HETATM    6  N   UNL     1      -9.796   5.724  74.088  1.00  0.00    -0.185 NA 
HETATM    7  H2  UNL     1      -9.467   4.792  74.343  1.00  0.00     0.000 HD 
ENDROOT
BRANCH   3   8
HETATM    8  C   UNL     1      -9.725   7.592  72.469  1.00  0.00    -0.168 C  
HETATM    9  O   UNL     1     -10.339   8.320  73.240  1.00  0.00    -0.104 OA 
BRANCH   8  10
HETATM   10  O   UNL     1      -9.355   7.960  71.209  1.00  0.00    -0.143 OA 
BRANCH  10  11
HETATM   11  C   UNL     1     -10.451   8.263  70.323  1.00  0.00    -0.218 C  
BRANCH  11  12
HETATM   12  C   UNL     1     -10.687   9.773  70.259  1.00  0.00    -0.302 C  
BRANCH  12  13
HETATM   13  O   UNL     1      -9.529  10.377  69.676  1.00  0.00    -0.187 OA 
BRANCH  13  14
HETATM   14  C   UNL     1      -9.855  11.167  68.532  1.00  0.00    -0.198 C  
BRANCH  14  15
HETATM   15  N   UNL     1      -9.182  10.629  67.364  1.00  0.00    -0.143 NA 
HETATM   16  C   UNL     1      -8.212  11.287  66.640  1.00  0.00    -0.164 A  
HETATM   17  N   UNL     1      -7.745  10.549  65.649  1.00  0.00    -0.150 NA 
HETATM   18  C   UNL     1      -8.438   9.358  65.733  1.00  0.00    -0.132 A  
HETATM   19  C   UNL     1      -9.325   9.417  66.771  1.00  0.00    -0.158 A  
HETATM   20  N   UNL     1     -10.132   8.398  67.088  1.00  0.00    -0.237 NA 
HETATM   21  C   UNL     1      -9.992   7.251  66.355  1.00  0.00    -0.024 C  
HETATM   22  N   UNL     1     -10.791   6.239  66.782  1.00  0.00    -0.559 NA 
HETATM   23  N   UNL     1      -9.186   7.079  65.349  1.00  0.00    -0.270 N  
HETATM   24  H2  UNL     1     -11.432   6.325  67.571  1.00  0.00     0.000 HD 
HETATM   25  H1  UNL     1     -10.686   5.385  66.236  1.00  0.00     0.000 HD 
HETATM   26  C   UNL     1      -8.349   8.127  64.933  1.00  0.00    -0.123 C  
HETATM   27  H   UNL     1      -9.162   6.183  64.861  1.00  0.00     0.000 HD 
HETATM   28  O   UNL     1      -7.595   8.021  63.972  1.00  0.00    -0.108 OA 
ENDBRANCH  14  15
ENDBRANCH  13  14
ENDBRANCH  12  13
ENDBRANCH  11  12
ENDBRANCH  10  11
ENDBRANCH   8  10
ENDBRANCH   3   8
TORSDOF 7
ENDMDL
MODEL      382
REMARK 921   NORMALIZED FREE ENERGY PREDICTED BY IDOCK:   -2.57 KCAL/MOL
REMARK 922        TOTAL FREE ENERGY PREDICTED BY IDOCK:   -4.17 KCAL/MOL
REMARK 923 INTER-LIGAND FREE ENERGY PREDICTED BY IDOCK:   -5.37 KCAL/MOL
REMARK 924 INTRA-LIGAND FREE ENERGY PREDICTED BY IDOCK:    1.20 KCAL/MOL
REMARK 927      BINDING AFFINITY PREDICTED BY RF-SCORE:    0.00 PKD
ROOT
HETATM    1  C   UNL     1      -7.848  17.580  66.262  1.00  0.00    -0.322 C  
HETATM    2  C   UNL     1      -9.328  17.957  66.146  1.00  0.00    -0.151 C  
HETATM    3  C   UNL     1     -10.251  17.059  67.007  1.00  0.00    -0.303 C  
HETATM    4  C   UNL     1      -9.510  19.443  66.484  1.00  0.00    -0.427 C  
HETATM    5  H1  UNL     1     -10.544  16.592  69.014  1.00  0.00     0.000 HD 
HETATM    6  N   UNL     1      -9.937  17.183  68.447  1.00  0.00    -0.292 NA 
HETATM    7  H2  UNL     1      -9.971  18.156  68.754  1.00  0.00     0.000 HD 
ENDROOT
BRANCH   3   8
HETATM    8  C   UNL     1     -10.191  15.570  66.590  1.00  0.00    -0.276 C  
HETATM    9  O   UNL     1      -9.174  14.885  66.572  1.00  0.00    -0.258 OA 
BRANCH   8  10
HETATM   10  O   UNL     1     -11.436  15.090  66.306  1.00  0.00    -0.314 OA 
BRANCH  10  11
HETATM   11  C   UNL     1     -11.684  14.849  64.906  1.00  0.00    -0.371 C  
BRANCH  11  12
HETATM   12  C   UNL     1     -10.958  13.585  64.443  1.00  0.00    -0.384 C  
BRANCH  12  13
HETATM   13  O   UNL     1     -11.901  12.510  64.437  1.00  0.00    -0.345 OA 
BRANCH  13  14
HETATM   14  C   UNL     1     -12.039  11.912  65.726  1.00  0.00     0.268 C  
BRANCH  14  15
HETATM   15  N   UNL     1     -10.728  11.552  66.236  1.00  0.00    -0.264 NA 
HETATM   16  C   UNL     1      -9.532  11.881  65.638  1.00  0.00    -0.166 A  
HETATM   17  N   UNL     1      -8.494  11.458  66.336  1.00  0.00    -0.174 NA 
HETATM   18  C   UNL     1      -9.037  10.829  67.438  1.00  0.00    -0.143 A  
HETATM   19  C   UNL     1     -10.402  10.874  67.365  1.00  0.00    -0.211 A  
HETATM   20  N   UNL     1     -11.191  10.341  68.304  1.00  0.00    -0.264 NA 
HETATM   21  C   UNL     1     -10.569   9.788  69.390  1.00  0.00    -0.228 C  
HETATM   22  N   UNL     1     -11.435   9.335  70.332  1.00  0.00    -0.367 NA 
HETATM   23  N   UNL     1      -9.285   9.687  69.568  1.00  0.00    -0.189 N  
HETATM   24  H2  UNL     1     -12.449   9.400  70.240  1.00  0.00     0.000 HD 
HETATM   25  H1  UNL     1     -10.972   8.922  71.141  1.00  0.00     0.000 HD 
HETATM   26  C   UNL     1      -8.401  10.182  68.596  1.00  0.00    -0.116 C  
HETATM   27  H   UNL     1      -8.920   9.249  70.414  1.00  0.00     0.000 HD 
HETATM   28  O   UNL     1      -7.184  10.082  68.706  1.00  0.00    -0.072 OA 
ENDBRANCH  14  15
ENDBRANCH  13  14
ENDBRANCH  12  13
ENDBRANCH  11  12
ENDBRANCH  10  11
ENDBRANCH   8  10
ENDBRANCH   3   8
TORSDOF 7
ENDMDL
MODEL      383
REMARK 921   NORMALIZED FREE ENERGY PREDICTED BY IDOCK:   -2.49 KCAL/MOL
REMARK 922        TOTAL FREE ENERGY PREDICTED BY IDOCK:   -4.06 KCAL/MOL
REMARK 923 INTER-LIGAND FREE ENERGY PREDICTED BY IDOCK:   -3.41 KCAL/MOL
REMARK 924 INTRA-LIGAND FREE ENERGY PREDICTED BY IDOCK:   -0.65 KCAL/MOL
REMARK 927      BINDING AFFINITY PREDICTED BY RF-SCORE:    0.00 PKD
ROOT
HETATM    1  C   UNL     1      -7.954  10.018  69.704  1.00  0.00    -0.176 C  
HETATM    2  C   UNL     1      -8.055  10.471  68.243  1.00  0.00    -0.115 C  
HETATM    3  C   UNL     1      -9.436  10.171  67.610  1.00  0.00    -0.148 C  
HETATM    4  C   UNL     1      -7.696  11.959  68.139  1.00  0.00    -0.126 C  
HETATM    5  H1  UNL     1     -11.430  10.697  67.893  1.00  0.00     0.000 HD 
HETATM    6  N   UNL     1     -10.521  10.895  68.310  1.00  0.00    -0.170 NA 
HETATM    7  H2  UNL     1     -10.337  11.898  68.347  1.00  0.00     0.000 HD 
ENDROOT
BRANCH   3   8
HETATM    8  C   UNL     1      -9.760   8.659  67.576  1.00  0.00    -0.165 C  
HETATM    9  O   UNL     1     -10.869   8.172  67.767  1.00  0.00    -0.143 OA 
BRANCH   8  10
HETATM   10  O   UNL     1      -8.659   7.930  67.236  1.00  0.00    -0.126 OA 
BRANCH  10  11
HETATM   11  C   UNL     1      -8.618   6.602  67.797  1.00  0.00    -0.121 C  
BRANCH  11  12
HETATM   12  C   UNL     1      -7.304   6.377  68.547  1.00  0.00    -0.087 C  
BRANCH  12  13
HETATM   13  O   UNL     1      -7.267   5.013  68.975  1.00  0.00    -0.052 OA 
BRANCH  13  14
HETATM   14  C   UNL     1      -8.570   4.428  69.011  1.00  0.00    -0.083 C  
BRANCH  14  15
HETATM   15  N   UNL     1      -8.763   3.754  70.282  1.00  0.00    -0.072 NA 
HETATM   16  C   UNL     1      -8.051   2.653  70.707  1.00  0.00    -0.049 A  
HETATM   17  N   UNL     1      -8.408   2.268  71.919  1.00  0.00    -0.056 NA 
HETATM   18  C   UNL     1      -9.392   3.157  72.302  1.00  0.00    -0.114 A  
HETATM   19  C   UNL     1      -9.617   4.053  71.293  1.00  0.00    -0.175 A  
HETATM   20  N   UNL     1     -10.521   5.035  71.390  1.00  0.00    -0.181 NA 
HETATM   21  C   UNL     1     -11.184   5.145  72.581  1.00  0.00    -0.209 C  
HETATM   22  N   UNL     1     -12.029   6.207  72.629  1.00  0.00    -0.528 NA 
HETATM   23  N   UNL     1     -11.054   4.355  73.606  1.00  0.00    -0.288 N  
HETATM   24  H2  UNL     1     -12.157   6.857  71.854  1.00  0.00     0.000 HD 
HETATM   25  H1  UNL     1     -12.524   6.289  73.517  1.00  0.00     0.000 HD 
HETATM   26  C   UNL     1     -10.159   3.275  73.551  1.00  0.00    -0.120 C  
HETATM   27  H   UNL     1     -11.604   4.520  74.450  1.00  0.00     0.000 HD 
HETATM   28  O   UNL     1     -10.025   2.487  74.481  1.00  0.00    -0.103 OA 
ENDBRANCH  14  15
ENDBRANCH  13  14
ENDBRANCH  12  13
ENDBRANCH  11  12
ENDBRANCH  10  11
ENDBRANCH   8  10
ENDBRANCH   3   8
TORSDOF 7
ENDMDL
MODEL      384
REMARK 921   NORMALIZED FREE ENERGY PREDICTED BY IDOCK:   -2.49 KCAL/MOL
REMARK 922        TOTAL FREE ENERGY PREDICTED BY IDOCK:   -4.05 KCAL/MOL
REMARK 923 INTER-LIGAND FREE ENERGY PREDICTED BY IDOCK:   -3.69 KCAL/MOL
REMARK 924 INTRA-LIGAND FREE ENERGY PREDICTED BY IDOCK:   -0.36 KCAL/MOL
REMARK 927      BINDING AFFINITY PREDICTED BY RF-SCORE:    0.00 PKD
ROOT
HETATM    1  C   UNL     1     -11.110   4.457  73.033  1.00  0.00    -0.265 C  
HETATM    2  C   UNL     1      -9.670   4.292  72.537  1.00  0.00    -0.200 C  
HETATM    3  C   UNL     1      -8.785   5.531  72.823  1.00  0.00    -0.119 C  
HETATM    4  C   UNL     1      -9.063   3.014  73.131  1.00  0.00    -0.102 C  
HETATM    5  H1  UNL     1      -8.080   6.598  74.464  1.00  0.00     0.000 HD 
HETATM    6  N   UNL     1      -8.662   5.783  74.276  1.00  0.00    -0.121 NA 
HETATM    7  H2  UNL     1      -8.322   4.958  74.771  1.00  0.00     0.000 HD 
ENDROOT
BRANCH   3   8
HETATM    8  C   UNL     1      -9.300   6.807  72.117  1.00  0.00    -0.140 C  
HETATM    9  O   UNL     1     -10.279   7.457  72.464  1.00  0.00    -0.193 OA 
BRANCH   8  10
HETATM   10  O   UNL     1      -8.479   7.161  71.086  1.00  0.00    -0.120 OA 
BRANCH  10  11
HETATM   11  C   UNL     1      -7.106   6.747  71.239  1.00  0.00    -0.075 C  
BRANCH  11  12
HETATM   12  C   UNL     1      -6.676   5.872  70.060  1.00  0.00    -0.052 C  
BRANCH  12  13
HETATM   13  O   UNL     1      -5.532   6.480  69.453  1.00  0.00    -0.013 OA 
BRANCH  13  14
HETATM   14  C   UNL     1      -5.789   6.878  68.106  1.00  0.00    -0.021 C  
BRANCH  14  15
HETATM   15  N   UNL     1      -6.939   7.763  68.073  1.00  0.00    -0.078 NA 
HETATM   16  C   UNL     1      -6.924   9.090  68.443  1.00  0.00    -0.068 A  
HETATM   17  N   UNL     1      -8.101   9.666  68.279  1.00  0.00    -0.104 NA 
HETATM   18  C   UNL     1      -8.918   8.673  67.777  1.00  0.00    -0.136 A  
HETATM   19  C   UNL     1      -8.209   7.508  67.668  1.00  0.00    -0.118 A  
HETATM   20  N   UNL     1      -8.750   6.375  67.206  1.00  0.00    -0.107 NA 
HETATM   21  C   UNL     1     -10.051   6.442  66.785  1.00  0.00    -0.179 C  
HETATM   22  N   UNL     1     -10.506   5.275  66.262  1.00  0.00    -0.391 NA 
HETATM   23  N   UNL     1     -10.821   7.489  66.840  1.00  0.00    -0.542 N  
HETATM   24  H2  UNL     1      -9.936   4.432  66.191  1.00  0.00     0.000 HD 
HETATM   25  H1  UNL     1     -11.475   5.324  65.948  1.00  0.00     0.000 HD 
HETATM   26  C   UNL     1     -10.329   8.696  67.361  1.00  0.00    -0.284 C  
HETATM   27  H   UNL     1     -11.783   7.432  66.505  1.00  0.00     0.000 HD 
HETATM   28  O   UNL     1     -11.026   9.699  67.460  1.00  0.00    -0.260 OA 
ENDBRANCH  14  15
ENDBRANCH  13  14
ENDBRANCH  12  13
ENDBRANCH  11  12
ENDBRANCH  10  11
ENDBRANCH   8  10
ENDBRANCH   3   8
TORSDOF 7
ENDMDL
MODEL      385
REMARK 921   NORMALIZED FREE ENERGY PREDICTED BY IDOCK:   -2.34 KCAL/MOL
REMARK 922        TOTAL FREE ENERGY PREDICTED BY IDOCK:   -3.84 KCAL/MOL
REMARK 923 INTER-LIGAND FREE ENERGY PREDICTED BY IDOCK:   -3.45 KCAL/MOL
REMARK 924 INTRA-LIGAND FREE ENERGY PREDICTED BY IDOCK:   -0.39 KCAL/MOL
REMARK 927      BINDING AFFINITY PREDICTED BY RF-SCORE:    0.00 PKD
ROOT
HETATM    1  C   UNL     1     -10.147   6.460  73.715  1.00  0.00    -0.282 C  
HETATM    2  C   UNL     1     -10.292   7.669  72.785  1.00  0.00    -0.351 C  
HETATM    3  C   UNL     1      -9.883   7.362  71.322  1.00  0.00    -0.176 C  
HETATM    4  C   UNL     1     -11.724   8.215  72.869  1.00  0.00    -0.194 C  
HETATM    5  H1  UNL     1     -10.477   6.115  69.766  1.00  0.00     0.000 HD 
HETATM    6  N   UNL     1     -10.746   6.317  70.728  1.00  0.00    -0.242 NA 
HETATM    7  H2  UNL     1     -11.734   6.565  70.796  1.00  0.00     0.000 HD 
ENDROOT
BRANCH   3   8
HETATM    8  C   UNL     1      -8.400   6.943  71.194  1.00  0.00    -0.119 C  
HETATM    9  O   UNL     1      -7.883   5.995  71.775  1.00  0.00    -0.100 OA 
BRANCH   8  10
HETATM   10  O   UNL     1      -7.745   7.730  70.292  1.00  0.00    -0.086 OA 
BRANCH  10  11
HETATM   11  C   UNL     1      -6.853   7.021  69.409  1.00  0.00    -0.054 C  
BRANCH  11  12
HETATM   12  C   UNL     1      -5.647   7.892  69.053  1.00  0.00    -0.030 C  
BRANCH  12  13
HETATM   13  O   UNL     1      -5.978   8.651  67.888  1.00  0.00    -0.045 OA 
BRANCH  13  14
HETATM   14  C   UNL     1      -5.889  10.057  68.121  1.00  0.00    -0.042 C  
BRANCH  14  15
HETATM   15  N   UNL     1      -7.215  10.645  68.053  1.00  0.00    -0.086 NA 
HETATM   16  C   UNL     1      -8.369   9.954  67.754  1.00  0.00    -0.114 A  
HETATM   17  N   UNL     1      -9.438  10.728  67.797  1.00  0.00    -0.154 NA 
HETATM   18  C   UNL     1      -8.961  11.977  68.142  1.00  0.00    -0.190 A  
HETATM   19  C   UNL     1      -7.601  11.925  68.281  1.00  0.00    -0.116 A  
HETATM   20  N   UNL     1      -6.870  12.995  68.614  1.00  0.00    -0.093 NA 
HETATM   21  C   UNL     1      -7.553  14.152  68.871  1.00  0.00    -0.098 C  
HETATM   22  N   UNL     1      -6.751  15.171  69.273  1.00  0.00    -0.133 NA 
HETATM   23  N   UNL     1      -8.839  14.320  68.771  1.00  0.00    -0.315 N  
HETATM   24  H2  UNL     1      -5.740  15.083  69.373  1.00  0.00     0.000 HD 
HETATM   25  H1  UNL     1      -7.261  16.034  69.464  1.00  0.00     0.000 HD 
HETATM   26  C   UNL     1      -9.658  13.250  68.377  1.00  0.00    -0.185 C  
HETATM   27  H   UNL     1      -9.252  15.230  68.979  1.00  0.00     0.000 HD 
HETATM   28  O   UNL     1     -10.871  13.370  68.241  1.00  0.00    -0.240 OA 
ENDBRANCH  14  15
ENDBRANCH  13  14
ENDBRANCH  12  13
ENDBRANCH  11  12
ENDBRANCH  10  11
ENDBRANCH   8  10
ENDBRANCH   3   8
TORSDOF 7
ENDMDL
MODEL      386
REMARK 921   NORMALIZED FREE ENERGY PREDICTED BY IDOCK:   -2.15 KCAL/MOL
REMARK 922        TOTAL FREE ENERGY PREDICTED BY IDOCK:   -3.57 KCAL/MOL
REMARK 923 INTER-LIGAND FREE ENERGY PREDICTED BY IDOCK:   -3.23 KCAL/MOL
REMARK 924 INTRA-LIGAND FREE ENERGY PREDICTED BY IDOCK:   -0.34 KCAL/MOL
REMARK 927      BINDING AFFINITY PREDICTED BY RF-SCORE:    0.00 PKD
ROOT
HETATM    1  C   UNL     1     -10.147   6.460  73.715  1.00  0.00    -0.282 C  
HETATM    2  C   UNL     1     -10.292   7.669  72.785  1.00  0.00    -0.351 C  
HETATM    3  C   UNL     1      -9.883   7.362  71.322  1.00  0.00    -0.176 C  
HETATM    4  C   UNL     1     -11.724   8.215  72.869  1.00  0.00    -0.194 C  
HETATM    5  H1  UNL     1     -10.477   6.115  69.766  1.00  0.00     0.000 HD 
HETATM    6  N   UNL     1     -10.746   6.317  70.728  1.00  0.00    -0.242 NA 
HETATM    7  H2  UNL     1     -11.734   6.565  70.796  1.00  0.00     0.000 HD 
ENDROOT
BRANCH   3   8
HETATM    8  C   UNL     1      -8.400   6.943  71.194  1.00  0.00    -0.119 C  
HETATM    9  O   UNL     1      -7.883   5.995  71.775  1.00  0.00    -0.100 OA 
BRANCH   8  10
HETATM   10  O   UNL     1      -7.745   7.730  70.292  1.00  0.00    -0.086 OA 
BRANCH  10  11
HETATM   11  C   UNL     1      -6.584   8.407  70.813  1.00  0.00    -0.039 C  
BRANCH  11  12
HETATM   12  C   UNL     1      -6.408   9.768  70.137  1.00  0.00    -0.076 C  
BRANCH  12  13
HETATM   13  O   UNL     1      -5.607   9.580  68.968  1.00  0.00    -0.036 OA 
BRANCH  13  14
HETATM   14  C   UNL     1      -6.284   9.996  67.781  1.00  0.00    -0.054 C  
BRANCH  14  15
HETATM   15  N   UNL     1      -6.562   8.838  66.951  1.00  0.00    -0.061 NA 
HETATM   16  C   UNL     1      -6.180   7.548  67.244  1.00  0.00    -0.052 A  
HETATM   17  N   UNL     1      -6.596   6.687  66.333  1.00  0.00    -0.043 NA 
HETATM   18  C   UNL     1      -7.283   7.448  65.409  1.00  0.00    -0.069 A  
HETATM   19  C   UNL     1      -7.246   8.763  65.781  1.00  0.00    -0.084 A  
HETATM   20  N   UNL     1      -7.833   9.731  65.068  1.00  0.00    -0.122 NA 
HETATM   21  C   UNL     1      -8.535   9.339  63.961  1.00  0.00    -0.193 C  
HETATM   22  N   UNL     1      -9.163  10.366  63.332  1.00  0.00    -0.258 NA 
HETATM   23  N   UNL     1      -8.640   8.123  63.511  1.00  0.00    -0.397 N  
HETATM   24  H2  UNL     1      -9.116  11.333  63.653  1.00  0.00     0.000 HD 
HETATM   25  H1  UNL     1      -9.686  10.074  62.507  1.00  0.00     0.000 HD 
HETATM   26  C   UNL     1      -8.005   7.068  64.185  1.00  0.00    -0.079 C  
HETATM   27  H   UNL     1      -9.184   7.936  62.668  1.00  0.00     0.000 HD 
HETATM   28  O   UNL     1      -8.051   5.911  63.782  1.00  0.00    -0.118 OA 
ENDBRANCH  14  15
ENDBRANCH  13  14
ENDBRANCH  12  13
ENDBRANCH  11  12
ENDBRANCH  10  11
ENDBRANCH   8  10
ENDBRANCH   3   8
TORSDOF 7
ENDMDL
MODEL      387
REMARK 921   NORMALIZED FREE ENERGY PREDICTED BY IDOCK:   -1.84 KCAL/MOL
REMARK 922        TOTAL FREE ENERGY PREDICTED BY IDOCK:   -3.13 KCAL/MOL
REMARK 923 INTER-LIGAND FREE ENERGY PREDICTED BY IDOCK:   -2.43 KCAL/MOL
REMARK 924 INTRA-LIGAND FREE ENERGY PREDICTED BY IDOCK:   -0.71 KCAL/MOL
REMARK 927      BINDING AFFINITY PREDICTED BY RF-SCORE:    0.00 PKD
ROOT
HETATM    1  C   UNL     1      -9.421   5.223  72.414  1.00  0.00    -0.160 C  
HETATM    2  C   UNL     1      -9.672   6.699  72.089  1.00  0.00    -0.159 C  
HETATM    3  C   UNL     1      -9.843   6.964  70.572  1.00  0.00    -0.179 C  
HETATM    4  C   UNL     1     -10.878   7.206  72.891  1.00  0.00    -0.362 C  
HETATM    5  H1  UNL     1     -11.130   6.422  69.029  1.00  0.00     0.000 HD 
HETATM    6  N   UNL     1     -11.018   6.247  70.027  1.00  0.00    -0.322 NA 
HETATM    7  H2  UNL     1     -11.867   6.475  70.544  1.00  0.00     0.000 HD 
ENDROOT
BRANCH   3   8
HETATM    8  C   UNL     1      -8.584   6.590  69.756  1.00  0.00    -0.136 C  
HETATM    9  O   UNL     1      -8.197   5.446  69.543  1.00  0.00    -0.094 OA 
BRANCH   8  10
HETATM   10  O   UNL     1      -7.986   7.703  69.241  1.00  0.00    -0.121 OA 
BRANCH  10  11
HETATM   11  C   UNL     1      -6.657   7.960  69.740  1.00  0.00    -0.034 C  
BRANCH  11  12
HETATM   12  C   UNL     1      -5.774   8.546  68.637  1.00  0.00    -0.037 C  
BRANCH  12  13
HETATM   13  O   UNL     1      -5.333   7.471  67.805  1.00  0.00    -0.027 OA 
BRANCH  13  14
HETATM   14  C   UNL     1      -5.883   7.551  66.490  1.00  0.00    -0.036 C  
BRANCH  14  15
HETATM   15  N   UNL     1      -7.000   6.631  66.375  1.00  0.00    -0.061 NA 
HETATM   16  C   UNL     1      -8.288   6.991  66.045  1.00  0.00    -0.134 A  
HETATM   17  N   UNL     1      -9.095   5.948  65.976  1.00  0.00    -0.155 NA 
HETATM   18  C   UNL     1      -8.298   4.860  66.270  1.00  0.00    -0.111 A  
HETATM   19  C   UNL     1      -7.023   5.283  66.529  1.00  0.00    -0.064 A  
HETATM   20  N   UNL     1      -6.034   4.439  66.842  1.00  0.00    -0.023 NA 
HETATM   21  C   UNL     1      -6.338   3.104  66.839  1.00  0.00    -0.036 C  
HETATM   22  N   UNL     1      -5.269   2.309  67.094  1.00  0.00    -0.008 NA 
HETATM   23  N   UNL     1      -7.509   2.588  66.609  1.00  0.00    -0.069 N  
HETATM   24  H2  UNL     1      -4.331   2.669  67.271  1.00  0.00     0.000 HD 
HETATM   25  H1  UNL     1      -5.496   1.314  67.091  1.00  0.00     0.000 HD 
HETATM   26  C   UNL     1      -8.602   3.422  66.323  1.00  0.00    -0.119 C  
HETATM   27  H   UNL     1      -7.634   1.575  66.637  1.00  0.00     0.000 HD 
HETATM   28  O   UNL     1      -9.729   2.981  66.130  1.00  0.00     0.021 OA 
ENDBRANCH  14  15
ENDBRANCH  13  14
ENDBRANCH  12  13
ENDBRANCH  11  12
ENDBRANCH  10  11
ENDBRANCH   8  10
ENDBRANCH   3   8
TORSDOF 7
ENDMDL
MODEL      388
REMARK 921   NORMALIZED FREE ENERGY PREDICTED BY IDOCK:   -1.47 KCAL/MOL
REMARK 922        TOTAL FREE ENERGY PREDICTED BY IDOCK:   -2.61 KCAL/MOL
REMARK 923 INTER-LIGAND FREE ENERGY PREDICTED BY IDOCK:   -2.61 KCAL/MOL
REMARK 924 INTRA-LIGAND FREE ENERGY PREDICTED BY IDOCK:    0.00 KCAL/MOL
REMARK 927      BINDING AFFINITY PREDICTED BY RF-SCORE:    0.00 PKD
ROOT
HETATM    1  C   UNL     1     -11.513  13.400  62.929  1.00  0.00     1.313 C  
HETATM    2  C   UNL     1     -10.578  12.686  63.911  1.00  0.00    -0.460 C  
HETATM    3  C   UNL     1     -11.241  12.405  65.283  1.00  0.00    -0.318 C  
HETATM    4  C   UNL     1     -10.040  11.400  63.269  1.00  0.00    -0.424 C  
HETATM    5  H1  UNL     1     -12.844  11.322  66.048  1.00  0.00     0.000 HD 
HETATM    6  N   UNL     1     -12.409  11.507  65.145  1.00  0.00     0.303 NA 
HETATM    7  H2  UNL     1     -12.159  10.641  64.666  1.00  0.00     0.000 HD 
ENDROOT
BRANCH   3   8
HETATM    8  C   UNL     1     -11.666  13.700  66.015  1.00  0.00    -0.358 C  
HETATM    9  O   UNL     1     -12.708  14.312  65.814  1.00  0.00    -0.464 OA 
BRANCH   8  10
HETATM   10  O   UNL     1     -10.756  14.043  66.972  1.00  0.00    -0.281 OA 
BRANCH  10  11
HETATM   11  C   UNL     1      -9.559  14.670  66.468  1.00  0.00    -0.289 C  
BRANCH  11  12
HETATM   12  C   UNL     1      -8.734  15.251  67.618  1.00  0.00    -0.172 C  
BRANCH  12  13
HETATM   13  O   UNL     1      -7.852  14.229  68.090  1.00  0.00    -0.118 OA 
BRANCH  13  14
HETATM   14  C   UNL     1      -8.554  13.034  68.434  1.00  0.00    -0.116 C  
BRANCH  14  15
HETATM   15  N   UNL     1      -7.630  11.914  68.435  1.00  0.00    -0.114 NA 
HETATM   16  C   UNL     1      -6.379  11.924  69.011  1.00  0.00    -0.080 A  
HETATM   17  N   UNL     1      -5.768  10.759  68.895  1.00  0.00    -0.041 NA 
HETATM   18  C   UNL     1      -6.662   9.953  68.219  1.00  0.00    -0.060 A  
HETATM   19  C   UNL     1      -7.791  10.666  67.926  1.00  0.00    -0.105 A  
HETATM   20  N   UNL     1      -8.830  10.134  67.273  1.00  0.00    -0.132 NA 
HETATM   21  C   UNL     1      -8.742   8.806  66.953  1.00  0.00    -0.127 C  
HETATM   22  N   UNL     1      -9.862   8.322  66.359  1.00  0.00    -0.381 NA 
HETATM   23  N   UNL     1      -7.723   8.031  67.180  1.00  0.00    -0.099 N  
HETATM   24  H2  UNL     1     -10.688   8.890  66.169  1.00  0.00     0.000 HD 
HETATM   25  H1  UNL     1      -9.796   7.332  66.121  1.00  0.00     0.000 HD 
HETATM   26  C   UNL     1      -6.580   8.540  67.817  1.00  0.00    -0.062 C  
HETATM   27  H   UNL     1      -7.754   7.052  66.894  1.00  0.00     0.000 HD 
HETATM   28  O   UNL     1      -5.585   7.855  68.024  1.00  0.00    -0.031 OA 
ENDBRANCH  14  15
ENDBRANCH  13  14
ENDBRANCH  12  13
ENDBRANCH  11  12
ENDBRANCH  10  11
ENDBRANCH   8  10
ENDBRANCH   3   8
TORSDOF 7
ENDMDL
MODEL      389
REMARK 921   NORMALIZED FREE ENERGY PREDICTED BY IDOCK:   -1.36 KCAL/MOL
REMARK 922        TOTAL FREE ENERGY PREDICTED BY IDOCK:   -2.46 KCAL/MOL
REMARK 923 INTER-LIGAND FREE ENERGY PREDICTED BY IDOCK:   -2.52 KCAL/MOL
REMARK 924 INTRA-LIGAND FREE ENERGY PREDICTED BY IDOCK:    0.07 KCAL/MOL
REMARK 927      BINDING AFFINITY PREDICTED BY RF-SCORE:    0.00 PKD
ROOT
HETATM    1  C   UNL     1     -11.645  15.800  71.829  1.00  0.00    -0.541 C  
HETATM    2  C   UNL     1     -12.976  15.800  71.070  1.00  0.00    -0.377 C  
HETATM    3  C   UNL     1     -13.284  14.443  70.388  1.00  0.00     0.070 C  
HETATM    4  C   UNL     1     -14.107  16.230  72.012  1.00  0.00     1.109 C  
HETATM    5  H1  UNL     1     -13.616  12.463  70.935  1.00  0.00     0.000 HD 
HETATM    6  N   UNL     1     -13.413  13.355  71.383  1.00  0.00    -0.196 NA 
HETATM    7  H2  UNL     1     -14.107  13.582  72.097  1.00  0.00     0.000 HD 
ENDROOT
BRANCH   3   8
HETATM    8  C   UNL     1     -12.227  14.054  69.329  1.00  0.00    -0.278 C  
HETATM    9  O   UNL     1     -11.544  13.036  69.357  1.00  0.00    -0.281 OA 
BRANCH   8  10
HETATM   10  O   UNL     1     -12.195  14.963  68.312  1.00  0.00    -0.170 OA 
BRANCH  10  11
HETATM   11  C   UNL     1     -10.875  15.416  67.949  1.00  0.00    -0.300 C  
BRANCH  11  12
HETATM   12  C   UNL     1     -10.230  14.447  66.957  1.00  0.00    -0.263 C  
BRANCH  12  13
HETATM   13  O   UNL     1      -9.408  13.540  67.696  1.00  0.00    -0.201 OA 
BRANCH  13  14
HETATM   14  C   UNL     1      -8.022  13.871  67.599  1.00  0.00    -0.175 C  
BRANCH  14  15
HETATM   15  N   UNL     1      -7.234  12.860  68.279  1.00  0.00    -0.102 NA 
HETATM   16  C   UNL     1      -6.377  13.103  69.330  1.00  0.00    -0.111 A  
HETATM   17  N   UNL     1      -5.816  11.996  69.782  1.00  0.00    -0.111 NA 
HETATM   18  C   UNL     1      -6.332  10.988  68.994  1.00  0.00    -0.048 A  
HETATM   19  C   UNL     1      -7.185  11.521  68.067  1.00  0.00    -0.085 A  
HETATM   20  N   UNL     1      -7.833  10.771  67.168  1.00  0.00    -0.120 NA 
HETATM   21  C   UNL     1      -7.651   9.417  67.250  1.00  0.00    -0.091 C  
HETATM   22  N   UNL     1      -8.396   8.720  66.355  1.00  0.00    -0.113 NA 
HETATM   23  N   UNL     1      -6.868   8.799  68.085  1.00  0.00    -0.068 N  
HETATM   24  H2  UNL     1      -9.029   9.161  65.688  1.00  0.00     0.000 HD 
HETATM   25  H1  UNL     1      -8.260   7.711  66.416  1.00  0.00     0.000 HD 
HETATM   26  C   UNL     1      -6.121   9.532  69.021  1.00  0.00    -0.042 C  
HETATM   27  H   UNL     1      -6.797   7.782  68.060  1.00  0.00     0.000 HD 
HETATM   28  O   UNL     1      -5.349   8.995  69.808  1.00  0.00    -0.029 OA 
ENDBRANCH  14  15
ENDBRANCH  13  14
ENDBRANCH  12  13
ENDBRANCH  11  12
ENDBRANCH  10  11
ENDBRANCH   8  10
ENDBRANCH   3   8
TORSDOF 7
ENDMDL
MODEL      390
REMARK 921   NORMALIZED FREE ENERGY PREDICTED BY IDOCK:   -1.03 KCAL/MOL
REMARK 922        TOTAL FREE ENERGY PREDICTED BY IDOCK:   -1.99 KCAL/MOL
REMARK 923 INTER-LIGAND FREE ENERGY PREDICTED BY IDOCK:   -3.43 KCAL/MOL
REMARK 924 INTRA-LIGAND FREE ENERGY PREDICTED BY IDOCK:    1.44 KCAL/MOL
REMARK 927      BINDING AFFINITY PREDICTED BY RF-SCORE:    0.00 PKD
ROOT
HETATM    1  C   UNL     1      -7.630  14.565  69.074  1.00  0.00    -0.124 C  
HETATM    2  C   UNL     1      -6.807  15.180  67.936  1.00  0.00    -0.171 C  
HETATM    3  C   UNL     1      -7.511  16.385  67.263  1.00  0.00    -0.169 C  
HETATM    4  C   UNL     1      -5.412  15.555  68.453  1.00  0.00    -0.105 C  
HETATM    5  H1  UNL     1      -8.185  18.285  67.778  1.00  0.00     0.000 HD 
HETATM    6  N   UNL     1      -7.723  17.492  68.222  1.00  0.00    -0.237 NA 
HETATM    7  H2  UNL     1      -6.849  17.771  68.669  1.00  0.00     0.000 HD 
ENDROOT
BRANCH   3   8
HETATM    8  C   UNL     1      -8.858  16.000  66.609  1.00  0.00    -0.272 C  
HETATM    9  O   UNL     1      -9.964  16.240  67.082  1.00  0.00    -0.246 OA 
BRANCH   8  10
HETATM   10  O   UNL     1      -8.663  15.411  65.394  1.00  0.00     0.773 OA 
BRANCH  10  11
HETATM   11  C   UNL     1      -9.758  14.592  64.937  1.00  0.00     0.323 C  
BRANCH  11  12
HETATM   12  C   UNL     1     -10.171  13.595  66.022  1.00  0.00    -0.307 C  
BRANCH  12  13
HETATM   13  O   UNL     1     -11.026  14.275  66.945  1.00  0.00    -0.294 OA 
BRANCH  13  14
HETATM   14  C   UNL     1     -12.091  13.442  67.403  1.00  0.00    -0.293 C  
BRANCH  14  15
HETATM   15  N   UNL     1     -12.457  13.822  68.755  1.00  0.00     0.018 NA 
HETATM   16  C   UNL     1     -12.773  15.101  69.157  1.00  0.00     0.369 A  
HETATM   17  N   UNL     1     -13.102  15.154  70.435  1.00  0.00    -0.254 NA 
HETATM   18  C   UNL     1     -13.000  13.853  70.884  1.00  0.00    -0.246 A  
HETATM   19  C   UNL     1     -12.590  13.045  69.860  1.00  0.00     0.156 A  
HETATM   20  N   UNL     1     -12.407  11.728  70.010  1.00  0.00    -0.204 NA 
HETATM   21  C   UNL     1     -12.707  11.201  71.236  1.00  0.00    -0.426 C  
HETATM   22  N   UNL     1     -12.567   9.852  71.290  1.00  0.00    -0.352 NA 
HETATM   23  N   UNL     1     -13.103  11.868  72.280  1.00  0.00    -0.388 N  
HETATM   24  H2  UNL     1     -12.268   9.287  70.494  1.00  0.00     0.000 HD 
HETATM   25  H1  UNL     1     -12.791   9.459  72.203  1.00  0.00     0.000 HD 
HETATM   26  C   UNL     1     -13.266  13.260  72.204  1.00  0.00    -0.464 C  
HETATM   27  H   UNL     1     -13.295  11.379  73.155  1.00  0.00     0.000 HD 
HETATM   28  O   UNL     1     -13.608  13.934  73.170  1.00  0.00    -0.513 OA 
ENDBRANCH  14  15
ENDBRANCH  13  14
ENDBRANCH  12  13
ENDBRANCH  11  12
ENDBRANCH  10  11
ENDBRANCH   8  10
ENDBRANCH   3   8
TORSDOF 7
ENDMDL
MODEL      391
REMARK 921   NORMALIZED FREE ENERGY PREDICTED BY IDOCK:    0.75 KCAL/MOL
REMARK 922        TOTAL FREE ENERGY PREDICTED BY IDOCK:    0.51 KCAL/MOL
REMARK 923 INTER-LIGAND FREE ENERGY PREDICTED BY IDOCK:   -1.84 KCAL/MOL
REMARK 924 INTRA-LIGAND FREE ENERGY PREDICTED BY IDOCK:    2.35 KCAL/MOL
REMARK 927      BINDING AFFINITY PREDICTED BY RF-SCORE:    0.00 PKD
ROOT
HETATM    1  C   UNL     1     -10.992   7.638  67.562  1.00  0.00    -0.086 C  
HETATM    2  C   UNL     1      -9.704   7.655  68.391  1.00  0.00    -0.164 C  
HETATM    3  C   UNL     1      -8.882   8.955  68.206  1.00  0.00    -0.134 C  
HETATM    4  C   UNL     1     -10.038   7.402  69.868  1.00  0.00    -0.195 C  
HETATM    5  H1  UNL     1      -9.099  10.998  68.534  1.00  0.00     0.000 HD 
HETATM    6  N   UNL     1      -9.640  10.143  68.655  1.00  0.00    -0.157 NA 
HETATM    7  H2  UNL     1      -9.963  10.039  69.618  1.00  0.00     0.000 HD 
ENDROOT
BRANCH   3   8
HETATM    8  C   UNL     1      -8.412   9.160  66.747  1.00  0.00    -0.123 C  
HETATM    9  O   UNL     1      -8.959   8.685  65.758  1.00  0.00    -0.184 OA 
BRANCH   8  10
HETATM   10  O   UNL     1      -7.340  10.002  66.692  1.00  0.00    -0.099 OA 
BRANCH  10  11
HETATM   11  C   UNL     1      -6.059   9.358  66.845  1.00  0.00    -0.064 C  
BRANCH  11  12
HETATM   12  C   UNL     1      -5.757   9.111  68.325  1.00  0.00    -0.038 C  
BRANCH  12  13
HETATM   13  O   UNL     1      -6.492  10.069  69.091  1.00  0.00    -0.047 OA 
BRANCH  13  14
HETATM   14  C   UNL     1      -5.718  10.604  70.165  1.00  0.00    -0.076 C  
BRANCH  14  15
HETATM   15  N   UNL     1      -5.682   9.651  71.259  1.00  0.00    -0.073 NA 
HETATM   16  C   UNL     1      -5.354   9.957  72.561  1.00  0.00     0.090 A  
HETATM   17  N   UNL     1      -5.438   8.906  73.356  1.00  0.00    -0.097 NA 
HETATM   18  C   UNL     1      -5.842   7.871  72.537  1.00  0.00    -0.041 A  
HETATM   19  C   UNL     1      -5.975   8.326  71.255  1.00  0.00    -0.035 A  
HETATM   20  N   UNL     1      -6.358   7.536  70.245  1.00  0.00    -0.034 NA 
HETATM   21  C   UNL     1      -6.674   6.242  70.562  1.00  0.00    -0.053 C  
HETATM   22  N   UNL     1      -7.124   5.524  69.501  1.00  0.00    -0.062 NA 
HETATM   23  N   UNL     1      -6.587   5.700  71.741  1.00  0.00    -0.051 N  
HETATM   24  H2  UNL     1      -7.217   5.910  68.561  1.00  0.00     0.000 HD 
HETATM   25  H1  UNL     1      -7.359   4.560  69.737  1.00  0.00     0.000 HD 
HETATM   26  C   UNL     1      -6.143   6.461  72.833  1.00  0.00    -0.054 C  
HETATM   27  H   UNL     1      -6.841   4.720  71.871  1.00  0.00     0.000 HD 
HETATM   28  O   UNL     1      -6.016   5.984  73.956  1.00  0.00    -0.059 OA 
ENDBRANCH  14  15
ENDBRANCH  13  14
ENDBRANCH  12  13
ENDBRANCH  11  12
ENDBRANCH  10  11
ENDBRANCH   8  10
ENDBRANCH   3   8
TORSDOF 7
ENDMDL
MODEL      392
REMARK 921   NORMALIZED FREE ENERGY PREDICTED BY IDOCK:   12.27 KCAL/MOL
REMARK 922        TOTAL FREE ENERGY PREDICTED BY IDOCK:   16.76 KCAL/MOL
REMARK 923 INTER-LIGAND FREE ENERGY PREDICTED BY IDOCK:   15.46 KCAL/MOL
REMARK 924 INTRA-LIGAND FREE ENERGY PREDICTED BY IDOCK:    1.30 KCAL/MOL
REMARK 927      BINDING AFFINITY PREDICTED BY RF-SCORE:    0.00 PKD
ROOT
HETATM    1  C   UNL     1      -7.700  15.240  69.590  1.00  0.00    -0.161 C  
HETATM    2  C   UNL     1      -6.433  15.769  68.908  1.00  0.00    -0.116 C  
HETATM    3  C   UNL     1      -6.707  16.974  67.973  1.00  0.00    -0.149 C  
HETATM    4  C   UNL     1      -5.378  16.105  69.970  1.00  0.00    -0.154 C  
HETATM    5  H1  UNL     1      -7.426  18.922  68.109  1.00  0.00     0.000 HD 
HETATM    6  N   UNL     1      -7.246  18.129  68.724  1.00  0.00    -0.276 NA 
HETATM    7  H2  UNL     1      -6.636  18.389  69.500  1.00  0.00     0.000 HD 
ENDROOT
BRANCH   3   8
HETATM    8  C   UNL     1      -7.661  16.620  66.809  1.00  0.00    -0.257 C  
HETATM    9  O   UNL     1      -8.858  16.882  66.776  1.00  0.00    -0.210 OA 
BRANCH   8  10
HETATM   10  O   UNL     1      -6.984  16.031  65.782  1.00  0.00     1.394 OA 
BRANCH  10  11
HETATM   11  C   UNL     1      -7.760  15.098  65.003  1.00  0.00     8.666 C  
BRANCH  11  12
HETATM   12  C   UNL     1      -8.373  14.026  65.906  1.00  0.00     1.834 C  
BRANCH  12  13
HETATM   13  O   UNL     1      -9.353  14.655  66.736  1.00  0.00    -0.232 OA 
BRANCH  13  14
HETATM   14  C   UNL     1     -10.412  13.763  67.086  1.00  0.00    -0.272 C  
BRANCH  14  15
HETATM   15  N   UNL     1     -10.747  13.935  68.488  1.00  0.00    -0.251 NA 
HETATM   16  C   UNL     1     -10.666  12.947  69.445  1.00  0.00     0.196 A  
HETATM   17  N   UNL     1     -10.996  13.389  70.645  1.00  0.00     1.306 NA 
HETATM   18  C   UNL     1     -11.302  14.722  70.463  1.00  0.00    -0.195 A  
HETATM   19  C   UNL     1     -11.164  15.048  69.142  1.00  0.00    -0.281 A  
HETATM   20  N   UNL     1     -11.395  16.281  68.676  1.00  0.00    -0.361 NA 
HETATM   21  C   UNL     1     -11.726  17.236  69.598  1.00  0.00     2.088 C  
HETATM   22  N   UNL     1     -11.873  18.474  69.061  1.00  0.00     3.160 NA 
HETATM   23  N   UNL     1     -11.886  17.044  70.874  1.00  0.00     0.579 N  
HETATM   24  H2  UNL     1     -11.749  18.672  68.068  1.00  0.00     0.000 HD 
HETATM   25  H1  UNL     1     -12.119  19.185  69.748  1.00  0.00     0.000 HD 
HETATM   26  C   UNL     1     -11.708  15.763  71.420  1.00  0.00    -0.445 C  
HETATM   27  H   UNL     1     -12.141  17.825  71.479  1.00  0.00     0.000 HD 
HETATM   28  O   UNL     1     -11.877  15.529  72.612  1.00  0.00    -0.406 OA 
ENDBRANCH  14  15
ENDBRANCH  13  14
ENDBRANCH  12  13
ENDBRANCH  11  12
ENDBRANCH  10  11
ENDBRANCH   8  10
ENDBRANCH   3   8
TORSDOF 7
ENDMDL
MODEL      393
REMARK 921   NORMALIZED FREE ENERGY PREDICTED BY IDOCK:   26.11 KCAL/MOL
REMARK 922        TOTAL FREE ENERGY PREDICTED BY IDOCK:   36.25 KCAL/MOL
REMARK 923 INTER-LIGAND FREE ENERGY PREDICTED BY IDOCK:   13.51 KCAL/MOL
REMARK 924 INTRA-LIGAND FREE ENERGY PREDICTED BY IDOCK:   22.74 KCAL/MOL
REMARK 927      BINDING AFFINITY PREDICTED BY RF-SCORE:    0.00 PKD
ROOT
HETATM    1  C   UNL     1      -8.067  15.522  69.812  1.00  0.00     0.003 C  
HETATM    2  C   UNL     1      -6.831  16.425  69.738  1.00  0.00     0.008 C  
HETATM    3  C   UNL     1      -7.083  17.733  68.946  1.00  0.00    -0.262 C  
HETATM    4  C   UNL     1      -6.317  16.712  71.155  1.00  0.00     1.861 C  
HETATM    5  H1  UNL     1      -8.290  19.423  69.069  1.00  0.00     0.000 HD 
HETATM    6  N   UNL     1      -8.125  18.563  69.590  1.00  0.00     0.552 NA 
HETATM    7  H2  UNL     1      -7.898  18.755  70.567  1.00  0.00     0.000 HD 
ENDROOT
BRANCH   3   8
HETATM    8  C   UNL     1      -7.468  17.471  67.471  1.00  0.00    -0.188 C  
HETATM    9  O   UNL     1      -8.413  17.991  66.887  1.00  0.00    -0.234 OA 
BRANCH   8  10
HETATM   10  O   UNL     1      -6.575  16.631  66.873  1.00  0.00    -0.187 OA 
BRANCH  10  11
HETATM   11  C   UNL     1      -7.156  15.442  66.300  1.00  0.00     2.108 C  
BRANCH  11  12
HETATM   12  C   UNL     1      -8.216  14.858  67.235  1.00  0.00    -0.209 C  
BRANCH  12  13
HETATM   13  O   UNL     1      -8.763  15.930  68.007  1.00  0.00    -0.167 OA 
BRANCH  13  14
HETATM   14  C   UNL     1     -10.188  15.868  68.076  1.00  0.00    -0.238 C  
BRANCH  14  15
HETATM   15  N   UNL     1     -10.749  17.145  67.675  1.00  0.00    -0.336 NA 
HETATM   16  C   UNL     1     -11.930  17.672  68.149  1.00  0.00     2.250 A  
HETATM   17  N   UNL     1     -12.182  18.864  67.641  1.00  0.00     2.820 NA 
HETATM   18  C   UNL     1     -11.118  19.127  66.802  1.00  0.00     0.008 A  
HETATM   19  C   UNL     1     -10.254  18.068  66.813  1.00  0.00    -0.364 A  
HETATM   20  N   UNL     1      -9.128  18.049  66.089  1.00  0.00    -0.504 NA 
HETATM   21  C   UNL     1      -8.842  19.176  65.368  1.00  0.00     1.241 C  
HETATM   22  N   UNL     1      -7.651  19.110  64.720  1.00  0.00     0.960 NA 
HETATM   23  N   UNL     1      -9.585  20.240  65.281  1.00  0.00    -0.068 N  
HETATM   24  H2  UNL     1      -7.031  18.301  64.765  1.00  0.00     0.000 HD 
HETATM   25  H1  UNL     1      -7.437  19.950  64.182  1.00  0.00     0.000 HD 
HETATM   26  C   UNL     1     -10.803  20.303  65.976  1.00  0.00     0.139 C  
HETATM   27  H   UNL     1      -9.283  21.028  64.708  1.00  0.00     0.000 HD 
HETATM   28  O   UNL     1     -11.551  21.272  65.900  1.00  0.00     4.316 OA 
ENDBRANCH  14  15
ENDBRANCH  13  14
ENDBRANCH  12  13
ENDBRANCH  11  12
ENDBRANCH  10  11
ENDBRANCH   8  10
ENDBRANCH   3   8
TORSDOF 7
ENDMDL
